MODEL 1
REMARK VINA RESULT:    -6.641      0.000      0.000
REMARK INTER + INTRA:         -11.415
REMARK INTER:                 -10.329
REMARK INTRA:                  -1.085
REMARK UNBOUND:                -1.085
REMARK SMILES C[C@@]12C[C@@H](O)[C@H]3C[C@]1(O[C@@H]1O[C@@H](CO)[C@@H](O)[C@@H](O)[C@H]1O)[C@@]3(COC(=O)c1ccccc1)C(=O)O2
REMARK SMILES IDX 1 1 2 2 3 3 4 4 6 5 7 6 8 7 21 8 32 9 33 10 34 11 9 12 10 13
REMARK SMILES IDX 19 14 11 15 17 16 12 17 15 18 20 19 18 21 13 23 14 24 16 26
REMARK SMILES IDX 5 28 22 30 23 31 24 32 25 33 26 34 27 35 31 36 28 37 30 38
REMARK SMILES IDX 29 39
REMARK H PARENT 20 20 18 22 14 25 16 27 5 29
REMARK Flexibility Score: inf
ROOT
ATOM      1  C   UNL     1     -19.391  10.246  -8.762  1.00  0.00     0.060 C 
ATOM      2  C   UNL     1     -18.445  11.224  -9.459  1.00  0.00     0.142 C 
ATOM      3  C   UNL     1     -18.928  11.562 -10.913  1.00  0.00     0.083 C 
ATOM      4  C   UNL     1     -18.158  12.806 -11.486  1.00  0.00     0.123 C 
ATOM      5  C   UNL     1     -17.693  13.748 -10.324  1.00  0.00     0.045 C 
ATOM      6  C   UNL     1     -18.838  13.807  -9.301  1.00  0.00     0.049 C 
ATOM      7  C   UNL     1     -18.178  12.563  -8.645  1.00  0.00     0.131 C 
ATOM      8  C   UNL     1     -16.838  12.971  -9.274  1.00  0.00     0.140 C 
ATOM      9  C   UNL     1     -16.227  11.661  -9.646  1.00  0.00     0.319 C 
ATOM     10  O   UNL     1     -15.025  11.484  -9.974  1.00  0.00    -0.251 OA
ATOM     11  O   UNL     1     -17.156  10.649  -9.607  1.00  0.00    -0.456 OA
ENDROOT
BRANCH   7  12
ATOM     12  O   UNL     1     -18.085  12.356  -7.231  1.00  0.00    -0.338 OA
BRANCH  12  13
ATOM     13  C   UNL     1     -18.934  13.155  -6.419  1.00  0.00     0.282 C 
ATOM     14  C   UNL     1     -19.975  12.309  -5.629  1.00  0.00     0.202 C 
ATOM     15  O   UNL     1     -18.146  13.944  -5.540  1.00  0.00    -0.341 OA
ATOM     16  C   UNL     1     -19.324  11.537  -4.463  1.00  0.00     0.179 C 
ATOM     17  C   UNL     1     -17.407  13.146  -4.629  1.00  0.00     0.178 C 
ATOM     18  C   UNL     1     -18.358  12.425  -3.654  1.00  0.00     0.177 C 
BRANCH  14  19
ATOM     19  O   UNL     1     -21.039  13.111  -5.176  1.00  0.00    -0.385 OA
ATOM     20  H   UNL     1     -21.410  13.606  -5.950  1.00  0.00     0.211 HD
ENDBRANCH  14  19
BRANCH  16  21
ATOM     21  O   UNL     1     -20.318  10.995  -3.633  1.00  0.00    -0.387 OA
ATOM     22  H   UNL     1     -20.803  11.761  -3.227  1.00  0.00     0.211 HD
ENDBRANCH  16  21
BRANCH  17  23
ATOM     23  C   UNL     1     -16.416  14.042  -3.871  1.00  0.00     0.191 C 
BRANCH  23  24
ATOM     24  O   UNL     1     -17.057  15.202  -3.411  1.00  0.00    -0.394 OA
ATOM     25  H   UNL     1     -17.206  15.781  -4.204  1.00  0.00     0.210 HD
ENDBRANCH  23  24
ENDBRANCH  17  23
BRANCH  18  26
ATOM     26  O   UNL     1     -19.065  13.365  -2.885  1.00  0.00    -0.387 OA
ATOM     27  H   UNL     1     -19.079  14.211  -3.404  1.00  0.00     0.211 HD
ENDBRANCH  18  26
ENDBRANCH  12  13
ENDBRANCH   7  12
BRANCH   4  28
ATOM     28  O   UNL     1     -18.994  13.505 -12.371  1.00  0.00    -0.393 OA
ATOM     29  H   UNL     1     -18.477  14.288 -12.693  1.00  0.00     0.210 HD
ENDBRANCH   4  28
BRANCH   8  30
ATOM     30  C   UNL     1     -15.932  13.860  -8.398  1.00  0.00     0.255 C 
BRANCH  30  31
ATOM     31  O   UNL     1     -15.080  14.637  -9.233  1.00  0.00    -0.461 OA
BRANCH  31  32
ATOM     32  C   UNL     1     -14.520  15.851  -8.824  1.00  0.00     0.338 C 
ATOM     33  O   UNL     1     -14.229  16.733  -9.678  1.00  0.00    -0.246 OA
BRANCH  32  34
ATOM     34  C   UNL     1     -14.275  16.097  -7.386  1.00  0.00     0.060 A 
ATOM     35  C   UNL     1     -15.120  16.957  -6.660  1.00  0.00     0.015 A 
ATOM     36  C   UNL     1     -13.194  15.484  -6.725  1.00  0.00     0.015 A 
ATOM     37  C   UNL     1     -14.886  17.197  -5.303  1.00  0.00     0.001 A 
ATOM     38  C   UNL     1     -12.966  15.728  -5.367  1.00  0.00     0.001 A 
ATOM     39  C   UNL     1     -13.811  16.584  -4.657  1.00  0.00     0.000 A 
ENDBRANCH  32  34
ENDBRANCH  31  32
ENDBRANCH  30  31
ENDBRANCH   8  30
TORSDOF 12
ENDMDL
MODEL 2
REMARK VINA RESULT:    -6.564      2.117      5.584
REMARK INTER + INTRA:         -11.294
REMARK INTER:                 -10.327
REMARK INTRA:                  -0.968
REMARK UNBOUND:                -1.085
REMARK SMILES C[C@@]12C[C@@H](O)[C@H]3C[C@]1(O[C@@H]1O[C@@H](CO)[C@@H](O)[C@@H](O)[C@H]1O)[C@@]3(COC(=O)c1ccccc1)C(=O)O2
REMARK SMILES IDX 1 1 2 2 3 3 4 4 6 5 7 6 8 7 21 8 32 9 33 10 34 11 9 12 10 13
REMARK SMILES IDX 19 14 11 15 17 16 12 17 15 18 20 19 18 21 13 23 14 24 16 26
REMARK SMILES IDX 5 28 22 30 23 31 24 32 25 33 26 34 27 35 31 36 28 37 30 38
REMARK SMILES IDX 29 39
REMARK H PARENT 20 20 18 22 14 25 16 27 5 29
REMARK Flexibility Score: inf
ROOT
ATOM      1  C   UNL     1     -20.916  14.893  -7.465  1.00  0.00     0.060 C 
ATOM      2  C   UNL     1     -19.772  15.197  -6.498  1.00  0.00     0.142 C 
ATOM      3  C   UNL     1     -20.244  15.131  -5.003  1.00  0.00     0.083 C 
ATOM      4  C   UNL     1     -19.013  15.105  -4.026  1.00  0.00     0.123 C 
ATOM      5  C   UNL     1     -17.766  14.467  -4.729  1.00  0.00     0.045 C 
ATOM      6  C   UNL     1     -18.271  13.273  -5.553  1.00  0.00     0.049 C 
ATOM      7  C   UNL     1     -18.484  14.290  -6.707  1.00  0.00     0.131 C 
ATOM      8  C   UNL     1     -17.431  15.204  -6.064  1.00  0.00     0.140 C 
ATOM      9  C   UNL     1     -17.978  16.572  -6.307  1.00  0.00     0.319 C 
ATOM     10  O   UNL     1     -17.339  17.647  -6.168  1.00  0.00    -0.251 OA
ATOM     11  O   UNL     1     -19.297  16.520  -6.692  1.00  0.00    -0.456 OA
ENDROOT
BRANCH   7  12
ATOM     12  O   UNL     1     -18.207  14.011  -8.084  1.00  0.00    -0.338 OA
BRANCH  12  13
ATOM     13  C   UNL     1     -18.567  12.719  -8.552  1.00  0.00     0.282 C 
ATOM     14  C   UNL     1     -19.379  12.768  -9.879  1.00  0.00     0.202 C 
ATOM     15  O   UNL     1     -17.401  11.922  -8.696  1.00  0.00    -0.341 OA
ATOM     16  C   UNL     1     -18.486  13.126 -11.086  1.00  0.00     0.179 C 
ATOM     17  C   UNL     1     -16.523  12.441  -9.683  1.00  0.00     0.178 C 
ATOM     18  C   UNL     1     -17.165  12.333 -11.079  1.00  0.00     0.177 C 
BRANCH  14  19
ATOM     19  O   UNL     1     -20.065  11.558 -10.097  1.00  0.00    -0.385 OA
ATOM     20  H   UNL     1     -21.001  11.770 -10.348  1.00  0.00     0.211 HD
ENDBRANCH  14  19
BRANCH  16  21
ATOM     21  O   UNL     1     -19.191  12.916 -12.281  1.00  0.00    -0.387 OA
ATOM     22  H   UNL     1     -19.972  12.345 -12.058  1.00  0.00     0.211 HD
ENDBRANCH  16  21
BRANCH  17  23
ATOM     23  C   UNL     1     -15.196  11.670  -9.625  1.00  0.00     0.191 C 
BRANCH  23  24
ATOM     24  O   UNL     1     -15.433  10.288  -9.598  1.00  0.00    -0.394 OA
ATOM     25  H   UNL     1     -15.713  10.063  -8.673  1.00  0.00     0.210 HD
ENDBRANCH  23  24
ENDBRANCH  17  23
BRANCH  18  26
ATOM     26  O   UNL     1     -17.388  10.984 -11.406  1.00  0.00    -0.387 OA
ATOM     27  H   UNL     1     -17.411  10.480 -10.552  1.00  0.00     0.211 HD
ENDBRANCH  18  26
ENDBRANCH  12  13
ENDBRANCH   7  12
BRANCH   4  28
ATOM     28  O   UNL     1     -19.346  14.374  -2.875  1.00  0.00    -0.393 OA
ATOM     29  H   UNL     1     -19.826  13.562  -3.182  1.00  0.00     0.210 HD
ENDBRANCH   4  28
BRANCH   8  30
ATOM     30  C   UNL     1     -15.984  15.010  -6.560  1.00  0.00     0.255 C 
BRANCH  30  31
ATOM     31  O   UNL     1     -15.098  15.773  -5.749  1.00  0.00    -0.461 OA
BRANCH  31  32
ATOM     32  C   UNL     1     -14.055  16.538  -6.279  1.00  0.00     0.338 C 
ATOM     33  O   UNL     1     -13.117  16.932  -5.532  1.00  0.00    -0.246 OA
BRANCH  32  34
ATOM     34  C   UNL     1     -14.054  16.880  -7.717  1.00  0.00     0.060 A 
ATOM     35  C   UNL     1     -14.832  17.953  -8.191  1.00  0.00     0.015 A 
ATOM     36  C   UNL     1     -13.285  16.138  -8.634  1.00  0.00     0.015 A 
ATOM     37  C   UNL     1     -14.839  18.274  -9.552  1.00  0.00     0.001 A 
ATOM     38  C   UNL     1     -13.295  16.465  -9.993  1.00  0.00     0.001 A 
ATOM     39  C   UNL     1     -14.072  17.531 -10.452  1.00  0.00     0.000 A 
ENDBRANCH  32  34
ENDBRANCH  31  32
ENDBRANCH  30  31
ENDBRANCH   8  30
TORSDOF 12
ENDMDL
MODEL 3
REMARK VINA RESULT:    -6.080      1.864      6.781
REMARK INTER + INTRA:         -10.543
REMARK INTER:                  -9.841
REMARK INTRA:                  -0.701
REMARK UNBOUND:                -1.085
REMARK SMILES C[C@@]12C[C@@H](O)[C@H]3C[C@]1(O[C@@H]1O[C@@H](CO)[C@@H](O)[C@@H](O)[C@H]1O)[C@@]3(COC(=O)c1ccccc1)C(=O)O2
REMARK SMILES IDX 1 1 2 2 3 3 4 4 6 5 7 6 8 7 21 8 32 9 33 10 34 11 9 12 10 13
REMARK SMILES IDX 19 14 11 15 17 16 12 17 15 18 20 19 18 21 13 23 14 24 16 26
REMARK SMILES IDX 5 28 22 30 23 31 24 32 25 33 26 34 27 35 31 36 28 37 30 38
REMARK SMILES IDX 29 39
REMARK H PARENT 20 20 18 22 14 25 16 27 5 29
REMARK Flexibility Score: inf
ROOT
ATOM      1  C   UNL     1     -16.263  14.157  -2.988  1.00  0.00     0.060 C 
ATOM      2  C   UNL     1     -17.514  13.763  -3.774  1.00  0.00     0.142 C 
ATOM      3  C   UNL     1     -18.807  13.851  -2.889  1.00  0.00     0.083 C 
ATOM      4  C   UNL     1     -20.101  13.780  -3.777  1.00  0.00     0.123 C 
ATOM      5  C   UNL     1     -19.812  14.332  -5.215  1.00  0.00     0.045 C 
ATOM      6  C   UNL     1     -18.911  15.566  -5.056  1.00  0.00     0.049 C 
ATOM      7  C   UNL     1     -17.716  14.576  -5.125  1.00  0.00     0.131 C 
ATOM      8  C   UNL     1     -18.613  13.583  -5.878  1.00  0.00     0.140 C 
ATOM      9  C   UNL     1     -18.181  12.260  -5.337  1.00  0.00     0.319 C 
ATOM     10  O   UNL     1     -18.470  11.140  -5.833  1.00  0.00    -0.251 OA
ATOM     11  O   UNL     1     -17.429  12.410  -4.196  1.00  0.00    -0.456 OA
ENDROOT
BRANCH   7  12
ATOM     12  O   UNL     1     -16.490  14.845  -5.812  1.00  0.00    -0.338 OA
BRANCH  12  13
ATOM     13  C   UNL     1     -16.192  16.212  -6.062  1.00  0.00     0.282 C 
ATOM     14  C   UNL     1     -15.043  16.748  -5.158  1.00  0.00     0.202 C 
ATOM     15  O   UNL     1     -15.885  16.388  -7.437  1.00  0.00    -0.341 OA
ATOM     16  C   UNL     1     -13.667  16.206  -5.597  1.00  0.00     0.179 C 
ATOM     17  C   UNL     1     -14.715  15.680  -7.814  1.00  0.00     0.178 C 
ATOM     18  C   UNL     1     -13.477  16.286  -7.124  1.00  0.00     0.177 C 
BRANCH  14  19
ATOM     19  O   UNL     1     -15.046  18.155  -5.119  1.00  0.00    -0.385 OA
ATOM     20  H   UNL     1     -14.718  18.493  -5.992  1.00  0.00     0.211 HD
ENDBRANCH  14  19
BRANCH  16  21
ATOM     21  O   UNL     1     -12.645  16.900  -4.929  1.00  0.00    -0.387 OA
ATOM     22  H   UNL     1     -11.793  16.440  -5.152  1.00  0.00     0.211 HD
ENDBRANCH  16  21
BRANCH  17  23
ATOM     23  C   UNL     1     -14.573  15.729  -9.343  1.00  0.00     0.191 C 
BRANCH  23  24
ATOM     24  O   UNL     1     -15.084  16.936  -9.844  1.00  0.00    -0.394 OA
ATOM     25  H   UNL     1     -14.761  17.656  -9.242  1.00  0.00     0.210 HD
ENDBRANCH  23  24
ENDBRANCH  17  23
BRANCH  18  26
ATOM     26  O   UNL     1     -13.296  17.617  -7.539  1.00  0.00    -0.387 OA
ATOM     27  H   UNL     1     -12.649  18.029  -6.909  1.00  0.00     0.211 HD
ENDBRANCH  18  26
ENDBRANCH  12  13
ENDBRANCH   7  12
BRANCH   4  28
ATOM     28  O   UNL     1     -21.125  14.524  -3.170  1.00  0.00    -0.393 OA
ATOM     29  H   UNL     1     -21.039  14.382  -2.192  1.00  0.00     0.210 HD
ENDBRANCH   4  28
BRANCH   8  30
ATOM     30  C   UNL     1     -18.568  13.676  -7.417  1.00  0.00     0.255 C 
BRANCH  30  31
ATOM     31  O   UNL     1     -17.425  12.978  -7.900  1.00  0.00    -0.461 OA
BRANCH  31  32
ATOM     32  C   UNL     1     -17.287  12.582  -9.234  1.00  0.00     0.338 C 
ATOM     33  O   UNL     1     -16.198  12.773  -9.841  1.00  0.00    -0.246 OA
BRANCH  32  34
ATOM     34  C   UNL     1     -18.422  11.934  -9.927  1.00  0.00     0.060 A 
ATOM     35  C   UNL     1     -19.369  11.192  -9.196  1.00  0.00     0.015 A 
ATOM     36  C   UNL     1     -18.569  12.042 -11.323  1.00  0.00     0.015 A 
ATOM     37  C   UNL     1     -20.439  10.573  -9.850  1.00  0.00     0.001 A 
ATOM     38  C   UNL     1     -19.642  11.421 -11.970  1.00  0.00     0.001 A 
ATOM     39  C   UNL     1     -20.575  10.687 -11.235  1.00  0.00     0.000 A 
ENDBRANCH  32  34
ENDBRANCH  31  32
ENDBRANCH  30  31
ENDBRANCH   8  30
TORSDOF 12
ENDMDL
MODEL 4
REMARK VINA RESULT:    -5.846      1.599      5.774
REMARK INTER + INTRA:         -10.178
REMARK INTER:                  -9.135
REMARK INTRA:                  -1.043
REMARK UNBOUND:                -1.085
REMARK SMILES C[C@@]12C[C@@H](O)[C@H]3C[C@]1(O[C@@H]1O[C@@H](CO)[C@@H](O)[C@@H](O)[C@H]1O)[C@@]3(COC(=O)c1ccccc1)C(=O)O2
REMARK SMILES IDX 1 1 2 2 3 3 4 4 6 5 7 6 8 7 21 8 32 9 33 10 34 11 9 12 10 13
REMARK SMILES IDX 19 14 11 15 17 16 12 17 15 18 20 19 18 21 13 23 14 24 16 26
REMARK SMILES IDX 5 28 22 30 23 31 24 32 25 33 26 34 27 35 31 36 28 37 30 38
REMARK SMILES IDX 29 39
REMARK H PARENT 20 20 18 22 14 25 16 27 5 29
REMARK Flexibility Score: inf
ROOT
ATOM      1  C   UNL     1     -17.320  17.269  -5.384  1.00  0.00     0.060 C 
ATOM      2  C   UNL     1     -16.007  16.781  -5.996  1.00  0.00     0.142 C 
ATOM      3  C   UNL     1     -14.763  17.414  -5.280  1.00  0.00     0.083 C 
ATOM      4  C   UNL     1     -13.443  16.660  -5.677  1.00  0.00     0.123 C 
ATOM      5  C   UNL     1     -13.751  15.170  -6.053  1.00  0.00     0.045 C 
ATOM      6  C   UNL     1     -14.801  14.658  -5.054  1.00  0.00     0.049 C 
ATOM      7  C   UNL     1     -15.863  15.199  -6.050  1.00  0.00     0.131 C 
ATOM      8  C   UNL     1     -14.830  15.083  -7.179  1.00  0.00     0.140 C 
ATOM      9  C   UNL     1     -15.114  16.283  -8.021  1.00  0.00     0.319 C 
ATOM     10  O   UNL     1     -14.676  16.478  -9.184  1.00  0.00    -0.251 OA
ATOM     11  O   UNL     1     -15.914  17.181  -7.354  1.00  0.00    -0.456 OA
ENDROOT
BRANCH   7  12
ATOM     12  O   UNL     1     -17.092  14.529  -6.354  1.00  0.00    -0.338 OA
BRANCH  12  13
ATOM     13  C   UNL     1     -17.553  13.588  -5.395  1.00  0.00     0.282 C 
ATOM     14  C   UNL     1     -18.732  14.136  -4.538  1.00  0.00     0.202 C 
ATOM     15  O   UNL     1     -17.914  12.381  -6.048  1.00  0.00    -0.341 OA
ATOM     16  C   UNL     1     -20.048  14.194  -5.343  1.00  0.00     0.179 C 
ATOM     17  C   UNL     1     -19.004  12.565  -6.938  1.00  0.00     0.178 C 
ATOM     18  C   UNL     1     -20.285  12.905  -6.153  1.00  0.00     0.177 C 
BRANCH  14  19
ATOM     19  O   UNL     1     -18.892  13.384  -3.359  1.00  0.00    -0.385 OA
ATOM     20  H   UNL     1     -18.304  13.770  -2.660  1.00  0.00     0.211 HD
ENDBRANCH  14  19
BRANCH  16  21
ATOM     21  O   UNL     1     -21.125  14.449  -4.479  1.00  0.00    -0.387 OA
ATOM     22  H   UNL     1     -21.235  15.436  -4.440  1.00  0.00     0.211 HD
ENDBRANCH  16  21
BRANCH  17  23
ATOM     23  C   UNL     1     -19.190  11.287  -7.770  1.00  0.00     0.191 C 
BRANCH  23  24
ATOM     24  O   UNL     1     -17.962  10.634  -7.948  1.00  0.00    -0.394 OA
ATOM     25  H   UNL     1     -18.149   9.805  -8.460  1.00  0.00     0.210 HD
ENDBRANCH  23  24
ENDBRANCH  17  23
BRANCH  18  26
ATOM     26  O   UNL     1     -20.631  11.838  -5.306  1.00  0.00    -0.387 OA
ATOM     27  H   UNL     1     -20.302  12.070  -4.399  1.00  0.00     0.211 HD
ENDBRANCH  18  26
ENDBRANCH  12  13
ENDBRANCH   7  12
BRANCH   4  28
ATOM     28  O   UNL     1     -12.536  16.710  -4.606  1.00  0.00    -0.393 OA
ATOM     29  H   UNL     1     -12.776  15.967  -3.995  1.00  0.00     0.210 HD
ENDBRANCH   4  28
BRANCH   8  30
ATOM     30  C   UNL     1     -14.839  13.754  -7.960  1.00  0.00     0.255 C 
BRANCH  30  31
ATOM     31  O   UNL     1     -15.252  13.994  -9.301  1.00  0.00    -0.461 OA
BRANCH  31  32
ATOM     32  C   UNL     1     -15.767  12.990 -10.126  1.00  0.00     0.338 C 
ATOM     33  O   UNL     1     -15.008  12.086 -10.572  1.00  0.00    -0.246 OA
BRANCH  32  34
ATOM     34  C   UNL     1     -17.205  12.990 -10.470  1.00  0.00     0.060 A 
ATOM     35  C   UNL     1     -17.761  11.920 -11.198  1.00  0.00     0.015 A 
ATOM     36  C   UNL     1     -18.038  14.058 -10.085  1.00  0.00     0.015 A 
ATOM     37  C   UNL     1     -19.118  11.922 -11.530  1.00  0.00     0.001 A 
ATOM     38  C   UNL     1     -19.395  14.053 -10.420  1.00  0.00     0.001 A 
ATOM     39  C   UNL     1     -19.935  12.987 -11.143  1.00  0.00     0.000 A 
ENDBRANCH  32  34
ENDBRANCH  31  32
ENDBRANCH  30  31
ENDBRANCH   8  30
TORSDOF 12
ENDMDL
MODEL 5
REMARK VINA RESULT:    -5.811      2.057      5.553
REMARK INTER + INTRA:         -10.123
REMARK INTER:                  -9.635
REMARK INTRA:                  -0.488
REMARK UNBOUND:                -1.085
REMARK SMILES C[C@@]12C[C@@H](O)[C@H]3C[C@]1(O[C@@H]1O[C@@H](CO)[C@@H](O)[C@@H](O)[C@H]1O)[C@@]3(COC(=O)c1ccccc1)C(=O)O2
REMARK SMILES IDX 1 1 2 2 3 3 4 4 6 5 7 6 8 7 21 8 32 9 33 10 34 11 9 12 10 13
REMARK SMILES IDX 19 14 11 15 17 16 12 17 15 18 20 19 18 21 13 23 14 24 16 26
REMARK SMILES IDX 5 28 22 30 23 31 24 32 25 33 26 34 27 35 31 36 28 37 30 38
REMARK SMILES IDX 29 39
REMARK H PARENT 20 20 18 22 14 25 16 27 5 29
REMARK Flexibility Score: inf
ROOT
ATOM      1  C   UNL     1     -15.138  12.737 -10.411  1.00  0.00     0.060 C 
ATOM      2  C   UNL     1     -16.627  12.519 -10.139  1.00  0.00     0.142 C 
ATOM      3  C   UNL     1     -16.951  11.008  -9.866  1.00  0.00     0.083 C 
ATOM      4  C   UNL     1     -18.391  10.844  -9.259  1.00  0.00     0.123 C 
ATOM      5  C   UNL     1     -18.806  12.132  -8.470  1.00  0.00     0.045 C 
ATOM      6  C   UNL     1     -17.567  12.611  -7.698  1.00  0.00     0.049 C 
ATOM      7  C   UNL     1     -17.214  13.426  -8.973  1.00  0.00     0.131 C 
ATOM      8  C   UNL     1     -18.697  13.405  -9.368  1.00  0.00     0.140 C 
ATOM      9  C   UNL     1     -18.649  13.257 -10.852  1.00  0.00     0.319 C 
ATOM     10  O   UNL     1     -19.620  13.433 -11.635  1.00  0.00    -0.251 OA
ATOM     11  O   UNL     1     -17.397  12.878 -11.275  1.00  0.00    -0.456 OA
ENDROOT
BRANCH   7  12
ATOM     12  O   UNL     1     -16.665  14.748  -8.953  1.00  0.00    -0.338 OA
BRANCH  12  13
ATOM     13  C   UNL     1     -15.258  14.846  -8.783  1.00  0.00     0.282 C 
ATOM     14  C   UNL     1     -14.696  16.228  -9.228  1.00  0.00     0.202 C 
ATOM     15  O   UNL     1     -14.922  14.569  -7.431  1.00  0.00    -0.341 OA
ATOM     16  C   UNL     1     -15.052  17.343  -8.223  1.00  0.00     0.179 C 
ATOM     17  C   UNL     1     -15.469  15.529  -6.542  1.00  0.00     0.178 C 
ATOM     18  C   UNL     1     -14.810  16.904  -6.766  1.00  0.00     0.177 C 
BRANCH  14  19
ATOM     19  O   UNL     1     -13.306  16.163  -9.442  1.00  0.00    -0.385 OA
ATOM     20  H   UNL     1     -13.147  15.798 -10.350  1.00  0.00     0.211 HD
ENDBRANCH  14  19
BRANCH  16  21
ATOM     21  O   UNL     1     -14.326  18.506  -8.523  1.00  0.00    -0.387 OA
ATOM     22  H   UNL     1     -13.859  18.777  -7.688  1.00  0.00     0.211 HD
ENDBRANCH  16  21
BRANCH  17  23
ATOM     23  C   UNL     1     -15.262  15.047  -5.098  1.00  0.00     0.191 C 
BRANCH  23  24
ATOM     24  O   UNL     1     -15.081  13.657  -5.067  1.00  0.00    -0.394 OA
ATOM     25  H   UNL     1     -14.551  13.418  -5.872  1.00  0.00     0.210 HD
ENDBRANCH  23  24
ENDBRANCH  17  23
BRANCH  18  26
ATOM     26  O   UNL     1     -13.435  16.832  -6.486  1.00  0.00    -0.387 OA
ATOM     27  H   UNL     1     -12.977  16.614  -7.339  1.00  0.00     0.211 HD
ENDBRANCH  18  26
ENDBRANCH  12  13
ENDBRANCH   7  12
BRANCH   4  28
ATOM     28  O   UNL     1     -18.415   9.727  -8.409  1.00  0.00    -0.393 OA
ATOM     29  H   UNL     1     -17.947   8.995  -8.887  1.00  0.00     0.210 HD
ENDBRANCH   4  28
BRANCH   8  30
ATOM     30  C   UNL     1     -19.535  14.607  -8.885  1.00  0.00     0.255 C 
BRANCH  30  31
ATOM     31  O   UNL     1     -20.481  14.167  -7.916  1.00  0.00    -0.461 OA
BRANCH  31  32
ATOM     32  C   UNL     1     -20.569  14.724  -6.636  1.00  0.00     0.338 C 
ATOM     33  O   UNL     1     -21.125  15.845  -6.471  1.00  0.00    -0.246 OA
BRANCH  32  34
ATOM     34  C   UNL     1     -20.012  13.991  -5.479  1.00  0.00     0.060 A 
ATOM     35  C   UNL     1     -19.003  14.574  -4.689  1.00  0.00     0.015 A 
ATOM     36  C   UNL     1     -20.475  12.702  -5.152  1.00  0.00     0.015 A 
ATOM     37  C   UNL     1     -18.471  13.881  -3.599  1.00  0.00     0.001 A 
ATOM     38  C   UNL     1     -19.938  12.015  -4.060  1.00  0.00     0.001 A 
ATOM     39  C   UNL     1     -18.937  12.603  -3.284  1.00  0.00     0.000 A 
ENDBRANCH  32  34
ENDBRANCH  31  32
ENDBRANCH  30  31
ENDBRANCH   8  30
TORSDOF 12
ENDMDL
MODEL 6
REMARK VINA RESULT:    -5.779      2.260      6.025
REMARK INTER + INTRA:         -10.074
REMARK INTER:                  -9.548
REMARK INTRA:                  -0.525
REMARK UNBOUND:                -1.085
REMARK SMILES C[C@@]12C[C@@H](O)[C@H]3C[C@]1(O[C@@H]1O[C@@H](CO)[C@@H](O)[C@@H](O)[C@H]1O)[C@@]3(COC(=O)c1ccccc1)C(=O)O2
REMARK SMILES IDX 1 1 2 2 3 3 4 4 6 5 7 6 8 7 21 8 32 9 33 10 34 11 9 12 10 13
REMARK SMILES IDX 19 14 11 15 17 16 12 17 15 18 20 19 18 21 13 23 14 24 16 26
REMARK SMILES IDX 5 28 22 30 23 31 24 32 25 33 26 34 27 35 31 36 28 37 30 38
REMARK SMILES IDX 29 39
REMARK H PARENT 20 20 18 22 14 25 16 27 5 29
REMARK Flexibility Score: inf
ROOT
ATOM      1  C   UNL     1     -13.666  15.890  -9.765  1.00  0.00     0.060 C 
ATOM      2  C   UNL     1     -14.096  16.150  -8.321  1.00  0.00     0.142 C 
ATOM      3  C   UNL     1     -14.535  17.641  -8.107  1.00  0.00     0.083 C 
ATOM      4  C   UNL     1     -15.288  17.814  -6.739  1.00  0.00     0.123 C 
ATOM      5  C   UNL     1     -15.992  16.477  -6.325  1.00  0.00     0.045 C 
ATOM      6  C   UNL     1     -16.597  15.869  -7.600  1.00  0.00     0.049 C 
ATOM      7  C   UNL     1     -15.225  15.164  -7.791  1.00  0.00     0.131 C 
ATOM      8  C   UNL     1     -14.976  15.293  -6.282  1.00  0.00     0.140 C 
ATOM      9  C   UNL     1     -13.513  15.580  -6.205  1.00  0.00     0.319 C 
ATOM     10  O   UNL     1     -12.814  15.526  -5.160  1.00  0.00    -0.251 OA
ATOM     11  O   UNL     1     -13.010  15.938  -7.433  1.00  0.00    -0.456 OA
ENDROOT
BRANCH   7  12
ATOM     12  O   UNL     1     -15.072  13.822  -8.265  1.00  0.00    -0.338 OA
BRANCH  12  13
ATOM     13  C   UNL     1     -15.547  13.557  -9.578  1.00  0.00     0.282 C 
ATOM     14  C   UNL     1     -14.962  12.242 -10.171  1.00  0.00     0.202 C 
ATOM     15  O   UNL     1     -16.966  13.529  -9.574  1.00  0.00    -0.341 OA
ATOM     16  C   UNL     1     -15.590  10.991  -9.524  1.00  0.00     0.179 C 
ATOM     17  C   UNL     1     -17.473  12.470  -8.777  1.00  0.00     0.178 C 
ATOM     18  C   UNL     1     -17.122  11.109  -9.409  1.00  0.00     0.177 C 
BRANCH  14  19
ATOM     19  O   UNL     1     -15.103  12.213 -11.571  1.00  0.00    -0.385 OA
ATOM     20  H   UNL     1     -14.500  11.514 -11.932  1.00  0.00     0.211 HD
ENDBRANCH  14  19
BRANCH  16  21
ATOM     21  O   UNL     1     -15.229   9.844 -10.249  1.00  0.00    -0.387 OA
ATOM     22  H   UNL     1     -15.843   9.118  -9.963  1.00  0.00     0.211 HD
ENDBRANCH  16  21
BRANCH  17  23
ATOM     23  C   UNL     1     -18.993  12.636  -8.635  1.00  0.00     0.191 C 
BRANCH  23  24
ATOM     24  O   UNL     1     -19.543  13.154  -9.817  1.00  0.00    -0.394 OA
ATOM     25  H   UNL     1     -20.478  13.414  -9.609  1.00  0.00     0.210 HD
ENDBRANCH  23  24
ENDBRANCH  17  23
BRANCH  18  26
ATOM     26  O   UNL     1     -17.730  10.992 -10.671  1.00  0.00    -0.387 OA
ATOM     27  H   UNL     1     -17.088  10.511 -11.257  1.00  0.00     0.211 HD
ENDBRANCH  18  26
ENDBRANCH  12  13
ENDBRANCH   7  12
BRANCH   4  28
ATOM     28  O   UNL     1     -16.235  18.844  -6.854  1.00  0.00    -0.393 OA
ATOM     29  H   UNL     1     -16.283  19.081  -7.816  1.00  0.00     0.210 HD
ENDBRANCH   4  28
BRANCH   8  30
ATOM     30  C   UNL     1     -15.425  14.091  -5.426  1.00  0.00     0.255 C 
BRANCH  30  31
ATOM     31  O   UNL     1     -15.362  14.441  -4.047  1.00  0.00    -0.461 OA
BRANCH  31  32
ATOM     32  C   UNL     1     -16.425  15.046  -3.370  1.00  0.00     0.338 C 
ATOM     33  O   UNL     1     -17.364  14.341  -2.908  1.00  0.00    -0.246 OA
BRANCH  32  34
ATOM     34  C   UNL     1     -16.441  16.514  -3.194  1.00  0.00     0.060 A 
ATOM     35  C   UNL     1     -17.662  17.215  -3.191  1.00  0.00     0.015 A 
ATOM     36  C   UNL     1     -15.241  17.234  -3.035  1.00  0.00     0.015 A 
ATOM     37  C   UNL     1     -17.679  18.604  -3.032  1.00  0.00     0.001 A 
ATOM     38  C   UNL     1     -15.266  18.622  -2.876  1.00  0.00     0.001 A 
ATOM     39  C   UNL     1     -16.483  19.307  -2.875  1.00  0.00     0.000 A 
ENDBRANCH  32  34
ENDBRANCH  31  32
ENDBRANCH  30  31
ENDBRANCH   8  30
TORSDOF 12
ENDMDL
MODEL 7
REMARK VINA RESULT:    -5.738      2.095      5.571
REMARK INTER + INTRA:         -10.010
REMARK INTER:                  -8.599
REMARK INTRA:                  -1.411
REMARK UNBOUND:                -1.085
REMARK SMILES C[C@@]12C[C@@H](O)[C@H]3C[C@]1(O[C@@H]1O[C@@H](CO)[C@@H](O)[C@@H](O)[C@H]1O)[C@@]3(COC(=O)c1ccccc1)C(=O)O2
REMARK SMILES IDX 1 1 2 2 3 3 4 4 6 5 7 6 8 7 21 8 32 9 33 10 34 11 9 12 10 13
REMARK SMILES IDX 19 14 11 15 17 16 12 17 15 18 20 19 18 21 13 23 14 24 16 26
REMARK SMILES IDX 5 28 22 30 23 31 24 32 25 33 26 34 27 35 31 36 28 37 30 38
REMARK SMILES IDX 29 39
REMARK H PARENT 20 20 18 22 14 25 16 27 5 29
REMARK Flexibility Score: inf
ROOT
ATOM      1  C   UNL     1     -15.489  12.842 -10.177  1.00  0.00     0.060 C 
ATOM      2  C   UNL     1     -16.981  12.682  -9.881  1.00  0.00     0.142 C 
ATOM      3  C   UNL     1     -17.401  11.172  -9.819  1.00  0.00     0.083 C 
ATOM      4  C   UNL     1     -18.830  11.012  -9.188  1.00  0.00     0.123 C 
ATOM      5  C   UNL     1     -19.132  12.193  -8.203  1.00  0.00     0.045 C 
ATOM      6  C   UNL     1     -17.841  12.472  -7.418  1.00  0.00     0.049 C 
ATOM      7  C   UNL     1     -17.470  13.442  -8.573  1.00  0.00     0.131 C 
ATOM      8  C   UNL     1     -18.962  13.574  -8.909  1.00  0.00     0.140 C 
ATOM      9  C   UNL     1     -18.968  13.645 -10.401  1.00  0.00     0.319 C 
ATOM     10  O   UNL     1     -19.946  13.997 -11.110  1.00  0.00    -0.251 OA
ATOM     11  O   UNL     1     -17.757  13.254 -10.922  1.00  0.00    -0.456 OA
ENDROOT
BRANCH   7  12
ATOM     12  O   UNL     1     -16.831  14.709  -8.383  1.00  0.00    -0.338 OA
BRANCH  12  13
ATOM     13  C   UNL     1     -15.998  14.830  -7.238  1.00  0.00     0.282 C 
ATOM     14  C   UNL     1     -14.660  15.563  -7.548  1.00  0.00     0.202 C 
ATOM     15  O   UNL     1     -16.710  15.485  -6.199  1.00  0.00    -0.341 OA
ATOM     16  C   UNL     1     -14.868  17.079  -7.750  1.00  0.00     0.179 C 
ATOM     17  C   UNL     1     -17.054  16.816  -6.549  1.00  0.00     0.178 C 
ATOM     18  C   UNL     1     -15.786  17.683  -6.670  1.00  0.00     0.177 C 
BRANCH  14  19
ATOM     19  O   UNL     1     -13.703  15.312  -6.547  1.00  0.00    -0.385 OA
ATOM     20  H   UNL     1     -14.071  15.617  -5.678  1.00  0.00     0.211 HD
ENDBRANCH  14  19
BRANCH  16  21
ATOM     21  O   UNL     1     -13.626  17.733  -7.776  1.00  0.00    -0.387 OA
ATOM     22  H   UNL     1     -13.702  18.467  -8.440  1.00  0.00     0.211 HD
ENDBRANCH  16  21
BRANCH  17  23
ATOM     23  C   UNL     1     -18.008  17.381  -5.486  1.00  0.00     0.191 C 
BRANCH  23  24
ATOM     24  O   UNL     1     -17.667  16.896  -4.215  1.00  0.00    -0.394 OA
ATOM     25  H   UNL     1     -18.458  17.038  -3.632  1.00  0.00     0.210 HD
ENDBRANCH  23  24
ENDBRANCH  17  23
BRANCH  18  26
ATOM     26  O   UNL     1     -15.125  17.749  -5.431  1.00  0.00    -0.387 OA
ATOM     27  H   UNL     1     -15.564  18.468  -4.907  1.00  0.00     0.211 HD
ENDBRANCH  18  26
ENDBRANCH  12  13
ENDBRANCH   7  12
BRANCH   4  28
ATOM     28  O   UNL     1     -18.906   9.785  -8.509  1.00  0.00    -0.393 OA
ATOM     29  H   UNL     1     -18.178   9.787  -7.835  1.00  0.00     0.210 HD
ENDBRANCH   4  28
BRANCH   8  30
ATOM     30  C   UNL     1     -19.700  14.742  -8.224  1.00  0.00     0.255 C 
BRANCH  30  31
ATOM     31  O   UNL     1     -20.688  14.225  -7.339  1.00  0.00    -0.461 OA
BRANCH  31  32
ATOM     32  C   UNL     1     -20.713  14.525  -5.973  1.00  0.00     0.338 C 
ATOM     33  O   UNL     1     -21.125  15.651  -5.581  1.00  0.00    -0.246 OA
BRANCH  32  34
ATOM     34  C   UNL     1     -20.258  13.516  -4.993  1.00  0.00     0.060 A 
ATOM     35  C   UNL     1     -19.165  13.790  -4.148  1.00  0.00     0.015 A 
ATOM     36  C   UNL     1     -20.902  12.268  -4.893  1.00  0.00     0.015 A 
ATOM     37  C   UNL     1     -18.729  12.834  -3.225  1.00  0.00     0.001 A 
ATOM     38  C   UNL     1     -20.461  11.318  -3.967  1.00  0.00     0.001 A 
ATOM     39  C   UNL     1     -19.375  11.600  -3.135  1.00  0.00     0.000 A 
ENDBRANCH  32  34
ENDBRANCH  31  32
ENDBRANCH  30  31
ENDBRANCH   8  30
TORSDOF 12
ENDMDL
MODEL 8
REMARK VINA RESULT:    -5.632      2.249      6.217
REMARK INTER + INTRA:          -9.845
REMARK INTER:                  -8.299
REMARK INTRA:                  -1.546
REMARK UNBOUND:                -1.085
REMARK SMILES C[C@@]12C[C@@H](O)[C@H]3C[C@]1(O[C@@H]1O[C@@H](CO)[C@@H](O)[C@@H](O)[C@H]1O)[C@@]3(COC(=O)c1ccccc1)C(=O)O2
REMARK SMILES IDX 1 1 2 2 3 3 4 4 6 5 7 6 8 7 21 8 32 9 33 10 34 11 9 12 10 13
REMARK SMILES IDX 19 14 11 15 17 16 12 17 15 18 20 19 18 21 13 23 14 24 16 26
REMARK SMILES IDX 5 28 22 30 23 31 24 32 25 33 26 34 27 35 31 36 28 37 30 38
REMARK SMILES IDX 29 39
REMARK H PARENT 20 20 18 22 14 25 16 27 5 29
REMARK Flexibility Score: inf
ROOT
ATOM      1  C   UNL     1     -14.255  15.879  -9.260  1.00  0.00     0.060 C 
ATOM      2  C   UNL     1     -14.609  15.964  -7.775  1.00  0.00     0.142 C 
ATOM      3  C   UNL     1     -14.787  17.451  -7.306  1.00  0.00     0.083 C 
ATOM      4  C   UNL     1     -15.474  17.516  -5.895  1.00  0.00     0.123 C 
ATOM      5  C   UNL     1     -16.386  16.261  -5.668  1.00  0.00     0.045 C 
ATOM      6  C   UNL     1     -17.107  15.978  -6.995  1.00  0.00     0.049 C 
ATOM      7  C   UNL     1     -15.877  15.101  -7.359  1.00  0.00     0.131 C 
ATOM      8  C   UNL     1     -15.582  14.937  -5.861  1.00  0.00     0.140 C 
ATOM      9  C   UNL     1     -14.090  14.965  -5.806  1.00  0.00     0.319 C 
ATOM     10  O   UNL     1     -13.391  14.626  -4.816  1.00  0.00    -0.251 OA
ATOM     11  O   UNL     1     -13.557  15.435  -6.983  1.00  0.00    -0.456 OA
ENDROOT
BRANCH   7  12
ATOM     12  O   UNL     1     -15.961  13.849  -8.047  1.00  0.00    -0.338 OA
BRANCH  12  13
ATOM     13  C   UNL     1     -16.974  13.738  -9.037  1.00  0.00     0.282 C 
ATOM     14  C   UNL     1     -16.517  12.905 -10.270  1.00  0.00     0.202 C 
ATOM     15  O   UNL     1     -18.148  13.189  -8.456  1.00  0.00    -0.341 OA
ATOM     16  C   UNL     1     -16.446  11.397  -9.950  1.00  0.00     0.179 C 
ATOM     17  C   UNL     1     -17.940  11.866  -7.991  1.00  0.00     0.178 C 
ATOM     18  C   UNL     1     -17.688  10.914  -9.176  1.00  0.00     0.177 C 
BRANCH  14  19
ATOM     19  O   UNL     1     -17.346  13.149 -11.381  1.00  0.00    -0.385 OA
ATOM     20  H   UNL     1     -18.115  12.524 -11.342  1.00  0.00     0.211 HD
ENDBRANCH  14  19
BRANCH  16  21
ATOM     21  O   UNL     1     -16.279  10.664 -11.136  1.00  0.00    -0.387 OA
ATOM     22  H   UNL     1     -15.831   9.813 -10.887  1.00  0.00     0.211 HD
ENDBRANCH  16  21
BRANCH  17  23
ATOM     23  C   UNL     1     -19.167  11.423  -7.180  1.00  0.00     0.191 C 
BRANCH  23  24
ATOM     24  O   UNL     1     -20.321  12.072  -7.645  1.00  0.00    -0.394 OA
ATOM     25  H   UNL     1     -21.021  11.375  -7.743  1.00  0.00     0.210 HD
ENDBRANCH  23  24
ENDBRANCH  17  23
BRANCH  18  26
ATOM     26  O   UNL     1     -18.817  10.875 -10.013  1.00  0.00    -0.387 OA
ATOM     27  H   UNL     1     -18.741  10.052 -10.563  1.00  0.00     0.211 HD
ENDBRANCH  18  26
ENDBRANCH  12  13
ENDBRANCH   7  12
BRANCH   4  28
ATOM     28  O   UNL     1     -16.237  18.690  -5.801  1.00  0.00    -0.393 OA
ATOM     29  H   UNL     1     -16.832  18.708  -6.594  1.00  0.00     0.210 HD
ENDBRANCH   4  28
BRANCH   8  30
ATOM     30  C   UNL     1     -16.210  13.699  -5.188  1.00  0.00     0.255 C 
BRANCH  30  31
ATOM     31  O   UNL     1     -16.736  14.066  -3.917  1.00  0.00    -0.461 OA
BRANCH  31  32
ATOM     32  C   UNL     1     -18.063  13.825  -3.548  1.00  0.00     0.338 C 
ATOM     33  O   UNL     1     -18.355  12.797  -2.875  1.00  0.00    -0.246 OA
BRANCH  32  34
ATOM     34  C   UNL     1     -19.119  14.780  -3.945  1.00  0.00     0.060 A 
ATOM     35  C   UNL     1     -19.966  14.490  -5.031  1.00  0.00     0.015 A 
ATOM     36  C   UNL     1     -19.291  15.993  -3.250  1.00  0.00     0.015 A 
ATOM     37  C   UNL     1     -20.961  15.395  -5.412  1.00  0.00     0.001 A 
ATOM     38  C   UNL     1     -20.289  16.893  -3.636  1.00  0.00     0.001 A 
ATOM     39  C   UNL     1     -21.123  16.595  -4.717  1.00  0.00     0.000 A 
ENDBRANCH  32  34
ENDBRANCH  31  32
ENDBRANCH  30  31
ENDBRANCH   8  30
TORSDOF 12
ENDMDL
MODEL 9
REMARK VINA RESULT:    -5.598      1.740      5.449
REMARK INTER + INTRA:          -9.792
REMARK INTER:                  -9.244
REMARK INTRA:                  -0.549
REMARK UNBOUND:                -1.085
REMARK SMILES C[C@@]12C[C@@H](O)[C@H]3C[C@]1(O[C@@H]1O[C@@H](CO)[C@@H](O)[C@@H](O)[C@H]1O)[C@@]3(COC(=O)c1ccccc1)C(=O)O2
REMARK SMILES IDX 1 1 2 2 3 3 4 4 6 5 7 6 8 7 21 8 32 9 33 10 34 11 9 12 10 13
REMARK SMILES IDX 19 14 11 15 17 16 12 17 15 18 20 19 18 21 13 23 14 24 16 26
REMARK SMILES IDX 5 28 22 30 23 31 24 32 25 33 26 34 27 35 31 36 28 37 30 38
REMARK SMILES IDX 29 39
REMARK H PARENT 20 20 18 22 14 25 16 27 5 29
REMARK Flexibility Score: inf
ROOT
ATOM      1  C   UNL     1     -19.592  11.325  -6.354  1.00  0.00     0.060 C 
ATOM      2  C   UNL     1     -19.182  12.627  -5.664  1.00  0.00     0.142 C 
ATOM      3  C   UNL     1     -18.567  12.362  -4.245  1.00  0.00     0.083 C 
ATOM      4  C   UNL     1     -17.846  13.647  -3.697  1.00  0.00     0.123 C 
ATOM      5  C   UNL     1     -17.330  14.535  -4.880  1.00  0.00     0.045 C 
ATOM      6  C   UNL     1     -16.763  13.586  -5.947  1.00  0.00     0.049 C 
ATOM      7  C   UNL     1     -18.205  13.540  -6.524  1.00  0.00     0.131 C 
ATOM      8  C   UNL     1     -18.488  14.896  -5.863  1.00  0.00     0.140 C 
ATOM      9  C   UNL     1     -19.905  14.762  -5.412  1.00  0.00     0.319 C 
ATOM     10  O   UNL     1     -20.642  15.709  -5.033  1.00  0.00    -0.251 OA
ATOM     11  O   UNL     1     -20.316  13.450  -5.443  1.00  0.00    -0.456 OA
ENDROOT
BRANCH   7  12
ATOM     12  O   UNL     1     -18.509  13.532  -7.923  1.00  0.00    -0.338 OA
BRANCH  12  13
ATOM     13  C   UNL     1     -18.692  12.257  -8.523  1.00  0.00     0.282 C 
ATOM     14  C   UNL     1     -19.472  12.336  -9.868  1.00  0.00     0.202 C 
ATOM     15  O   UNL     1     -17.432  11.628  -8.699  1.00  0.00    -0.341 OA
ATOM     16  C   UNL     1     -18.602  12.917 -11.003  1.00  0.00     0.179 C 
ATOM     17  C   UNL     1     -16.603  12.345  -9.601  1.00  0.00     0.178 C 
ATOM     18  C   UNL     1     -17.192  12.296 -11.023  1.00  0.00     0.177 C 
BRANCH  14  19
ATOM     19  O   UNL     1     -19.995  11.078 -10.224  1.00  0.00    -0.385 OA
ATOM     20  H   UNL     1     -20.820  10.922  -9.697  1.00  0.00     0.211 HD
ENDBRANCH  14  19
BRANCH  16  21
ATOM     21  O   UNL     1     -19.246  12.740 -12.237  1.00  0.00    -0.387 OA
ATOM     22  H   UNL     1     -19.441  13.647 -12.593  1.00  0.00     0.211 HD
ENDBRANCH  16  21
BRANCH  17  23
ATOM     23  C   UNL     1     -15.191  11.741  -9.568  1.00  0.00     0.191 C 
BRANCH  23  24
ATOM     24  O   UNL     1     -15.257  10.340  -9.589  1.00  0.00    -0.394 OA
ATOM     25  H   UNL     1     -14.499  10.026 -10.148  1.00  0.00     0.210 HD
ENDBRANCH  23  24
ENDBRANCH  17  23
BRANCH  18  26
ATOM     26  O   UNL     1     -17.237  10.968 -11.483  1.00  0.00    -0.387 OA
ATOM     27  H   UNL     1     -17.673  10.986 -12.375  1.00  0.00     0.211 HD
ENDBRANCH  18  26
ENDBRANCH  12  13
ENDBRANCH   7  12
BRANCH   4  28
ATOM     28  O   UNL     1     -16.774  13.265  -2.875  1.00  0.00    -0.393 OA
ATOM     29  H   UNL     1     -16.475  14.082  -2.398  1.00  0.00     0.210 HD
ENDBRANCH   4  28
BRANCH   8  30
ATOM     30  C   UNL     1     -18.224  16.136  -6.741  1.00  0.00     0.255 C 
BRANCH  30  31
ATOM     31  O   UNL     1     -17.881  17.240  -5.911  1.00  0.00    -0.461 OA
BRANCH  31  32
ATOM     32  C   UNL     1     -16.685  17.951  -6.053  1.00  0.00     0.338 C 
ATOM     33  O   UNL     1     -16.711  19.185  -6.320  1.00  0.00    -0.246 OA
BRANCH  32  34
ATOM     34  C   UNL     1     -15.393  17.253  -5.885  1.00  0.00     0.060 A 
ATOM     35  C   UNL     1     -14.775  17.198  -4.622  1.00  0.00     0.015 A 
ATOM     36  C   UNL     1     -14.758  16.641  -6.983  1.00  0.00     0.015 A 
ATOM     37  C   UNL     1     -13.549  16.545  -4.463  1.00  0.00     0.001 A 
ATOM     38  C   UNL     1     -13.533  15.988  -6.816  1.00  0.00     0.001 A 
ATOM     39  C   UNL     1     -12.928  15.941  -5.558  1.00  0.00     0.000 A 
ENDBRANCH  32  34
ENDBRANCH  31  32
ENDBRANCH  30  31
ENDBRANCH   8  30
TORSDOF 12
ENDMDL
