MODEL 1
REMARK VINA RESULT:    -4.036      0.000      0.000
REMARK INTER + INTRA:          -4.808
REMARK INTER:                  -4.862
REMARK INTRA:                   0.053
REMARK UNBOUND:                 0.053
REMARK SMILES CC[C@H](C)[C@H]([NH3+])C(=O)[O-]
REMARK SMILES IDX 3 1 4 2 5 3 6 4 7 8 8 9 9 10 2 11 1 12
REMARK H PARENT 6 5 6 6 6 7
REMARK Flexibility Score: inf
ROOT
ATOM      1  C   UNL     1     -10.872  33.431 -19.299  1.00  0.00     0.050 C 
ATOM      2  C   UNL     1      -9.966  33.523 -18.057  1.00  0.00     0.014 C 
ENDROOT
BRANCH   1   3
ATOM      3  C   UNL     1     -10.157  33.775 -20.649  1.00  0.00     0.230 C 
BRANCH   3   4
ATOM      4  N   UNL     1     -10.832  33.126 -21.783  1.00  0.00    -0.350 N 
ATOM      5  H   UNL     1     -10.711  32.089 -21.747  1.00  0.00     0.345 HD
ATOM      6  H   UNL     1     -11.853  33.354 -21.770  1.00  0.00     0.345 HD
ATOM      7  H   UNL     1     -10.436  33.483 -22.683  1.00  0.00     0.345 HD
ENDBRANCH   3   4
BRANCH   3   8
ATOM      8  C   UNL     1      -8.685  33.429 -20.669  1.00  0.00     0.099 C 
ATOM      9  O   UNL     1      -7.834  34.298 -20.999  1.00  0.00    -0.544 OA
ATOM     10  O   UNL     1      -8.259  32.137 -20.384  1.00  0.00    -0.544 OA
ENDBRANCH   3   8
ENDBRANCH   1   3
BRANCH   1  11
ATOM     11  C   UNL     1     -12.212  34.183 -19.094  1.00  0.00     0.006 C 
ATOM     12  C   UNL     1     -13.224  33.484 -18.185  1.00  0.00     0.004 C 
ENDBRANCH   1  11
TORSDOF 4
ENDMDL
MODEL 2
REMARK VINA RESULT:    -4.014      3.201      4.426
REMARK INTER + INTRA:          -4.782
REMARK INTER:                  -4.737
REMARK INTRA:                  -0.045
REMARK UNBOUND:                 0.053
REMARK SMILES CC[C@H](C)[C@H]([NH3+])C(=O)[O-]
REMARK SMILES IDX 3 1 4 2 5 3 6 4 7 8 8 9 9 10 2 11 1 12
REMARK H PARENT 6 5 6 6 6 7
REMARK Flexibility Score: inf
ROOT
ATOM      1  C   UNL     1     -10.654  33.276 -19.909  1.00  0.00     0.050 C 
ATOM      2  C   UNL     1     -10.695  33.445 -21.439  1.00  0.00     0.014 C 
ENDROOT
BRANCH   1   3
ATOM      3  C   UNL     1     -11.639  34.210 -19.128  1.00  0.00     0.230 C 
BRANCH   3   4
ATOM      4  N   UNL     1     -11.116  34.525 -17.791  1.00  0.00    -0.350 N 
ATOM      5  H   UNL     1     -10.671  35.471 -17.775  1.00  0.00     0.345 HD
ATOM      6  H   UNL     1     -11.890  34.498 -17.088  1.00  0.00     0.345 HD
ATOM      7  H   UNL     1     -10.405  33.811 -17.510  1.00  0.00     0.345 HD
ENDBRANCH   3   4
BRANCH   3   8
ATOM      8  C   UNL     1     -13.042  33.658 -19.007  1.00  0.00     0.099 C 
ATOM      9  O   UNL     1     -13.308  32.505 -19.438  1.00  0.00    -0.544 OA
ATOM     10  O   UNL     1     -14.064  34.437 -18.477  1.00  0.00    -0.544 OA
ENDBRANCH   3   8
ENDBRANCH   1   3
BRANCH   1  11
ATOM     11  C   UNL     1      -9.203  33.305 -19.363  1.00  0.00     0.006 C 
ATOM     12  C   UNL     1      -8.111  33.009 -20.391  1.00  0.00     0.004 C 
ENDBRANCH   1  11
TORSDOF 4
ENDMDL
MODEL 3
REMARK VINA RESULT:    -3.859      1.718      2.177
REMARK INTER + INTRA:          -4.595
REMARK INTER:                  -4.777
REMARK INTRA:                   0.182
REMARK UNBOUND:                 0.053
REMARK SMILES CC[C@H](C)[C@H]([NH3+])C(=O)[O-]
REMARK SMILES IDX 3 1 4 2 5 3 6 4 7 8 8 9 9 10 2 11 1 12
REMARK H PARENT 6 5 6 6 6 7
REMARK Flexibility Score: inf
ROOT
ATOM      1  C   UNL     1     -11.127  34.218 -19.012  1.00  0.00     0.050 C 
ATOM      2  C   UNL     1     -11.995  34.589 -20.229  1.00  0.00     0.014 C 
ENDROOT
BRANCH   1   3
ATOM      3  C   UNL     1      -9.924  33.270 -19.340  1.00  0.00     0.230 C 
BRANCH   3   4
ATOM      4  N   UNL     1      -8.821  33.473 -18.390  1.00  0.00    -0.350 N 
ATOM      5  H   UNL     1      -8.081  34.087 -18.800  1.00  0.00     0.345 HD
ATOM      6  H   UNL     1      -9.181  33.909 -17.510  1.00  0.00     0.345 HD
ATOM      7  H   UNL     1      -8.395  32.551 -18.139  1.00  0.00     0.345 HD
ENDBRANCH   3   4
BRANCH   3   8
ATOM      8  C   UNL     1      -9.406  33.403 -20.755  1.00  0.00     0.099 C 
ATOM      9  O   UNL     1      -9.986  32.807 -21.701  1.00  0.00    -0.544 OA
ATOM     10  O   UNL     1      -8.253  34.133 -21.019  1.00  0.00    -0.544 OA
ENDBRANCH   3   8
ENDBRANCH   1   3
BRANCH   1  11
ATOM     11  C   UNL     1     -11.986  33.742 -17.813  1.00  0.00     0.006 C 
ATOM     12  C   UNL     1     -13.432  33.372 -18.149  1.00  0.00     0.004 C 
ENDBRANCH   1  11
TORSDOF 4
ENDMDL
MODEL 4
REMARK VINA RESULT:    -3.843      2.646      3.862
REMARK INTER + INTRA:          -4.576
REMARK INTER:                  -4.762
REMARK INTRA:                   0.186
REMARK UNBOUND:                 0.053
REMARK SMILES CC[C@H](C)[C@H]([NH3+])C(=O)[O-]
REMARK SMILES IDX 3 1 4 2 5 3 6 4 7 8 8 9 9 10 2 11 1 12
REMARK H PARENT 6 5 6 6 6 7
REMARK Flexibility Score: inf
ROOT
ATOM      1  C   UNL     1      -9.870  33.620 -19.881  1.00  0.00     0.050 C 
ATOM      2  C   UNL     1      -9.272  32.998 -18.605  1.00  0.00     0.014 C 
ENDROOT
BRANCH   1   3
ATOM      3  C   UNL     1     -11.435  33.650 -19.915  1.00  0.00     0.230 C 
BRANCH   3   4
ATOM      4  N   UNL     1     -11.923  34.852 -20.607  1.00  0.00    -0.350 N 
ATOM      5  H   UNL     1     -12.691  35.310 -20.066  1.00  0.00     0.345 HD
ATOM      6  H   UNL     1     -11.140  35.533 -20.737  1.00  0.00     0.345 HD
ATOM      7  H   UNL     1     -12.283  34.594 -21.555  1.00  0.00     0.345 HD
ENDBRANCH   3   4
BRANCH   3   8
ATOM      8  C   UNL     1     -12.080  33.553 -18.550  1.00  0.00     0.099 C 
ATOM      9  O   UNL     1     -11.808  34.401 -17.659  1.00  0.00    -0.544 OA
ATOM     10  O   UNL     1     -12.931  32.497 -18.244  1.00  0.00    -0.544 OA
ENDBRANCH   3   8
ENDBRANCH   1   3
BRANCH   1  11
ATOM     11  C   UNL     1      -9.231  33.031 -21.165  1.00  0.00     0.006 C 
ATOM     12  C   UNL     1      -7.833  33.553 -21.500  1.00  0.00     0.004 C 
ENDBRANCH   1  11
TORSDOF 4
ENDMDL
MODEL 5
REMARK VINA RESULT:    -3.434     14.549     15.841
REMARK INTER + INTRA:          -4.083
REMARK INTER:                  -3.992
REMARK INTRA:                  -0.090
REMARK UNBOUND:                 0.053
REMARK SMILES CC[C@H](C)[C@H]([NH3+])C(=O)[O-]
REMARK SMILES IDX 3 1 4 2 5 3 6 4 7 8 8 9 9 10 2 11 1 12
REMARK H PARENT 6 5 6 6 6 7
REMARK Flexibility Score: inf
ROOT
ATOM      1  C   UNL     1      -1.521  20.341 -20.494  1.00  0.00     0.050 C 
ATOM      2  C   UNL     1      -1.990  20.410 -21.959  1.00  0.00     0.014 C 
ENDROOT
BRANCH   1   3
ATOM      3  C   UNL     1      -2.445  21.099 -19.482  1.00  0.00     0.230 C 
BRANCH   3   4
ATOM      4  N   UNL     1      -1.826  21.163 -18.150  1.00  0.00    -0.350 N 
ATOM      5  H   UNL     1      -1.661  22.154 -17.861  1.00  0.00     0.345 HD
ATOM      6  H   UNL     1      -2.443  20.698 -17.446  1.00  0.00     0.345 HD
ATOM      7  H   UNL     1      -0.911  20.656 -18.160  1.00  0.00     0.345 HD
ENDBRANCH   3   4
BRANCH   3   8
ATOM      8  C   UNL     1      -3.837  20.516 -19.367  1.00  0.00     0.099 C 
ATOM      9  O   UNL     1      -4.811  21.088 -19.925  1.00  0.00    -0.544 OA
ATOM     10  O   UNL     1      -4.066  19.382 -18.597  1.00  0.00    -0.544 OA
ENDBRANCH   3   8
ENDBRANCH   1   3
BRANCH   1  11
ATOM     11  C   UNL     1      -0.019  20.695 -20.350  1.00  0.00     0.006 C 
ATOM     12  C   UNL     1       0.884  19.547 -19.898  1.00  0.00     0.004 C 
ENDBRANCH   1  11
TORSDOF 4
ENDMDL
MODEL 6
REMARK VINA RESULT:    -3.149     14.564     15.656
REMARK INTER + INTRA:          -3.740
REMARK INTER:                  -3.727
REMARK INTRA:                  -0.013
REMARK UNBOUND:                 0.053
REMARK SMILES CC[C@H](C)[C@H]([NH3+])C(=O)[O-]
REMARK SMILES IDX 3 1 4 2 5 3 6 4 7 8 8 9 9 10 2 11 1 12
REMARK H PARENT 6 5 6 6 6 7
REMARK Flexibility Score: inf
ROOT
ATOM      1  C   UNL     1      -1.062  20.704 -20.464  1.00  0.00     0.050 C 
ATOM      2  C   UNL     1       0.193  20.012 -19.900  1.00  0.00     0.014 C 
ENDROOT
BRANCH   1   3
ATOM      3  C   UNL     1      -2.041  21.259 -19.374  1.00  0.00     0.230 C 
BRANCH   3   4
ATOM      4  N   UNL     1      -1.527  20.995 -18.022  1.00  0.00    -0.350 N 
ATOM      5  H   UNL     1      -2.290  20.664 -17.389  1.00  0.00     0.345 HD
ATOM      6  H   UNL     1      -0.774  20.270 -18.061  1.00  0.00     0.345 HD
ATOM      7  H   UNL     1      -1.110  21.868 -17.625  1.00  0.00     0.345 HD
ENDBRANCH   3   4
BRANCH   3   8
ATOM      8  C   UNL     1      -3.454  20.730 -19.492  1.00  0.00     0.099 C 
ATOM      9  O   UNL     1      -4.308  21.354 -20.177  1.00  0.00    -0.544 OA
ATOM     10  O   UNL     1      -3.841  19.589 -18.800  1.00  0.00    -0.544 OA
ENDBRANCH   3   8
ENDBRANCH   1   3
BRANCH   1  11
ATOM     11  C   UNL     1      -1.761  19.841 -21.546  1.00  0.00     0.006 C 
ATOM     12  C   UNL     1      -2.042  20.552 -22.870  1.00  0.00     0.004 C 
ENDBRANCH   1  11
TORSDOF 4
ENDMDL
MODEL 7
REMARK VINA RESULT:    -3.118      2.493      3.681
REMARK INTER + INTRA:          -3.703
REMARK INTER:                  -3.596
REMARK INTRA:                  -0.107
REMARK UNBOUND:                 0.053
REMARK SMILES CC[C@H](C)[C@H]([NH3+])C(=O)[O-]
REMARK SMILES IDX 3 1 4 2 5 3 6 4 7 8 8 9 9 10 2 11 1 12
REMARK H PARENT 6 5 6 6 6 7
REMARK Flexibility Score: inf
ROOT
ATOM      1  C   UNL     1     -11.252  33.685 -20.742  1.00  0.00     0.050 C 
ATOM      2  C   UNL     1     -11.045  35.205 -20.598  1.00  0.00     0.014 C 
ENDROOT
BRANCH   1   3
ATOM      3  C   UNL     1     -11.782  32.979 -19.449  1.00  0.00     0.230 C 
BRANCH   3   4
ATOM      4  N   UNL     1     -13.248  33.061 -19.368  1.00  0.00    -0.350 N 
ATOM      5  H   UNL     1     -13.613  32.478 -18.581  1.00  0.00     0.345 HD
ATOM      6  H   UNL     1     -13.544  34.054 -19.226  1.00  0.00     0.345 HD
ATOM      7  H   UNL     1     -13.672  32.725 -20.263  1.00  0.00     0.345 HD
ENDBRANCH   3   4
BRANCH   3   8
ATOM      8  C   UNL     1     -11.173  33.507 -18.168  1.00  0.00     0.099 C 
ATOM      9  O   UNL     1     -11.885  34.133 -17.339  1.00  0.00    -0.544 OA
ATOM     10  O   UNL     1      -9.813  33.360 -17.920  1.00  0.00    -0.544 OA
ENDBRANCH   3   8
ENDBRANCH   1   3
BRANCH   1  11
ATOM     11  C   UNL     1     -10.016  32.991 -21.368  1.00  0.00     0.006 C 
ATOM     12  C   UNL     1      -8.673  33.666 -21.087  1.00  0.00     0.004 C 
ENDBRANCH   1  11
TORSDOF 4
ENDMDL
MODEL 8
REMARK VINA RESULT:    -2.902      3.258      4.160
REMARK INTER + INTRA:          -3.442
REMARK INTER:                  -3.568
REMARK INTRA:                   0.126
REMARK UNBOUND:                 0.053
REMARK SMILES CC[C@H](C)[C@H]([NH3+])C(=O)[O-]
REMARK SMILES IDX 3 1 4 2 5 3 6 4 7 8 8 9 9 10 2 11 1 12
REMARK H PARENT 6 5 6 6 6 7
REMARK Flexibility Score: inf
ROOT
ATOM      1  C   UNL     1     -10.607  34.132 -19.161  1.00  0.00     0.050 C 
ATOM      2  C   UNL     1      -9.295  33.344 -18.987  1.00  0.00     0.014 C 
ENDROOT
BRANCH   1   3
ATOM      3  C   UNL     1     -11.730  33.755 -18.137  1.00  0.00     0.230 C 
BRANCH   3   4
ATOM      4  N   UNL     1     -11.375  32.537 -17.393  1.00  0.00    -0.350 N 
ATOM      5  H   UNL     1     -10.339  32.447 -17.292  1.00  0.00     0.345 HD
ATOM      6  H   UNL     1     -11.812  32.558 -16.443  1.00  0.00     0.345 HD
ATOM      7  H   UNL     1     -11.742  31.695 -17.895  1.00  0.00     0.345 HD
ENDBRANCH   3   4
BRANCH   3   8
ATOM      8  C   UNL     1     -13.098  33.588 -18.761  1.00  0.00     0.099 C 
ATOM      9  O   UNL     1     -13.371  32.549 -19.420  1.00  0.00    -0.544 OA
ATOM     10  O   UNL     1     -14.046  34.600 -18.666  1.00  0.00    -0.544 OA
ENDBRANCH   3   8
ENDBRANCH   1   3
BRANCH   1  11
ATOM     11  C   UNL     1     -11.085  34.140 -20.635  1.00  0.00     0.006 C 
ATOM     12  C   UNL     1     -10.376  33.149 -21.559  1.00  0.00     0.004 C 
ENDBRANCH   1  11
TORSDOF 4
ENDMDL
MODEL 9
REMARK VINA RESULT:    -2.652      1.592      2.099
REMARK INTER + INTRA:          -3.141
REMARK INTER:                  -3.027
REMARK INTRA:                  -0.114
REMARK UNBOUND:                 0.053
REMARK SMILES CC[C@H](C)[C@H]([NH3+])C(=O)[O-]
REMARK SMILES IDX 3 1 4 2 5 3 6 4 7 8 8 9 9 10 2 11 1 12
REMARK H PARENT 6 5 6 6 6 7
REMARK Flexibility Score: inf
ROOT
ATOM      1  C   UNL     1     -10.881  34.256 -20.821  1.00  0.00     0.050 C 
ATOM      2  C   UNL     1     -11.249  32.970 -21.585  1.00  0.00     0.014 C 
ENDROOT
BRANCH   1   3
ATOM      3  C   UNL     1      -9.382  34.339 -20.376  1.00  0.00     0.230 C 
BRANCH   3   4
ATOM      4  N   UNL     1      -8.498  34.522 -21.537  1.00  0.00    -0.350 N 
ATOM      5  H   UNL     1      -9.042  34.504 -22.429  1.00  0.00     0.345 HD
ATOM      6  H   UNL     1      -7.993  35.435 -21.461  1.00  0.00     0.345 HD
ATOM      7  H   UNL     1      -7.781  33.761 -21.561  1.00  0.00     0.345 HD
ENDBRANCH   3   4
BRANCH   3   8
ATOM      8  C   UNL     1      -8.916  33.148 -19.567  1.00  0.00     0.099 C 
ATOM      9  O   UNL     1      -9.220  33.052 -18.349  1.00  0.00    -0.544 OA
ATOM     10  O   UNL     1      -8.099  32.181 -20.141  1.00  0.00    -0.544 OA
ENDBRANCH   3   8
ENDBRANCH   1   3
BRANCH   1  11
ATOM     11  C   UNL     1     -11.887  34.559 -19.680  1.00  0.00     0.006 C 
ATOM     12  C   UNL     1     -12.696  33.359 -19.186  1.00  0.00     0.004 C 
ENDBRANCH   1  11
TORSDOF 4
ENDMDL
