MODEL 1
REMARK VINA RESULT:    -3.714      0.000      0.000
REMARK INTER + INTRA:          -4.335
REMARK INTER:                  -4.365
REMARK INTRA:                   0.030
REMARK UNBOUND:                 0.030
REMARK SMILES O=C([O-])CCC(=O)[O-]
REMARK SMILES IDX 4 1 2 2 1 3 3 4 5 5 6 6 7 7 8 8
REMARK H PARENT
REMARK Flexibility Score: inf
ROOT
ATOM      1  C   UNL     1      40.818  26.224  17.253  1.00  0.00     0.059 C 
ENDROOT
BRANCH   1   2
ATOM      2  C   UNL     1      41.934  25.476  17.917  1.00  0.00     0.042 C 
ATOM      3  O   UNL     1      42.118  25.579  19.157  1.00  0.00    -0.550 OA
ATOM      4  O   UNL     1      42.797  24.696  17.155  1.00  0.00    -0.550 OA
ENDBRANCH   1   2
BRANCH   1   5
ATOM      5  C   UNL     1      41.348  27.288  16.288  1.00  0.00     0.059 C 
BRANCH   5   6
ATOM      6  C   UNL     1      41.710  28.552  17.004  1.00  0.00     0.042 C 
ATOM      7  O   UNL     1      41.554  28.643  18.250  1.00  0.00    -0.550 OA
ATOM      8  O   UNL     1      42.181  29.645  16.288  1.00  0.00    -0.550 OA
ENDBRANCH   5   6
ENDBRANCH   1   5
TORSDOF 3
ENDMDL
MODEL 2
REMARK VINA RESULT:    -3.680      0.068      3.490
REMARK INTER + INTRA:          -4.295
REMARK INTER:                  -4.348
REMARK INTRA:                   0.053
REMARK UNBOUND:                 0.030
REMARK SMILES O=C([O-])CCC(=O)[O-]
REMARK SMILES IDX 4 1 2 2 1 3 3 4 5 5 6 6 7 7 8 8
REMARK H PARENT
REMARK Flexibility Score: inf
ROOT
ATOM      1  C   UNL     1      41.364  27.290  16.299  1.00  0.00     0.059 C 
ENDROOT
BRANCH   1   2
ATOM      2  C   UNL     1      41.708  28.571  16.997  1.00  0.00     0.042 C 
ATOM      3  O   UNL     1      41.575  28.670  18.245  1.00  0.00    -0.550 OA
ATOM      4  O   UNL     1      42.139  29.669  16.261  1.00  0.00    -0.550 OA
ENDBRANCH   1   2
BRANCH   1   5
ATOM      5  C   UNL     1      40.849  26.234  17.282  1.00  0.00     0.059 C 
BRANCH   5   6
ATOM      6  C   UNL     1      41.975  25.524  17.969  1.00  0.00     0.042 C 
ATOM      7  O   UNL     1      42.137  25.645  19.212  1.00  0.00    -0.550 OA
ATOM      8  O   UNL     1      42.870  24.762  17.230  1.00  0.00    -0.550 OA
ENDBRANCH   5   6
ENDBRANCH   1   5
TORSDOF 3
ENDMDL
MODEL 3
REMARK VINA RESULT:    -3.673      2.170      2.577
REMARK INTER + INTRA:          -4.287
REMARK INTER:                  -4.357
REMARK INTRA:                   0.070
REMARK UNBOUND:                 0.030
REMARK SMILES O=C([O-])CCC(=O)[O-]
REMARK SMILES IDX 4 1 2 2 1 3 3 4 5 5 6 6 7 7 8 8
REMARK H PARENT
REMARK Flexibility Score: inf
ROOT
ATOM      1  C   UNL     1      41.643  26.946  17.321  1.00  0.00     0.059 C 
ENDROOT
BRANCH   1   2
ATOM      2  C   UNL     1      42.166  25.746  18.052  1.00  0.00     0.042 C 
ATOM      3  O   UNL     1      42.064  25.671  19.304  1.00  0.00    -0.550 OA
ATOM      4  O   UNL     1      42.802  24.729  17.351  1.00  0.00    -0.550 OA
ENDBRANCH   1   2
BRANCH   1   5
ATOM      5  C   UNL     1      40.510  26.572  16.362  1.00  0.00     0.059 C 
BRANCH   5   6
ATOM      6  C   UNL     1      39.202  26.437  17.079  1.00  0.00     0.042 C 
ATOM      7  O   UNL     1      39.138  26.616  18.324  1.00  0.00    -0.550 OA
ATOM      8  O   UNL     1      38.060  26.073  16.377  1.00  0.00    -0.550 OA
ENDBRANCH   5   6
ENDBRANCH   1   5
TORSDOF 3
ENDMDL
MODEL 4
REMARK VINA RESULT:    -3.651      2.188      3.409
REMARK INTER + INTRA:          -4.261
REMARK INTER:                  -4.281
REMARK INTRA:                   0.020
REMARK UNBOUND:                 0.030
REMARK SMILES O=C([O-])CCC(=O)[O-]
REMARK SMILES IDX 4 1 2 2 1 3 3 4 5 5 6 6 7 7 8 8
REMARK H PARENT
REMARK Flexibility Score: inf
ROOT
ATOM      1  C   UNL     1      40.889  27.224  17.234  1.00  0.00     0.059 C 
ENDROOT
BRANCH   1   2
ATOM      2  C   UNL     1      39.560  26.745  17.733  1.00  0.00     0.042 C 
ATOM      3  O   UNL     1      39.319  26.711  18.968  1.00  0.00    -0.550 OA
ATOM      4  O   UNL     1      38.600  26.296  16.832  1.00  0.00    -0.550 OA
ENDBRANCH   1   2
BRANCH   1   5
ATOM      5  C   UNL     1      41.662  26.108  16.527  1.00  0.00     0.059 C 
BRANCH   5   6
ATOM      6  C   UNL     1      42.402  25.245  17.503  1.00  0.00     0.042 C 
ATOM      7  O   UNL     1      42.337  25.483  18.737  1.00  0.00    -0.550 OA
ATOM      8  O   UNL     1      43.198  24.203  17.044  1.00  0.00    -0.550 OA
ENDBRANCH   5   6
ENDBRANCH   1   5
TORSDOF 3
ENDMDL
MODEL 5
REMARK VINA RESULT:    -3.625      1.932      2.185
REMARK INTER + INTRA:          -4.231
REMARK INTER:                  -4.261
REMARK INTRA:                   0.030
REMARK UNBOUND:                 0.030
REMARK SMILES O=C([O-])CCC(=O)[O-]
REMARK SMILES IDX 4 1 2 2 1 3 3 4 5 5 6 6 7 7 8 8
REMARK H PARENT
REMARK Flexibility Score: inf
ROOT
ATOM      1  C   UNL     1      40.910  26.130  17.211  1.00  0.00     0.059 C 
ENDROOT
BRANCH   1   2
ATOM      2  C   UNL     1      39.476  26.345  17.588  1.00  0.00     0.042 C 
ATOM      3  O   UNL     1      39.164  26.594  18.781  1.00  0.00    -0.550 OA
ATOM      4  O   UNL     1      38.480  26.230  16.625  1.00  0.00    -0.550 OA
ENDBRANCH   1   2
BRANCH   1   5
ATOM      5  C   UNL     1      41.416  27.227  16.269  1.00  0.00     0.059 C 
BRANCH   5   6
ATOM      6  C   UNL     1      41.794  28.467  17.019  1.00  0.00     0.042 C 
ATOM      7  O   UNL     1      41.759  28.484  18.278  1.00  0.00    -0.550 OA
ATOM      8  O   UNL     1      42.145  29.619  16.325  1.00  0.00    -0.550 OA
ENDBRANCH   5   6
ENDBRANCH   1   5
TORSDOF 3
ENDMDL
MODEL 6
REMARK VINA RESULT:    -3.624      1.932      3.458
REMARK INTER + INTRA:          -4.229
REMARK INTER:                  -4.269
REMARK INTRA:                   0.040
REMARK UNBOUND:                 0.030
REMARK SMILES O=C([O-])CCC(=O)[O-]
REMARK SMILES IDX 4 1 2 2 1 3 3 4 5 5 6 6 7 7 8 8
REMARK H PARENT
REMARK Flexibility Score: inf
ROOT
ATOM      1  C   UNL     1      41.412  27.234  16.284  1.00  0.00     0.059 C 
ENDROOT
BRANCH   1   2
ATOM      2  C   UNL     1      41.790  28.484  17.020  1.00  0.00     0.042 C 
ATOM      3  O   UNL     1      41.744  28.519  18.277  1.00  0.00    -0.550 OA
ATOM      4  O   UNL     1      42.155  29.623  16.313  1.00  0.00    -0.550 OA
ENDBRANCH   1   2
BRANCH   1   5
ATOM      5  C   UNL     1      40.927  26.142  17.241  1.00  0.00     0.059 C 
BRANCH   5   6
ATOM      6  C   UNL     1      39.491  26.337  17.620  1.00  0.00     0.042 C 
ATOM      7  O   UNL     1      39.181  26.625  18.806  1.00  0.00    -0.550 OA
ATOM      8  O   UNL     1      38.491  26.160  16.672  1.00  0.00    -0.550 OA
ENDBRANCH   5   6
ENDBRANCH   1   5
TORSDOF 3
ENDMDL
MODEL 7
REMARK VINA RESULT:    -3.498      2.390      3.421
REMARK INTER + INTRA:          -4.081
REMARK INTER:                  -3.991
REMARK INTRA:                  -0.090
REMARK UNBOUND:                 0.030
REMARK SMILES O=C([O-])CCC(=O)[O-]
REMARK SMILES IDX 4 1 2 2 1 3 3 4 5 5 6 6 7 7 8 8
REMARK H PARENT
REMARK Flexibility Score: inf
ROOT
ATOM      1  C   UNL     1      40.235  27.018  19.422  1.00  0.00     0.059 C 
ENDROOT
BRANCH   1   2
ATOM      2  C   UNL     1      40.801  26.800  20.792  1.00  0.00     0.042 C 
ATOM      3  O   UNL     1      41.876  27.361  21.132  1.00  0.00    -0.550 OA
ATOM      4  O   UNL     1      40.161  25.944  21.680  1.00  0.00    -0.550 OA
ENDBRANCH   1   2
BRANCH   1   5
ATOM      5  C   UNL     1      41.319  27.436  18.424  1.00  0.00     0.059 C 
BRANCH   5   6
ATOM      6  C   UNL     1      41.599  26.353  17.427  1.00  0.00     0.042 C 
ATOM      7  O   UNL     1      41.170  26.450  16.247  1.00  0.00    -0.550 OA
ATOM      8  O   UNL     1      42.299  25.217  17.814  1.00  0.00    -0.550 OA
ENDBRANCH   5   6
ENDBRANCH   1   5
TORSDOF 3
ENDMDL
MODEL 8
REMARK VINA RESULT:    -3.485      2.398      3.558
REMARK INTER + INTRA:          -4.066
REMARK INTER:                  -3.988
REMARK INTRA:                  -0.078
REMARK UNBOUND:                 0.030
REMARK SMILES O=C([O-])CCC(=O)[O-]
REMARK SMILES IDX 4 1 2 2 1 3 3 4 5 5 6 6 7 7 8 8
REMARK H PARENT
REMARK Flexibility Score: inf
ROOT
ATOM      1  C   UNL     1      41.338  27.396  18.414  1.00  0.00     0.059 C 
ENDROOT
BRANCH   1   2
ATOM      2  C   UNL     1      41.550  26.321  17.391  1.00  0.00     0.042 C 
ATOM      3  O   UNL     1      41.058  26.436  16.238  1.00  0.00    -0.550 OA
ATOM      4  O   UNL     1      42.258  25.173  17.726  1.00  0.00    -0.550 OA
ENDBRANCH   1   2
BRANCH   1   5
ATOM      5  C   UNL     1      40.240  27.016  19.411  1.00  0.00     0.059 C 
BRANCH   5   6
ATOM      6  C   UNL     1      40.790  26.823  20.791  1.00  0.00     0.042 C 
ATOM      7  O   UNL     1      41.837  27.425  21.147  1.00  0.00    -0.550 OA
ATOM      8  O   UNL     1      40.168  25.945  21.669  1.00  0.00    -0.550 OA
ENDBRANCH   5   6
ENDBRANCH   1   5
TORSDOF 3
ENDMDL
MODEL 9
REMARK VINA RESULT:    -3.484      2.647      3.482
REMARK INTER + INTRA:          -4.065
REMARK INTER:                  -3.972
REMARK INTRA:                  -0.093
REMARK UNBOUND:                 0.030
REMARK SMILES O=C([O-])CCC(=O)[O-]
REMARK SMILES IDX 4 1 2 2 1 3 3 4 5 5 6 6 7 7 8 8
REMARK H PARENT
REMARK Flexibility Score: inf
ROOT
ATOM      1  C   UNL     1      41.388  26.401  19.527  1.00  0.00     0.059 C 
ENDROOT
BRANCH   1   2
ATOM      2  C   UNL     1      40.607  26.851  20.724  1.00  0.00     0.042 C 
ATOM      3  O   UNL     1      40.291  28.062  20.857  1.00  0.00    -0.550 OA
ATOM      4  O   UNL     1      40.264  25.937  21.714  1.00  0.00    -0.550 OA
ENDBRANCH   1   2
BRANCH   1   5
ATOM      5  C   UNL     1      41.238  27.377  18.357  1.00  0.00     0.059 C 
BRANCH   5   6
ATOM      6  C   UNL     1      40.422  26.789  17.247  1.00  0.00     0.042 C 
ATOM      7  O   UNL     1      40.962  26.496  16.148  1.00  0.00    -0.550 OA
ATOM      8  O   UNL     1      39.056  26.603  17.414  1.00  0.00    -0.550 OA
ENDBRANCH   5   6
ENDBRANCH   1   5
TORSDOF 3
ENDMDL
