MODEL 1
REMARK VINA RESULT:    -5.433      0.000      0.000
REMARK INTER + INTRA:         -16.302
REMARK INTER:                 -13.691
REMARK INTRA:                  -2.611
REMARK UNBOUND:                -2.611
REMARK SMILES CCCCCCCCCCCCCCCCCCCCCCCCCCCC(=O)[O-]
REMARK SMILES IDX 15 1 16 2 17 3 18 4 19 5 20 6 21 7 22 8 23 9 24 10 25 11
REMARK SMILES IDX 26 12 27 13 28 14 29 15 30 16 14 17 13 18 12 19 11 20 10 21
REMARK SMILES IDX 9 22 8 23 7 24 6 25 5 26 4 27 3 28 2 29 1 30
REMARK H PARENT
REMARK Flexibility Score: inf
ROOT
ATOM      1  C   UNL     1      10.636  51.264  23.065  1.00  0.00     0.000 C 
ENDROOT
BRANCH   1   2
ATOM      2  C   UNL     1      10.252  52.190  21.898  1.00  0.00     0.000 C 
BRANCH   2   3
ATOM      3  C   UNL     1      10.961  53.561  21.936  1.00  0.00     0.000 C 
BRANCH   3   4
ATOM      4  C   UNL     1      11.303  54.004  23.370  1.00  0.00     0.000 C 
BRANCH   4   5
ATOM      5  C   UNL     1      10.383  55.126  23.887  1.00  0.00     0.000 C 
BRANCH   5   6
ATOM      6  C   UNL     1       9.381  54.701  24.980  1.00  0.00     0.000 C 
BRANCH   6   7
ATOM      7  C   UNL     1       8.265  53.751  24.506  1.00  0.00     0.000 C 
BRANCH   7   8
ATOM      8  C   UNL     1       7.162  54.419  23.664  1.00  0.00     0.000 C 
BRANCH   8   9
ATOM      9  C   UNL     1       7.464  54.429  22.150  1.00  0.00     0.000 C 
BRANCH   9  10
ATOM     10  C   UNL     1       7.914  55.809  21.650  1.00  0.00     0.000 C 
BRANCH  10  11
ATOM     11  C   UNL     1       7.924  55.862  20.114  1.00  0.00     0.000 C 
BRANCH  11  12
ATOM     12  C   UNL     1       7.257  54.636  19.472  1.00  0.00     0.006 C 
BRANCH  12  13
ATOM     13  C   UNL     1       7.844  54.293  18.096  1.00  0.00     0.053 C 
BRANCH  13  14
ATOM     14  C   UNL     1       7.027  54.917  17.008  1.00  0.00     0.041 C 
ATOM     15  O   UNL     1       6.137  54.248  16.421  1.00  0.00    -0.550 OA
ATOM     16  O   UNL     1       7.222  56.250  16.669  1.00  0.00    -0.550 OA
ENDBRANCH  13  14
ENDBRANCH  12  13
ENDBRANCH  11  12
ENDBRANCH  10  11
ENDBRANCH   9  10
ENDBRANCH   8   9
ENDBRANCH   7   8
ENDBRANCH   6   7
ENDBRANCH   5   6
ENDBRANCH   4   5
ENDBRANCH   3   4
ENDBRANCH   2   3
ENDBRANCH   1   2
BRANCH   1  17
ATOM     17  C   UNL     1      10.745  49.789  22.645  1.00  0.00     0.000 C 
BRANCH  17  18
ATOM     18  C   UNL     1      11.346  48.908  23.751  1.00  0.00     0.000 C 
BRANCH  18  19
ATOM     19  C   UNL     1      10.267  48.228  24.613  1.00  0.00     0.000 C 
BRANCH  19  20
ATOM     20  C   UNL     1       9.382  47.258  23.809  1.00  0.00     0.000 C 
BRANCH  20  21
ATOM     21  C   UNL     1       9.521  45.773  24.194  1.00  0.00     0.000 C 
BRANCH  21  22
ATOM     22  C   UNL     1      10.935  45.219  23.948  1.00  0.00    -0.000 C 
BRANCH  22  23
ATOM     23  C   UNL     1      11.198  43.896  24.689  1.00  0.00    -0.000 C 
BRANCH  23  24
ATOM     24  C   UNL     1      11.852  44.035  26.079  1.00  0.00    -0.000 C 
BRANCH  24  25
ATOM     25  C   UNL     1      11.756  45.432  26.717  1.00  0.00    -0.000 C 
BRANCH  25  26
ATOM     26  C   UNL     1      13.038  45.837  27.465  1.00  0.00    -0.000 C 
BRANCH  26  27
ATOM     27  C   UNL     1      12.753  46.625  28.756  1.00  0.00    -0.000 C 
BRANCH  27  28
ATOM     28  C   UNL     1      12.779  48.161  28.610  1.00  0.00    -0.000 C 
BRANCH  28  29
ATOM     29  C   UNL     1      13.422  48.680  27.312  1.00  0.00    -0.003 C 
ATOM     30  C   UNL     1      14.854  49.172  27.514  1.00  0.00     0.004 C 
ENDBRANCH  28  29
ENDBRANCH  27  28
ENDBRANCH  26  27
ENDBRANCH  25  26
ENDBRANCH  24  25
ENDBRANCH  23  24
ENDBRANCH  22  23
ENDBRANCH  21  22
ENDBRANCH  20  21
ENDBRANCH  19  20
ENDBRANCH  18  19
ENDBRANCH  17  18
ENDBRANCH   1  17
TORSDOF 26
ENDMDL
MODEL 2
REMARK VINA RESULT:    -5.357      7.537     14.578
REMARK INTER + INTRA:         -16.111
REMARK INTER:                 -12.962
REMARK INTRA:                  -3.149
REMARK UNBOUND:                -2.611
REMARK SMILES CCCCCCCCCCCCCCCCCCCCCCCCCCCC(=O)[O-]
REMARK SMILES IDX 15 1 16 2 17 3 18 4 19 5 20 6 21 7 22 8 23 9 24 10 25 11
REMARK SMILES IDX 26 12 27 13 28 14 29 15 30 16 14 17 13 18 12 19 11 20 10 21
REMARK SMILES IDX 9 22 8 23 7 24 6 25 5 26 4 27 3 28 2 29 1 30
REMARK H PARENT
REMARK Flexibility Score: inf
ROOT
ATOM      1  C   UNL     1       2.109  60.076  18.406  1.00  0.00     0.000 C 
ENDROOT
BRANCH   1   2
ATOM      2  C   UNL     1       2.673  61.116  19.389  1.00  0.00     0.000 C 
BRANCH   2   3
ATOM      3  C   UNL     1       3.118  60.515  20.740  1.00  0.00     0.000 C 
BRANCH   3   4
ATOM      4  C   UNL     1       2.785  59.017  20.851  1.00  0.00     0.000 C 
BRANCH   4   5
ATOM      5  C   UNL     1       3.911  58.199  21.510  1.00  0.00     0.000 C 
BRANCH   5   6
ATOM      6  C   UNL     1       4.973  57.643  20.537  1.00  0.00     0.000 C 
BRANCH   6   7
ATOM      7  C   UNL     1       6.121  56.862  21.203  1.00  0.00     0.000 C 
BRANCH   7   8
ATOM      8  C   UNL     1       7.352  56.634  20.306  1.00  0.00     0.000 C 
BRANCH   8   9
ATOM      9  C   UNL     1       7.574  55.154  19.930  1.00  0.00     0.000 C 
BRANCH   9  10
ATOM     10  C   UNL     1       8.382  54.393  20.991  1.00  0.00     0.000 C 
BRANCH  10  11
ATOM     11  C   UNL     1       7.494  54.003  22.183  1.00  0.00     0.000 C 
BRANCH  11  12
ATOM     12  C   UNL     1       8.231  54.092  23.528  1.00  0.00     0.006 C 
BRANCH  12  13
ATOM     13  C   UNL     1       9.419  55.062  23.491  1.00  0.00     0.053 C 
BRANCH  13  14
ATOM     14  C   UNL     1      10.696  54.336  23.779  1.00  0.00     0.041 C 
ATOM     15  O   UNL     1      11.096  53.425  23.008  1.00  0.00    -0.550 OA
ATOM     16  O   UNL     1      11.465  54.692  24.881  1.00  0.00    -0.550 OA
ENDBRANCH  13  14
ENDBRANCH  12  13
ENDBRANCH  11  12
ENDBRANCH  10  11
ENDBRANCH   9  10
ENDBRANCH   8   9
ENDBRANCH   7   8
ENDBRANCH   6   7
ENDBRANCH   5   6
ENDBRANCH   4   5
ENDBRANCH   3   4
ENDBRANCH   2   3
ENDBRANCH   1   2
BRANCH   1  17
ATOM     17  C   UNL     1       2.491  60.367  16.945  1.00  0.00     0.000 C 
BRANCH  17  18
ATOM     18  C   UNL     1       1.285  60.280  15.997  1.00  0.00     0.000 C 
BRANCH  18  19
ATOM     19  C   UNL     1       0.991  61.618  15.296  1.00  0.00     0.000 C 
BRANCH  19  20
ATOM     20  C   UNL     1      -0.233  62.346  15.884  1.00  0.00     0.000 C 
BRANCH  20  21
ATOM     21  C   UNL     1       0.081  63.348  17.010  1.00  0.00     0.000 C 
BRANCH  21  22
ATOM     22  C   UNL     1      -0.388  62.863  18.393  1.00  0.00    -0.000 C 
BRANCH  22  23
ATOM     23  C   UNL     1      -1.289  61.618  18.317  1.00  0.00    -0.000 C 
BRANCH  23  24
ATOM     24  C   UNL     1      -1.330  60.752  19.593  1.00  0.00    -0.000 C 
BRANCH  24  25
ATOM     25  C   UNL     1      -0.789  61.426  20.866  1.00  0.00    -0.000 C 
BRANCH  25  26
ATOM     26  C   UNL     1      -0.921  60.539  22.115  1.00  0.00    -0.000 C 
BRANCH  26  27
ATOM     27  C   UNL     1       0.276  60.673  23.073  1.00  0.00    -0.000 C 
BRANCH  27  28
ATOM     28  C   UNL     1       0.607  59.410  23.897  1.00  0.00    -0.000 C 
BRANCH  28  29
ATOM     29  C   UNL     1      -0.313  59.164  25.106  1.00  0.00    -0.003 C 
ATOM     30  C   UNL     1      -0.929  60.449  25.655  1.00  0.00     0.004 C 
ENDBRANCH  28  29
ENDBRANCH  27  28
ENDBRANCH  26  27
ENDBRANCH  25  26
ENDBRANCH  24  25
ENDBRANCH  23  24
ENDBRANCH  22  23
ENDBRANCH  21  22
ENDBRANCH  20  21
ENDBRANCH  19  20
ENDBRANCH  18  19
ENDBRANCH  17  18
ENDBRANCH   1  17
TORSDOF 26
ENDMDL
MODEL 3
REMARK VINA RESULT:    -5.200      7.368     11.282
REMARK INTER + INTRA:         -15.714
REMARK INTER:                 -13.046
REMARK INTRA:                  -2.668
REMARK UNBOUND:                -2.611
REMARK SMILES CCCCCCCCCCCCCCCCCCCCCCCCCCCC(=O)[O-]
REMARK SMILES IDX 15 1 16 2 17 3 18 4 19 5 20 6 21 7 22 8 23 9 24 10 25 11
REMARK SMILES IDX 26 12 27 13 28 14 29 15 30 16 14 17 13 18 12 19 11 20 10 21
REMARK SMILES IDX 9 22 8 23 7 24 6 25 5 26 4 27 3 28 2 29 1 30
REMARK H PARENT
REMARK Flexibility Score: inf
ROOT
ATOM      1  C   UNL     1       2.132  60.113  22.403  1.00  0.00     0.000 C 
ENDROOT
BRANCH   1   2
ATOM      2  C   UNL     1       0.962  59.177  22.754  1.00  0.00     0.000 C 
BRANCH   2   3
ATOM      3  C   UNL     1       0.372  59.422  24.159  1.00  0.00     0.000 C 
BRANCH   3   4
ATOM      4  C   UNL     1      -1.154  59.229  24.196  1.00  0.00     0.000 C 
BRANCH   4   5
ATOM      5  C   UNL     1      -1.924  60.558  24.308  1.00  0.00     0.000 C 
BRANCH   5   6
ATOM      6  C   UNL     1      -1.120  61.817  23.921  1.00  0.00     0.000 C 
BRANCH   6   7
ATOM      7  C   UNL     1      -1.426  62.380  22.520  1.00  0.00     0.000 C 
BRANCH   7   8
ATOM      8  C   UNL     1      -2.022  61.363  21.530  1.00  0.00     0.000 C 
BRANCH   8   9
ATOM      9  C   UNL     1      -1.167  61.166  20.260  1.00  0.00     0.000 C 
BRANCH   9  10
ATOM     10  C   UNL     1      -1.014  62.460  19.449  1.00  0.00     0.000 C 
BRANCH  10  11
ATOM     11  C   UNL     1       0.407  62.586  18.877  1.00  0.00     0.000 C 
BRANCH  11  12
ATOM     12  C   UNL     1       0.426  62.678  17.344  1.00  0.00     0.006 C 
BRANCH  12  13
ATOM     13  C   UNL     1      -0.204  61.453  16.668  1.00  0.00     0.053 C 
BRANCH  13  14
ATOM     14  C   UNL     1       0.858  60.571  16.089  1.00  0.00     0.041 C 
ATOM     15  O   UNL     1       0.864  59.338  16.340  1.00  0.00    -0.550 OA
ATOM     16  O   UNL     1       1.819  61.106  15.240  1.00  0.00    -0.550 OA
ENDBRANCH  13  14
ENDBRANCH  12  13
ENDBRANCH  11  12
ENDBRANCH  10  11
ENDBRANCH   9  10
ENDBRANCH   8   9
ENDBRANCH   7   8
ENDBRANCH   6   7
ENDBRANCH   5   6
ENDBRANCH   4   5
ENDBRANCH   3   4
ENDBRANCH   2   3
ENDBRANCH   1   2
BRANCH   1  17
ATOM     17  C   UNL     1       2.327  60.284  20.888  1.00  0.00     0.000 C 
BRANCH  17  18
ATOM     18  C   UNL     1       3.607  59.602  20.381  1.00  0.00     0.000 C 
BRANCH  18  19
ATOM     19  C   UNL     1       3.683  58.119  20.786  1.00  0.00     0.000 C 
BRANCH  19  20
ATOM     20  C   UNL     1       4.927  57.792  21.631  1.00  0.00     0.000 C 
BRANCH  20  21
ATOM     21  C   UNL     1       5.574  56.425  21.342  1.00  0.00     0.000 C 
BRANCH  21  22
ATOM     22  C   UNL     1       6.874  56.536  20.526  1.00  0.00    -0.000 C 
BRANCH  22  23
ATOM     23  C   UNL     1       8.078  55.882  21.226  1.00  0.00    -0.000 C 
BRANCH  23  24
ATOM     24  C   UNL     1       8.898  54.905  20.358  1.00  0.00    -0.000 C 
BRANCH  24  25
ATOM     25  C   UNL     1       9.365  53.623  21.070  1.00  0.00    -0.000 C 
BRANCH  25  26
ATOM     26  C   UNL     1      10.793  53.736  21.629  1.00  0.00    -0.000 C 
BRANCH  26  27
ATOM     27  C   UNL     1      10.847  53.611  23.162  1.00  0.00    -0.000 C 
BRANCH  27  28
ATOM     28  C   UNL     1      10.496  54.896  23.941  1.00  0.00    -0.000 C 
BRANCH  28  29
ATOM     29  C   UNL     1       9.386  54.735  24.994  1.00  0.00    -0.003 C 
ATOM     30  C   UNL     1       8.207  53.903  24.493  1.00  0.00     0.004 C 
ENDBRANCH  28  29
ENDBRANCH  27  28
ENDBRANCH  26  27
ENDBRANCH  25  26
ENDBRANCH  24  25
ENDBRANCH  23  24
ENDBRANCH  22  23
ENDBRANCH  21  22
ENDBRANCH  20  21
ENDBRANCH  19  20
ENDBRANCH  18  19
ENDBRANCH  17  18
ENDBRANCH   1  17
TORSDOF 26
ENDMDL
MODEL 4
REMARK VINA RESULT:    -5.146      5.615      8.297
REMARK INTER + INTRA:         -15.579
REMARK INTER:                 -13.650
REMARK INTRA:                  -1.929
REMARK UNBOUND:                -2.611
REMARK SMILES CCCCCCCCCCCCCCCCCCCCCCCCCCCC(=O)[O-]
REMARK SMILES IDX 15 1 16 2 17 3 18 4 19 5 20 6 21 7 22 8 23 9 24 10 25 11
REMARK SMILES IDX 26 12 27 13 28 14 29 15 30 16 14 17 13 18 12 19 11 20 10 21
REMARK SMILES IDX 9 22 8 23 7 24 6 25 5 26 4 27 3 28 2 29 1 30
REMARK H PARENT
REMARK Flexibility Score: inf
ROOT
ATOM      1  C   UNL     1       5.814  56.318  20.979  1.00  0.00     0.000 C 
ENDROOT
BRANCH   1   2
ATOM      2  C   UNL     1       4.831  57.339  21.578  1.00  0.00     0.000 C 
BRANCH   2   3
ATOM      3  C   UNL     1       4.212  58.290  20.531  1.00  0.00     0.000 C 
BRANCH   3   4
ATOM      4  C   UNL     1       2.819  58.793  20.948  1.00  0.00     0.000 C 
BRANCH   4   5
ATOM      5  C   UNL     1       2.877  60.027  21.868  1.00  0.00     0.000 C 
BRANCH   5   6
ATOM      6  C   UNL     1       1.565  60.351  22.613  1.00  0.00     0.000 C 
BRANCH   6   7
ATOM      7  C   UNL     1       0.298  59.720  22.006  1.00  0.00     0.000 C 
BRANCH   7   8
ATOM      8  C   UNL     1      -0.803  60.726  21.620  1.00  0.00     0.000 C 
BRANCH   8   9
ATOM      9  C   UNL     1      -0.941  60.933  20.096  1.00  0.00     0.000 C 
BRANCH   9  10
ATOM     10  C   UNL     1      -0.297  62.242  19.620  1.00  0.00     0.000 C 
BRANCH  10  11
ATOM     11  C   UNL     1       0.664  61.989  18.448  1.00  0.00     0.000 C 
BRANCH  11  12
ATOM     12  C   UNL     1       1.038  60.506  18.295  1.00  0.00     0.006 C 
BRANCH  12  13
ATOM     13  C   UNL     1       2.285  60.296  17.425  1.00  0.00     0.053 C 
BRANCH  13  14
ATOM     14  C   UNL     1       1.915  60.284  15.975  1.00  0.00     0.041 C 
ATOM     15  O   UNL     1       2.172  61.278  15.246  1.00  0.00    -0.550 OA
ATOM     16  O   UNL     1       1.319  59.159  15.418  1.00  0.00    -0.550 OA
ENDBRANCH  13  14
ENDBRANCH  12  13
ENDBRANCH  11  12
ENDBRANCH  10  11
ENDBRANCH   9  10
ENDBRANCH   8   9
ENDBRANCH   7   8
ENDBRANCH   6   7
ENDBRANCH   5   6
ENDBRANCH   4   5
ENDBRANCH   3   4
ENDBRANCH   2   3
ENDBRANCH   1   2
BRANCH   1  17
ATOM     17  C   UNL     1       7.161  56.945  20.586  1.00  0.00     0.000 C 
BRANCH  17  18
ATOM     18  C   UNL     1       8.001  56.018  19.695  1.00  0.00     0.000 C 
BRANCH  18  19
ATOM     19  C   UNL     1       8.290  54.663  20.365  1.00  0.00     0.000 C 
BRANCH  19  20
ATOM     20  C   UNL     1       8.787  54.806  21.815  1.00  0.00     0.000 C 
BRANCH  20  21
ATOM     21  C   UNL     1      10.238  54.349  22.058  1.00  0.00     0.000 C 
BRANCH  21  22
ATOM     22  C   UNL     1      10.499  52.905  21.594  1.00  0.00    -0.000 C 
BRANCH  22  23
ATOM     23  C   UNL     1      10.599  51.910  22.764  1.00  0.00    -0.000 C 
BRANCH  23  24
ATOM     24  C   UNL     1      10.586  50.419  22.367  1.00  0.00    -0.000 C 
BRANCH  24  25
ATOM     25  C   UNL     1      11.005  49.437  23.475  1.00  0.00    -0.000 C 
BRANCH  25  26
ATOM     26  C   UNL     1      11.865  48.275  22.950  1.00  0.00    -0.000 C 
BRANCH  26  27
ATOM     27  C   UNL     1      11.380  46.901  23.445  1.00  0.00    -0.000 C 
BRANCH  27  28
ATOM     28  C   UNL     1       9.867  46.800  23.732  1.00  0.00    -0.000 C 
BRANCH  28  29
ATOM     29  C   UNL     1       9.301  45.369  23.739  1.00  0.00    -0.003 C 
ATOM     30  C   UNL     1      10.391  44.299  23.715  1.00  0.00     0.004 C 
ENDBRANCH  28  29
ENDBRANCH  27  28
ENDBRANCH  26  27
ENDBRANCH  25  26
ENDBRANCH  24  25
ENDBRANCH  23  24
ENDBRANCH  22  23
ENDBRANCH  21  22
ENDBRANCH  20  21
ENDBRANCH  19  20
ENDBRANCH  18  19
ENDBRANCH  17  18
ENDBRANCH   1  17
TORSDOF 26
ENDMDL
MODEL 5
REMARK VINA RESULT:    -5.098      2.970      5.037
REMARK INTER + INTRA:         -15.459
REMARK INTER:                 -13.195
REMARK INTRA:                  -2.264
REMARK UNBOUND:                -2.611
REMARK SMILES CCCCCCCCCCCCCCCCCCCCCCCCCCCC(=O)[O-]
REMARK SMILES IDX 15 1 16 2 17 3 18 4 19 5 20 6 21 7 22 8 23 9 24 10 25 11
REMARK SMILES IDX 26 12 27 13 28 14 29 15 30 16 14 17 13 18 12 19 11 20 10 21
REMARK SMILES IDX 9 22 8 23 7 24 6 25 5 26 4 27 3 28 2 29 1 30
REMARK H PARENT
REMARK Flexibility Score: inf
ROOT
ATOM      1  C   UNL     1      10.636  51.311  22.810  1.00  0.00     0.000 C 
ENDROOT
BRANCH   1   2
ATOM      2  C   UNL     1      10.199  52.223  21.651  1.00  0.00     0.000 C 
BRANCH   2   3
ATOM      3  C   UNL     1      10.706  53.676  21.782  1.00  0.00     0.000 C 
BRANCH   3   4
ATOM      4  C   UNL     1      11.152  54.014  23.215  1.00  0.00     0.000 C 
BRANCH   4   5
ATOM      5  C   UNL     1      10.258  55.073  23.887  1.00  0.00     0.000 C 
BRANCH   5   6
ATOM      6  C   UNL     1       9.188  54.513  24.848  1.00  0.00     0.000 C 
BRANCH   6   7
ATOM      7  C   UNL     1       8.140  53.594  24.192  1.00  0.00     0.000 C 
BRANCH   7   8
ATOM      8  C   UNL     1       6.940  54.328  23.565  1.00  0.00     0.000 C 
BRANCH   8   9
ATOM      9  C   UNL     1       7.115  54.617  22.058  1.00  0.00     0.000 C 
BRANCH   9  10
ATOM     10  C   UNL     1       6.205  55.753  21.570  1.00  0.00     0.000 C 
BRANCH  10  11
ATOM     11  C   UNL     1       7.007  56.797  20.776  1.00  0.00     0.000 C 
BRANCH  11  12
ATOM     12  C   UNL     1       8.027  56.162  19.819  1.00  0.00     0.006 C 
BRANCH  12  13
ATOM     13  C   UNL     1       7.666  56.371  18.342  1.00  0.00     0.053 C 
BRANCH  13  14
ATOM     14  C   UNL     1       7.227  55.081  17.723  1.00  0.00     0.041 C 
ATOM     15  O   UNL     1       6.981  55.021  16.490  1.00  0.00    -0.550 OA
ATOM     16  O   UNL     1       7.126  53.935  18.502  1.00  0.00    -0.550 OA
ENDBRANCH  13  14
ENDBRANCH  12  13
ENDBRANCH  11  12
ENDBRANCH  10  11
ENDBRANCH   9  10
ENDBRANCH   8   9
ENDBRANCH   7   8
ENDBRANCH   6   7
ENDBRANCH   5   6
ENDBRANCH   4   5
ENDBRANCH   3   4
ENDBRANCH   2   3
ENDBRANCH   1   2
BRANCH   1  17
ATOM     17  C   UNL     1      10.831  49.849  22.377  1.00  0.00     0.000 C 
BRANCH  17  18
ATOM     18  C   UNL     1      11.605  49.027  23.420  1.00  0.00     0.000 C 
BRANCH  18  19
ATOM     19  C   UNL     1      10.674  48.222  24.343  1.00  0.00     0.000 C 
BRANCH  19  20
ATOM     20  C   UNL     1       9.828  47.184  23.582  1.00  0.00     0.000 C 
BRANCH  20  21
ATOM     21  C   UNL     1       9.755  45.792  24.237  1.00  0.00     0.000 C 
BRANCH  21  22
ATOM     22  C   UNL     1       8.522  44.985  23.796  1.00  0.00    -0.000 C 
BRANCH  22  23
ATOM     23  C   UNL     1       7.467  44.848  24.909  1.00  0.00    -0.000 C 
BRANCH  23  24
ATOM     24  C   UNL     1       6.895  46.176  25.446  1.00  0.00    -0.000 C 
BRANCH  24  25
ATOM     25  C   UNL     1       5.650  46.702  24.712  1.00  0.00    -0.000 C 
BRANCH  25  26
ATOM     26  C   UNL     1       4.529  47.137  25.672  1.00  0.00    -0.000 C 
BRANCH  26  27
ATOM     27  C   UNL     1       3.347  47.804  24.948  1.00  0.00    -0.000 C 
BRANCH  27  28
ATOM     28  C   UNL     1       2.734  46.986  23.792  1.00  0.00    -0.000 C 
BRANCH  28  29
ATOM     29  C   UNL     1       2.566  47.754  22.469  1.00  0.00    -0.003 C 
ATOM     30  C   UNL     1       1.819  49.075  22.640  1.00  0.00     0.004 C 
ENDBRANCH  28  29
ENDBRANCH  27  28
ENDBRANCH  26  27
ENDBRANCH  25  26
ENDBRANCH  24  25
ENDBRANCH  23  24
ENDBRANCH  22  23
ENDBRANCH  21  22
ENDBRANCH  20  21
ENDBRANCH  19  20
ENDBRANCH  18  19
ENDBRANCH  17  18
ENDBRANCH   1  17
TORSDOF 26
ENDMDL
MODEL 6
REMARK VINA RESULT:    -5.070      4.014     11.113
REMARK INTER + INTRA:         -15.388
REMARK INTER:                 -13.382
REMARK INTRA:                  -2.006
REMARK UNBOUND:                -2.611
REMARK SMILES CCCCCCCCCCCCCCCCCCCCCCCCCCCC(=O)[O-]
REMARK SMILES IDX 15 1 16 2 17 3 18 4 19 5 20 6 21 7 22 8 23 9 24 10 25 11
REMARK SMILES IDX 26 12 27 13 28 14 29 15 30 16 14 17 13 18 12 19 11 20 10 21
REMARK SMILES IDX 9 22 8 23 7 24 6 25 5 26 4 27 3 28 2 29 1 30
REMARK H PARENT
REMARK Flexibility Score: inf
ROOT
ATOM      1  C   UNL     1      10.785  49.663  23.553  1.00  0.00     0.000 C 
ENDROOT
BRANCH   1   2
ATOM      2  C   UNL     1      10.830  48.178  23.152  1.00  0.00     0.000 C 
BRANCH   2   3
ATOM      3  C   UNL     1       9.778  47.310  23.876  1.00  0.00     0.000 C 
BRANCH   3   4
ATOM      4  C   UNL     1      10.412  46.361  24.908  1.00  0.00     0.000 C 
BRANCH   4   5
ATOM      5  C   UNL     1      10.900  45.039  24.288  1.00  0.00     0.000 C 
BRANCH   5   6
ATOM      6  C   UNL     1      11.420  43.994  25.297  1.00  0.00     0.000 C 
BRANCH   6   7
ATOM      7  C   UNL     1      12.953  43.914  25.422  1.00  0.00     0.000 C 
BRANCH   7   8
ATOM      8  C   UNL     1      13.507  44.274  26.813  1.00  0.00     0.000 C 
BRANCH   8   9
ATOM      9  C   UNL     1      12.413  44.663  27.830  1.00  0.00     0.000 C 
BRANCH   9  10
ATOM     10  C   UNL     1      12.997  45.201  29.144  1.00  0.00     0.000 C 
BRANCH  10  11
ATOM     11  C   UNL     1      13.618  46.592  28.941  1.00  0.00     0.000 C 
BRANCH  11  12
ATOM     12  C   UNL     1      12.704  47.544  28.154  1.00  0.00     0.006 C 
BRANCH  12  13
ATOM     13  C   UNL     1      13.442  48.284  27.031  1.00  0.00     0.053 C 
BRANCH  13  14
ATOM     14  C   UNL     1      14.512  49.163  27.600  1.00  0.00     0.041 C 
ATOM     15  O   UNL     1      15.700  49.059  27.195  1.00  0.00    -0.550 OA
ATOM     16  O   UNL     1      14.190  50.124  28.550  1.00  0.00    -0.550 OA
ENDBRANCH  13  14
ENDBRANCH  12  13
ENDBRANCH  11  12
ENDBRANCH  10  11
ENDBRANCH   9  10
ENDBRANCH   8   9
ENDBRANCH   7   8
ENDBRANCH   6   7
ENDBRANCH   5   6
ENDBRANCH   4   5
ENDBRANCH   3   4
ENDBRANCH   2   3
ENDBRANCH   1   2
BRANCH   1  17
ATOM     17  C   UNL     1      11.012  50.610  22.363  1.00  0.00     0.000 C 
BRANCH  17  18
ATOM     18  C   UNL     1      10.150  51.878  22.451  1.00  0.00     0.000 C 
BRANCH  18  19
ATOM     19  C   UNL     1      10.969  53.162  22.230  1.00  0.00     0.000 C 
BRANCH  19  20
ATOM     20  C   UNL     1      11.041  54.051  23.485  1.00  0.00     0.000 C 
BRANCH  20  21
ATOM     21  C   UNL     1       9.836  54.988  23.692  1.00  0.00     0.000 C 
BRANCH  21  22
ATOM     22  C   UNL     1       8.730  54.362  24.559  1.00  0.00    -0.000 C 
BRANCH  22  23
ATOM     23  C   UNL     1       7.428  54.109  23.779  1.00  0.00    -0.000 C 
BRANCH  23  24
ATOM     24  C   UNL     1       7.521  54.316  22.253  1.00  0.00    -0.000 C 
BRANCH  24  25
ATOM     25  C   UNL     1       6.658  55.458  21.689  1.00  0.00    -0.000 C 
BRANCH  25  26
ATOM     26  C   UNL     1       7.494  56.568  21.028  1.00  0.00    -0.000 C 
BRANCH  26  27
ATOM     27  C   UNL     1       7.940  56.210  19.599  1.00  0.00    -0.000 C 
BRANCH  27  28
ATOM     28  C   UNL     1       8.010  54.700  19.288  1.00  0.00    -0.000 C 
BRANCH  28  29
ATOM     29  C   UNL     1       7.991  54.343  17.792  1.00  0.00    -0.003 C 
ATOM     30  C   UNL     1       7.007  55.194  16.991  1.00  0.00     0.004 C 
ENDBRANCH  28  29
ENDBRANCH  27  28
ENDBRANCH  26  27
ENDBRANCH  25  26
ENDBRANCH  24  25
ENDBRANCH  23  24
ENDBRANCH  22  23
ENDBRANCH  21  22
ENDBRANCH  20  21
ENDBRANCH  19  20
ENDBRANCH  18  19
ENDBRANCH  17  18
ENDBRANCH   1  17
TORSDOF 26
ENDMDL
MODEL 7
REMARK VINA RESULT:    -5.027      1.606      3.499
REMARK INTER + INTRA:         -15.279
REMARK INTER:                 -12.466
REMARK INTRA:                  -2.812
REMARK UNBOUND:                -2.611
REMARK SMILES CCCCCCCCCCCCCCCCCCCCCCCCCCCC(=O)[O-]
REMARK SMILES IDX 15 1 16 2 17 3 18 4 19 5 20 6 21 7 22 8 23 9 24 10 25 11
REMARK SMILES IDX 26 12 27 13 28 14 29 15 30 16 14 17 13 18 12 19 11 20 10 21
REMARK SMILES IDX 9 22 8 23 7 24 6 25 5 26 4 27 3 28 2 29 1 30
REMARK H PARENT
REMARK Flexibility Score: inf
ROOT
ATOM      1  C   UNL     1      10.574  51.554  22.812  1.00  0.00     0.000 C 
ENDROOT
BRANCH   1   2
ATOM      2  C   UNL     1      10.423  52.505  21.612  1.00  0.00     0.000 C 
BRANCH   2   3
ATOM      3  C   UNL     1      10.811  53.965  21.927  1.00  0.00     0.000 C 
BRANCH   3   4
ATOM      4  C   UNL     1      11.056  54.195  23.429  1.00  0.00     0.000 C 
BRANCH   4   5
ATOM      5  C   UNL     1      10.096  55.231  24.042  1.00  0.00     0.000 C 
BRANCH   5   6
ATOM      6  C   UNL     1       8.890  54.638  24.802  1.00  0.00     0.000 C 
BRANCH   6   7
ATOM      7  C   UNL     1       8.019  53.666  23.984  1.00  0.00     0.000 C 
BRANCH   7   8
ATOM      8  C   UNL     1       6.871  54.331  23.201  1.00  0.00     0.000 C 
BRANCH   8   9
ATOM      9  C   UNL     1       7.308  54.904  21.836  1.00  0.00     0.000 C 
BRANCH   9  10
ATOM     10  C   UNL     1       7.009  56.404  21.707  1.00  0.00     0.000 C 
BRANCH  10  11
ATOM     11  C   UNL     1       6.854  56.810  20.233  1.00  0.00     0.000 C 
BRANCH  11  12
ATOM     12  C   UNL     1       7.993  56.282  19.347  1.00  0.00     0.006 C 
BRANCH  12  13
ATOM     13  C   UNL     1       7.591  56.167  17.870  1.00  0.00     0.053 C 
BRANCH  13  14
ATOM     14  C   UNL     1       7.114  54.781  17.564  1.00  0.00     0.041 C 
ATOM     15  O   UNL     1       7.391  53.829  18.340  1.00  0.00    -0.550 OA
ATOM     16  O   UNL     1       6.331  54.548  16.441  1.00  0.00    -0.550 OA
ENDBRANCH  13  14
ENDBRANCH  12  13
ENDBRANCH  11  12
ENDBRANCH  10  11
ENDBRANCH   9  10
ENDBRANCH   8   9
ENDBRANCH   7   8
ENDBRANCH   6   7
ENDBRANCH   5   6
ENDBRANCH   4   5
ENDBRANCH   3   4
ENDBRANCH   2   3
ENDBRANCH   1   2
BRANCH   1  17
ATOM     17  C   UNL     1      10.633  50.074  22.398  1.00  0.00     0.000 C 
BRANCH  17  18
ATOM     18  C   UNL     1      11.504  49.235  23.345  1.00  0.00     0.000 C 
BRANCH  18  19
ATOM     19  C   UNL     1      11.429  47.730  23.034  1.00  0.00     0.000 C 
BRANCH  19  20
ATOM     20  C   UNL     1      12.207  46.870  24.047  1.00  0.00     0.000 C 
BRANCH  20  21
ATOM     21  C   UNL     1      11.733  46.991  25.508  1.00  0.00     0.000 C 
BRANCH  21  22
ATOM     22  C   UNL     1      11.939  45.697  26.315  1.00  0.00    -0.000 C 
BRANCH  22  23
ATOM     23  C   UNL     1      11.596  44.429  25.512  1.00  0.00    -0.000 C 
BRANCH  23  24
ATOM     24  C   UNL     1      10.092  44.188  25.267  1.00  0.00    -0.000 C 
BRANCH  24  25
ATOM     25  C   UNL     1       9.626  44.355  23.810  1.00  0.00    -0.000 C 
BRANCH  25  26
ATOM     26  C   UNL     1       8.242  45.016  23.698  1.00  0.00    -0.000 C 
BRANCH  26  27
ATOM     27  C   UNL     1       8.168  46.375  24.418  1.00  0.00    -0.000 C 
BRANCH  27  28
ATOM     28  C   UNL     1       7.246  46.416  25.655  1.00  0.00    -0.000 C 
BRANCH  28  29
ATOM     29  C   UNL     1       5.781  46.029  25.387  1.00  0.00    -0.003 C 
ATOM     30  C   UNL     1       5.018  47.097  24.606  1.00  0.00     0.004 C 
ENDBRANCH  28  29
ENDBRANCH  27  28
ENDBRANCH  26  27
ENDBRANCH  25  26
ENDBRANCH  24  25
ENDBRANCH  23  24
ENDBRANCH  22  23
ENDBRANCH  21  22
ENDBRANCH  20  21
ENDBRANCH  19  20
ENDBRANCH  18  19
ENDBRANCH  17  18
ENDBRANCH   1  17
TORSDOF 26
ENDMDL
MODEL 8
REMARK VINA RESULT:    -4.921      4.458      9.422
REMARK INTER + INTRA:         -15.011
REMARK INTER:                 -13.255
REMARK INTRA:                  -1.756
REMARK UNBOUND:                -2.611
REMARK SMILES CCCCCCCCCCCCCCCCCCCCCCCCCCCC(=O)[O-]
REMARK SMILES IDX 15 1 16 2 17 3 18 4 19 5 20 6 21 7 22 8 23 9 24 10 25 11
REMARK SMILES IDX 26 12 27 13 28 14 29 15 30 16 14 17 13 18 12 19 11 20 10 21
REMARK SMILES IDX 9 22 8 23 7 24 6 25 5 26 4 27 3 28 2 29 1 30
REMARK H PARENT
REMARK Flexibility Score: inf
ROOT
ATOM      1  C   UNL     1      11.874  46.208  24.533  1.00  0.00     0.000 C 
ENDROOT
BRANCH   1   2
ATOM      2  C   UNL     1      10.814  45.754  23.515  1.00  0.00     0.000 C 
BRANCH   2   3
ATOM      3  C   UNL     1       9.978  44.545  23.987  1.00  0.00     0.000 C 
BRANCH   3   4
ATOM      4  C   UNL     1       8.465  44.808  23.897  1.00  0.00     0.000 C 
BRANCH   4   5
ATOM      5  C   UNL     1       8.119  46.306  23.811  1.00  0.00     0.000 C 
BRANCH   5   6
ATOM      6  C   UNL     1       6.766  46.704  24.437  1.00  0.00     0.000 C 
BRANCH   6   7
ATOM      7  C   UNL     1       6.515  46.150  25.852  1.00  0.00     0.000 C 
BRANCH   7   8
ATOM      8  C   UNL     1       5.097  46.398  26.400  1.00  0.00     0.000 C 
BRANCH   8   9
ATOM      9  C   UNL     1       4.103  46.900  25.331  1.00  0.00     0.000 C 
BRANCH   9  10
ATOM     10  C   UNL     1       3.496  48.264  25.690  1.00  0.00     0.000 C 
BRANCH  10  11
ATOM     11  C   UNL     1       3.128  49.053  24.423  1.00  0.00     0.000 C 
BRANCH  11  12
ATOM     12  C   UNL     1       3.059  48.168  23.169  1.00  0.00     0.006 C 
BRANCH  12  13
ATOM     13  C   UNL     1       1.814  48.444  22.316  1.00  0.00     0.053 C 
BRANCH  13  14
ATOM     14  C   UNL     1       0.606  48.598  23.186  1.00  0.00     0.041 C 
ATOM     15  O   UNL     1       0.197  47.629  23.879  1.00  0.00    -0.550 OA
ATOM     16  O   UNL     1      -0.046  49.822  23.261  1.00  0.00    -0.550 OA
ENDBRANCH  13  14
ENDBRANCH  12  13
ENDBRANCH  11  12
ENDBRANCH  10  11
ENDBRANCH   9  10
ENDBRANCH   8   9
ENDBRANCH   7   8
ENDBRANCH   6   7
ENDBRANCH   5   6
ENDBRANCH   4   5
ENDBRANCH   3   4
ENDBRANCH   2   3
ENDBRANCH   1   2
BRANCH   1  17
ATOM     17  C   UNL     1      12.422  47.613  24.239  1.00  0.00     0.000 C 
BRANCH  17  18
ATOM     18  C   UNL     1      11.673  48.306  23.090  1.00  0.00     0.000 C 
BRANCH  18  19
ATOM     19  C   UNL     1      10.888  49.543  23.561  1.00  0.00     0.000 C 
BRANCH  19  20
ATOM     20  C   UNL     1      10.525  50.496  22.408  1.00  0.00     0.000 C 
BRANCH  20  21
ATOM     21  C   UNL     1      10.629  51.996  22.742  1.00  0.00     0.000 C 
BRANCH  21  22
ATOM     22  C   UNL     1      10.553  52.895  21.496  1.00  0.00    -0.000 C 
BRANCH  22  23
ATOM     23  C   UNL     1      10.257  54.367  21.837  1.00  0.00    -0.000 C 
BRANCH  23  24
ATOM     24  C   UNL     1       9.232  54.592  22.967  1.00  0.00    -0.000 C 
BRANCH  24  25
ATOM     25  C   UNL     1       7.811  54.073  22.680  1.00  0.00    -0.000 C 
BRANCH  25  26
ATOM     26  C   UNL     1       6.925  55.116  21.978  1.00  0.00    -0.000 C 
BRANCH  26  27
ATOM     27  C   UNL     1       7.739  56.224  21.287  1.00  0.00    -0.000 C 
BRANCH  27  28
ATOM     28  C   UNL     1       7.909  56.063  19.761  1.00  0.00    -0.000 C 
BRANCH  28  29
ATOM     29  C   UNL     1       7.334  54.761  19.177  1.00  0.00    -0.003 C 
ATOM     30  C   UNL     1       7.273  54.771  17.651  1.00  0.00     0.004 C 
ENDBRANCH  28  29
ENDBRANCH  27  28
ENDBRANCH  26  27
ENDBRANCH  25  26
ENDBRANCH  24  25
ENDBRANCH  23  24
ENDBRANCH  22  23
ENDBRANCH  21  22
ENDBRANCH  20  21
ENDBRANCH  19  20
ENDBRANCH  18  19
ENDBRANCH  17  18
ENDBRANCH   1  17
TORSDOF 26
ENDMDL
MODEL 9
REMARK VINA RESULT:    -4.845      5.460      9.939
REMARK INTER + INTRA:         -14.820
REMARK INTER:                 -11.149
REMARK INTRA:                  -3.671
REMARK UNBOUND:                -2.611
REMARK SMILES CCCCCCCCCCCCCCCCCCCCCCCCCCCC(=O)[O-]
REMARK SMILES IDX 15 1 16 2 17 3 18 4 19 5 20 6 21 7 22 8 23 9 24 10 25 11
REMARK SMILES IDX 26 12 27 13 28 14 29 15 30 16 14 17 13 18 12 19 11 20 10 21
REMARK SMILES IDX 9 22 8 23 7 24 6 25 5 26 4 27 3 28 2 29 1 30
REMARK H PARENT
REMARK Flexibility Score: inf
ROOT
ATOM      1  C   UNL     1       7.201  46.333  24.667  1.00  0.00     0.000 C 
ENDROOT
BRANCH   1   2
ATOM      2  C   UNL     1       8.551  46.289  23.930  1.00  0.00     0.000 C 
BRANCH   2   3
ATOM      3  C   UNL     1       9.122  44.864  23.770  1.00  0.00     0.000 C 
BRANCH   3   4
ATOM      4  C   UNL     1      10.659  44.837  23.849  1.00  0.00     0.000 C 
BRANCH   4   5
ATOM      5  C   UNL     1      11.183  44.125  25.110  1.00  0.00     0.000 C 
BRANCH   5   6
ATOM      6  C   UNL     1      10.945  44.880  26.435  1.00  0.00     0.000 C 
BRANCH   6   7
ATOM      7  C   UNL     1      11.946  44.553  27.559  1.00  0.00     0.000 C 
BRANCH   7   8
ATOM      8  C   UNL     1      12.228  45.715  28.531  1.00  0.00     0.000 C 
BRANCH   8   9
ATOM      9  C   UNL     1      13.727  46.062  28.656  1.00  0.00     0.000 C 
BRANCH   9  10
ATOM     10  C   UNL     1      14.108  47.314  27.853  1.00  0.00     0.000 C 
BRANCH  10  11
ATOM     11  C   UNL     1      12.863  47.981  27.249  1.00  0.00     0.000 C 
BRANCH  11  12
ATOM     12  C   UNL     1      12.887  48.009  25.713  1.00  0.00     0.006 C 
BRANCH  12  13
ATOM     13  C   UNL     1      11.515  48.322  25.103  1.00  0.00     0.053 C 
BRANCH  13  14
ATOM     14  C   UNL     1      11.648  48.630  23.644  1.00  0.00     0.041 C 
ATOM     15  O   UNL     1      12.282  47.849  22.887  1.00  0.00    -0.550 OA
ATOM     16  O   UNL     1      11.040  49.761  23.114  1.00  0.00    -0.550 OA
ENDBRANCH  13  14
ENDBRANCH  12  13
ENDBRANCH  11  12
ENDBRANCH  10  11
ENDBRANCH   9  10
ENDBRANCH   8   9
ENDBRANCH   7   8
ENDBRANCH   6   7
ENDBRANCH   5   6
ENDBRANCH   4   5
ENDBRANCH   3   4
ENDBRANCH   2   3
ENDBRANCH   1   2
BRANCH   1  17
ATOM     17  C   UNL     1       6.948  45.084  25.526  1.00  0.00     0.000 C 
BRANCH  17  18
ATOM     18  C   UNL     1       7.347  45.291  26.995  1.00  0.00     0.000 C 
BRANCH  18  19
ATOM     19  C   UNL     1       6.170  45.069  27.961  1.00  0.00     0.000 C 
BRANCH  19  20
ATOM     20  C   UNL     1       5.452  46.377  28.341  1.00  0.00     0.000 C 
BRANCH  20  21
ATOM     21  C   UNL     1       4.029  46.532  27.772  1.00  0.00     0.000 C 
BRANCH  21  22
ATOM     22  C   UNL     1       3.547  45.284  27.012  1.00  0.00    -0.000 C 
BRANCH  22  23
ATOM     23  C   UNL     1       2.967  45.614  25.625  1.00  0.00    -0.000 C 
BRANCH  23  24
ATOM     24  C   UNL     1       2.949  47.111  25.255  1.00  0.00    -0.000 C 
BRANCH  24  25
ATOM     25  C   UNL     1       4.035  47.558  24.260  1.00  0.00    -0.000 C 
BRANCH  25  26
ATOM     26  C   UNL     1       3.531  47.607  22.808  1.00  0.00    -0.000 C 
BRANCH  26  27
ATOM     27  C   UNL     1       2.004  47.771  22.709  1.00  0.00    -0.000 C 
BRANCH  27  28
ATOM     28  C   UNL     1       1.516  49.183  22.322  1.00  0.00    -0.000 C 
BRANCH  28  29
ATOM     29  C   UNL     1       0.907  49.999  23.475  1.00  0.00    -0.003 C 
ATOM     30  C   UNL     1       1.962  50.596  24.404  1.00  0.00     0.004 C 
ENDBRANCH  28  29
ENDBRANCH  27  28
ENDBRANCH  26  27
ENDBRANCH  25  26
ENDBRANCH  24  25
ENDBRANCH  23  24
ENDBRANCH  22  23
ENDBRANCH  21  22
ENDBRANCH  20  21
ENDBRANCH  19  20
ENDBRANCH  18  19
ENDBRANCH  17  18
ENDBRANCH   1  17
TORSDOF 26
ENDMDL
