MODEL 1
REMARK VINA RESULT:    -3.973      0.000      0.000
REMARK INTER + INTRA:          -8.706
REMARK INTER:                  -6.760
REMARK INTRA:                  -1.946
REMARK UNBOUND:                -1.946
REMARK SMILES CCCCCCCCCCCCCC(=O)[O-]
REMARK SMILES IDX 8 1 9 2 10 3 11 4 12 5 13 6 14 7 15 8 16 9 7 10 6 11 5 12
REMARK SMILES IDX 4 13 3 14 2 15 1 16
REMARK H PARENT
REMARK Flexibility Score: inf
ROOT
ATOM      1  C   UNL     1      48.731  -0.566  72.324  1.00  0.00     0.000 C 
ENDROOT
BRANCH   1   2
ATOM      2  C   UNL     1      50.095  -1.024  71.794  1.00  0.00     0.000 C 
BRANCH   2   3
ATOM      3  C   UNL     1      51.204  -0.050  72.212  1.00  0.00     0.000 C 
BRANCH   3   4
ATOM      4  C   UNL     1      52.534  -0.789  72.425  1.00  0.00     0.000 C 
BRANCH   4   5
ATOM      5  C   UNL     1      52.374  -2.082  73.245  1.00  0.00     0.006 C 
BRANCH   5   6
ATOM      6  C   UNL     1      53.186  -3.274  72.712  1.00  0.00     0.053 C 
BRANCH   6   7
ATOM      7  C   UNL     1      54.001  -3.925  73.786  1.00  0.00     0.041 C 
ATOM      8  O   UNL     1      55.117  -4.438  73.511  1.00  0.00    -0.550 OA
ATOM      9  O   UNL     1      53.510  -3.998  75.084  1.00  0.00    -0.550 OA
ENDBRANCH   6   7
ENDBRANCH   5   6
ENDBRANCH   4   5
ENDBRANCH   3   4
ENDBRANCH   2   3
ENDBRANCH   1   2
BRANCH   1  10
ATOM     10  C   UNL     1      48.865   0.053  73.721  1.00  0.00     0.000 C 
BRANCH  10  11
ATOM     11  C   UNL     1      48.344  -0.905  74.799  1.00  0.00    -0.000 C 
BRANCH  11  12
ATOM     12  C   UNL     1      49.482  -1.770  75.363  1.00  0.00    -0.000 C 
BRANCH  12  13
ATOM     13  C   UNL     1      49.315  -3.261  75.009  1.00  0.00    -0.000 C 
BRANCH  13  14
ATOM     14  C   UNL     1      47.945  -3.610  74.397  1.00  0.00    -0.000 C 
BRANCH  14  15
ATOM     15  C   UNL     1      48.018  -4.166  72.962  1.00  0.00    -0.003 C 
ATOM     16  C   UNL     1      49.451  -4.467  72.519  1.00  0.00     0.004 C 
ENDBRANCH  14  15
ENDBRANCH  13  14
ENDBRANCH  12  13
ENDBRANCH  11  12
ENDBRANCH  10  11
ENDBRANCH   1  10
TORSDOF 12
ENDMDL
MODEL 2
REMARK VINA RESULT:    -3.870     12.080     14.160
REMARK INTER + INTRA:          -8.531
REMARK INTER:                  -7.145
REMARK INTRA:                  -1.386
REMARK UNBOUND:                -1.946
REMARK SMILES CCCCCCCCCCCCCC(=O)[O-]
REMARK SMILES IDX 8 1 9 2 10 3 11 4 12 5 13 6 14 7 15 8 16 9 7 10 6 11 5 12
REMARK SMILES IDX 4 13 3 14 2 15 1 16
REMARK H PARENT
REMARK Flexibility Score: inf
ROOT
ATOM      1  C   UNL     1      58.715  -5.383  83.480  1.00  0.00     0.000 C 
ENDROOT
BRANCH   1   2
ATOM      2  C   UNL     1      59.706  -5.639  84.623  1.00  0.00     0.000 C 
BRANCH   2   3
ATOM      3  C   UNL     1      61.154  -5.583  84.119  1.00  0.00     0.000 C 
BRANCH   3   4
ATOM      4  C   UNL     1      61.285  -6.258  82.745  1.00  0.00     0.000 C 
BRANCH   4   5
ATOM      5  C   UNL     1      61.725  -7.730  82.843  1.00  0.00     0.006 C 
BRANCH   5   6
ATOM      6  C   UNL     1      60.887  -8.699  81.992  1.00  0.00     0.053 C 
BRANCH   6   7
ATOM      7  C   UNL     1      61.631  -9.171  80.781  1.00  0.00     0.041 C 
ATOM      8  O   UNL     1      61.788  -8.404  79.794  1.00  0.00    -0.550 OA
ATOM      9  O   UNL     1      62.120 -10.471  80.727  1.00  0.00    -0.550 OA
ENDBRANCH   6   7
ENDBRANCH   5   6
ENDBRANCH   4   5
ENDBRANCH   3   4
ENDBRANCH   2   3
ENDBRANCH   1   2
BRANCH   1  10
ATOM     10  C   UNL     1      57.591  -4.442  83.928  1.00  0.00     0.000 C 
BRANCH  10  11
ATOM     11  C   UNL     1      57.482  -3.232  82.992  1.00  0.00    -0.000 C 
BRANCH  11  12
ATOM     12  C   UNL     1      58.714  -3.130  82.079  1.00  0.00    -0.000 C 
BRANCH  12  13
ATOM     13  C   UNL     1      59.536  -1.853  82.345  1.00  0.00    -0.000 C 
BRANCH  13  14
ATOM     14  C   UNL     1      60.172  -1.798  83.748  1.00  0.00    -0.000 C 
BRANCH  14  15
ATOM     15  C   UNL     1      59.942  -0.469  84.493  1.00  0.00    -0.003 C 
ATOM     16  C   UNL     1      58.473  -0.241  84.851  1.00  0.00     0.004 C 
ENDBRANCH  14  15
ENDBRANCH  13  14
ENDBRANCH  12  13
ENDBRANCH  11  12
ENDBRANCH  10  11
ENDBRANCH   1  10
TORSDOF 12
ENDMDL
MODEL 3
REMARK VINA RESULT:    -3.811      9.980     12.509
REMARK INTER + INTRA:          -8.430
REMARK INTER:                  -7.490
REMARK INTRA:                  -0.940
REMARK UNBOUND:                -1.946
REMARK SMILES CCCCCCCCCCCCCC(=O)[O-]
REMARK SMILES IDX 8 1 9 2 10 3 11 4 12 5 13 6 14 7 15 8 16 9 7 10 6 11 5 12
REMARK SMILES IDX 4 13 3 14 2 15 1 16
REMARK H PARENT
REMARK Flexibility Score: inf
ROOT
ATOM      1  C   UNL     1      58.780  -3.833  83.118  1.00  0.00     0.000 C 
ENDROOT
BRANCH   1   2
ATOM      2  C   UNL     1      57.318  -4.043  83.531  1.00  0.00     0.000 C 
BRANCH   2   3
ATOM      3  C   UNL     1      56.397  -3.040  82.824  1.00  0.00     0.000 C 
BRANCH   3   4
ATOM      4  C   UNL     1      55.144  -3.737  82.274  1.00  0.00     0.000 C 
BRANCH   4   5
ATOM      5  C   UNL     1      53.955  -2.775  82.096  1.00  0.00     0.006 C 
BRANCH   5   6
ATOM      6  C   UNL     1      52.580  -3.461  82.100  1.00  0.00     0.053 C 
BRANCH   6   7
ATOM      7  C   UNL     1      51.660  -2.886  81.068  1.00  0.00     0.041 C 
ATOM      8  O   UNL     1      51.947  -1.801  80.498  1.00  0.00    -0.550 OA
ATOM      9  O   UNL     1      50.468  -3.531  80.760  1.00  0.00    -0.550 OA
ENDBRANCH   6   7
ENDBRANCH   5   6
ENDBRANCH   4   5
ENDBRANCH   3   4
ENDBRANCH   2   3
ENDBRANCH   1   2
BRANCH   1  10
ATOM     10  C   UNL     1      58.893  -2.776  82.013  1.00  0.00     0.000 C 
BRANCH  10  11
ATOM     11  C   UNL     1      59.946  -1.719  82.369  1.00  0.00    -0.000 C 
BRANCH  11  12
ATOM     12  C   UNL     1      60.134  -1.621  83.891  1.00  0.00    -0.000 C 
BRANCH  12  13
ATOM     13  C   UNL     1      59.461  -0.367  84.484  1.00  0.00    -0.000 C 
BRANCH  13  14
ATOM     14  C   UNL     1      57.925  -0.366  84.369  1.00  0.00    -0.000 C 
BRANCH  14  15
ATOM     15  C   UNL     1      57.192  -0.162  85.709  1.00  0.00    -0.003 C 
ATOM     16  C   UNL     1      56.221   1.019  85.676  1.00  0.00     0.004 C 
ENDBRANCH  14  15
ENDBRANCH  13  14
ENDBRANCH  12  13
ENDBRANCH  11  12
ENDBRANCH  10  11
ENDBRANCH   1  10
TORSDOF 12
ENDMDL
MODEL 4
REMARK VINA RESULT:    -3.700      3.227      5.144
REMARK INTER + INTRA:          -8.241
REMARK INTER:                  -6.556
REMARK INTRA:                  -1.685
REMARK UNBOUND:                -1.946
REMARK SMILES CCCCCCCCCCCCCC(=O)[O-]
REMARK SMILES IDX 8 1 9 2 10 3 11 4 12 5 13 6 14 7 15 8 16 9 7 10 6 11 5 12
REMARK SMILES IDX 4 13 3 14 2 15 1 16
REMARK H PARENT
REMARK Flexibility Score: inf
ROOT
ATOM      1  C   UNL     1      50.779  -0.408  72.894  1.00  0.00     0.000 C 
ENDROOT
BRANCH   1   2
ATOM      2  C   UNL     1      49.698  -1.006  71.985  1.00  0.00     0.000 C 
BRANCH   2   3
ATOM      3  C   UNL     1      49.500  -2.499  72.274  1.00  0.00     0.000 C 
BRANCH   3   4
ATOM      4  C   UNL     1      48.656  -2.708  73.541  1.00  0.00     0.000 C 
BRANCH   4   5
ATOM      5  C   UNL     1      48.527  -4.190  73.935  1.00  0.00     0.006 C 
BRANCH   5   6
ATOM      6  C   UNL     1      48.251  -5.137  72.755  1.00  0.00     0.053 C 
BRANCH   6   7
ATOM      7  C   UNL     1      46.895  -5.765  72.843  1.00  0.00     0.041 C 
ATOM      8  O   UNL     1      46.085  -5.402  73.736  1.00  0.00    -0.550 OA
ATOM      9  O   UNL     1      46.538  -6.777  71.960  1.00  0.00    -0.550 OA
ENDBRANCH   6   7
ENDBRANCH   5   6
ENDBRANCH   4   5
ENDBRANCH   3   4
ENDBRANCH   2   3
ENDBRANCH   1   2
BRANCH   1  10
ATOM     10  C   UNL     1      51.934   0.170  72.067  1.00  0.00     0.000 C 
BRANCH  10  11
ATOM     11  C   UNL     1      53.173  -0.729  72.150  1.00  0.00    -0.000 C 
BRANCH  11  12
ATOM     12  C   UNL     1      53.060  -1.715  73.323  1.00  0.00    -0.000 C 
BRANCH  12  13
ATOM     13  C   UNL     1      53.139  -3.184  72.863  1.00  0.00    -0.000 C 
BRANCH  13  14
ATOM     14  C   UNL     1      52.477  -4.182  73.833  1.00  0.00    -0.000 C 
BRANCH  14  15
ATOM     15  C   UNL     1      51.968  -3.546  75.141  1.00  0.00    -0.003 C 
ATOM     16  C   UNL     1      51.603  -4.588  76.199  1.00  0.00     0.004 C 
ENDBRANCH  14  15
ENDBRANCH  13  14
ENDBRANCH  12  13
ENDBRANCH  11  12
ENDBRANCH  10  11
ENDBRANCH   1  10
TORSDOF 12
ENDMDL
MODEL 5
REMARK VINA RESULT:    -3.670      1.424      2.833
REMARK INTER + INTRA:          -8.190
REMARK INTER:                  -6.867
REMARK INTRA:                  -1.323
REMARK UNBOUND:                -1.946
REMARK SMILES CCCCCCCCCCCCCC(=O)[O-]
REMARK SMILES IDX 8 1 9 2 10 3 11 4 12 5 13 6 14 7 15 8 16 9 7 10 6 11 5 12
REMARK SMILES IDX 4 13 3 14 2 15 1 16
REMARK H PARENT
REMARK Flexibility Score: inf
ROOT
ATOM      1  C   UNL     1      52.388  -0.777  72.218  1.00  0.00     0.000 C 
ENDROOT
BRANCH   1   2
ATOM      2  C   UNL     1      52.879  -1.645  73.383  1.00  0.00     0.000 C 
BRANCH   2   3
ATOM      3  C   UNL     1      53.317  -3.030  72.891  1.00  0.00     0.000 C 
BRANCH   3   4
ATOM      4  C   UNL     1      52.677  -4.142  73.735  1.00  0.00     0.000 C 
BRANCH   4   5
ATOM      5  C   UNL     1      53.449  -4.425  75.036  1.00  0.00     0.006 C 
BRANCH   5   6
ATOM      6  C   UNL     1      54.963  -4.176  74.940  1.00  0.00     0.053 C 
BRANCH   6   7
ATOM      7  C   UNL     1      55.705  -5.394  74.484  1.00  0.00     0.041 C 
ATOM      8  O   UNL     1      55.980  -6.312  75.300  1.00  0.00    -0.550 OA
ATOM      9  O   UNL     1      56.126  -5.499  73.163  1.00  0.00    -0.550 OA
ENDBRANCH   6   7
ENDBRANCH   5   6
ENDBRANCH   4   5
ENDBRANCH   3   4
ENDBRANCH   2   3
ENDBRANCH   1   2
BRANCH   1  10
ATOM     10  C   UNL     1      51.060  -0.093  72.564  1.00  0.00     0.000 C 
BRANCH  10  11
ATOM     11  C   UNL     1      49.871  -1.005  72.235  1.00  0.00    -0.000 C 
BRANCH  11  12
ATOM     12  C   UNL     1      49.089  -1.369  73.506  1.00  0.00    -0.000 C 
BRANCH  12  13
ATOM     13  C   UNL     1      49.147  -2.878  73.817  1.00  0.00    -0.000 C 
BRANCH  13  14
ATOM     14  C   UNL     1      49.371  -3.765  72.577  1.00  0.00    -0.000 C 
BRANCH  14  15
ATOM     15  C   UNL     1      48.819  -5.197  72.718  1.00  0.00    -0.003 C 
ATOM     16  C   UNL     1      47.308  -5.226  72.952  1.00  0.00     0.004 C 
ENDBRANCH  14  15
ENDBRANCH  13  14
ENDBRANCH  12  13
ENDBRANCH  11  12
ENDBRANCH  10  11
ENDBRANCH   1  10
TORSDOF 12
ENDMDL
MODEL 6
REMARK VINA RESULT:    -3.658      3.008      5.107
REMARK INTER + INTRA:          -8.170
REMARK INTER:                  -6.238
REMARK INTRA:                  -1.932
REMARK UNBOUND:                -1.946
REMARK SMILES CCCCCCCCCCCCCC(=O)[O-]
REMARK SMILES IDX 8 1 9 2 10 3 11 4 12 5 13 6 14 7 15 8 16 9 7 10 6 11 5 12
REMARK SMILES IDX 4 13 3 14 2 15 1 16
REMARK H PARENT
REMARK Flexibility Score: inf
ROOT
ATOM      1  C   UNL     1      48.257  -0.668  74.686  1.00  0.00     0.000 C 
ENDROOT
BRANCH   1   2
ATOM      2  C   UNL     1      49.415  -1.218  75.527  1.00  0.00     0.000 C 
BRANCH   2   3
ATOM      3  C   UNL     1      49.299  -2.739  75.696  1.00  0.00     0.000 C 
BRANCH   3   4
ATOM      4  C   UNL     1      48.177  -3.306  74.814  1.00  0.00     0.000 C 
BRANCH   4   5
ATOM      5  C   UNL     1      48.662  -4.428  73.878  1.00  0.00     0.006 C 
BRANCH   5   6
ATOM      6  C   UNL     1      47.779  -4.644  72.638  1.00  0.00     0.053 C 
BRANCH   6   7
ATOM      7  C   UNL     1      46.805  -5.764  72.829  1.00  0.00     0.041 C 
ATOM      8  O   UNL     1      46.922  -6.826  72.163  1.00  0.00    -0.550 OA
ATOM      9  O   UNL     1      45.745  -5.622  73.717  1.00  0.00    -0.550 OA
ENDBRANCH   6   7
ENDBRANCH   5   6
ENDBRANCH   4   5
ENDBRANCH   3   4
ENDBRANCH   2   3
ENDBRANCH   1   2
BRANCH   1  10
ATOM     10  C   UNL     1      48.780   0.119  73.478  1.00  0.00     0.000 C 
BRANCH  10  11
ATOM     11  C   UNL     1      48.673  -0.711  72.193  1.00  0.00    -0.000 C 
BRANCH  11  12
ATOM     12  C   UNL     1      49.984  -1.462  71.913  1.00  0.00    -0.000 C 
BRANCH  12  13
ATOM     13  C   UNL     1      51.227  -0.624  72.273  1.00  0.00    -0.000 C 
BRANCH  13  14
ATOM     14  C   UNL     1      52.209  -1.336  73.224  1.00  0.00    -0.000 C 
BRANCH  14  15
ATOM     15  C   UNL     1      52.779  -2.656  72.669  1.00  0.00    -0.003 C 
ATOM     16  C   UNL     1      52.320  -3.877  73.468  1.00  0.00     0.004 C 
ENDBRANCH  14  15
ENDBRANCH  13  14
ENDBRANCH  12  13
ENDBRANCH  11  12
ENDBRANCH  10  11
ENDBRANCH   1  10
TORSDOF 12
ENDMDL
MODEL 7
REMARK VINA RESULT:    -3.652      3.360      5.721
REMARK INTER + INTRA:          -8.159
REMARK INTER:                  -6.663
REMARK INTRA:                  -1.496
REMARK UNBOUND:                -1.946
REMARK SMILES CCCCCCCCCCCCCC(=O)[O-]
REMARK SMILES IDX 8 1 9 2 10 3 11 4 12 5 13 6 14 7 15 8 16 9 7 10 6 11 5 12
REMARK SMILES IDX 4 13 3 14 2 15 1 16
REMARK H PARENT
REMARK Flexibility Score: inf
ROOT
ATOM      1  C   UNL     1      49.065  -2.375  72.638  1.00  0.00     0.000 C 
ENDROOT
BRANCH   1   2
ATOM      2  C   UNL     1      49.649  -3.737  72.244  1.00  0.00     0.000 C 
BRANCH   2   3
ATOM      3  C   UNL     1      49.134  -4.846  73.170  1.00  0.00     0.000 C 
BRANCH   3   4
ATOM      4  C   UNL     1      47.705  -4.545  73.647  1.00  0.00     0.000 C 
BRANCH   4   5
ATOM      5  C   UNL     1      46.789  -5.782  73.608  1.00  0.00     0.006 C 
BRANCH   5   6
ATOM      6  C   UNL     1      46.448  -6.272  72.191  1.00  0.00     0.053 C 
BRANCH   6   7
ATOM      7  C   UNL     1      46.923  -7.671  71.949  1.00  0.00     0.041 C 
ATOM      8  O   UNL     1      46.362  -8.390  71.082  1.00  0.00    -0.550 OA
ATOM      9  O   UNL     1      47.964  -8.193  72.708  1.00  0.00    -0.550 OA
ENDBRANCH   6   7
ENDBRANCH   5   6
ENDBRANCH   4   5
ENDBRANCH   3   4
ENDBRANCH   2   3
ENDBRANCH   1   2
BRANCH   1  10
ATOM     10  C   UNL     1      49.776  -1.237  71.897  1.00  0.00     0.000 C 
BRANCH  10  11
ATOM     11  C   UNL     1      50.769  -0.518  72.819  1.00  0.00    -0.000 C 
BRANCH  11  12
ATOM     12  C   UNL     1      52.203  -0.628  72.277  1.00  0.00    -0.000 C 
BRANCH  12  13
ATOM     13  C   UNL     1      53.104  -1.493  73.181  1.00  0.00    -0.000 C 
BRANCH  13  14
ATOM     14  C   UNL     1      53.248  -2.953  72.710  1.00  0.00    -0.000 C 
BRANCH  14  15
ATOM     15  C   UNL     1      52.880  -3.999  73.780  1.00  0.00    -0.003 C 
ATOM     16  C   UNL     1      52.260  -3.371  75.029  1.00  0.00     0.004 C 
ENDBRANCH  14  15
ENDBRANCH  13  14
ENDBRANCH  12  13
ENDBRANCH  11  12
ENDBRANCH  10  11
ENDBRANCH   1  10
TORSDOF 12
ENDMDL
MODEL 8
REMARK VINA RESULT:    -3.636      7.678      9.718
REMARK INTER + INTRA:          -8.132
REMARK INTER:                  -6.336
REMARK INTRA:                  -1.797
REMARK UNBOUND:                -1.946
REMARK SMILES CCCCCCCCCCCCCC(=O)[O-]
REMARK SMILES IDX 8 1 9 2 10 3 11 4 12 5 13 6 14 7 15 8 16 9 7 10 6 11 5 12
REMARK SMILES IDX 4 13 3 14 2 15 1 16
REMARK H PARENT
REMARK Flexibility Score: inf
ROOT
ATOM      1  C   UNL     1      49.533  -1.524  82.238  1.00  0.00     0.000 C 
ENDROOT
BRANCH   1   2
ATOM      2  C   UNL     1      48.245  -2.004  81.558  1.00  0.00     0.000 C 
BRANCH   2   3
ATOM      3  C   UNL     1      48.100  -3.527  81.665  1.00  0.00     0.000 C 
BRANCH   3   4
ATOM      4  C   UNL     1      47.764  -4.146  80.300  1.00  0.00     0.000 C 
BRANCH   4   5
ATOM      5  C   UNL     1      48.734  -5.273  79.900  1.00  0.00     0.006 C 
BRANCH   5   6
ATOM      6  C   UNL     1      50.205  -4.835  79.799  1.00  0.00     0.053 C 
BRANCH   6   7
ATOM      7  C   UNL     1      50.406  -3.773  78.763  1.00  0.00     0.041 C 
ATOM      8  O   UNL     1      50.843  -2.640  79.094  1.00  0.00    -0.550 OA
ATOM      9  O   UNL     1      50.077  -4.023  77.436  1.00  0.00    -0.550 OA
ENDBRANCH   6   7
ENDBRANCH   5   6
ENDBRANCH   4   5
ENDBRANCH   3   4
ENDBRANCH   2   3
ENDBRANCH   1   2
BRANCH   1  10
ATOM     10  C   UNL     1      50.385  -2.712  82.702  1.00  0.00     0.000 C 
BRANCH  10  11
ATOM     11  C   UNL     1      50.747  -2.581  84.186  1.00  0.00    -0.000 C 
BRANCH  11  12
ATOM     12  C   UNL     1      49.506  -2.247  85.029  1.00  0.00    -0.000 C 
BRANCH  12  13
ATOM     13  C   UNL     1      48.655  -3.496  85.336  1.00  0.00    -0.000 C 
BRANCH  13  14
ATOM     14  C   UNL     1      47.148  -3.207  85.482  1.00  0.00    -0.000 C 
BRANCH  14  15
ATOM     15  C   UNL     1      46.719  -1.821  84.962  1.00  0.00    -0.003 C 
ATOM     16  C   UNL     1      45.749  -1.112  85.909  1.00  0.00     0.004 C 
ENDBRANCH  14  15
ENDBRANCH  13  14
ENDBRANCH  12  13
ENDBRANCH  11  12
ENDBRANCH  10  11
ENDBRANCH   1  10
TORSDOF 12
ENDMDL
MODEL 9
REMARK VINA RESULT:    -3.594      2.453      4.187
REMARK INTER + INTRA:          -8.062
REMARK INTER:                  -6.143
REMARK INTRA:                  -1.919
REMARK UNBOUND:                -1.946
REMARK SMILES CCCCCCCCCCCCCC(=O)[O-]
REMARK SMILES IDX 8 1 9 2 10 3 11 4 12 5 13 6 14 7 15 8 16 9 7 10 6 11 5 12
REMARK SMILES IDX 4 13 3 14 2 15 1 16
REMARK H PARENT
REMARK Flexibility Score: inf
ROOT
ATOM      1  C   UNL     1      53.067  -1.459  73.148  1.00  0.00     0.000 C 
ENDROOT
BRANCH   1   2
ATOM      2  C   UNL     1      53.049  -2.911  72.651  1.00  0.00     0.000 C 
BRANCH   2   3
ATOM      3  C   UNL     1      52.647  -3.872  73.777  1.00  0.00     0.000 C 
BRANCH   3   4
ATOM      4  C   UNL     1      52.394  -3.112  75.087  1.00  0.00     0.000 C 
BRANCH   4   5
ATOM      5  C   UNL     1      51.077  -3.521  75.771  1.00  0.00     0.006 C 
BRANCH   5   6
ATOM      6  C   UNL     1      50.207  -2.339  76.226  1.00  0.00     0.053 C 
BRANCH   6   7
ATOM      7  C   UNL     1      49.603  -2.571  77.576  1.00  0.00     0.041 C 
ATOM      8  O   UNL     1      48.373  -2.378  77.763  1.00  0.00    -0.550 OA
ATOM      9  O   UNL     1      50.407  -2.967  78.639  1.00  0.00    -0.550 OA
ENDBRANCH   6   7
ENDBRANCH   5   6
ENDBRANCH   4   5
ENDBRANCH   3   4
ENDBRANCH   2   3
ENDBRANCH   1   2
BRANCH   1  10
ATOM     10  C   UNL     1      52.288  -0.544  72.196  1.00  0.00     0.000 C 
BRANCH  10  11
ATOM     11  C   UNL     1      50.863  -0.303  72.710  1.00  0.00    -0.000 C 
BRANCH  11  12
ATOM     12  C   UNL     1      49.840  -1.101  71.886  1.00  0.00    -0.000 C 
BRANCH  12  13
ATOM     13  C   UNL     1      48.893  -1.932  72.776  1.00  0.00    -0.000 C 
BRANCH  13  14
ATOM     14  C   UNL     1      49.126  -3.452  72.690  1.00  0.00    -0.000 C 
BRANCH  14  15
ATOM     15  C   UNL     1      47.873  -4.300  72.988  1.00  0.00    -0.003 C 
ATOM     16  C   UNL     1      47.633  -4.487  74.487  1.00  0.00     0.004 C 
ENDBRANCH  14  15
ENDBRANCH  13  14
ENDBRANCH  12  13
ENDBRANCH  11  12
ENDBRANCH  10  11
ENDBRANCH   1  10
TORSDOF 12
ENDMDL
