MODEL 1
REMARK VINA RESULT:    -4.804      0.000      0.000
REMARK INTER + INTRA:          -5.895
REMARK INTER:                  -6.769
REMARK INTRA:                   0.874
REMARK UNBOUND:                 0.874
REMARK SMILES CC1=CCC(=C(C)C)C(=O)CC(C)=CCC1
REMARK SMILES IDX 12 1 14 2 13 3 15 4 16 5 2 6 1 7 3 8 11 10 9 11 10 12 5 13
REMARK SMILES IDX 6 14 7 15 8 16 4 17
REMARK H PARENT
REMARK Flexibility Score: 60.00
ROOT
ATOM      1  C   UNL     1     -13.170 -15.514  30.843  1.00  0.00    -0.070 C 
ATOM      2  C   UNL     1     -13.591 -15.303  29.569  1.00  0.00    -0.027 C 
ATOM      3  C   UNL     1     -14.204 -15.414  31.937  1.00  0.00     0.039 C 
ENDROOT
BRANCH   2   4
ATOM      4  C   UNL     1     -12.718 -15.253  28.338  1.00  0.00     0.032 C 
BRANCH   4   5
ATOM      5  C   UNL     1     -13.261 -16.095  27.176  1.00  0.00     0.034 C 
BRANCH   5   6
ATOM      6  C   UNL     1     -12.328 -17.256  26.889  1.00  0.00    -0.077 C 
ATOM      7  C   UNL     1     -11.498 -17.214  25.633  1.00  0.00     0.039 C 
ATOM      8  C   UNL     1     -12.144 -18.292  27.743  1.00  0.00    -0.023 CG0
ATOM      9  G   UNL     1     -12.892 -18.512  29.037  1.00  0.00     0.000 G0
ENDBRANCH   5   6
ENDBRANCH   4   5
ENDBRANCH   2   4
BRANCH   1  10
ATOM     10  C   UNL     1     -11.751 -15.922  31.225  1.00  0.00     0.111 C 
BRANCH  10  11
ATOM     11  C   UNL     1     -11.214 -17.088  30.433  1.00  0.00     0.163 C 
ATOM     12  O   UNL     1     -10.050 -16.983  29.957  1.00  0.00    -0.294 OA
BRANCH  11  13
ATOM     13  C   UNL     1     -11.979 -18.366  30.250  1.00  0.00    -0.002 C 
ATOM     14  C   UNL     1     -11.823 -19.407  31.127  1.00  0.00    -0.069 C 
ATOM     15  C   UNL     1     -12.508 -20.739  30.910  1.00  0.00     0.039 C 
ATOM     16  C   UNL     1     -10.997 -19.270  32.387  1.00  0.00     0.039 C 
BRANCH  13  17
ATOM     17  C   UNL     1     -12.895 -18.505  29.036  1.00  0.00     0.066 CG0
ATOM     18  G   UNL     1     -12.155 -18.296  27.736  1.00  0.00     0.000 G0
ENDBRANCH  13  17
ENDBRANCH  11  13
ENDBRANCH  10  11
ENDBRANCH   1  10
TORSDOF 0
ENDMDL
MODEL 2
REMARK VINA RESULT:    -4.596      1.525      4.543
REMARK INTER + INTRA:          -5.603
REMARK INTER:                  -6.330
REMARK INTRA:                   0.727
REMARK UNBOUND:                 0.874
REMARK SMILES CC1=CCC(=C(C)C)C(=O)CC(C)=CCC1
REMARK SMILES IDX 12 1 14 2 13 3 15 4 16 5 2 6 1 7 3 8 11 10 9 11 10 12 5 13
REMARK SMILES IDX 6 14 7 15 8 16 4 17
REMARK H PARENT
REMARK Flexibility Score: 60.00
ROOT
ATOM      1  C   UNL     1     -12.247 -17.468  27.288  1.00  0.00    -0.070 C 
ATOM      2  C   UNL     1     -12.367 -18.694  27.861  1.00  0.00    -0.027 C 
ATOM      3  C   UNL     1     -11.252 -17.327  26.162  1.00  0.00     0.039 C 
ENDROOT
BRANCH   2   4
ATOM      4  C   UNL     1     -13.218 -19.038  29.059  1.00  0.00     0.032 C 
BRANCH   4   5
ATOM      5  C   UNL     1     -12.400 -19.502  30.272  1.00  0.00     0.034 C 
BRANCH   5   6
ATOM      6  C   UNL     1     -11.349 -18.466  30.623  1.00  0.00    -0.077 C 
ATOM      7  C   UNL     1      -9.898 -18.839  30.467  1.00  0.00     0.039 C 
ATOM      8  C   UNL     1     -11.648 -17.198  30.994  1.00  0.00    -0.023 CG0
ATOM      9  G   UNL     1     -13.037 -16.648  31.215  1.00  0.00     0.000 G0
ENDBRANCH   5   6
ENDBRANCH   4   5
ENDBRANCH   2   4
BRANCH   1  10
ATOM     10  C   UNL     1     -13.102 -16.259  27.652  1.00  0.00     0.111 C 
BRANCH  10  11
ATOM     11  C   UNL     1     -12.633 -15.524  28.883  1.00  0.00     0.163 C 
ATOM     12  O   UNL     1     -11.593 -14.817  28.778  1.00  0.00    -0.294 OA
BRANCH  11  13
ATOM     13  C   UNL     1     -13.380 -15.558  30.183  1.00  0.00    -0.002 C 
ATOM     14  C   UNL     1     -14.320 -14.604  30.475  1.00  0.00    -0.069 C 
ATOM     15  C   UNL     1     -15.016 -14.561  31.818  1.00  0.00     0.039 C 
ATOM     16  C   UNL     1     -14.751 -13.572  29.457  1.00  0.00     0.039 C 
BRANCH  13  17
ATOM     17  C   UNL     1     -13.036 -16.644  31.200  1.00  0.00     0.066 CG0
ATOM     18  G   UNL     1     -11.638 -17.185  31.004  1.00  0.00     0.000 G0
ENDBRANCH  13  17
ENDBRANCH  11  13
ENDBRANCH  10  11
ENDBRANCH   1  10
TORSDOF 0
ENDMDL
MODEL 3
REMARK VINA RESULT:    -4.399      1.697      2.168
REMARK INTER + INTRA:          -5.325
REMARK INTER:                  -5.869
REMARK INTRA:                   0.544
REMARK UNBOUND:                 0.874
REMARK SMILES CC1=CCC(=C(C)C)C(=O)CC(C)=CCC1
REMARK SMILES IDX 12 1 14 2 13 3 15 4 16 5 2 6 1 7 3 8 11 10 9 11 10 12 5 13
REMARK SMILES IDX 6 14 7 15 8 16 4 17
REMARK H PARENT
REMARK Flexibility Score: 60.00
ROOT
ATOM      1  C   UNL     1     -10.328 -16.284  31.173  1.00  0.00    -0.070 C 
ATOM      2  C   UNL     1     -10.042 -15.565  30.058  1.00  0.00    -0.027 C 
ATOM      3  C   UNL     1     -10.072 -15.623  32.505  1.00  0.00     0.039 C 
ENDROOT
BRANCH   2   4
ATOM      4  C   UNL     1     -10.123 -16.059  28.633  1.00  0.00     0.032 C 
BRANCH   4   5
ATOM      5  C   UNL     1     -11.527 -15.936  28.027  1.00  0.00     0.034 C 
BRANCH   5   6
ATOM      6  C   UNL     1     -11.799 -17.099  27.093  1.00  0.00    -0.077 C 
ATOM      7  C   UNL     1     -10.956 -17.233  25.852  1.00  0.00     0.039 C 
ATOM      8  C   UNL     1     -12.709 -18.068  27.356  1.00  0.00    -0.023 CG0
ATOM      9  G   UNL     1     -13.651 -18.097  28.537  1.00  0.00     0.000 G0
ENDBRANCH   5   6
ENDBRANCH   4   5
ENDBRANCH   2   4
BRANCH   1  10
ATOM     10  C   UNL     1     -10.961 -17.672  31.166  1.00  0.00     0.111 C 
BRANCH  10  11
ATOM     11  C   UNL     1     -12.423 -17.677  30.793  1.00  0.00     0.163 C 
ATOM     12  O   UNL     1     -13.159 -16.790  31.307  1.00  0.00    -0.294 OA
BRANCH  11  13
ATOM     13  C   UNL     1     -13.005 -18.643  29.803  1.00  0.00    -0.002 C 
ATOM     14  C   UNL     1     -12.914 -19.995  30.009  1.00  0.00    -0.069 C 
ATOM     15  C   UNL     1     -13.406 -20.989  28.980  1.00  0.00     0.039 C 
ATOM     16  C   UNL     1     -12.363 -20.570  31.295  1.00  0.00     0.039 C 
BRANCH  13  17
ATOM     17  C   UNL     1     -13.653 -18.093  28.534  1.00  0.00     0.066 CG0
ATOM     18  G   UNL     1     -12.691 -18.066  27.369  1.00  0.00     0.000 G0
ENDBRANCH  13  17
ENDBRANCH  11  13
ENDBRANCH  10  11
ENDBRANCH   1  10
TORSDOF 0
ENDMDL
MODEL 4
REMARK VINA RESULT:    -4.328      1.226      3.623
REMARK INTER + INTRA:          -5.225
REMARK INTER:                  -6.232
REMARK INTRA:                   1.007
REMARK UNBOUND:                 0.874
REMARK SMILES CC1=CCC(=C(C)C)C(=O)CC(C)=CCC1
REMARK SMILES IDX 12 1 14 2 13 3 15 4 16 5 2 6 1 7 3 8 11 10 9 11 10 12 5 13
REMARK SMILES IDX 6 14 7 15 8 16 4 17
REMARK H PARENT
REMARK Flexibility Score: 60.00
ROOT
ATOM      1  C   UNL     1     -12.757 -16.919  31.125  1.00  0.00    -0.070 C 
ATOM      2  C   UNL     1     -13.243 -18.162  31.373  1.00  0.00    -0.027 C 
ATOM      3  C   UNL     1     -13.717 -15.762  31.262  1.00  0.00     0.039 C 
ENDROOT
BRANCH   2   4
ATOM      4  C   UNL     1     -12.495 -19.462  31.200  1.00  0.00     0.032 C 
BRANCH   4   5
ATOM      5  C   UNL     1     -11.728 -19.549  29.874  1.00  0.00     0.034 C 
BRANCH   5   6
ATOM      6  C   UNL     1     -12.697 -19.585  28.708  1.00  0.00    -0.077 C 
ATOM      7  C   UNL     1     -13.812 -20.597  28.735  1.00  0.00     0.039 C 
ATOM      8  C   UNL     1     -12.658 -18.702  27.681  1.00  0.00    -0.023 CG0
ATOM      9  G   UNL     1     -11.612 -17.632  27.475  1.00  0.00     0.000 G0
ENDBRANCH   5   6
ENDBRANCH   4   5
ENDBRANCH   2   4
BRANCH   1  10
ATOM     10  C   UNL     1     -11.299 -16.611  30.799  1.00  0.00     0.111 C 
BRANCH  10  11
ATOM     11  C   UNL     1     -11.092 -15.993  29.439  1.00  0.00     0.163 C 
ATOM     12  O   UNL     1     -10.133 -15.184  29.306  1.00  0.00    -0.294 OA
BRANCH  11  13
ATOM     13  C   UNL     1     -11.934 -16.350  28.248  1.00  0.00    -0.002 C 
ATOM     14  C   UNL     1     -13.005 -15.574  27.891  1.00  0.00    -0.069 C 
ATOM     15  C   UNL     1     -13.925 -15.965  26.756  1.00  0.00     0.039 C 
ATOM     16  C   UNL     1     -13.300 -14.259  28.578  1.00  0.00     0.039 C 
BRANCH  13  17
ATOM     17  C   UNL     1     -11.607 -17.625  27.474  1.00  0.00     0.066 CG0
ATOM     18  G   UNL     1     -12.648 -18.701  27.682  1.00  0.00     0.000 G0
ENDBRANCH  13  17
ENDBRANCH  11  13
ENDBRANCH  10  11
ENDBRANCH   1  10
TORSDOF 0
ENDMDL
MODEL 5
REMARK VINA RESULT:    -4.166      1.799      3.651
REMARK INTER + INTRA:          -4.996
REMARK INTER:                  -6.300
REMARK INTRA:                   1.304
REMARK UNBOUND:                 0.874
REMARK SMILES CC1=CCC(=C(C)C)C(=O)CC(C)=CCC1
REMARK SMILES IDX 12 1 14 2 13 3 15 4 16 5 2 6 1 7 3 8 11 10 9 11 10 12 5 13
REMARK SMILES IDX 6 14 7 15 8 16 4 17
REMARK H PARENT
REMARK Flexibility Score: 60.00
ROOT
ATOM      1  C   UNL     1     -13.363 -16.140  27.689  1.00  0.00    -0.070 C 
ATOM      2  C   UNL     1     -12.901 -15.230  28.584  1.00  0.00    -0.027 C 
ATOM      3  C   UNL     1     -13.893 -15.612  26.378  1.00  0.00     0.039 C 
ENDROOT
BRANCH   2   4
ATOM      4  C   UNL     1     -12.423 -15.521  29.986  1.00  0.00     0.032 C 
BRANCH   4   5
ATOM      5  C   UNL     1     -10.894 -15.532  30.116  1.00  0.00     0.034 C 
BRANCH   5   6
ATOM      6  C   UNL     1     -10.476 -16.350  31.322  1.00  0.00    -0.077 C 
ATOM      7  C   UNL     1     -10.466 -15.682  32.672  1.00  0.00     0.039 C 
ATOM      8  C   UNL     1     -10.185 -17.672  31.260  1.00  0.00    -0.023 CG0
ATOM      9  G   UNL     1     -10.128 -18.506  30.002  1.00  0.00     0.000 G0
ENDBRANCH   5   6
ENDBRANCH   4   5
ENDBRANCH   2   4
BRANCH   1  10
ATOM     10  C   UNL     1     -13.306 -17.651  27.888  1.00  0.00     0.111 C 
BRANCH  10  11
ATOM     11  C   UNL     1     -11.918 -18.183  28.149  1.00  0.00     0.163 C 
ATOM     12  O   UNL     1     -11.055 -18.029  27.242  1.00  0.00    -0.294 OA
BRANCH  11  13
ATOM     13  C   UNL     1     -11.524 -18.820  29.449  1.00  0.00    -0.002 C 
ATOM     14  C   UNL     1     -12.405 -19.614  30.135  1.00  0.00    -0.069 C 
ATOM     15  C   UNL     1     -12.066 -20.189  31.493  1.00  0.00     0.039 C 
ATOM     16  C   UNL     1     -13.747 -20.003  29.553  1.00  0.00     0.039 C 
BRANCH  13  17
ATOM     17  C   UNL     1     -10.140 -18.523  30.022  1.00  0.00     0.066 CG0
ATOM     18  G   UNL     1     -10.210 -17.682  31.275  1.00  0.00     0.000 G0
ENDBRANCH  13  17
ENDBRANCH  11  13
ENDBRANCH  10  11
ENDBRANCH   1  10
TORSDOF 0
ENDMDL
MODEL 6
REMARK VINA RESULT:    -4.062      1.384      2.297
REMARK INTER + INTRA:          -4.850
REMARK INTER:                  -6.524
REMARK INTRA:                   1.675
REMARK UNBOUND:                 0.874
REMARK SMILES CC1=CCC(=C(C)C)C(=O)CC(C)=CCC1
REMARK SMILES IDX 12 1 14 2 13 3 15 4 16 5 2 6 1 7 3 8 11 10 9 11 10 12 5 13
REMARK SMILES IDX 6 14 7 15 8 16 4 17
REMARK H PARENT
REMARK Flexibility Score: 60.00
ROOT
ATOM      1  C   UNL     1     -10.715 -16.101  31.242  1.00  0.00    -0.070 C 
ATOM      2  C   UNL     1     -11.967 -15.576  31.234  1.00  0.00    -0.027 C 
ATOM      3  C   UNL     1      -9.922 -15.974  32.520  1.00  0.00     0.039 C 
ENDROOT
BRANCH   2   4
ATOM      4  C   UNL     1     -12.894 -15.499  30.045  1.00  0.00     0.032 C 
BRANCH   4   5
ATOM      5  C   UNL     1     -12.158 -15.534  28.698  1.00  0.00     0.034 C 
BRANCH   5   6
ATOM      6  C   UNL     1     -13.018 -16.209  27.648  1.00  0.00    -0.077 C 
ATOM      7  C   UNL     1     -14.209 -15.459  27.108  1.00  0.00     0.039 C 
ATOM      8  C   UNL     1     -12.729 -17.419  27.112  1.00  0.00    -0.023 CG0
ATOM      9  G   UNL     1     -11.592 -18.321  27.533  1.00  0.00     0.000 G0
ENDBRANCH   5   6
ENDBRANCH   4   5
ENDBRANCH   2   4
BRANCH   1  10
ATOM     10  C   UNL     1     -10.097 -16.875  30.083  1.00  0.00     0.111 C 
BRANCH  10  11
ATOM     11  C   UNL     1     -10.587 -18.296  29.964  1.00  0.00     0.163 C 
ATOM     12  O   UNL     1     -10.064 -19.159  30.722  1.00  0.00    -0.294 OA
BRANCH  11  13
ATOM     13  C   UNL     1     -11.696 -18.698  29.036  1.00  0.00    -0.002 C 
ATOM     14  C   UNL     1     -12.758 -19.435  29.492  1.00  0.00    -0.069 C 
ATOM     15  C   UNL     1     -13.838 -19.934  28.557  1.00  0.00     0.039 C 
ATOM     16  C   UNL     1     -12.937 -19.749  30.961  1.00  0.00     0.039 C 
BRANCH  13  17
ATOM     17  C   UNL     1     -11.593 -18.317  27.561  1.00  0.00     0.066 CG0
ATOM     18  G   UNL     1     -12.731 -17.425  27.121  1.00  0.00     0.000 G0
ENDBRANCH  13  17
ENDBRANCH  11  13
ENDBRANCH  10  11
ENDBRANCH   1  10
TORSDOF 0
ENDMDL
MODEL 7
REMARK VINA RESULT:    -3.976      2.121      4.897
REMARK INTER + INTRA:          -4.729
REMARK INTER:                  -5.497
REMARK INTRA:                   0.767
REMARK UNBOUND:                 0.874
REMARK SMILES CC1=CCC(=C(C)C)C(=O)CC(C)=CCC1
REMARK SMILES IDX 12 1 14 2 13 3 15 4 16 5 2 6 1 7 3 8 11 10 9 11 10 12 5 13
REMARK SMILES IDX 6 14 7 15 8 16 4 17
REMARK H PARENT
REMARK Flexibility Score: 60.00
ROOT
ATOM      1  C   UNL     1     -13.551 -19.970  29.045  1.00  0.00    -0.070 C 
ATOM      2  C   UNL     1     -13.071 -20.339  30.260  1.00  0.00    -0.027 C 
ATOM      3  C   UNL     1     -13.958 -21.075  28.100  1.00  0.00     0.039 C 
ENDROOT
BRANCH   2   4
ATOM      4  C   UNL     1     -12.514 -19.414  31.316  1.00  0.00     0.032 C 
BRANCH   4   5
ATOM      5  C   UNL     1     -11.011 -19.605  31.559  1.00  0.00     0.034 C 
BRANCH   5   6
ATOM      6  C   UNL     1     -10.317 -18.259  31.631  1.00  0.00    -0.077 C 
ATOM      7  C   UNL     1      -9.913 -17.734  32.985  1.00  0.00     0.039 C 
ATOM      8  C   UNL     1      -9.970 -17.540  30.537  1.00  0.00    -0.023 CG0
ATOM      9  G   UNL     1     -10.300 -17.896  29.106  1.00  0.00     0.000 G0
ENDBRANCH   5   6
ENDBRANCH   4   5
ENDBRANCH   2   4
BRANCH   1  10
ATOM     10  C   UNL     1     -13.780 -18.527  28.609  1.00  0.00     0.111 C 
BRANCH  10  11
ATOM     11  C   UNL     1     -12.612 -17.916  27.876  1.00  0.00     0.163 C 
ATOM     12  O   UNL     1     -12.586 -18.033  26.620  1.00  0.00    -0.294 OA
BRANCH  11  13
ATOM     13  C   UNL     1     -11.534 -17.136  28.571  1.00  0.00    -0.002 C 
ATOM     14  C   UNL     1     -11.621 -15.774  28.688  1.00  0.00    -0.069 C 
ATOM     15  C   UNL     1     -10.503 -14.956  29.298  1.00  0.00     0.039 C 
ATOM     16  C   UNL     1     -12.857 -15.015  28.261  1.00  0.00     0.039 C 
BRANCH  13  17
ATOM     17  C   UNL     1     -10.311 -17.884  29.098  1.00  0.00     0.066 CG0
ATOM     18  G   UNL     1      -9.989 -17.514  30.527  1.00  0.00     0.000 G0
ENDBRANCH  13  17
ENDBRANCH  11  13
ENDBRANCH  10  11
ENDBRANCH   1  10
TORSDOF 0
ENDMDL
MODEL 8
REMARK VINA RESULT:    -3.713      1.359      3.444
REMARK INTER + INTRA:          -4.358
REMARK INTER:                  -5.179
REMARK INTRA:                   0.822
REMARK UNBOUND:                 0.874
REMARK SMILES CC1=CCC(=C(C)C)C(=O)CC(C)=CCC1
REMARK SMILES IDX 12 1 14 2 13 3 15 4 16 5 2 6 1 7 3 8 11 10 9 11 10 12 5 13
REMARK SMILES IDX 6 14 7 15 8 16 4 17
REMARK H PARENT
REMARK Flexibility Score: 60.00
ROOT
ATOM      1  C   UNL     1     -11.902 -16.694  27.607  1.00  0.00    -0.070 C 
ATOM      2  C   UNL     1     -12.827 -15.725  27.825  1.00  0.00    -0.027 C 
ATOM      3  C   UNL     1     -12.122 -17.606  26.425  1.00  0.00     0.039 C 
ENDROOT
BRANCH   2   4
ATOM      4  C   UNL     1     -12.862 -14.772  28.995  1.00  0.00     0.032 C 
BRANCH   4   5
ATOM      5  C   UNL     1     -14.200 -14.784  29.747  1.00  0.00     0.034 C 
BRANCH   5   6
ATOM      6  C   UNL     1     -13.997 -15.261  31.172  1.00  0.00    -0.077 C 
ATOM      7  C   UNL     1     -14.281 -14.299  32.296  1.00  0.00     0.039 C 
ATOM      8  C   UNL     1     -13.649 -16.531  31.490  1.00  0.00    -0.023 CG0
ATOM      9  G   UNL     1     -13.312 -17.626  30.505  1.00  0.00     0.000 G0
ENDBRANCH   5   6
ENDBRANCH   4   5
ENDBRANCH   2   4
BRANCH   1  10
ATOM     10  C   UNL     1     -10.625 -16.866  28.422  1.00  0.00     0.111 C 
BRANCH  10  11
ATOM     11  C   UNL     1     -10.857 -16.974  29.909  1.00  0.00     0.163 C 
ATOM     12  O   UNL     1     -10.257 -16.151  30.654  1.00  0.00    -0.294 OA
BRANCH  11  13
ATOM     13  C   UNL     1     -11.807 -17.967  30.512  1.00  0.00    -0.002 C 
ATOM     14  C   UNL     1     -11.352 -19.165  30.997  1.00  0.00    -0.069 C 
ATOM     15  C   UNL     1     -12.300 -20.222  31.520  1.00  0.00     0.039 C 
ATOM     16  C   UNL     1      -9.875 -19.481  31.082  1.00  0.00     0.039 C 
BRANCH  13  17
ATOM     17  C   UNL     1     -13.299 -17.640  30.527  1.00  0.00     0.066 CG0
ATOM     18  G   UNL     1     -13.630 -16.532  31.498  1.00  0.00     0.000 G0
ENDBRANCH  13  17
ENDBRANCH  11  13
ENDBRANCH  10  11
ENDBRANCH   1  10
TORSDOF 0
ENDMDL
MODEL 9
REMARK VINA RESULT:    -3.616      1.927      3.588
REMARK INTER + INTRA:          -4.221
REMARK INTER:                  -5.987
REMARK INTRA:                   1.766
REMARK UNBOUND:                 0.874
REMARK SMILES CC1=CCC(=C(C)C)C(=O)CC(C)=CCC1
REMARK SMILES IDX 12 1 14 2 13 3 15 4 16 5 2 6 1 7 3 8 11 10 9 11 10 12 5 13
REMARK SMILES IDX 6 14 7 15 8 16 4 17
REMARK H PARENT
REMARK Flexibility Score: 60.00
ROOT
ATOM      1  C   UNL     1     -12.686 -20.175  30.651  1.00  0.00    -0.070 C 
ATOM      2  C   UNL     1     -12.927 -20.502  29.356  1.00  0.00    -0.027 C 
ATOM      3  C   UNL     1     -12.510 -21.311  31.629  1.00  0.00     0.039 C 
ENDROOT
BRANCH   2   4
ATOM      4  C   UNL     1     -13.234 -19.539  28.235  1.00  0.00     0.032 C 
BRANCH   4   5
ATOM      5  C   UNL     1     -13.378 -18.086  28.706  1.00  0.00     0.034 C 
BRANCH   5   6
ATOM      6  C   UNL     1     -12.640 -17.153  27.765  1.00  0.00    -0.077 C 
ATOM      7  C   UNL     1     -13.439 -16.393  26.738  1.00  0.00     0.039 C 
ATOM      8  C   UNL     1     -11.311 -16.909  27.850  1.00  0.00    -0.023 CG0
ATOM      9  G   UNL     1     -10.348 -17.582  28.800  1.00  0.00     0.000 G0
ENDBRANCH   5   6
ENDBRANCH   4   5
ENDBRANCH   2   4
BRANCH   1  10
ATOM     10  C   UNL     1     -12.504 -18.749  31.161  1.00  0.00     0.111 C 
BRANCH  10  11
ATOM     11  C   UNL     1     -11.070 -18.282  31.174  1.00  0.00     0.163 C 
ATOM     12  O   UNL     1     -10.279 -18.848  31.977  1.00  0.00    -0.294 OA
BRANCH  11  13
ATOM     13  C   UNL     1     -10.551 -17.229  30.238  1.00  0.00    -0.002 C 
ATOM     14  C   UNL     1     -10.330 -15.950  30.678  1.00  0.00    -0.069 C 
ATOM     15  C   UNL     1      -9.901 -14.849  29.733  1.00  0.00     0.039 C 
ATOM     16  C   UNL     1     -10.456 -15.577  32.138  1.00  0.00     0.039 C 
BRANCH  13  17
ATOM     17  C   UNL     1     -10.324 -17.596  28.773  1.00  0.00     0.066 CG0
ATOM     18  G   UNL     1     -11.302 -16.902  27.854  1.00  0.00     0.000 G0
ENDBRANCH  13  17
ENDBRANCH  11  13
ENDBRANCH  10  11
ENDBRANCH   1  10
TORSDOF 0
ENDMDL
