MODEL 1
REMARK VINA RESULT:    -3.473      0.000      0.000
REMARK INTER + INTRA:          -4.026
REMARK INTER:                  -3.980
REMARK INTRA:                  -0.046
REMARK UNBOUND:                -0.046
REMARK SMILES CC(C)[C@H]([NH3+])C(=O)[O-]
REMARK SMILES IDX 4 1 5 2 6 6 7 7 8 8 2 9 1 10 3 11
REMARK H PARENT 5 3 5 4 5 5
REMARK Flexibility Score: inf
ROOT
ATOM      1  C   UNL     1      18.586 -38.168  -8.063  1.00  0.00     0.230 C 
ENDROOT
BRANCH   1   2
ATOM      2  N   UNL     1      18.016 -39.095  -9.051  1.00  0.00    -0.350 N 
ATOM      3  H   UNL     1      17.017 -38.850  -9.241  1.00  0.00     0.345 HD
ATOM      4  H   UNL     1      18.028 -40.072  -8.680  1.00  0.00     0.345 HD
ATOM      5  H   UNL     1      18.552 -39.055  -9.949  1.00  0.00     0.345 HD
ENDBRANCH   1   2
BRANCH   1   6
ATOM      6  C   UNL     1      19.624 -37.302  -8.734  1.00  0.00     0.099 C 
ATOM      7  O   UNL     1      20.600 -37.828  -9.329  1.00  0.00    -0.544 OA
ATOM      8  O   UNL     1      19.506 -35.917  -8.702  1.00  0.00    -0.544 OA
ENDBRANCH   1   6
BRANCH   1   9
ATOM      9  C   UNL     1      19.201 -38.923  -6.846  1.00  0.00     0.047 C 
ATOM     10  C   UNL     1      18.129 -39.658  -6.025  1.00  0.00     0.014 C 
ATOM     11  C   UNL     1      19.969 -37.959  -5.922  1.00  0.00     0.014 C 
ENDBRANCH   1   9
TORSDOF 3
ENDMDL
MODEL 2
REMARK VINA RESULT:    -3.409      2.473      3.247
REMARK INTER + INTRA:          -3.954
REMARK INTER:                  -3.892
REMARK INTRA:                  -0.061
REMARK UNBOUND:                -0.046
REMARK SMILES CC(C)[C@H]([NH3+])C(=O)[O-]
REMARK SMILES IDX 4 1 5 2 6 6 7 7 8 8 2 9 1 10 3 11
REMARK H PARENT 5 3 5 4 5 5
REMARK Flexibility Score: inf
ROOT
ATOM      1  C   UNL     1      19.569 -39.719  -7.999  1.00  0.00     0.230 C 
ENDROOT
BRANCH   1   2
ATOM      2  N   UNL     1      20.251 -38.867  -8.984  1.00  0.00    -0.350 N 
ATOM      3  H   UNL     1      20.574 -37.981  -8.533  1.00  0.00     0.345 HD
ATOM      4  H   UNL     1      19.591 -38.599  -9.750  1.00  0.00     0.345 HD
ATOM      5  H   UNL     1      21.078 -39.362  -9.392  1.00  0.00     0.345 HD
ENDBRANCH   1   2
BRANCH   1   6
ATOM      6  C   UNL     1      18.564 -40.594  -8.708  1.00  0.00     0.099 C 
ATOM      7  O   UNL     1      17.643 -40.075  -9.391  1.00  0.00    -0.544 OA
ATOM      8  O   UNL     1      18.652 -41.977  -8.613  1.00  0.00    -0.544 OA
ENDBRANCH   1   6
BRANCH   1   9
ATOM      9  C   UNL     1      18.878 -38.877  -6.884  1.00  0.00     0.047 C 
ATOM     10  C   UNL     1      19.894 -38.064  -6.065  1.00  0.00     0.014 C 
ATOM     11  C   UNL     1      18.067 -39.774  -5.930  1.00  0.00     0.014 C 
ENDBRANCH   1   9
TORSDOF 3
ENDMDL
MODEL 3
REMARK VINA RESULT:    -3.390      2.413      3.184
REMARK INTER + INTRA:          -3.931
REMARK INTER:                  -3.887
REMARK INTRA:                  -0.045
REMARK UNBOUND:                -0.046
REMARK SMILES CC(C)[C@H]([NH3+])C(=O)[O-]
REMARK SMILES IDX 4 1 5 2 6 6 7 7 8 8 2 9 1 10 3 11
REMARK H PARENT 5 3 5 4 5 5
REMARK Flexibility Score: inf
ROOT
ATOM      1  C   UNL     1      18.564 -39.410  -7.320  1.00  0.00     0.230 C 
ENDROOT
BRANCH   1   2
ATOM      2  N   UNL     1      18.150 -39.858  -5.982  1.00  0.00    -0.350 N 
ATOM      3  H   UNL     1      18.887 -39.621  -5.278  1.00  0.00     0.345 HD
ATOM      4  H   UNL     1      18.033 -40.897  -5.967  1.00  0.00     0.345 HD
ATOM      5  H   UNL     1      17.252 -39.401  -5.700  1.00  0.00     0.345 HD
ENDBRANCH   1   2
BRANCH   1   6
ATOM      6  C   UNL     1      18.910 -40.614  -8.162  1.00  0.00     0.099 C 
ATOM      7  O   UNL     1      18.199 -41.652  -8.106  1.00  0.00    -0.544 OA
ATOM      8  O   UNL     1      20.013 -40.583  -9.007  1.00  0.00    -0.544 OA
ENDBRANCH   1   6
BRANCH   1   9
ATOM      9  C   UNL     1      19.766 -38.419  -7.254  1.00  0.00     0.047 C 
ATOM     10  C   UNL     1      20.023 -37.923  -5.822  1.00  0.00     0.014 C 
ATOM     11  C   UNL     1      19.538 -37.205  -8.174  1.00  0.00     0.014 C 
ENDBRANCH   1   9
TORSDOF 3
ENDMDL
MODEL 4
REMARK VINA RESULT:    -3.376      1.786      2.133
REMARK INTER + INTRA:          -3.916
REMARK INTER:                  -3.889
REMARK INTRA:                  -0.026
REMARK UNBOUND:                -0.046
REMARK SMILES CC(C)[C@H]([NH3+])C(=O)[O-]
REMARK SMILES IDX 4 1 5 2 6 6 7 7 8 8 2 9 1 10 3 11
REMARK H PARENT 5 3 5 4 5 5
REMARK Flexibility Score: inf
ROOT
ATOM      1  C   UNL     1      19.586 -38.367  -7.307  1.00  0.00     0.230 C 
ENDROOT
BRANCH   1   2
ATOM      2  N   UNL     1      19.969 -37.803  -6.004  1.00  0.00    -0.350 N 
ATOM      3  H   UNL     1      20.235 -38.569  -5.343  1.00  0.00     0.345 HD
ATOM      4  H   UNL     1      19.160 -37.296  -5.577  1.00  0.00     0.345 HD
ATOM      5  H   UNL     1      20.778 -37.147  -6.107  1.00  0.00     0.345 HD
ENDBRANCH   1   2
BRANCH   1   6
ATOM      6  C   UNL     1      19.284 -37.242  -8.266  1.00  0.00     0.099 C 
ATOM      7  O   UNL     1      18.446 -37.406  -9.191  1.00  0.00    -0.544 OA
ATOM      8  O   UNL     1      19.928 -36.017  -8.133  1.00  0.00    -0.544 OA
ENDBRANCH   1   6
BRANCH   1   9
ATOM      9  C   UNL     1      18.368 -39.332  -7.187  1.00  0.00     0.047 C 
ATOM     10  C   UNL     1      18.068 -39.698  -5.724  1.00  0.00     0.014 C 
ATOM     11  C   UNL     1      18.600 -40.625  -7.991  1.00  0.00     0.014 C 
ENDBRANCH   1   9
TORSDOF 3
ENDMDL
MODEL 5
REMARK VINA RESULT:    -3.197      2.599      3.362
REMARK INTER + INTRA:          -3.710
REMARK INTER:                  -3.650
REMARK INTRA:                  -0.060
REMARK UNBOUND:                -0.046
REMARK SMILES CC(C)[C@H]([NH3+])C(=O)[O-]
REMARK SMILES IDX 4 1 5 2 6 6 7 7 8 8 2 9 1 10 3 11
REMARK H PARENT 5 3 5 4 5 5
REMARK Flexibility Score: inf
ROOT
ATOM      1  C   UNL     1      18.991 -39.325  -7.823  1.00  0.00     0.230 C 
ENDROOT
BRANCH   1   2
ATOM      2  N   UNL     1      17.871 -38.669  -8.514  1.00  0.00    -0.350 N 
ATOM      3  H   UNL     1      18.216 -38.168  -9.365  1.00  0.00     0.345 HD
ATOM      4  H   UNL     1      17.433 -37.951  -7.892  1.00  0.00     0.345 HD
ATOM      5  H   UNL     1      17.150 -39.370  -8.801  1.00  0.00     0.345 HD
ENDBRANCH   1   2
BRANCH   1   6
ATOM      6  C   UNL     1      18.878 -39.071  -6.340  1.00  0.00     0.099 C 
ATOM      7  O   UNL     1      19.640 -38.240  -5.780  1.00  0.00    -0.544 OA
ATOM      8  O   UNL     1      17.931 -39.752  -5.584  1.00  0.00    -0.544 OA
ENDBRANCH   1   6
BRANCH   1   9
ATOM      9  C   UNL     1      20.370 -38.841  -8.363  1.00  0.00     0.047 C 
ATOM     10  C   UNL     1      20.223 -37.662  -9.339  1.00  0.00     0.014 C 
ATOM     11  C   UNL     1      21.126 -39.984  -9.067  1.00  0.00     0.014 C 
ENDBRANCH   1   9
TORSDOF 3
ENDMDL
MODEL 6
REMARK VINA RESULT:    -3.175      1.141      1.689
REMARK INTER + INTRA:          -3.684
REMARK INTER:                  -3.631
REMARK INTRA:                  -0.053
REMARK UNBOUND:                -0.046
REMARK SMILES CC(C)[C@H]([NH3+])C(=O)[O-]
REMARK SMILES IDX 4 1 5 2 6 6 7 7 8 8 2 9 1 10 3 11
REMARK H PARENT 5 3 5 4 5 5
REMARK Flexibility Score: inf
ROOT
ATOM      1  C   UNL     1      19.503 -38.633  -8.520  1.00  0.00     0.230 C 
ENDROOT
BRANCH   1   2
ATOM      2  N   UNL     1      20.629 -39.577  -8.554  1.00  0.00    -0.350 N 
ATOM      3  H   UNL     1      20.635 -40.162  -7.687  1.00  0.00     0.345 HD
ATOM      4  H   UNL     1      21.536 -39.057  -8.580  1.00  0.00     0.345 HD
ATOM      5  H   UNL     1      20.561 -40.205  -9.388  1.00  0.00     0.345 HD
ENDBRANCH   1   2
BRANCH   1   6
ATOM      6  C   UNL     1      19.950 -37.304  -9.080  1.00  0.00     0.099 C 
ATOM      7  O   UNL     1      21.020 -37.222  -9.737  1.00  0.00    -0.544 OA
ATOM      8  O   UNL     1      19.181 -36.165  -8.875  1.00  0.00    -0.544 OA
ENDBRANCH   1   6
BRANCH   1   9
ATOM      9  C   UNL     1      18.932 -38.461  -7.080  1.00  0.00     0.047 C 
ATOM     10  C   UNL     1      20.019 -38.037  -6.079  1.00  0.00     0.014 C 
ATOM     11  C   UNL     1      18.271 -39.760  -6.584  1.00  0.00     0.014 C 
ENDBRANCH   1   9
TORSDOF 3
ENDMDL
MODEL 7
REMARK VINA RESULT:    -3.139      2.734      3.419
REMARK INTER + INTRA:          -3.643
REMARK INTER:                  -3.596
REMARK INTRA:                  -0.047
REMARK UNBOUND:                -0.046
REMARK SMILES CC(C)[C@H]([NH3+])C(=O)[O-]
REMARK SMILES IDX 4 1 5 2 6 6 7 7 8 8 2 9 1 10 3 11
REMARK H PARENT 5 3 5 4 5 5
REMARK Flexibility Score: inf
ROOT
ATOM      1  C   UNL     1      19.243 -38.528  -7.851  1.00  0.00     0.230 C 
ENDROOT
BRANCH   1   2
ATOM      2  N   UNL     1      19.612 -37.160  -8.243  1.00  0.00    -0.350 N 
ATOM      3  H   UNL     1      20.111 -36.682  -7.458  1.00  0.00     0.345 HD
ATOM      4  H   UNL     1      18.754 -36.599  -8.450  1.00  0.00     0.345 HD
ATOM      5  H   UNL     1      20.234 -37.172  -9.085  1.00  0.00     0.345 HD
ENDBRANCH   1   2
BRANCH   1   6
ATOM      6  C   UNL     1      19.248 -38.632  -6.345  1.00  0.00     0.099 C 
ATOM      7  O   UNL     1      18.446 -39.406  -5.760  1.00  0.00    -0.544 OA
ATOM      8  O   UNL     1      20.141 -37.875  -5.595  1.00  0.00    -0.544 OA
ENDBRANCH   1   6
BRANCH   1   9
ATOM      9  C   UNL     1      20.194 -39.590  -8.481  1.00  0.00     0.047 C 
ATOM     10  C   UNL     1      21.285 -38.940  -9.348  1.00  0.00     0.014 C 
ATOM     11  C   UNL     1      19.411 -40.604  -9.334  1.00  0.00     0.014 C 
ENDBRANCH   1   9
TORSDOF 3
ENDMDL
MODEL 8
REMARK VINA RESULT:    -3.135      2.461      3.232
REMARK INTER + INTRA:          -3.639
REMARK INTER:                  -3.592
REMARK INTRA:                  -0.047
REMARK UNBOUND:                -0.046
REMARK SMILES CC(C)[C@H]([NH3+])C(=O)[O-]
REMARK SMILES IDX 4 1 5 2 6 6 7 7 8 8 2 9 1 10 3 11
REMARK H PARENT 5 3 5 4 5 5
REMARK Flexibility Score: inf
ROOT
ATOM      1  C   UNL     1      19.024 -39.152  -7.876  1.00  0.00     0.230 C 
ENDROOT
BRANCH   1   2
ATOM      2  N   UNL     1      18.757 -40.550  -8.247  1.00  0.00    -0.350 N 
ATOM      3  H   UNL     1      18.287 -40.591  -9.180  1.00  0.00     0.345 HD
ATOM      4  H   UNL     1      18.108 -40.990  -7.556  1.00  0.00     0.345 HD
ATOM      5  H   UNL     1      19.648 -41.098  -8.290  1.00  0.00     0.345 HD
ENDBRANCH   1   2
BRANCH   1   6
ATOM      6  C   UNL     1      18.915 -39.006  -6.378  1.00  0.00     0.099 C 
ATOM      7  O   UNL     1      18.059 -39.670  -5.737  1.00  0.00    -0.544 OA
ATOM      8  O   UNL     1      19.762 -38.139  -5.696  1.00  0.00    -0.544 OA
ENDBRANCH   1   6
BRANCH   1   9
ATOM      9  C   UNL     1      18.058 -38.165  -8.598  1.00  0.00     0.047 C 
ATOM     10  C   UNL     1      16.902 -38.900  -9.296  1.00  0.00     0.014 C 
ATOM     11  C   UNL     1      18.809 -37.310  -9.636  1.00  0.00     0.014 C 
ENDBRANCH   1   9
TORSDOF 3
ENDMDL
MODEL 9
REMARK VINA RESULT:    -3.123      2.634      2.914
REMARK INTER + INTRA:          -3.626
REMARK INTER:                  -3.558
REMARK INTRA:                  -0.068
REMARK UNBOUND:                -0.046
REMARK SMILES CC(C)[C@H]([NH3+])C(=O)[O-]
REMARK SMILES IDX 4 1 5 2 6 6 7 7 8 8 2 9 1 10 3 11
REMARK H PARENT 5 3 5 4 5 5
REMARK Flexibility Score: inf
ROOT
ATOM      1  C   UNL     1      18.656 -39.425  -8.567  1.00  0.00     0.230 C 
ENDROOT
BRANCH   1   2
ATOM      2  N   UNL     1      17.334 -38.797  -8.699  1.00  0.00    -0.350 N 
ATOM      3  H   UNL     1      17.435 -37.759  -8.787  1.00  0.00     0.345 HD
ATOM      4  H   UNL     1      16.760 -38.978  -7.845  1.00  0.00     0.345 HD
ATOM      5  H   UNL     1      16.833 -39.162  -9.542  1.00  0.00     0.345 HD
ENDBRANCH   1   2
BRANCH   1   6
ATOM      6  C   UNL     1      18.570 -40.864  -9.013  1.00  0.00     0.099 C 
ATOM      7  O   UNL     1      19.587 -41.604  -8.968  1.00  0.00    -0.544 OA
ATOM      8  O   UNL     1      17.365 -41.382  -9.475  1.00  0.00    -0.544 OA
ENDBRANCH   1   6
BRANCH   1   9
ATOM      9  C   UNL     1      19.201 -39.332  -7.109  1.00  0.00     0.047 C 
ATOM     10  C   UNL     1      18.116 -39.658  -6.069  1.00  0.00     0.014 C 
ATOM     11  C   UNL     1      19.772 -37.932  -6.817  1.00  0.00     0.014 C 
ENDBRANCH   1   9
TORSDOF 3
ENDMDL
