MODEL 1
REMARK VINA RESULT:    -3.392      0.000      0.000
REMARK INTER + INTRA:          -4.598
REMARK INTER:                  -4.383
REMARK INTRA:                  -0.214
REMARK UNBOUND:                -0.214
REMARK SMILES CCCCCCC(=O)[O-]
REMARK SMILES IDX 5 1 6 2 7 3 8 4 9 5 4 6 3 7 2 8 1 9
REMARK H PARENT
REMARK Flexibility Score: inf
ROOT
ATOM      1  C   UNL     1      49.585  46.442  55.971  1.00  0.00     0.006 C 
ENDROOT
BRANCH   1   2
ATOM      2  C   UNL     1      50.319  46.077  54.677  1.00  0.00     0.053 C 
BRANCH   2   3
ATOM      3  C   UNL     1      51.762  45.801  54.955  1.00  0.00     0.041 C 
ATOM      4  O   UNL     1      52.247  46.047  56.091  1.00  0.00    -0.550 OA
ATOM      5  O   UNL     1      52.585  45.318  53.946  1.00  0.00    -0.550 OA
ENDBRANCH   2   3
ENDBRANCH   1   2
BRANCH   1   6
ATOM      6  C   UNL     1      48.678  45.294  56.432  1.00  0.00     0.000 C 
BRANCH   6   7
ATOM      7  C   UNL     1      48.203  45.516  57.876  1.00  0.00    -0.000 C 
BRANCH   7   8
ATOM      8  C   UNL     1      49.084  46.516  58.641  1.00  0.00    -0.003 C 
ATOM      9  C   UNL     1      48.279  47.660  59.260  1.00  0.00     0.004 C 
ENDBRANCH   7   8
ENDBRANCH   6   7
ENDBRANCH   1   6
TORSDOF 5
ENDMDL
MODEL 2
REMARK VINA RESULT:    -3.218      3.138      4.647
REMARK INTER + INTRA:          -4.373
REMARK INTER:                  -4.091
REMARK INTRA:                  -0.282
REMARK UNBOUND:                -0.214
REMARK SMILES CCCCCCC(=O)[O-]
REMARK SMILES IDX 5 1 6 2 7 3 8 4 9 5 4 6 3 7 2 8 1 9
REMARK H PARENT
REMARK Flexibility Score: inf
ROOT
ATOM      1  C   UNL     1      48.512  45.089  56.905  1.00  0.00     0.006 C 
ENDROOT
BRANCH   1   2
ATOM      2  C   UNL     1      49.118  46.185  57.785  1.00  0.00     0.053 C 
BRANCH   2   3
ATOM      3  C   UNL     1      48.108  46.689  58.766  1.00  0.00     0.041 C 
ATOM      4  O   UNL     1      48.389  47.654  59.524  1.00  0.00    -0.550 OA
ATOM      5  O   UNL     1      46.874  46.062  58.878  1.00  0.00    -0.550 OA
ENDBRANCH   2   3
ENDBRANCH   1   2
BRANCH   1   6
ATOM      6  C   UNL     1      49.151  45.085  55.511  1.00  0.00     0.000 C 
BRANCH   6   7
ATOM      7  C   UNL     1      49.891  46.404  55.242  1.00  0.00    -0.000 C 
BRANCH   7   8
ATOM      8  C   UNL     1      51.316  46.184  54.711  1.00  0.00    -0.003 C 
ATOM      9  C   UNL     1      52.291  45.734  55.800  1.00  0.00     0.004 C 
ENDBRANCH   7   8
ENDBRANCH   6   7
ENDBRANCH   1   6
TORSDOF 5
ENDMDL
MODEL 3
REMARK VINA RESULT:    -3.128     11.056     12.970
REMARK INTER + INTRA:          -4.257
REMARK INTER:                  -3.884
REMARK INTRA:                  -0.373
REMARK UNBOUND:                -0.214
REMARK SMILES CCCCCCC(=O)[O-]
REMARK SMILES IDX 5 1 6 2 7 3 8 4 9 5 4 6 3 7 2 8 1 9
REMARK H PARENT
REMARK Flexibility Score: inf
ROOT
ATOM      1  C   UNL     1      51.870  46.620  42.799  1.00  0.00     0.006 C 
ENDROOT
BRANCH   1   2
ATOM      2  C   UNL     1      50.495  46.026  42.483  1.00  0.00     0.053 C 
BRANCH   2   3
ATOM      3  C   UNL     1      49.433  47.072  42.602  1.00  0.00     0.041 C 
ATOM      4  O   UNL     1      48.542  46.972  43.486  1.00  0.00    -0.550 OA
ATOM      5  O   UNL     1      49.397  48.133  41.707  1.00  0.00    -0.550 OA
ENDBRANCH   2   3
ENDBRANCH   1   2
BRANCH   1   6
ATOM      6  C   UNL     1      52.617  45.762  43.827  1.00  0.00     0.000 C 
BRANCH   6   7
ATOM      7  C   UNL     1      51.782  45.583  45.104  1.00  0.00    -0.000 C 
BRANCH   7   8
ATOM      8  C   UNL     1      51.698  46.870  45.940  1.00  0.00    -0.003 C 
ATOM      9  C   UNL     1      50.304  47.108  46.521  1.00  0.00     0.004 C 
ENDBRANCH   7   8
ENDBRANCH   6   7
ENDBRANCH   1   6
TORSDOF 5
ENDMDL
MODEL 4
REMARK VINA RESULT:    -3.106      2.612      4.311
REMARK INTER + INTRA:          -4.229
REMARK INTER:                  -3.949
REMARK INTRA:                  -0.280
REMARK UNBOUND:                -0.214
REMARK SMILES CCCCCCC(=O)[O-]
REMARK SMILES IDX 5 1 6 2 7 3 8 4 9 5 4 6 3 7 2 8 1 9
REMARK H PARENT
REMARK Flexibility Score: inf
ROOT
ATOM      1  C   UNL     1      49.662  46.371  55.893  1.00  0.00     0.006 C 
ENDROOT
BRANCH   1   2
ATOM      2  C   UNL     1      48.677  45.243  56.213  1.00  0.00     0.053 C 
BRANCH   2   3
ATOM      3  C   UNL     1      48.245  45.315  57.643  1.00  0.00     0.041 C 
ATOM      4  O   UNL     1      49.061  45.669  58.534  1.00  0.00    -0.550 OA
ATOM      5  O   UNL     1      46.955  44.945  57.999  1.00  0.00    -0.550 OA
ENDBRANCH   2   3
ENDBRANCH   1   2
BRANCH   1   6
ATOM      6  C   UNL     1      50.482  46.047  54.639  1.00  0.00     0.000 C 
BRANCH   6   7
ATOM      7  C   UNL     1      51.857  45.471  55.015  1.00  0.00    -0.000 C 
BRANCH   7   8
ATOM      8  C   UNL     1      52.367  45.996  56.366  1.00  0.00    -0.003 C 
ATOM      9  C   UNL     1      52.835  44.876  57.296  1.00  0.00     0.004 C 
ENDBRANCH   7   8
ENDBRANCH   6   7
ENDBRANCH   1   6
TORSDOF 5
ENDMDL
MODEL 5
REMARK VINA RESULT:    -3.074      1.548      2.131
REMARK INTER + INTRA:          -4.187
REMARK INTER:                  -3.991
REMARK INTRA:                  -0.196
REMARK UNBOUND:                -0.214
REMARK SMILES CCCCCCC(=O)[O-]
REMARK SMILES IDX 5 1 6 2 7 3 8 4 9 5 4 6 3 7 2 8 1 9
REMARK H PARENT
REMARK Flexibility Score: inf
ROOT
ATOM      1  C   UNL     1      52.172  45.745  57.339  1.00  0.00     0.006 C 
ENDROOT
BRANCH   1   2
ATOM      2  C   UNL     1      52.673  44.876  56.182  1.00  0.00     0.053 C 
BRANCH   2   3
ATOM      3  C   UNL     1      52.247  45.453  54.870  1.00  0.00     0.041 C 
ATOM      4  O   UNL     1      52.822  45.100  53.807  1.00  0.00    -0.550 OA
ATOM      5  O   UNL     1      51.248  46.416  54.825  1.00  0.00    -0.550 OA
ENDBRANCH   2   3
ENDBRANCH   1   2
BRANCH   1   6
ATOM      6  C   UNL     1      51.115  45.004  58.167  1.00  0.00     0.000 C 
BRANCH   6   7
ATOM      7  C   UNL     1      49.705  45.532  57.857  1.00  0.00    -0.000 C 
BRANCH   7   8
ATOM      8  C   UNL     1      48.956  45.990  59.119  1.00  0.00    -0.003 C 
ATOM      9  C   UNL     1      48.631  47.484  59.103  1.00  0.00     0.004 C 
ENDBRANCH   7   8
ENDBRANCH   6   7
ENDBRANCH   1   6
TORSDOF 5
ENDMDL
MODEL 6
REMARK VINA RESULT:    -2.964     11.995     13.826
REMARK INTER + INTRA:          -4.045
REMARK INTER:                  -3.953
REMARK INTRA:                  -0.091
REMARK UNBOUND:                -0.214
REMARK SMILES CCCCCCC(=O)[O-]
REMARK SMILES IDX 5 1 6 2 7 3 8 4 9 5 4 6 3 7 2 8 1 9
REMARK H PARENT
REMARK Flexibility Score: inf
ROOT
ATOM      1  C   UNL     1      48.546  47.078  42.992  1.00  0.00     0.006 C 
ENDROOT
BRANCH   1   2
ATOM      2  C   UNL     1      47.659  46.192  42.113  1.00  0.00     0.053 C 
BRANCH   2   3
ATOM      3  C   UNL     1      46.549  46.994  41.512  1.00  0.00     0.041 C 
ATOM      4  O   UNL     1      46.803  48.057  40.887  1.00  0.00    -0.550 OA
ATOM      5  O   UNL     1      45.230  46.595  41.682  1.00  0.00    -0.550 OA
ENDBRANCH   2   3
ENDBRANCH   1   2
BRANCH   1   6
ATOM      6  C   UNL     1      49.401  46.231  43.943  1.00  0.00     0.000 C 
BRANCH   6   7
ATOM      7  C   UNL     1      50.790  46.858  44.138  1.00  0.00    -0.000 C 
BRANCH   7   8
ATOM      8  C   UNL     1      51.494  46.351  45.407  1.00  0.00    -0.003 C 
ATOM      9  C   UNL     1      51.321  47.295  46.597  1.00  0.00     0.004 C 
ENDBRANCH   7   8
ENDBRANCH   6   7
ENDBRANCH   1   6
TORSDOF 5
ENDMDL
MODEL 7
REMARK VINA RESULT:    -2.890      2.986      4.726
REMARK INTER + INTRA:          -3.949
REMARK INTER:                  -3.695
REMARK INTRA:                  -0.254
REMARK UNBOUND:                -0.214
REMARK SMILES CCCCCCC(=O)[O-]
REMARK SMILES IDX 5 1 6 2 7 3 8 4 9 5 4 6 3 7 2 8 1 9
REMARK H PARENT
REMARK Flexibility Score: inf
ROOT
ATOM      1  C   UNL     1      50.384  44.880  58.630  1.00  0.00     0.006 C 
ENDROOT
BRANCH   1   2
ATOM      2  C   UNL     1      49.082  45.225  57.901  1.00  0.00     0.053 C 
BRANCH   2   3
ATOM      3  C   UNL     1      48.254  46.160  58.723  1.00  0.00     0.041 C 
ATOM      4  O   UNL     1      47.002  46.027  58.766  1.00  0.00    -0.550 OA
ATOM      5  O   UNL     1      48.857  47.209  59.404  1.00  0.00    -0.550 OA
ENDBRANCH   2   3
ENDBRANCH   1   2
BRANCH   1   6
ATOM      6  C   UNL     1      51.602  45.408  57.861  1.00  0.00     0.000 C 
BRANCH   6   7
ATOM      7  C   UNL     1      51.615  44.875  56.420  1.00  0.00    -0.000 C 
BRANCH   7   8
ATOM      8  C   UNL     1      51.786  45.992  55.379  1.00  0.00    -0.003 C 
ATOM      9  C   UNL     1      50.461  46.419  54.747  1.00  0.00     0.004 C 
ENDBRANCH   7   8
ENDBRANCH   6   7
ENDBRANCH   1   6
TORSDOF 5
ENDMDL
MODEL 8
REMARK VINA RESULT:    -2.867     10.876     13.233
REMARK INTER + INTRA:          -3.920
REMARK INTER:                  -3.679
REMARK INTRA:                  -0.240
REMARK UNBOUND:                -0.214
REMARK SMILES CCCCCCC(=O)[O-]
REMARK SMILES IDX 5 1 6 2 7 3 8 4 9 5 4 6 3 7 2 8 1 9
REMARK H PARENT
REMARK Flexibility Score: inf
ROOT
ATOM      1  C   UNL     1      52.216  45.611  44.698  1.00  0.00     0.006 C 
ENDROOT
BRANCH   1   2
ATOM      2  C   UNL     1      51.159  46.719  44.736  1.00  0.00     0.053 C 
BRANCH   2   3
ATOM      3  C   UNL     1      50.893  47.140  46.146  1.00  0.00     0.041 C 
ATOM      4  O   UNL     1      51.841  47.516  46.884  1.00  0.00    -0.550 OA
ATOM      5  O   UNL     1      49.606  47.071  46.661  1.00  0.00    -0.550 OA
ENDBRANCH   2   3
ENDBRANCH   1   2
BRANCH   1   6
ATOM      6  C   UNL     1      52.561  45.229  43.253  1.00  0.00     0.000 C 
BRANCH   6   7
ATOM      7  C   UNL     1      53.599  46.196  42.663  1.00  0.00    -0.000 C 
BRANCH   7   8
ATOM      8  C   UNL     1      53.225  46.673  41.251  1.00  0.00    -0.003 C 
ATOM      9  C   UNL     1      52.243  47.845  41.263  1.00  0.00     0.004 C 
ENDBRANCH   7   8
ENDBRANCH   6   7
ENDBRANCH   1   6
TORSDOF 5
ENDMDL
MODEL 9
REMARK VINA RESULT:    -2.829     14.721     15.545
REMARK INTER + INTRA:          -3.870
REMARK INTER:                  -3.643
REMARK INTRA:                  -0.227
REMARK UNBOUND:                -0.214
REMARK SMILES CCCCCCC(=O)[O-]
REMARK SMILES IDX 5 1 6 2 7 3 8 4 9 5 4 6 3 7 2 8 1 9
REMARK H PARENT
REMARK Flexibility Score: inf
ROOT
ATOM      1  C   UNL     1      45.051  45.788  41.293  1.00  0.00     0.006 C 
ENDROOT
BRANCH   1   2
ATOM      2  C   UNL     1      46.055  46.938  41.411  1.00  0.00     0.053 C 
BRANCH   2   3
ATOM      3  C   UNL     1      47.361  46.441  41.943  1.00  0.00     0.041 C 
ATOM      4  O   UNL     1      47.867  45.380  41.491  1.00  0.00    -0.550 OA
ATOM      5  O   UNL     1      47.997  47.122  42.973  1.00  0.00    -0.550 OA
ENDBRANCH   2   3
ENDBRANCH   1   2
BRANCH   1   6
ATOM      6  C   UNL     1      43.630  46.261  41.621  1.00  0.00     0.000 C 
BRANCH   6   7
ATOM      7  C   UNL     1      43.371  47.663  41.048  1.00  0.00    -0.000 C 
BRANCH   7   8
ATOM      8  C   UNL     1      42.811  48.637  42.097  1.00  0.00    -0.003 C 
ATOM      9  C   UNL     1      43.846  49.659  42.567  1.00  0.00     0.004 C 
ENDBRANCH   7   8
ENDBRANCH   6   7
ENDBRANCH   1   6
TORSDOF 5
ENDMDL
