MODEL 1
REMARK VINA RESULT:    -4.602      0.000      0.000
REMARK INTER + INTRA:          -6.339
REMARK INTER:                  -6.217
REMARK INTRA:                  -0.123
REMARK UNBOUND:                -0.123
REMARK SMILES [NH3+]CCCC[C@@H]([NH3+])C(=O)[O-]
REMARK SMILES IDX 4 1 3 2 2 3 1 4 5 8 6 9 7 10 8 14 9 15 10 16
REMARK H PARENT 1 5 1 6 1 7 7 11 7 12 7 13
REMARK Flexibility Score: inf
ROOT
ATOM      1  C   UNL     1      61.939  -2.058   6.118  1.00  0.00     0.012 C 
ENDROOT
BRANCH   1   2
ATOM      2  C   UNL     1      61.813  -0.654   6.733  1.00  0.00     0.061 C 
BRANCH   2   3
ATOM      3  C   UNL     1      61.078  -0.660   8.084  1.00  0.00     0.258 C 
BRANCH   3   4
ATOM      4  N   UNL     1      60.128  -1.770   8.155  1.00  0.00    -0.358 N 
ATOM      5  H   UNL     1      60.206  -2.226   9.092  1.00  0.00     0.344 HD
ATOM      6  H   UNL     1      60.345  -2.477   7.416  1.00  0.00     0.344 HD
ATOM      7  H   UNL     1      59.152  -1.415   8.032  1.00  0.00     0.344 HD
ENDBRANCH   3   4
ENDBRANCH   2   3
ENDBRANCH   1   2
BRANCH   1   8
ATOM      8  C   UNL     1      62.950  -2.106   4.958  1.00  0.00     0.072 C 
BRANCH   8   9
ATOM      9  C   UNL     1      63.254  -3.549   4.495  1.00  0.00     0.227 C 
BRANCH   9  10
ATOM     10  N   UNL     1      63.421  -4.464   5.633  1.00  0.00    -0.350 N 
ATOM     11  H   UNL     1      63.358  -5.461   5.322  1.00  0.00     0.345 HD
ATOM     12  H   UNL     1      62.690  -4.279   6.355  1.00  0.00     0.345 HD
ATOM     13  H   UNL     1      64.352  -4.306   6.082  1.00  0.00     0.345 HD
ENDBRANCH   9  10
BRANCH   9  14
ATOM     14  C   UNL     1      62.140  -4.034   3.605  1.00  0.00     0.099 C 
ATOM     15  O   UNL     1      61.772  -5.238   3.648  1.00  0.00    -0.544 OA
ATOM     16  O   UNL     1      61.525  -3.161   2.715  1.00  0.00    -0.544 OA
ENDBRANCH   9  14
ENDBRANCH   8   9
ENDBRANCH   1   8
TORSDOF 7
ENDMDL
MODEL 2
REMARK VINA RESULT:    -4.567      0.187      1.038
REMARK INTER + INTRA:          -6.291
REMARK INTER:                  -6.181
REMARK INTRA:                  -0.110
REMARK UNBOUND:                -0.123
REMARK SMILES [NH3+]CCCC[C@@H]([NH3+])C(=O)[O-]
REMARK SMILES IDX 4 1 3 2 2 3 1 4 5 8 6 9 7 10 8 14 9 15 10 16
REMARK H PARENT 1 5 1 6 1 7 7 11 7 12 7 13
REMARK Flexibility Score: inf
ROOT
ATOM      1  C   UNL     1      62.000  -2.057   6.294  1.00  0.00     0.012 C 
ENDROOT
BRANCH   1   2
ATOM      2  C   UNL     1      61.827  -0.641   6.867  1.00  0.00     0.061 C 
BRANCH   2   3
ATOM      3  C   UNL     1      61.021  -0.623   8.177  1.00  0.00     0.258 C 
BRANCH   3   4
ATOM      4  N   UNL     1      60.079  -1.741   8.224  1.00  0.00    -0.358 N 
ATOM      5  H   UNL     1      60.594  -2.612   8.488  1.00  0.00     0.344 HD
ATOM      6  H   UNL     1      59.639  -1.880   7.285  1.00  0.00     0.344 HD
ATOM      7  H   UNL     1      59.338  -1.557   8.939  1.00  0.00     0.344 HD
ENDBRANCH   3   4
ENDBRANCH   2   3
ENDBRANCH   1   2
BRANCH   1   8
ATOM      8  C   UNL     1      62.759  -2.063   4.955  1.00  0.00     0.072 C 
BRANCH   8   9
ATOM      9  C   UNL     1      63.085  -3.491   4.464  1.00  0.00     0.227 C 
BRANCH   9  10
ATOM     10  N   UNL     1      63.141  -4.451   5.575  1.00  0.00    -0.350 N 
ATOM     11  H   UNL     1      62.227  -4.488   6.082  1.00  0.00     0.345 HD
ATOM     12  H   UNL     1      63.899  -4.187   6.243  1.00  0.00     0.345 HD
ATOM     13  H   UNL     1      63.366  -5.406   5.209  1.00  0.00     0.345 HD
ENDBRANCH   9  10
BRANCH   9  14
ATOM     14  C   UNL     1      62.049  -3.926   3.461  1.00  0.00     0.099 C 
ATOM     15  O   UNL     1      61.531  -3.085   2.680  1.00  0.00    -0.544 OA
ATOM     16  O   UNL     1      61.641  -5.253   3.407  1.00  0.00    -0.544 OA
ENDBRANCH   9  14
ENDBRANCH   8   9
ENDBRANCH   1   8
TORSDOF 7
ENDMDL
MODEL 3
REMARK VINA RESULT:    -4.401      2.938      3.830
REMARK INTER + INTRA:          -6.067
REMARK INTER:                  -5.965
REMARK INTRA:                  -0.102
REMARK UNBOUND:                -0.123
REMARK SMILES [NH3+]CCCC[C@@H]([NH3+])C(=O)[O-]
REMARK SMILES IDX 4 1 3 2 2 3 1 4 5 8 6 9 7 10 8 14 9 15 10 16
REMARK H PARENT 1 5 1 6 1 7 7 11 7 12 7 13
REMARK Flexibility Score: inf
ROOT
ATOM      1  C   UNL     1      62.005   0.899   7.232  1.00  0.00     0.012 C 
ENDROOT
BRANCH   1   2
ATOM      2  C   UNL     1      62.105   2.301   6.608  1.00  0.00     0.061 C 
BRANCH   2   3
ATOM      3  C   UNL     1      63.443   2.539   5.887  1.00  0.00     0.258 C 
BRANCH   3   4
ATOM      4  N   UNL     1      63.222   3.049   4.534  1.00  0.00    -0.358 N 
ATOM      5  H   UNL     1      64.032   3.650   4.259  1.00  0.00     0.344 HD
ATOM      6  H   UNL     1      62.349   3.624   4.504  1.00  0.00     0.344 HD
ATOM      7  H   UNL     1      63.147   2.254   3.859  1.00  0.00     0.344 HD
ENDBRANCH   3   4
ENDBRANCH   2   3
ENDBRANCH   1   2
BRANCH   1   8
ATOM      8  C   UNL     1      62.038  -0.220   6.176  1.00  0.00     0.072 C 
BRANCH   8   9
ATOM      9  C   UNL     1      62.098  -1.630   6.807  1.00  0.00     0.227 C 
BRANCH   9  10
ATOM     10  N   UNL     1      60.890  -1.930   7.588  1.00  0.00    -0.350 N 
ATOM     11  H   UNL     1      60.853  -1.350   8.457  1.00  0.00     0.345 HD
ATOM     12  H   UNL     1      60.868  -2.942   7.844  1.00  0.00     0.345 HD
ATOM     13  H   UNL     1      60.037  -1.735   7.013  1.00  0.00     0.345 HD
ENDBRANCH   9  10
BRANCH   9  14
ATOM     14  C   UNL     1      62.277  -2.658   5.721  1.00  0.00     0.099 C 
ATOM     15  O   UNL     1      61.930  -2.398   4.539  1.00  0.00    -0.544 OA
ATOM     16  O   UNL     1      62.808  -3.907   6.021  1.00  0.00    -0.544 OA
ENDBRANCH   9  14
ENDBRANCH   8   9
ENDBRANCH   1   8
TORSDOF 7
ENDMDL
MODEL 4
REMARK VINA RESULT:    -4.393      3.692      4.605
REMARK INTER + INTRA:          -6.057
REMARK INTER:                  -5.804
REMARK INTRA:                  -0.253
REMARK UNBOUND:                -0.123
REMARK SMILES [NH3+]CCCC[C@@H]([NH3+])C(=O)[O-]
REMARK SMILES IDX 4 1 3 2 2 3 1 4 5 8 6 9 7 10 8 14 9 15 10 16
REMARK H PARENT 1 5 1 6 1 7 7 11 7 12 7 13
REMARK Flexibility Score: inf
ROOT
ATOM      1  C   UNL     1      61.510   1.894   7.898  1.00  0.00     0.012 C 
ENDROOT
BRANCH   1   2
ATOM      2  C   UNL     1      61.621   0.648   8.792  1.00  0.00     0.061 C 
BRANCH   2   3
ATOM      3  C   UNL     1      60.287  -0.104   8.933  1.00  0.00     0.258 C 
BRANCH   3   4
ATOM      4  N   UNL     1      60.338  -1.388   8.233  1.00  0.00    -0.358 N 
ATOM      5  H   UNL     1      59.417  -1.872   8.339  1.00  0.00     0.344 HD
ATOM      6  H   UNL     1      61.086  -1.992   8.644  1.00  0.00     0.344 HD
ATOM      7  H   UNL     1      60.524  -1.235   7.215  1.00  0.00     0.344 HD
ENDBRANCH   3   4
ENDBRANCH   2   3
ENDBRANCH   1   2
BRANCH   1   8
ATOM      8  C   UNL     1      62.697   2.031   6.927  1.00  0.00     0.072 C 
BRANCH   8   9
ATOM      9  C   UNL     1      62.251   2.070   5.447  1.00  0.00     0.227 C 
BRANCH   9  10
ATOM     10  N   UNL     1      63.066   3.002   4.656  1.00  0.00    -0.350 N 
ATOM     11  H   UNL     1      62.461   3.693   4.155  1.00  0.00     0.345 HD
ATOM     12  H   UNL     1      63.643   2.477   3.962  1.00  0.00     0.345 HD
ATOM     13  H   UNL     1      63.725   3.519   5.283  1.00  0.00     0.345 HD
ENDBRANCH   9  10
BRANCH   9  14
ATOM     14  C   UNL     1      62.338   0.685   4.861  1.00  0.00     0.099 C 
ATOM     15  O   UNL     1      62.830   0.512   3.715  1.00  0.00    -0.544 OA
ATOM     16  O   UNL     1      61.857  -0.407   5.573  1.00  0.00    -0.544 OA
ENDBRANCH   9  14
ENDBRANCH   8   9
ENDBRANCH   1   8
TORSDOF 7
ENDMDL
MODEL 5
REMARK VINA RESULT:    -4.343      4.302      5.425
REMARK INTER + INTRA:          -5.989
REMARK INTER:                  -5.805
REMARK INTRA:                  -0.184
REMARK UNBOUND:                -0.123
REMARK SMILES [NH3+]CCCC[C@@H]([NH3+])C(=O)[O-]
REMARK SMILES IDX 4 1 3 2 2 3 1 4 5 8 6 9 7 10 8 14 9 15 10 16
REMARK H PARENT 1 5 1 6 1 7 7 11 7 12 7 13
REMARK Flexibility Score: inf
ROOT
ATOM      1  C   UNL     1      63.320  -0.440   5.940  1.00  0.00     0.012 C 
ENDROOT
BRANCH   1   2
ATOM      2  C   UNL     1      62.410  -1.512   6.562  1.00  0.00     0.061 C 
BRANCH   2   3
ATOM      3  C   UNL     1      61.265  -0.912   7.395  1.00  0.00     0.258 C 
BRANCH   3   4
ATOM      4  N   UNL     1      60.406  -1.965   7.936  1.00  0.00    -0.358 N 
ATOM      5  H   UNL     1      59.517  -1.995   7.388  1.00  0.00     0.344 HD
ATOM      6  H   UNL     1      60.180  -1.767   8.937  1.00  0.00     0.344 HD
ATOM      7  H   UNL     1      60.883  -2.893   7.857  1.00  0.00     0.344 HD
ENDBRANCH   3   4
ENDBRANCH   2   3
ENDBRANCH   1   2
BRANCH   1   8
ATOM      8  C   UNL     1      62.525   0.665   5.222  1.00  0.00     0.072 C 
BRANCH   8   9
ATOM      9  C   UNL     1      62.884   2.080   5.729  1.00  0.00     0.227 C 
BRANCH   9  10
ATOM     10  N   UNL     1      63.260   2.976   4.627  1.00  0.00    -0.350 N 
ATOM     11  H   UNL     1      62.435   3.530   4.299  1.00  0.00     0.345 HD
ATOM     12  H   UNL     1      63.648   2.425   3.830  1.00  0.00     0.345 HD
ATOM     13  H   UNL     1      64.007   3.636   4.945  1.00  0.00     0.345 HD
ENDBRANCH   9  10
BRANCH   9  14
ATOM     14  C   UNL     1      61.712   2.654   6.482  1.00  0.00     0.099 C 
ATOM     15  O   UNL     1      60.776   3.221   5.860  1.00  0.00    -0.544 OA
ATOM     16  O   UNL     1      61.668   2.581   7.869  1.00  0.00    -0.544 OA
ENDBRANCH   9  14
ENDBRANCH   8   9
ENDBRANCH   1   8
TORSDOF 7
ENDMDL
MODEL 6
REMARK VINA RESULT:    -4.335      4.506      5.706
REMARK INTER + INTRA:          -5.979
REMARK INTER:                  -5.862
REMARK INTRA:                  -0.117
REMARK UNBOUND:                -0.123
REMARK SMILES [NH3+]CCCC[C@@H]([NH3+])C(=O)[O-]
REMARK SMILES IDX 4 1 3 2 2 3 1 4 5 8 6 9 7 10 8 14 9 15 10 16
REMARK H PARENT 1 5 1 6 1 7 7 11 7 12 7 13
REMARK Flexibility Score: inf
ROOT
ATOM      1  C   UNL     1      62.790  -0.240   6.301  1.00  0.00     0.012 C 
ENDROOT
BRANCH   1   2
ATOM      2  C   UNL     1      62.359   1.109   5.702  1.00  0.00     0.061 C 
BRANCH   2   3
ATOM      3  C   UNL     1      63.553   1.989   5.296  1.00  0.00     0.258 C 
BRANCH   3   4
ATOM      4  N   UNL     1      63.118   3.095   4.443  1.00  0.00    -0.358 N 
ATOM      5  H   UNL     1      63.689   3.942   4.664  1.00  0.00     0.344 HD
ATOM      6  H   UNL     1      62.110   3.311   4.619  1.00  0.00     0.344 HD
ATOM      7  H   UNL     1      63.256   2.847   3.436  1.00  0.00     0.344 HD
ENDBRANCH   3   4
ENDBRANCH   2   3
ENDBRANCH   1   2
BRANCH   1   8
ATOM      8  C   UNL     1      62.337  -0.409   7.763  1.00  0.00     0.072 C 
BRANCH   8   9
ATOM      9  C   UNL     1      60.803  -0.544   7.897  1.00  0.00     0.227 C 
BRANCH   9  10
ATOM     10  N   UNL     1      60.384  -1.949   7.989  1.00  0.00    -0.350 N 
ATOM     11  H   UNL     1      60.860  -2.529   7.259  1.00  0.00     0.345 HD
ATOM     12  H   UNL     1      59.349  -2.025   7.875  1.00  0.00     0.345 HD
ATOM     13  H   UNL     1      60.623  -2.329   8.935  1.00  0.00     0.345 HD
ENDBRANCH   9  10
BRANCH   9  14
ATOM     14  C   UNL     1      60.339   0.212   9.114  1.00  0.00     0.099 C 
ATOM     15  O   UNL     1      61.148   0.924   9.766  1.00  0.00    -0.544 OA
ATOM     16  O   UNL     1      59.019   0.113   9.538  1.00  0.00    -0.544 OA
ENDBRANCH   9  14
ENDBRANCH   8   9
ENDBRANCH   1   8
TORSDOF 7
ENDMDL
MODEL 7
REMARK VINA RESULT:    -4.226      3.636      5.375
REMARK INTER + INTRA:          -5.831
REMARK INTER:                  -5.720
REMARK INTRA:                  -0.112
REMARK UNBOUND:                -0.123
REMARK SMILES [NH3+]CCCC[C@@H]([NH3+])C(=O)[O-]
REMARK SMILES IDX 4 1 3 2 2 3 1 4 5 8 6 9 7 10 8 14 9 15 10 16
REMARK H PARENT 1 5 1 6 1 7 7 11 7 12 7 13
REMARK Flexibility Score: inf
ROOT
ATOM      1  C   UNL     1      62.058  -2.324   5.869  1.00  0.00     0.012 C 
ENDROOT
BRANCH   1   2
ATOM      2  C   UNL     1      63.070  -3.480   5.907  1.00  0.00     0.061 C 
BRANCH   2   3
ATOM      3  C   UNL     1      64.512  -3.002   6.147  1.00  0.00     0.258 C 
BRANCH   3   4
ATOM      4  N   UNL     1      65.463  -4.097   5.954  1.00  0.00    -0.358 N 
ATOM      5  H   UNL     1      65.426  -4.409   4.957  1.00  0.00     0.344 HD
ATOM      6  H   UNL     1      65.213  -4.904   6.570  1.00  0.00     0.344 HD
ATOM      7  H   UNL     1      66.433  -3.772   6.171  1.00  0.00     0.344 HD
ENDBRANCH   3   4
ENDBRANCH   2   3
ENDBRANCH   1   2
BRANCH   1   8
ATOM      8  C   UNL     1      62.360  -1.240   6.918  1.00  0.00     0.072 C 
BRANCH   8   9
ATOM      9  C   UNL     1      61.102  -0.813   7.709  1.00  0.00     0.227 C 
BRANCH   9  10
ATOM     10  N   UNL     1      60.221  -1.954   7.992  1.00  0.00    -0.350 N 
ATOM     11  H   UNL     1      60.052  -2.518   7.127  1.00  0.00     0.345 HD
ATOM     12  H   UNL     1      59.308  -1.619   8.373  1.00  0.00     0.345 HD
ATOM     13  H   UNL     1      60.657  -2.568   8.719  1.00  0.00     0.345 HD
ENDBRANCH   9  10
BRANCH   9  14
ATOM     14  C   UNL     1      61.521  -0.155   8.998  1.00  0.00     0.099 C 
ATOM     15  O   UNL     1      62.738   0.068   9.230  1.00  0.00    -0.544 OA
ATOM     16  O   UNL     1      60.567   0.191   9.949  1.00  0.00    -0.544 OA
ENDBRANCH   9  14
ENDBRANCH   8   9
ENDBRANCH   1   8
TORSDOF 7
ENDMDL
MODEL 8
REMARK VINA RESULT:    -4.220      2.972      5.107
REMARK INTER + INTRA:          -5.823
REMARK INTER:                  -5.735
REMARK INTRA:                  -0.088
REMARK UNBOUND:                -0.123
REMARK SMILES [NH3+]CCCC[C@@H]([NH3+])C(=O)[O-]
REMARK SMILES IDX 4 1 3 2 2 3 1 4 5 8 6 9 7 10 8 14 9 15 10 16
REMARK H PARENT 1 5 1 6 1 7 7 11 7 12 7 13
REMARK Flexibility Score: inf
ROOT
ATOM      1  C   UNL     1      62.235  -2.765   4.888  1.00  0.00     0.012 C 
ENDROOT
BRANCH   1   2
ATOM      2  C   UNL     1      62.524  -4.240   4.563  1.00  0.00     0.061 C 
BRANCH   2   3
ATOM      3  C   UNL     1      62.119  -4.624   3.129  1.00  0.00     0.258 C 
BRANCH   3   4
ATOM      4  N   UNL     1      62.922  -5.747   2.645  1.00  0.00    -0.358 N 
ATOM      5  H   UNL     1      62.634  -6.616   3.150  1.00  0.00     0.344 HD
ATOM      6  H   UNL     1      63.936  -5.570   2.828  1.00  0.00     0.344 HD
ATOM      7  H   UNL     1      62.765  -5.884   1.620  1.00  0.00     0.344 HD
ENDBRANCH   3   4
ENDBRANCH   2   3
ENDBRANCH   1   2
BRANCH   1   8
ATOM      8  C   UNL     1      62.316  -2.467   6.396  1.00  0.00     0.072 C 
BRANCH   8   9
ATOM      9  C   UNL     1      61.270  -1.425   6.852  1.00  0.00     0.227 C 
BRANCH   9  10
ATOM     10  N   UNL     1      60.491  -1.900   8.003  1.00  0.00    -0.350 N 
ATOM     11  H   UNL     1      59.536  -2.207   7.706  1.00  0.00     0.345 HD
ATOM     12  H   UNL     1      60.406  -1.145   8.719  1.00  0.00     0.345 HD
ATOM     13  H   UNL     1      60.981  -2.706   8.456  1.00  0.00     0.345 HD
ENDBRANCH   9  10
BRANCH   9  14
ATOM     14  C   UNL     1      61.966  -0.135   7.200  1.00  0.00     0.099 C 
ATOM     15  O   UNL     1      62.321   0.094   8.386  1.00  0.00    -0.544 OA
ATOM     16  O   UNL     1      62.202   0.820   6.218  1.00  0.00    -0.544 OA
ENDBRANCH   9  14
ENDBRANCH   8   9
ENDBRANCH   1   8
TORSDOF 7
ENDMDL
MODEL 9
REMARK VINA RESULT:    -4.215      1.834      2.221
REMARK INTER + INTRA:          -5.817
REMARK INTER:                  -5.657
REMARK INTRA:                  -0.159
REMARK UNBOUND:                -0.123
REMARK SMILES [NH3+]CCCC[C@@H]([NH3+])C(=O)[O-]
REMARK SMILES IDX 4 1 3 2 2 3 1 4 5 8 6 9 7 10 8 14 9 15 10 16
REMARK H PARENT 1 5 1 6 1 7 7 11 7 12 7 13
REMARK Flexibility Score: inf
ROOT
ATOM      1  C   UNL     1      62.289  -2.654   6.057  1.00  0.00     0.012 C 
ENDROOT
BRANCH   1   2
ATOM      2  C   UNL     1      61.959  -1.161   6.225  1.00  0.00     0.061 C 
BRANCH   2   3
ATOM      3  C   UNL     1      61.260  -0.853   7.560  1.00  0.00     0.258 C 
BRANCH   3   4
ATOM      4  N   UNL     1      60.346  -1.932   7.931  1.00  0.00    -0.358 N 
ATOM      5  H   UNL     1      59.637  -2.056   7.173  1.00  0.00     0.344 HD
ATOM      6  H   UNL     1      59.850  -1.695   8.821  1.00  0.00     0.344 HD
ATOM      7  H   UNL     1      60.875  -2.827   8.048  1.00  0.00     0.344 HD
ENDBRANCH   3   4
ENDBRANCH   2   3
ENDBRANCH   1   2
BRANCH   1   8
ATOM      8  C   UNL     1      62.350  -3.082   4.580  1.00  0.00     0.072 C 
BRANCH   8   9
ATOM      9  C   UNL     1      63.763  -2.922   3.974  1.00  0.00     0.227 C 
BRANCH   9  10
ATOM     10  N   UNL     1      64.212  -4.150   3.303  1.00  0.00    -0.350 N 
ATOM     11  H   UNL     1      64.956  -4.629   3.861  1.00  0.00     0.345 HD
ATOM     12  H   UNL     1      64.579  -3.927   2.351  1.00  0.00     0.345 HD
ATOM     13  H   UNL     1      63.404  -4.804   3.181  1.00  0.00     0.345 HD
ENDBRANCH   9  10
BRANCH   9  14
ATOM     14  C   UNL     1      63.763  -1.774   3.000  1.00  0.00     0.099 C 
ATOM     15  O   UNL     1      64.837  -1.177   2.723  1.00  0.00    -0.544 OA
ATOM     16  O   UNL     1      62.575  -1.352   2.415  1.00  0.00    -0.544 OA
ENDBRANCH   9  14
ENDBRANCH   8   9
ENDBRANCH   1   8
TORSDOF 7
ENDMDL
