MODEL 1
REMARK VINA RESULT:    -8.322      0.000      0.000
REMARK INTER + INTRA:         -12.669
REMARK INTER:                 -11.484
REMARK INTRA:                  -1.185
REMARK UNBOUND:                -1.185
REMARK SMILES O=C([O-])[C@H]1O[C@H](Oc2cc3oc(-c4ccccc4)cc(=O)c3c(O)c2O)[C@@H](O)[C@H](O)[C@@H]1O
REMARK SMILES IDX 7 1 6 2 4 3 31 4 5 5 29 6 27 7 2 8 1 9 3 10 32 11 30 13
REMARK SMILES IDX 28 15 8 17 25 18 9 19 23 20 10 21 22 22 11 23 20 24 12 25
REMARK SMILES IDX 19 26 21 27 26 28 24 30 13 32 14 33 18 34 15 35 17 36 16 37
REMARK H PARENT 32 12 30 14 28 16 26 29 24 31
REMARK Flexibility Score: inf
ROOT
ATOM      1  O   UNL     1      -4.745  -4.882   6.801  1.00  0.00    -0.458 OA
ENDROOT
BRANCH   1   2
ATOM      2  C   UNL     1      -5.032  -5.157   5.424  1.00  0.00     0.339 C 
ATOM      3  C   UNL     1      -4.117  -7.319   5.519  1.00  0.00     0.199 C 
ATOM      4  C   UNL     1      -5.480  -8.011   5.276  1.00  0.00     0.180 C 
ATOM      5  O   UNL     1      -4.077  -6.054   4.879  1.00  0.00    -0.328 OA
ATOM      6  C   UNL     1      -6.653  -7.118   5.738  1.00  0.00     0.181 C 
ATOM      7  C   UNL     1      -6.479  -5.668   5.231  1.00  0.00     0.214 C 
BRANCH   3   8
ATOM      8  C   UNL     1      -3.009  -8.167   4.969  1.00  0.00     0.073 C 
ATOM      9  O   UNL     1      -1.833  -8.036   5.399  1.00  0.00    -0.547 OA
ATOM     10  O   UNL     1      -3.269  -9.074   3.948  1.00  0.00    -0.547 OA
ENDBRANCH   3   8
BRANCH   4  11
ATOM     11  O   UNL     1      -5.542  -9.279   5.883  1.00  0.00    -0.387 OA
ATOM     12  H   UNL     1      -4.893  -9.291   6.634  1.00  0.00     0.211 HD
ENDBRANCH   4  11
BRANCH   6  13
ATOM     13  O   UNL     1      -6.842  -7.150   7.132  1.00  0.00    -0.387 OA
ATOM     14  H   UNL     1      -6.062  -7.598   7.544  1.00  0.00     0.211 HD
ENDBRANCH   6  13
BRANCH   7  15
ATOM     15  O   UNL     1      -6.792  -5.608   3.862  1.00  0.00    -0.384 OA
ATOM     16  H   UNL     1      -6.540  -6.484   3.468  1.00  0.00     0.211 HD
ENDBRANCH   7  15
ENDBRANCH   1   2
BRANCH   1  17
ATOM     17  C   UNL     1      -5.574  -4.104   7.618  1.00  0.00     0.172 A 
ATOM     18  C   UNL     1      -5.992  -4.562   8.882  1.00  0.00     0.201 A 
ATOM     19  C   UNL     1      -6.017  -2.872   7.139  1.00  0.00     0.098 A 
ATOM     20  C   UNL     1      -6.794  -3.730   9.704  1.00  0.00     0.176 A 
ATOM     21  C   UNL     1      -6.832  -2.057   7.921  1.00  0.00     0.146 A 
ATOM     22  C   UNL     1      -7.225  -2.470   9.213  1.00  0.00     0.111 A 
ATOM     23  O   UNL     1      -7.227  -0.884   7.434  1.00  0.00    -0.456 OA
ATOM     24  C   UNL     1      -8.036  -1.588   9.959  1.00  0.00     0.197 A 
ATOM     25  C   UNL     1      -8.001  -0.037   8.106  1.00  0.00     0.138 A 
ATOM     26  C   UNL     1      -8.423  -0.367   9.402  1.00  0.00     0.100 A 
ATOM     27  O   UNL     1      -8.422  -1.873  11.125  1.00  0.00    -0.289 OA
BRANCH  18  28
ATOM     28  O   UNL     1      -5.628  -5.854   9.269  1.00  0.00    -0.502 OA
ATOM     29  H   UNL     1      -6.220  -6.666   9.175  1.00  0.00     0.293 HD
ENDBRANCH  18  28
BRANCH  20  30
ATOM     30  O   UNL     1      -7.165  -4.122  10.994  1.00  0.00    -0.504 OA
ATOM     31  H   UNL     1      -7.937  -4.739  11.202  1.00  0.00     0.293 HD
ENDBRANCH  20  30
BRANCH  25  32
ATOM     32  C   UNL     1      -8.381   1.247   7.462  1.00  0.00     0.017 A 
ATOM     33  C   UNL     1      -8.334   1.418   6.063  1.00  0.00     0.012 A 
ATOM     34  C   UNL     1      -8.769   2.336   8.264  1.00  0.00     0.012 A 
ATOM     35  C   UNL     1      -8.688   2.642   5.487  1.00  0.00     0.001 A 
ATOM     36  C   UNL     1      -9.123   3.556   7.683  1.00  0.00     0.001 A 
ATOM     37  C   UNL     1      -9.085   3.709   6.295  1.00  0.00     0.000 A 
ENDBRANCH  25  32
ENDBRANCH   1  17
TORSDOF 9
ENDMDL
MODEL 2
REMARK VINA RESULT:    -8.058      2.086      8.713
REMARK INTER + INTRA:         -12.304
REMARK INTER:                 -10.913
REMARK INTRA:                  -1.391
REMARK UNBOUND:                -1.185
REMARK SMILES O=C([O-])[C@H]1O[C@H](Oc2cc3oc(-c4ccccc4)cc(=O)c3c(O)c2O)[C@@H](O)[C@H](O)[C@@H]1O
REMARK SMILES IDX 7 1 6 2 4 3 31 4 5 5 29 6 27 7 2 8 1 9 3 10 32 11 30 13
REMARK SMILES IDX 28 15 8 17 25 18 9 19 23 20 10 21 22 22 11 23 20 24 12 25
REMARK SMILES IDX 19 26 21 27 26 28 24 30 13 32 14 33 18 34 15 35 17 36 16 37
REMARK H PARENT 32 12 30 14 28 16 26 29 24 31
REMARK Flexibility Score: inf
ROOT
ATOM      1  O   UNL     1      -6.895  -1.620   6.107  1.00  0.00    -0.458 OA
ENDROOT
BRANCH   1   2
ATOM      2  C   UNL     1      -8.317  -1.464   6.019  1.00  0.00     0.339 C 
ATOM      3  C   UNL     1      -8.311   0.553   7.224  1.00  0.00     0.199 C 
ATOM      4  C   UNL     1      -8.788   1.390   6.014  1.00  0.00     0.180 C 
ATOM      5  O   UNL     1      -8.819  -0.769   7.150  1.00  0.00    -0.328 OA
ATOM      6  C   UNL     1      -8.397   0.719   4.678  1.00  0.00     0.181 C 
ATOM      7  C   UNL     1      -8.739  -0.788   4.694  1.00  0.00     0.214 C 
BRANCH   3   8
ATOM      8  C   UNL     1      -8.794   1.178   8.500  1.00  0.00     0.073 C 
ATOM      9  O   UNL     1      -8.462   0.692   9.613  1.00  0.00    -0.547 OA
ATOM     10  O   UNL     1      -9.648   2.274   8.456  1.00  0.00    -0.547 OA
ENDBRANCH   3   8
BRANCH   4  11
ATOM     11  O   UNL     1      -8.316   2.715   6.071  1.00  0.00    -0.387 OA
ATOM     12  H   UNL     1      -7.914   2.858   6.968  1.00  0.00     0.211 HD
ENDBRANCH   4  11
BRANCH   6  13
ATOM     13  O   UNL     1      -7.046   0.931   4.341  1.00  0.00    -0.387 OA
ATOM     14  H   UNL     1      -6.942   0.803   3.366  1.00  0.00     0.211 HD
ENDBRANCH   6  13
BRANCH   7  15
ATOM     15  O   UNL     1     -10.125  -0.956   4.530  1.00  0.00    -0.384 OA
ATOM     16  H   UNL     1     -10.468  -1.366   5.367  1.00  0.00     0.211 HD
ENDBRANCH   7  15
ENDBRANCH   1   2
BRANCH   1  17
ATOM     17  C   UNL     1      -6.279  -2.729   6.700  1.00  0.00     0.172 A 
ATOM     18  C   UNL     1      -6.087  -2.800   8.092  1.00  0.00     0.201 A 
ATOM     19  C   UNL     1      -5.819  -3.756   5.877  1.00  0.00     0.098 A 
ATOM     20  C   UNL     1      -5.501  -3.958   8.665  1.00  0.00     0.176 A 
ATOM     21  C   UNL     1      -5.212  -4.885   6.421  1.00  0.00     0.146 A 
ATOM     22  C   UNL     1      -5.052  -5.005   7.819  1.00  0.00     0.111 A 
ATOM     23  O   UNL     1      -4.794  -5.848   5.605  1.00  0.00    -0.456 OA
ATOM     24  C   UNL     1      -4.444  -6.183   8.305  1.00  0.00     0.197 A 
ATOM     25  C   UNL     1      -4.208  -6.964   6.030  1.00  0.00     0.138 A 
ATOM     26  C   UNL     1      -4.024  -7.165   7.406  1.00  0.00     0.100 A 
ATOM     27  O   UNL     1      -4.273  -6.376   9.539  1.00  0.00    -0.289 OA
BRANCH  18  28
ATOM     28  O   UNL     1      -6.449  -1.694   8.865  1.00  0.00    -0.502 OA
ATOM     29  H   UNL     1      -6.687  -0.789   8.489  1.00  0.00     0.293 HD
ENDBRANCH  18  28
BRANCH  20  30
ATOM     30  O   UNL     1      -5.361  -4.093  10.050  1.00  0.00    -0.504 OA
ATOM     31  H   UNL     1      -4.490  -3.983  10.548  1.00  0.00     0.293 HD
ENDBRANCH  20  30
BRANCH  25  32
ATOM     32  C   UNL     1      -3.781  -7.972   5.026  1.00  0.00     0.017 A 
ATOM     33  C   UNL     1      -4.698  -8.569   4.137  1.00  0.00     0.012 A 
ATOM     34  C   UNL     1      -2.432  -8.371   4.976  1.00  0.00     0.012 A 
ATOM     35  C   UNL     1      -4.267  -9.523   3.210  1.00  0.00     0.001 A 
ATOM     36  C   UNL     1      -2.007  -9.325   4.047  1.00  0.00     0.001 A 
ATOM     37  C   UNL     1      -2.923  -9.898   3.162  1.00  0.00     0.000 A 
ENDBRANCH  25  32
ENDBRANCH   1  17
TORSDOF 9
ENDMDL
MODEL 3
REMARK VINA RESULT:    -7.157     11.988     16.536
REMARK INTER + INTRA:         -11.061
REMARK INTER:                  -9.996
REMARK INTRA:                  -1.065
REMARK UNBOUND:                -1.185
REMARK SMILES O=C([O-])[C@H]1O[C@H](Oc2cc3oc(-c4ccccc4)cc(=O)c3c(O)c2O)[C@@H](O)[C@H](O)[C@@H]1O
REMARK SMILES IDX 7 1 6 2 4 3 31 4 5 5 29 6 27 7 2 8 1 9 3 10 32 11 30 13
REMARK SMILES IDX 28 15 8 17 25 18 9 19 23 20 10 21 22 22 11 23 20 24 12 25
REMARK SMILES IDX 19 26 21 27 26 28 24 30 13 32 14 33 18 34 15 35 17 36 16 37
REMARK H PARENT 32 12 30 14 28 16 26 29 24 31
REMARK Flexibility Score: inf
ROOT
ATOM      1  O   UNL     1      -3.026  -4.924  -6.106  1.00  0.00    -0.458 OA
ENDROOT
BRANCH   1   2
ATOM      2  C   UNL     1      -3.683  -5.296  -4.888  1.00  0.00     0.339 C 
ATOM      3  C   UNL     1      -5.270  -3.572  -5.053  1.00  0.00     0.199 C 
ATOM      4  C   UNL     1      -6.456  -4.549  -5.239  1.00  0.00     0.180 C 
ATOM      5  O   UNL     1      -4.255  -4.161  -4.257  1.00  0.00    -0.328 OA
ATOM      6  C   UNL     1      -5.986  -5.891  -5.842  1.00  0.00     0.181 C 
ATOM      7  C   UNL     1      -4.726  -6.415  -5.117  1.00  0.00     0.214 C 
BRANCH   3   8
ATOM      8  C   UNL     1      -5.742  -2.321  -4.373  1.00  0.00     0.073 C 
ATOM      9  O   UNL     1      -6.881  -1.848  -4.628  1.00  0.00    -0.547 OA
ATOM     10  O   UNL     1      -4.905  -1.653  -3.487  1.00  0.00    -0.547 OA
ENDBRANCH   3   8
BRANCH   4  11
ATOM     11  O   UNL     1      -7.489  -3.983  -6.008  1.00  0.00    -0.387 OA
ATOM     12  H   UNL     1      -7.495  -4.435  -6.892  1.00  0.00     0.211 HD
ENDBRANCH   4  11
BRANCH   6  13
ATOM     13  O   UNL     1      -5.780  -5.817  -7.233  1.00  0.00    -0.387 OA
ATOM     14  H   UNL     1      -6.565  -5.377  -7.644  1.00  0.00     0.211 HD
ENDBRANCH   6  13
BRANCH   7  15
ATOM     15  O   UNL     1      -5.089  -6.947  -3.868  1.00  0.00    -0.384 OA
ATOM     16  H   UNL     1      -5.177  -7.929  -3.986  1.00  0.00     0.211 HD
ENDBRANCH   7  15
ENDBRANCH   1   2
BRANCH   1  17
ATOM     17  C   UNL     1      -1.912  -5.601  -6.616  1.00  0.00     0.172 A 
ATOM     18  C   UNL     1      -2.052  -6.615  -7.582  1.00  0.00     0.201 A 
ATOM     19  C   UNL     1      -0.650  -5.279  -6.117  1.00  0.00     0.098 A 
ATOM     20  C   UNL     1      -0.899  -7.249  -8.111  1.00  0.00     0.176 A 
ATOM     21  C   UNL     1       0.490  -5.915  -6.603  1.00  0.00     0.146 A 
ATOM     22  C   UNL     1       0.382  -6.901  -7.609  1.00  0.00     0.111 A 
ATOM     23  O   UNL     1       1.677  -5.576  -6.110  1.00  0.00    -0.456 OA
ATOM     24  C   UNL     1       1.578  -7.494  -8.069  1.00  0.00     0.197 A 
ATOM     25  C   UNL     1       2.820  -6.123  -6.513  1.00  0.00     0.138 A 
ATOM     26  C   UNL     1       2.800  -7.101  -7.519  1.00  0.00     0.100 A 
ATOM     27  O   UNL     1       1.574  -8.373  -8.972  1.00  0.00    -0.289 OA
BRANCH  18  28
ATOM     28  O   UNL     1      -3.343  -6.992  -7.960  1.00  0.00    -0.502 OA
ATOM     29  H   UNL     1      -4.174  -6.802  -7.420  1.00  0.00     0.293 HD
ENDBRANCH  18  28
BRANCH  20  30
ATOM     30  O   UNL     1      -0.997  -8.208  -9.125  1.00  0.00    -0.504 OA
ATOM     31  H   UNL     1      -1.311  -8.013 -10.065  1.00  0.00     0.293 HD
ENDBRANCH  20  30
BRANCH  25  32
ATOM     32  C   UNL     1       4.089  -5.665  -5.891  1.00  0.00     0.017 A 
ATOM     33  C   UNL     1       5.190  -5.254  -6.668  1.00  0.00     0.012 A 
ATOM     34  C   UNL     1       4.213  -5.668  -4.489  1.00  0.00     0.012 A 
ATOM     35  C   UNL     1       6.375  -4.838  -6.053  1.00  0.00     0.001 A 
ATOM     36  C   UNL     1       5.399  -5.250  -3.879  1.00  0.00     0.001 A 
ATOM     37  C   UNL     1       6.479  -4.832  -4.660  1.00  0.00     0.000 A 
ENDBRANCH  25  32
ENDBRANCH   1  17
TORSDOF 9
ENDMDL
MODEL 4
REMARK VINA RESULT:    -6.929     13.257     17.723
REMARK INTER + INTRA:         -10.747
REMARK INTER:                  -9.320
REMARK INTRA:                  -1.426
REMARK UNBOUND:                -1.185
REMARK SMILES O=C([O-])[C@H]1O[C@H](Oc2cc3oc(-c4ccccc4)cc(=O)c3c(O)c2O)[C@@H](O)[C@H](O)[C@@H]1O
REMARK SMILES IDX 7 1 6 2 4 3 31 4 5 5 29 6 27 7 2 8 1 9 3 10 32 11 30 13
REMARK SMILES IDX 28 15 8 17 25 18 9 19 23 20 10 21 22 22 11 23 20 24 12 25
REMARK SMILES IDX 19 26 21 27 26 28 24 30 13 32 14 33 18 34 15 35 17 36 16 37
REMARK H PARENT 32 12 30 14 28 16 26 29 24 31
REMARK Flexibility Score: inf
ROOT
ATOM      1  O   UNL     1      -0.850  -5.771  -7.035  1.00  0.00    -0.458 OA
ENDROOT
BRANCH   1   2
ATOM      2  C   UNL     1      -1.151  -5.243  -5.738  1.00  0.00     0.339 C 
ATOM      3  C   UNL     1      -3.473  -5.355  -6.076  1.00  0.00     0.199 C 
ATOM      4  C   UNL     1      -3.678  -6.430  -4.982  1.00  0.00     0.180 C 
ATOM      5  O   UNL     1      -2.371  -4.520  -5.758  1.00  0.00    -0.328 OA
ATOM      6  C   UNL     1      -2.395  -7.262  -4.764  1.00  0.00     0.181 C 
ATOM      7  C   UNL     1      -1.154  -6.348  -4.655  1.00  0.00     0.214 C 
BRANCH   3   8
ATOM      8  C   UNL     1      -4.701  -4.502  -6.190  1.00  0.00     0.073 C 
ATOM      9  O   UNL     1      -4.735  -3.361  -5.658  1.00  0.00    -0.547 OA
ATOM     10  O   UNL     1      -5.825  -4.985  -6.849  1.00  0.00    -0.547 OA
ENDBRANCH   3   8
BRANCH   4  11
ATOM     11  O   UNL     1      -4.779  -7.262  -5.260  1.00  0.00    -0.387 OA
ATOM     12  H   UNL     1      -5.517  -6.690  -5.597  1.00  0.00     0.211 HD
ENDBRANCH   4  11
BRANCH   6  13
ATOM     13  O   UNL     1      -2.216  -8.248  -5.753  1.00  0.00    -0.387 OA
ATOM     14  H   UNL     1      -2.815  -8.044  -6.513  1.00  0.00     0.211 HD
ENDBRANCH   6  13
BRANCH   7  15
ATOM     15  O   UNL     1      -1.132  -5.733  -3.392  1.00  0.00    -0.384 OA
ATOM     16  H   UNL     1      -1.823  -5.019  -3.405  1.00  0.00     0.211 HD
ENDBRANCH   7  15
ENDBRANCH   1   2
BRANCH   1  17
ATOM     17  C   UNL     1       0.379  -6.358  -7.359  1.00  0.00     0.172 A 
ATOM     18  C   UNL     1       0.445  -7.591  -8.035  1.00  0.00     0.201 A 
ATOM     19  C   UNL     1       1.551  -5.715  -6.964  1.00  0.00     0.098 A 
ATOM     20  C   UNL     1       1.705  -8.136  -8.389  1.00  0.00     0.176 A 
ATOM     21  C   UNL     1       2.798  -6.253  -7.276  1.00  0.00     0.146 A 
ATOM     22  C   UNL     1       2.892  -7.464  -7.997  1.00  0.00     0.111 A 
ATOM     23  O   UNL     1       3.893  -5.605  -6.890  1.00  0.00    -0.456 OA
ATOM     24  C   UNL     1       4.185  -7.944  -8.295  1.00  0.00     0.197 A 
ATOM     25  C   UNL     1       5.125  -6.037  -7.144  1.00  0.00     0.138 A 
ATOM     26  C   UNL     1       5.304  -7.226  -7.868  1.00  0.00     0.100 A 
ATOM     27  O   UNL     1       4.360  -9.011  -8.944  1.00  0.00    -0.289 OA
BRANCH  18  28
ATOM     28  O   UNL     1      -0.752  -8.262  -8.299  1.00  0.00    -0.502 OA
ATOM     29  H   UNL     1      -1.428  -8.521  -7.597  1.00  0.00     0.293 HD
ENDBRANCH  18  28
BRANCH  20  30
ATOM     30  O   UNL     1       1.805  -9.322  -9.124  1.00  0.00    -0.504 OA
ATOM     31  H   UNL     1       1.025  -9.781  -9.573  1.00  0.00     0.293 HD
ENDBRANCH  20  30
BRANCH  25  32
ATOM     32  C   UNL     1       6.277  -5.232  -6.664  1.00  0.00     0.017 A 
ATOM     33  C   UNL     1       7.323  -4.845  -7.526  1.00  0.00     0.012 A 
ATOM     34  C   UNL     1       6.349  -4.867  -5.307  1.00  0.00     0.012 A 
ATOM     35  C   UNL     1       8.399  -4.094  -7.042  1.00  0.00     0.001 A 
ATOM     36  C   UNL     1       7.427  -4.116  -4.829  1.00  0.00     0.001 A 
ATOM     37  C   UNL     1       8.450  -3.727  -5.696  1.00  0.00     0.000 A 
ENDBRANCH  25  32
ENDBRANCH   1  17
TORSDOF 9
ENDMDL
MODEL 5
REMARK VINA RESULT:    -6.857      1.952      3.008
REMARK INTER + INTRA:         -10.647
REMARK INTER:                  -9.836
REMARK INTRA:                  -0.811
REMARK UNBOUND:                -1.185
REMARK SMILES O=C([O-])[C@H]1O[C@H](Oc2cc3oc(-c4ccccc4)cc(=O)c3c(O)c2O)[C@@H](O)[C@H](O)[C@@H]1O
REMARK SMILES IDX 7 1 6 2 4 3 31 4 5 5 29 6 27 7 2 8 1 9 3 10 32 11 30 13
REMARK SMILES IDX 28 15 8 17 25 18 9 19 23 20 10 21 22 22 11 23 20 24 12 25
REMARK SMILES IDX 19 26 21 27 26 28 24 30 13 32 14 33 18 34 15 35 17 36 16 37
REMARK H PARENT 32 12 30 14 28 16 26 29 24 31
REMARK Flexibility Score: inf
ROOT
ATOM      1  O   UNL     1      -8.226  -4.719   5.622  1.00  0.00    -0.458 OA
ENDROOT
BRANCH   1   2
ATOM      2  C   UNL     1      -6.919  -4.736   5.036  1.00  0.00     0.339 C 
ATOM      3  C   UNL     1      -5.832  -4.764   7.119  1.00  0.00     0.199 C 
ATOM      4  C   UNL     1      -5.247  -6.180   6.904  1.00  0.00     0.180 C 
ATOM      5  O   UNL     1      -5.979  -4.089   5.880  1.00  0.00    -0.328 OA
ATOM      6  C   UNL     1      -6.113  -7.002   5.924  1.00  0.00     0.181 C 
ATOM      7  C   UNL     1      -6.472  -6.171   4.671  1.00  0.00     0.214 C 
BRANCH   3   8
ATOM      8  C   UNL     1      -4.915  -3.960   7.993  1.00  0.00     0.073 C 
ATOM      9  O   UNL     1      -3.701  -4.275   8.102  1.00  0.00    -0.547 OA
ATOM     10  O   UNL     1      -5.413  -2.886   8.721  1.00  0.00    -0.547 OA
ENDBRANCH   3   8
BRANCH   4  11
ATOM     11  O   UNL     1      -5.070  -6.867   8.120  1.00  0.00    -0.387 OA
ATOM     12  H   UNL     1      -4.132  -6.731   8.414  1.00  0.00     0.211 HD
ENDBRANCH   4  11
BRANCH   6  13
ATOM     13  O   UNL     1      -7.268  -7.529   6.533  1.00  0.00    -0.387 OA
ATOM     14  H   UNL     1      -7.803  -6.780   6.893  1.00  0.00     0.211 HD
ENDBRANCH   6  13
BRANCH   7  15
ATOM     15  O   UNL     1      -5.353  -6.088   3.826  1.00  0.00    -0.384 OA
ATOM     16  H   UNL     1      -5.024  -5.152   3.872  1.00  0.00     0.211 HD
ENDBRANCH   7  15
ENDBRANCH   1   2
BRANCH   1  17
ATOM     17  C   UNL     1      -8.597  -3.841   6.648  1.00  0.00     0.172 A 
ATOM     18  C   UNL     1      -8.927  -4.316   7.931  1.00  0.00     0.201 A 
ATOM     19  C   UNL     1      -8.673  -2.478   6.366  1.00  0.00     0.098 A 
ATOM     20  C   UNL     1      -9.254  -3.396   8.960  1.00  0.00     0.176 A 
ATOM     21  C   UNL     1      -9.023  -1.565   7.357  1.00  0.00     0.146 A 
ATOM     22  C   UNL     1      -9.312  -2.010   8.666  1.00  0.00     0.111 A 
ATOM     23  O   UNL     1      -9.076  -0.272   7.052  1.00  0.00    -0.456 OA
ATOM     24  C   UNL     1      -9.643  -1.030   9.627  1.00  0.00     0.197 A 
ATOM     25  C   UNL     1      -9.397   0.674   7.930  1.00  0.00     0.138 A 
ATOM     26  C   UNL     1      -9.684   0.315   9.256  1.00  0.00     0.100 A 
ATOM     27  O   UNL     1      -9.903  -1.338  10.822  1.00  0.00    -0.289 OA
BRANCH  18  28
ATOM     28  O   UNL     1      -8.960  -5.698   8.135  1.00  0.00    -0.502 OA
ATOM     29  H   UNL     1      -8.521  -6.374   7.529  1.00  0.00     0.293 HD
ENDBRANCH  18  28
BRANCH  20  30
ATOM     30  O   UNL     1      -9.516  -3.828  10.265  1.00  0.00    -0.504 OA
ATOM     31  H   UNL     1      -8.927  -4.464  10.784  1.00  0.00     0.293 HD
ENDBRANCH  20  30
BRANCH  25  32
ATOM     32  C   UNL     1      -9.424   2.088   7.478  1.00  0.00     0.017 A 
ATOM     33  C   UNL     1      -9.497   3.159   8.392  1.00  0.00     0.012 A 
ATOM     34  C   UNL     1      -9.409   2.375   6.100  1.00  0.00     0.012 A 
ATOM     35  C   UNL     1      -9.532   4.480   7.934  1.00  0.00     0.001 A 
ATOM     36  C   UNL     1      -9.442   3.697   5.648  1.00  0.00     0.001 A 
ATOM     37  C   UNL     1      -9.501   4.749   6.564  1.00  0.00     0.000 A 
ENDBRANCH  25  32
ENDBRANCH   1  17
TORSDOF 9
ENDMDL
MODEL 6
REMARK VINA RESULT:    -6.382      2.228      8.054
REMARK INTER + INTRA:          -9.992
REMARK INTER:                  -9.413
REMARK INTRA:                  -0.580
REMARK UNBOUND:                -1.185
REMARK SMILES O=C([O-])[C@H]1O[C@H](Oc2cc3oc(-c4ccccc4)cc(=O)c3c(O)c2O)[C@@H](O)[C@H](O)[C@@H]1O
REMARK SMILES IDX 7 1 6 2 4 3 31 4 5 5 29 6 27 7 2 8 1 9 3 10 32 11 30 13
REMARK SMILES IDX 28 15 8 17 25 18 9 19 23 20 10 21 22 22 11 23 20 24 12 25
REMARK SMILES IDX 19 26 21 27 26 28 24 30 13 32 14 33 18 34 15 35 17 36 16 37
REMARK H PARENT 32 12 30 14 28 16 26 29 24 31
REMARK Flexibility Score: inf
ROOT
ATOM      1  O   UNL     1      -6.656  -1.468   6.407  1.00  0.00    -0.458 OA
ENDROOT
BRANCH   1   2
ATOM      2  C   UNL     1      -7.951  -1.434   5.796  1.00  0.00     0.339 C 
ATOM      3  C   UNL     1      -9.001  -2.452   7.635  1.00  0.00     0.199 C 
ATOM      4  C   UNL     1      -9.836  -1.195   7.978  1.00  0.00     0.180 C 
ATOM      5  O   UNL     1      -8.748  -2.520   6.241  1.00  0.00    -0.328 OA
ATOM      6  C   UNL     1      -9.145   0.092   7.475  1.00  0.00     0.181 C 
ATOM      7  C   UNL     1      -8.655  -0.074   6.019  1.00  0.00     0.214 C 
BRANCH   3   8
ATOM      8  C   UNL     1      -9.747  -3.687   8.045  1.00  0.00     0.073 C 
ATOM      9  O   UNL     1     -10.106  -4.531   7.181  1.00  0.00    -0.547 OA
ATOM     10  O   UNL     1     -10.082  -3.886   9.379  1.00  0.00    -0.547 OA
ENDBRANCH   3   8
BRANCH   4  11
ATOM     11  O   UNL     1     -10.121  -1.111   9.353  1.00  0.00    -0.387 OA
ATOM     12  H   UNL     1     -10.127  -2.033   9.721  1.00  0.00     0.211 HD
ENDBRANCH   4  11
BRANCH   6  13
ATOM     13  O   UNL     1      -8.099   0.510   8.319  1.00  0.00    -0.387 OA
ATOM     14  H   UNL     1      -8.348   0.302   9.254  1.00  0.00     0.211 HD
ENDBRANCH   6  13
BRANCH   7  15
ATOM     15  O   UNL     1      -9.750   0.009   5.142  1.00  0.00    -0.384 OA
ATOM     16  H   UNL     1      -9.436   0.486   4.330  1.00  0.00     0.211 HD
ENDBRANCH   7  15
ENDBRANCH   1   2
BRANCH   1  17
ATOM     17  C   UNL     1      -6.101  -2.624   6.969  1.00  0.00     0.172 A 
ATOM     18  C   UNL     1      -5.963  -2.766   8.362  1.00  0.00     0.201 A 
ATOM     19  C   UNL     1      -5.647  -3.629   6.115  1.00  0.00     0.098 A 
ATOM     20  C   UNL     1      -5.440  -3.970   8.900  1.00  0.00     0.176 A 
ATOM     21  C   UNL     1      -5.101  -4.803   6.627  1.00  0.00     0.146 A 
ATOM     22  C   UNL     1      -4.996  -4.992   8.023  1.00  0.00     0.111 A 
ATOM     23  O   UNL     1      -4.686  -5.742   5.782  1.00  0.00    -0.456 OA
ATOM     24  C   UNL     1      -4.449  -6.213   8.474  1.00  0.00     0.197 A 
ATOM     25  C   UNL     1      -4.155  -6.897   6.174  1.00  0.00     0.138 A 
ATOM     26  C   UNL     1      -4.029  -7.167   7.545  1.00  0.00     0.100 A 
ATOM     27  O   UNL     1      -4.330  -6.468   9.703  1.00  0.00    -0.289 OA
BRANCH  18  28
ATOM     28  O   UNL     1      -6.315  -1.684   9.173  1.00  0.00    -0.502 OA
ATOM     29  H   UNL     1      -6.873  -1.757  10.011  1.00  0.00     0.293 HD
ENDBRANCH  18  28
BRANCH  20  30
ATOM     30  O   UNL     1      -5.357  -4.173  10.282  1.00  0.00    -0.504 OA
ATOM     31  H   UNL     1      -5.184  -3.441  10.956  1.00  0.00     0.293 HD
ENDBRANCH  20  30
BRANCH  25  32
ATOM     32  C   UNL     1      -3.727  -7.873   5.140  1.00  0.00     0.017 A 
ATOM     33  C   UNL     1      -4.652  -8.493   4.276  1.00  0.00     0.012 A 
ATOM     34  C   UNL     1      -2.366  -8.218   5.035  1.00  0.00     0.012 A 
ATOM     35  C   UNL     1      -4.218  -9.416   3.319  1.00  0.00     0.001 A 
ATOM     36  C   UNL     1      -1.939  -9.140   4.076  1.00  0.00     0.001 A 
ATOM     37  C   UNL     1      -2.864  -9.737   3.216  1.00  0.00     0.000 A 
ENDBRANCH  25  32
ENDBRANCH   1  17
TORSDOF 9
ENDMDL
MODEL 7
REMARK VINA RESULT:    -6.341     12.235     16.658
REMARK INTER + INTRA:          -9.936
REMARK INTER:                  -8.870
REMARK INTRA:                  -1.066
REMARK UNBOUND:                -1.185
REMARK SMILES O=C([O-])[C@H]1O[C@H](Oc2cc3oc(-c4ccccc4)cc(=O)c3c(O)c2O)[C@@H](O)[C@H](O)[C@@H]1O
REMARK SMILES IDX 7 1 6 2 4 3 31 4 5 5 29 6 27 7 2 8 1 9 3 10 32 11 30 13
REMARK SMILES IDX 28 15 8 17 25 18 9 19 23 20 10 21 22 22 11 23 20 24 12 25
REMARK SMILES IDX 19 26 21 27 26 28 24 30 13 32 14 33 18 34 15 35 17 36 16 37
REMARK H PARENT 32 12 30 14 28 16 26 29 24 31
REMARK Flexibility Score: inf
ROOT
ATOM      1  O   UNL     1      -4.294  -5.182  -5.251  1.00  0.00    -0.458 OA
ENDROOT
BRANCH   1   2
ATOM      2  C   UNL     1      -4.190  -3.759  -5.117  1.00  0.00     0.339 C 
ATOM      3  C   UNL     1      -5.497  -3.342  -7.024  1.00  0.00     0.199 C 
ATOM      4  C   UNL     1      -6.645  -2.692  -6.214  1.00  0.00     0.180 C 
ATOM      5  O   UNL     1      -4.249  -3.126  -6.385  1.00  0.00    -0.328 OA
ATOM      6  C   UNL     1      -6.668  -3.210  -4.759  1.00  0.00     0.181 C 
ATOM      7  C   UNL     1      -5.252  -3.196  -4.142  1.00  0.00     0.214 C 
BRANCH   3   8
ATOM      8  C   UNL     1      -5.439  -2.743  -8.398  1.00  0.00     0.073 C 
ATOM      9  O   UNL     1      -6.467  -2.716  -9.125  1.00  0.00    -0.547 OA
ATOM     10  O   UNL     1      -4.236  -2.253  -8.892  1.00  0.00    -0.547 OA
ENDBRANCH   3   8
BRANCH   4  11
ATOM     11  O   UNL     1      -7.895  -2.872  -6.835  1.00  0.00    -0.387 OA
ATOM     12  H   UNL     1      -8.066  -3.847  -6.902  1.00  0.00     0.211 HD
ENDBRANCH   4  11
BRANCH   6  13
ATOM     13  O   UNL     1      -7.260  -4.483  -4.648  1.00  0.00    -0.387 OA
ATOM     14  H   UNL     1      -6.776  -5.107  -5.244  1.00  0.00     0.211 HD
ENDBRANCH   6  13
BRANCH   7  15
ATOM     15  O   UNL     1      -4.896  -1.878  -3.811  1.00  0.00    -0.384 OA
ATOM     16  H   UNL     1      -5.513  -1.584  -3.090  1.00  0.00     0.211 HD
ENDBRANCH   7  15
ENDBRANCH   1   2
BRANCH   1  17
ATOM     17  C   UNL     1      -3.402  -5.949  -6.011  1.00  0.00     0.172 A 
ATOM     18  C   UNL     1      -3.851  -7.026  -6.798  1.00  0.00     0.201 A 
ATOM     19  C   UNL     1      -2.042  -5.651  -5.944  1.00  0.00     0.098 A 
ATOM     20  C   UNL     1      -2.927  -7.753  -7.590  1.00  0.00     0.176 A 
ATOM     21  C   UNL     1      -1.117  -6.376  -6.692  1.00  0.00     0.146 A 
ATOM     22  C   UNL     1      -1.547  -7.430  -7.528  1.00  0.00     0.111 A 
ATOM     23  O   UNL     1       0.171  -6.057  -6.610  1.00  0.00    -0.456 OA
ATOM     24  C   UNL     1      -0.560  -8.113  -8.272  1.00  0.00     0.197 A 
ATOM     25  C   UNL     1       1.126  -6.688  -7.287  1.00  0.00     0.138 A 
ATOM     26  C   UNL     1       0.779  -7.738  -8.151  1.00  0.00     0.100 A 
ATOM     27  O   UNL     1      -0.858  -9.058  -9.052  1.00  0.00    -0.289 OA
BRANCH  18  28
ATOM     28  O   UNL     1      -5.204  -7.368  -6.736  1.00  0.00    -0.502 OA
ATOM     29  H   UNL     1      -5.613  -8.164  -7.202  1.00  0.00     0.293 HD
ENDBRANCH  18  28
BRANCH  20  30
ATOM     30  O   UNL     1      -3.349  -8.781  -8.440  1.00  0.00    -0.504 OA
ATOM     31  H   UNL     1      -4.074  -9.447  -8.212  1.00  0.00     0.293 HD
ENDBRANCH  20  30
BRANCH  25  32
ATOM     32  C   UNL     1       2.533  -6.246  -7.117  1.00  0.00     0.017 A 
ATOM     33  C   UNL     1       3.493  -6.417  -8.135  1.00  0.00     0.012 A 
ATOM     34  C   UNL     1       2.934  -5.667  -5.898  1.00  0.00     0.012 A 
ATOM     35  C   UNL     1       4.813  -5.998  -7.941  1.00  0.00     0.001 A 
ATOM     36  C   UNL     1       4.255  -5.249  -5.711  1.00  0.00     0.001 A 
ATOM     37  C   UNL     1       5.193  -5.412  -6.732  1.00  0.00     0.000 A 
ENDBRANCH  25  32
ENDBRANCH   1  17
TORSDOF 9
ENDMDL
MODEL 8
REMARK VINA RESULT:    -6.155      2.529      8.656
REMARK INTER + INTRA:          -9.678
REMARK INTER:                  -9.270
REMARK INTRA:                  -0.409
REMARK UNBOUND:                -1.185
REMARK SMILES O=C([O-])[C@H]1O[C@H](Oc2cc3oc(-c4ccccc4)cc(=O)c3c(O)c2O)[C@@H](O)[C@H](O)[C@@H]1O
REMARK SMILES IDX 7 1 6 2 4 3 31 4 5 5 29 6 27 7 2 8 1 9 3 10 32 11 30 13
REMARK SMILES IDX 28 15 8 17 25 18 9 19 23 20 10 21 22 22 11 23 20 24 12 25
REMARK SMILES IDX 19 26 21 27 26 28 24 30 13 32 14 33 18 34 15 35 17 36 16 37
REMARK H PARENT 32 12 30 14 28 16 26 29 24 31
REMARK Flexibility Score: inf
ROOT
ATOM      1  O   UNL     1      -7.679  -2.689   4.885  1.00  0.00    -0.458 OA
ENDROOT
BRANCH   1   2
ATOM      2  C   UNL     1      -8.548  -1.992   5.786  1.00  0.00     0.339 C 
ATOM      3  C   UNL     1      -8.015  -3.384   7.601  1.00  0.00     0.199 C 
ATOM      4  C   UNL     1      -7.330  -2.248   8.397  1.00  0.00     0.180 C 
ATOM      5  O   UNL     1      -9.051  -2.868   6.782  1.00  0.00    -0.328 OA
ATOM      6  C   UNL     1      -6.797  -1.146   7.455  1.00  0.00     0.181 C 
ATOM      7  C   UNL     1      -7.859  -0.753   6.404  1.00  0.00     0.214 C 
BRANCH   3   8
ATOM      8  C   UNL     1      -8.610  -4.384   8.548  1.00  0.00     0.073 C 
ATOM      9  O   UNL     1      -8.735  -4.107   9.771  1.00  0.00    -0.547 OA
ATOM     10  O   UNL     1      -8.989  -5.639   8.087  1.00  0.00    -0.547 OA
ENDBRANCH   3   8
BRANCH   4  11
ATOM     11  O   UNL     1      -6.310  -2.733   9.237  1.00  0.00    -0.387 OA
ATOM     12  H   UNL     1      -5.742  -3.348   8.703  1.00  0.00     0.211 HD
ENDBRANCH   4  11
BRANCH   6  13
ATOM     13  O   UNL     1      -5.580  -1.501   6.842  1.00  0.00    -0.387 OA
ATOM     14  H   UNL     1      -4.878  -0.877   7.152  1.00  0.00     0.211 HD
ENDBRANCH   6  13
BRANCH   7  15
ATOM     15  O   UNL     1      -8.842   0.049   7.007  1.00  0.00    -0.384 OA
ATOM     16  H   UNL     1      -8.516   0.987   6.967  1.00  0.00     0.211 HD
ENDBRANCH   7  15
ENDBRANCH   1   2
BRANCH   1  17
ATOM     17  C   UNL     1      -7.745  -4.071   4.669  1.00  0.00     0.172 A 
ATOM     18  C   UNL     1      -8.946  -4.695   4.284  1.00  0.00     0.201 A 
ATOM     19  C   UNL     1      -6.598  -4.835   4.883  1.00  0.00     0.098 A 
ATOM     20  C   UNL     1      -8.967  -6.090   4.029  1.00  0.00     0.176 A 
ATOM     21  C   UNL     1      -6.610  -6.211   4.668  1.00  0.00     0.146 A 
ATOM     22  C   UNL     1      -7.789  -6.855   4.233  1.00  0.00     0.111 A 
ATOM     23  O   UNL     1      -5.494  -6.904   4.873  1.00  0.00    -0.456 OA
ATOM     24  C   UNL     1      -7.728  -8.248   4.018  1.00  0.00     0.197 A 
ATOM     25  C   UNL     1      -5.406  -8.219   4.692  1.00  0.00     0.138 A 
ATOM     26  C   UNL     1      -6.531  -8.930   4.247  1.00  0.00     0.100 A 
ATOM     27  O   UNL     1      -8.730  -8.900   3.618  1.00  0.00    -0.289 OA
BRANCH  18  28
ATOM     28  O   UNL     1     -10.100  -3.911   4.205  1.00  0.00    -0.502 OA
ATOM     29  H   UNL     1     -10.687  -3.679   4.992  1.00  0.00     0.293 HD
ENDBRANCH  18  28
BRANCH  20  30
ATOM     30  O   UNL     1     -10.125  -6.729   3.574  1.00  0.00    -0.504 OA
ATOM     31  H   UNL     1     -10.655  -6.439   2.765  1.00  0.00     0.293 HD
ENDBRANCH  20  30
BRANCH  25  32
ATOM     32  C   UNL     1      -4.107  -8.890   4.952  1.00  0.00     0.017 A 
ATOM     33  C   UNL     1      -3.823  -9.502   6.189  1.00  0.00     0.012 A 
ATOM     34  C   UNL     1      -3.116  -8.892   3.952  1.00  0.00     0.012 A 
ATOM     35  C   UNL     1      -2.586 -10.118   6.407  1.00  0.00     0.001 A 
ATOM     36  C   UNL     1      -1.883  -9.510   4.176  1.00  0.00     0.001 A 
ATOM     37  C   UNL     1      -1.618 -10.125   5.401  1.00  0.00     0.000 A 
ENDBRANCH  25  32
ENDBRANCH   1  17
TORSDOF 9
ENDMDL
