MODEL 1
REMARK VINA RESULT:    -6.320      0.000      0.000
REMARK INTER + INTRA:          -9.424
REMARK INTER:                  -8.537
REMARK INTRA:                  -0.887
REMARK UNBOUND:                -0.887
REMARK SMILES CC(=O)CCC=C(C)CCC=C(C)C
REMARK SMILES IDX 7 1 6 2 8 3 9 4 10 5 11 6 13 7 12 8 14 9 5 10 4 11 2 12 3 13
REMARK SMILES IDX 1 14
REMARK H PARENT
REMARK Flexibility Score: inf
ROOT
ATOM      1  C   UNL     1     -10.182  74.816  32.152  1.00  0.00    -0.077 C 
ATOM      2  C   UNL     1     -10.313  73.559  32.632  1.00  0.00    -0.028 C 
ATOM      3  C   UNL     1     -10.965  75.974  32.725  1.00  0.00     0.039 C 
ENDROOT
BRANCH   1   4
ATOM      4  C   UNL     1      -9.211  75.072  31.020  1.00  0.00     0.034 C 
BRANCH   4   5
ATOM      5  C   UNL     1      -9.493  74.136  29.839  1.00  0.00     0.032 C 
BRANCH   5   6
ATOM      6  C   UNL     1     -10.795  74.498  29.169  1.00  0.00    -0.028 C 
ATOM      7  C   UNL     1     -11.871  72.302  29.717  1.00  0.00     0.039 C 
ATOM      8  C   UNL     1     -11.883  73.694  29.134  1.00  0.00    -0.080 C 
ATOM      9  C   UNL     1     -13.144  74.169  28.459  1.00  0.00     0.039 C 
ENDBRANCH   5   6
ENDBRANCH   4   5
ENDBRANCH   1   4
BRANCH   2  10
ATOM     10  C   UNL     1     -11.276  73.158  33.722  1.00  0.00     0.035 C 
BRANCH  10  11
ATOM     11  C   UNL     1     -10.572  72.298  34.777  1.00  0.00     0.079 C 
BRANCH  11  12
ATOM     12  C   UNL     1     -10.733  72.899  36.148  1.00  0.00     0.130 C 
ATOM     13  O   UNL     1     -10.479  74.081  36.320  1.00  0.00    -0.300 OA
ATOM     14  C   UNL     1     -11.212  72.078  37.310  1.00  0.00     0.087 C 
ENDBRANCH  11  12
ENDBRANCH  10  11
ENDBRANCH   2  10
TORSDOF 6
ENDMDL
MODEL 2
REMARK VINA RESULT:    -6.189      3.824      7.134
REMARK INTER + INTRA:          -9.247
REMARK INTER:                  -8.359
REMARK INTRA:                  -0.888
REMARK UNBOUND:                -0.887
REMARK SMILES CC(=O)CCC=C(C)CCC=C(C)C
REMARK SMILES IDX 7 1 6 2 8 3 9 4 10 5 11 6 13 7 12 8 14 9 5 10 4 11 2 12 3 13
REMARK SMILES IDX 1 14
REMARK H PARENT
REMARK Flexibility Score: inf
ROOT
ATOM      1  C   UNL     1     -11.566  73.287  29.080  1.00  0.00    -0.077 C 
ATOM      2  C   UNL     1     -10.372  73.444  28.465  1.00  0.00    -0.028 C 
ATOM      3  C   UNL     1     -12.769  74.124  28.711  1.00  0.00     0.039 C 
ENDROOT
BRANCH   1   4
ATOM      4  C   UNL     1     -11.706  72.232  30.155  1.00  0.00     0.034 C 
BRANCH   4   5
ATOM      5  C   UNL     1     -10.751  72.515  31.321  1.00  0.00     0.032 C 
BRANCH   5   6
ATOM      6  C   UNL     1     -11.164  73.764  32.060  1.00  0.00    -0.028 C 
ATOM      7  C   UNL     1      -9.121  75.038  31.367  1.00  0.00     0.039 C 
ATOM      8  C   UNL     1     -10.455  74.915  32.063  1.00  0.00    -0.080 C 
ATOM      9  C   UNL     1     -10.976  76.114  32.814  1.00  0.00     0.039 C 
ENDBRANCH   5   6
ENDBRANCH   4   5
ENDBRANCH   1   4
BRANCH   2  10
ATOM     10  C   UNL     1     -10.084  74.487  27.414  1.00  0.00     0.035 C 
BRANCH  10  11
ATOM     11  C   UNL     1      -9.114  73.940  26.362  1.00  0.00     0.079 C 
BRANCH  11  12
ATOM     12  C   UNL     1      -9.737  73.980  24.991  1.00  0.00     0.130 C 
ATOM     13  O   UNL     1     -10.824  73.451  24.810  1.00  0.00    -0.300 OA
ATOM     14  C   UNL     1      -9.057  74.665  23.843  1.00  0.00     0.087 C 
ENDBRANCH  11  12
ENDBRANCH  10  11
ENDBRANCH   2  10
TORSDOF 6
ENDMDL
MODEL 3
REMARK VINA RESULT:    -5.896      3.803      7.210
REMARK INTER + INTRA:          -8.851
REMARK INTER:                  -8.152
REMARK INTRA:                  -0.699
REMARK UNBOUND:                -0.887
REMARK SMILES CC(=O)CCC=C(C)CCC=C(C)C
REMARK SMILES IDX 7 1 6 2 8 3 9 4 10 5 11 6 13 7 12 8 14 9 5 10 4 11 2 12 3 13
REMARK SMILES IDX 1 14
REMARK H PARENT
REMARK Flexibility Score: inf
ROOT
ATOM      1  C   UNL     1     -11.444  73.275  29.126  1.00  0.00    -0.077 C 
ATOM      2  C   UNL     1     -10.236  73.517  28.569  1.00  0.00    -0.028 C 
ATOM      3  C   UNL     1     -12.686  74.015  28.687  1.00  0.00     0.039 C 
ENDROOT
BRANCH   1   4
ATOM      4  C   UNL     1     -11.558  72.224  30.207  1.00  0.00     0.034 C 
BRANCH   4   5
ATOM      5  C   UNL     1     -10.306  72.215  31.092  1.00  0.00     0.032 C 
BRANCH   5   6
ATOM      6  C   UNL     1     -10.683  72.260  32.552  1.00  0.00    -0.028 C 
ATOM      7  C   UNL     1     -10.756  74.764  32.619  1.00  0.00     0.039 C 
ATOM      8  C   UNL     1     -10.919  73.399  33.242  1.00  0.00    -0.080 C 
ATOM      9  C   UNL     1     -11.317  73.327  34.694  1.00  0.00     0.039 C 
ENDBRANCH   5   6
ENDBRANCH   4   5
ENDBRANCH   1   4
BRANCH   2  10
ATOM     10  C   UNL     1      -9.975  74.568  27.519  1.00  0.00     0.035 C 
BRANCH  10  11
ATOM     11  C   UNL     1      -9.043  74.025  26.431  1.00  0.00     0.079 C 
BRANCH  11  12
ATOM     12  C   UNL     1      -9.734  74.020  25.093  1.00  0.00     0.130 C 
ATOM     13  O   UNL     1     -10.819  73.470  24.979  1.00  0.00    -0.300 OA
ATOM     14  C   UNL     1      -9.124  74.686  23.895  1.00  0.00     0.087 C 
ENDBRANCH  11  12
ENDBRANCH  10  11
ENDBRANCH   2  10
TORSDOF 6
ENDMDL
MODEL 4
REMARK VINA RESULT:    -5.884      1.551      2.488
REMARK INTER + INTRA:          -8.834
REMARK INTER:                  -8.246
REMARK INTRA:                  -0.589
REMARK UNBOUND:                -0.887
REMARK SMILES CC(=O)CCC=C(C)CCC=C(C)C
REMARK SMILES IDX 7 1 6 2 8 3 9 4 10 5 11 6 13 7 12 8 14 9 5 10 4 11 2 12 3 13
REMARK SMILES IDX 1 14
REMARK H PARENT
REMARK Flexibility Score: inf
ROOT
ATOM      1  C   UNL     1     -10.782  73.412  33.915  1.00  0.00    -0.077 C 
ATOM      2  C   UNL     1     -10.742  73.647  35.246  1.00  0.00    -0.028 C 
ATOM      3  C   UNL     1     -10.742  72.010  33.352  1.00  0.00     0.039 C 
ENDROOT
BRANCH   1   4
ATOM      4  C   UNL     1     -10.888  74.583  32.963  1.00  0.00     0.034 C 
BRANCH   4   5
ATOM      5  C   UNL     1     -10.259  74.240  31.608  1.00  0.00     0.032 C 
BRANCH   5   6
ATOM      6  C   UNL     1     -11.201  74.583  30.480  1.00  0.00    -0.028 C 
ATOM      7  C   UNL     1     -11.659  72.183  29.923  1.00  0.00     0.039 C 
ATOM      8  C   UNL     1     -11.861  73.667  29.735  1.00  0.00    -0.080 C 
ATOM      9  C   UNL     1     -12.802  74.121  28.648  1.00  0.00     0.039 C 
ENDBRANCH   5   6
ENDBRANCH   4   5
ENDBRANCH   1   4
BRANCH   2  10
ATOM     10  C   UNL     1     -10.590  72.577  36.298  1.00  0.00     0.035 C 
BRANCH  10  11
ATOM     11  C   UNL     1     -11.651  72.739  37.391  1.00  0.00     0.079 C 
BRANCH  11  12
ATOM     12  C   UNL     1     -11.517  71.654  38.427  1.00  0.00     0.130 C 
ATOM     13  O   UNL     1     -12.158  71.732  39.465  1.00  0.00    -0.300 OA
ATOM     14  C   UNL     1     -10.621  70.471  38.209  1.00  0.00     0.087 C 
ENDBRANCH  11  12
ENDBRANCH  10  11
ENDBRANCH   2  10
TORSDOF 6
ENDMDL
MODEL 5
REMARK VINA RESULT:    -5.785      2.490      3.300
REMARK INTER + INTRA:          -8.701
REMARK INTER:                  -8.214
REMARK INTRA:                  -0.487
REMARK UNBOUND:                -0.887
REMARK SMILES CC(=O)CCC=C(C)CCC=C(C)C
REMARK SMILES IDX 7 1 6 2 8 3 9 4 10 5 11 6 13 7 12 8 14 9 5 10 4 11 2 12 3 13
REMARK SMILES IDX 1 14
REMARK H PARENT
REMARK Flexibility Score: inf
ROOT
ATOM      1  C   UNL     1     -10.890  74.140  29.918  1.00  0.00    -0.077 C 
ATOM      2  C   UNL     1     -10.704  73.982  31.248  1.00  0.00    -0.028 C 
ATOM      3  C   UNL     1     -12.064  73.517  29.198  1.00  0.00     0.039 C 
ENDROOT
BRANCH   1   4
ATOM      4  C   UNL     1      -9.906  74.978  29.131  1.00  0.00     0.034 C 
BRANCH   4   5
ATOM      5  C   UNL     1     -10.080  74.750  27.625  1.00  0.00     0.032 C 
BRANCH   5   6
ATOM      6  C   UNL     1      -8.999  73.841  27.094  1.00  0.00    -0.028 C 
ATOM      7  C   UNL     1     -10.238  73.348  24.973  1.00  0.00     0.039 C 
ATOM      8  C   UNL     1      -9.044  73.229  25.889  1.00  0.00    -0.080 C 
ATOM      9  C   UNL     1      -7.894  72.362  25.444  1.00  0.00     0.039 C 
ENDBRANCH   5   6
ENDBRANCH   4   5
ENDBRANCH   1   4
BRANCH   2  10
ATOM     10  C   UNL     1     -11.580  73.137  32.138  1.00  0.00     0.035 C 
BRANCH  10  11
ATOM     11  C   UNL     1     -11.658  73.735  33.546  1.00  0.00     0.079 C 
BRANCH  11  12
ATOM     12  C   UNL     1     -11.004  72.822  34.549  1.00  0.00     0.130 C 
ATOM     13  O   UNL     1     -10.296  71.908  34.157  1.00  0.00    -0.300 OA
ATOM     14  C   UNL     1     -11.195  73.017  36.025  1.00  0.00     0.087 C 
ENDBRANCH  11  12
ENDBRANCH  10  11
ENDBRANCH   2  10
TORSDOF 6
ENDMDL
MODEL 6
REMARK VINA RESULT:    -5.774      2.964      6.798
REMARK INTER + INTRA:          -8.686
REMARK INTER:                  -8.192
REMARK INTRA:                  -0.494
REMARK UNBOUND:                -0.887
REMARK SMILES CC(=O)CCC=C(C)CCC=C(C)C
REMARK SMILES IDX 7 1 6 2 8 3 9 4 10 5 11 6 13 7 12 8 14 9 5 10 4 11 2 12 3 13
REMARK SMILES IDX 1 14
REMARK H PARENT
REMARK Flexibility Score: inf
ROOT
ATOM      1  C   UNL     1     -10.379  73.933  31.087  1.00  0.00    -0.077 C 
ATOM      2  C   UNL     1     -11.166  74.540  30.170  1.00  0.00    -0.028 C 
ATOM      3  C   UNL     1      -9.346  72.903  30.693  1.00  0.00     0.039 C 
ENDROOT
BRANCH   1   4
ATOM      4  C   UNL     1     -10.525  74.308  32.545  1.00  0.00     0.034 C 
BRANCH   4   5
ATOM      5  C   UNL     1     -11.425  73.304  33.276  1.00  0.00     0.032 C 
BRANCH   5   6
ATOM      6  C   UNL     1     -10.596  72.284  34.016  1.00  0.00    -0.028 C 
ATOM      7  C   UNL     1     -10.546  73.625  36.132  1.00  0.00     0.039 C 
ATOM      8  C   UNL     1     -10.221  72.402  35.310  1.00  0.00    -0.080 C 
ATOM      9  C   UNL     1      -9.414  71.307  35.960  1.00  0.00     0.039 C 
ENDBRANCH   5   6
ENDBRANCH   4   5
ENDBRANCH   1   4
BRANCH   2  10
ATOM     10  C   UNL     1     -11.156  74.227  28.695  1.00  0.00     0.035 C 
BRANCH  10  11
ATOM     11  C   UNL     1     -10.119  75.088  27.966  1.00  0.00     0.079 C 
BRANCH  11  12
ATOM     12  C   UNL     1      -9.418  74.288  26.900  1.00  0.00     0.130 C 
ATOM     13  O   UNL     1      -8.690  73.363  27.224  1.00  0.00    -0.300 OA
ATOM     14  C   UNL     1      -9.602  74.596  25.443  1.00  0.00     0.087 C 
ENDBRANCH  11  12
ENDBRANCH  10  11
ENDBRANCH   2  10
TORSDOF 6
ENDMDL
MODEL 7
REMARK VINA RESULT:    -5.760      1.482      2.270
REMARK INTER + INTRA:          -8.668
REMARK INTER:                  -8.046
REMARK INTRA:                  -0.622
REMARK UNBOUND:                -0.887
REMARK SMILES CC(=O)CCC=C(C)CCC=C(C)C
REMARK SMILES IDX 7 1 6 2 8 3 9 4 10 5 11 6 13 7 12 8 14 9 5 10 4 11 2 12 3 13
REMARK SMILES IDX 1 14
REMARK H PARENT
REMARK Flexibility Score: inf
ROOT
ATOM      1  C   UNL     1     -11.228  73.451  32.143  1.00  0.00    -0.077 C 
ATOM      2  C   UNL     1     -11.452  72.756  33.281  1.00  0.00    -0.028 C 
ATOM      3  C   UNL     1     -10.611  74.831  32.161  1.00  0.00     0.039 C 
ENDROOT
BRANCH   1   4
ATOM      4  C   UNL     1     -11.589  72.824  30.814  1.00  0.00     0.034 C 
BRANCH   4   5
ATOM      5  C   UNL     1     -12.000  73.898  29.801  1.00  0.00     0.032 C 
BRANCH   5   6
ATOM      6  C   UNL     1     -11.537  73.529  28.413  1.00  0.00    -0.028 C 
ATOM      7  C   UNL     1      -9.525  75.018  28.518  1.00  0.00     0.039 C 
ATOM      8  C   UNL     1     -10.409  74.002  27.837  1.00  0.00    -0.080 C 
ATOM      9  C   UNL     1     -10.026  73.544  26.453  1.00  0.00     0.039 C 
ENDBRANCH   5   6
ENDBRANCH   4   5
ENDBRANCH   1   4
BRANCH   2  10
ATOM     10  C   UNL     1     -11.184  73.280  34.669  1.00  0.00     0.035 C 
BRANCH  10  11
ATOM     11  C   UNL     1     -10.210  72.363  35.415  1.00  0.00     0.079 C 
BRANCH  11  12
ATOM     12  C   UNL     1     -10.665  72.145  36.834  1.00  0.00     0.130 C 
ATOM     13  O   UNL     1     -10.249  71.180  37.457  1.00  0.00    -0.300 OA
ATOM     14  C   UNL     1     -11.611  73.096  37.506  1.00  0.00     0.087 C 
ENDBRANCH  11  12
ENDBRANCH  10  11
ENDBRANCH   2  10
TORSDOF 6
ENDMDL
MODEL 8
REMARK VINA RESULT:    -5.704      2.253      6.447
REMARK INTER + INTRA:          -8.592
REMARK INTER:                  -7.939
REMARK INTRA:                  -0.653
REMARK UNBOUND:                -0.887
REMARK SMILES CC(=O)CCC=C(C)CCC=C(C)C
REMARK SMILES IDX 7 1 6 2 8 3 9 4 10 5 11 6 13 7 12 8 14 9 5 10 4 11 2 12 3 13
REMARK SMILES IDX 1 14
REMARK H PARENT
REMARK Flexibility Score: inf
ROOT
ATOM      1  C   UNL     1     -11.170  73.560  32.810  1.00  0.00    -0.077 C 
ATOM      2  C   UNL     1     -11.104  72.503  31.970  1.00  0.00    -0.028 C 
ATOM      3  C   UNL     1     -10.621  74.916  32.430  1.00  0.00     0.039 C 
ENDROOT
BRANCH   1   4
ATOM      4  C   UNL     1     -11.827  73.386  34.162  1.00  0.00     0.034 C 
BRANCH   4   5
ATOM      5  C   UNL     1     -10.821  73.635  35.291  1.00  0.00     0.032 C 
BRANCH   5   6
ATOM      6  C   UNL     1     -11.247  72.926  36.553  1.00  0.00    -0.028 C 
ATOM      7  C   UNL     1      -9.378  71.262  36.437  1.00  0.00     0.039 C 
ATOM      8  C   UNL     1     -10.589  71.877  37.096  1.00  0.00    -0.080 C 
ATOM      9  C   UNL     1     -11.088  71.260  38.377  1.00  0.00     0.039 C 
ENDBRANCH   5   6
ENDBRANCH   4   5
ENDBRANCH   1   4
BRANCH   2  10
ATOM     10  C   UNL     1     -10.436  72.528  30.618  1.00  0.00     0.035 C 
BRANCH  10  11
ATOM     11  C   UNL     1     -11.478  72.436  29.499  1.00  0.00     0.079 C 
BRANCH  11  12
ATOM     12  C   UNL     1     -11.798  73.804  28.956  1.00  0.00     0.130 C 
ATOM     13  O   UNL     1     -10.925  74.657  28.924  1.00  0.00    -0.300 OA
ATOM     14  C   UNL     1     -13.167  74.140  28.442  1.00  0.00     0.087 C 
ENDBRANCH  11  12
ENDBRANCH  10  11
ENDBRANCH   2  10
TORSDOF 6
ENDMDL
MODEL 9
REMARK VINA RESULT:    -5.641      2.431      6.439
REMARK INTER + INTRA:          -8.506
REMARK INTER:                  -7.939
REMARK INTRA:                  -0.567
REMARK UNBOUND:                -0.887
REMARK SMILES CC(=O)CCC=C(C)CCC=C(C)C
REMARK SMILES IDX 7 1 6 2 8 3 9 4 10 5 11 6 13 7 12 8 14 9 5 10 4 11 2 12 3 13
REMARK SMILES IDX 1 14
REMARK H PARENT
REMARK Flexibility Score: inf
ROOT
ATOM      1  C   UNL     1     -10.852  72.312  31.559  1.00  0.00    -0.077 C 
ATOM      2  C   UNL     1     -11.868  72.570  30.705  1.00  0.00    -0.028 C 
ATOM      3  C   UNL     1      -9.417  72.240  31.091  1.00  0.00     0.039 C 
ENDROOT
BRANCH   1   4
ATOM      4  C   UNL     1     -11.159  72.104  33.025  1.00  0.00     0.034 C 
BRANCH   4   5
ATOM      5  C   UNL     1     -10.472  73.176  33.881  1.00  0.00     0.032 C 
BRANCH   5   6
ATOM      6  C   UNL     1     -11.154  73.308  35.220  1.00  0.00    -0.028 C 
ATOM      7  C   UNL     1      -9.643  71.645  36.330  1.00  0.00     0.039 C 
ATOM      8  C   UNL     1     -10.771  72.648  36.337  1.00  0.00    -0.080 C 
ATOM      9  C   UNL     1     -11.507  72.876  37.632  1.00  0.00     0.039 C 
ENDBRANCH   5   6
ENDBRANCH   4   5
ENDBRANCH   1   4
BRANCH   2  10
ATOM     10  C   UNL     1     -11.707  72.749  29.216  1.00  0.00     0.035 C 
BRANCH  10  11
ATOM     11  C   UNL     1     -11.740  74.234  28.842  1.00  0.00     0.079 C 
BRANCH  11  12
ATOM     12  C   UNL     1     -10.351  74.743  28.559  1.00  0.00     0.130 C 
ATOM     13  O   UNL     1      -9.688  75.218  29.468  1.00  0.00    -0.300 OA
ATOM     14  C   UNL     1      -9.758  74.669  27.183  1.00  0.00     0.087 C 
ENDBRANCH  11  12
ENDBRANCH  10  11
ENDBRANCH   2  10
TORSDOF 6
ENDMDL
