MODEL 1
REMARK VINA RESULT:    -3.052      0.000      0.000
REMARK INTER + INTRA:          -3.891
REMARK INTER:                  -3.677
REMARK INTRA:                  -0.215
REMARK UNBOUND:                -0.215
REMARK SMILES OCC(O)CO
REMARK SMILES IDX 3 1 5 2 6 3 2 5 1 6 4 8
REMARK H PARENT 6 4 1 7 4 9
REMARK Flexibility Score: inf
ROOT
ATOM      1  C   UNL     1     -23.720 -11.644  23.199  1.00  0.00     0.165 C 
ENDROOT
BRANCH   1   2
ATOM      2  C   UNL     1     -25.247 -11.695  23.046  1.00  0.00     0.190 C 
BRANCH   2   3
ATOM      3  O   UNL     1     -25.850 -12.063  24.257  1.00  0.00    -0.394 OA
ATOM      4  H   UNL     1     -25.454 -12.935  24.518  1.00  0.00     0.210 HD
ENDBRANCH   2   3
ENDBRANCH   1   2
BRANCH   1   5
ATOM      5  C   UNL     1     -23.306 -11.789  24.673  1.00  0.00     0.190 C 
BRANCH   5   6
ATOM      6  O   UNL     1     -23.368 -13.129  25.081  1.00  0.00    -0.394 OA
ATOM      7  H   UNL     1     -24.017 -13.580  24.480  1.00  0.00     0.210 HD
ENDBRANCH   5   6
ENDBRANCH   1   5
BRANCH   1   8
ATOM      8  O   UNL     1     -23.149 -12.682  22.446  1.00  0.00    -0.388 OA
ATOM      9  H   UNL     1     -22.249 -12.371  22.165  1.00  0.00     0.211 HD
ENDBRANCH   1   8
TORSDOF 5
ENDMDL
MODEL 2
REMARK VINA RESULT:    -2.975      0.905      2.649
REMARK INTER + INTRA:          -3.799
REMARK INTER:                  -3.767
REMARK INTRA:                  -0.031
REMARK UNBOUND:                -0.215
REMARK SMILES OCC(O)CO
REMARK SMILES IDX 3 1 5 2 6 3 2 5 1 6 4 8
REMARK H PARENT 6 4 1 7 4 9
REMARK Flexibility Score: inf
ROOT
ATOM      1  C   UNL     1     -24.085 -11.582  24.199  1.00  0.00     0.165 C 
ENDROOT
BRANCH   1   2
ATOM      2  C   UNL     1     -23.644 -11.573  22.729  1.00  0.00     0.190 C 
BRANCH   2   3
ATOM      3  O   UNL     1     -22.805 -12.665  22.462  1.00  0.00    -0.394 OA
ATOM      4  H   UNL     1     -22.527 -13.031  23.342  1.00  0.00     0.210 HD
ENDBRANCH   2   3
ENDBRANCH   1   2
BRANCH   1   5
ATOM      5  C   UNL     1     -25.617 -11.532  24.318  1.00  0.00     0.190 C 
BRANCH   5   6
ATOM      6  O   UNL     1     -26.225 -11.760  23.075  1.00  0.00    -0.394 OA
ATOM      7  H   UNL     1     -25.553 -11.525  22.382  1.00  0.00     0.210 HD
ENDBRANCH   5   6
ENDBRANCH   1   5
BRANCH   1   8
ATOM      8  O   UNL     1     -23.604 -12.748  24.814  1.00  0.00    -0.388 OA
ATOM      9  H   UNL     1     -24.035 -12.801  25.707  1.00  0.00     0.211 HD
ENDBRANCH   1   8
TORSDOF 5
ENDMDL
MODEL 3
REMARK VINA RESULT:    -2.877      1.404      2.467
REMARK INTER + INTRA:          -3.680
REMARK INTER:                  -3.460
REMARK INTRA:                  -0.219
REMARK UNBOUND:                -0.215
REMARK SMILES OCC(O)CO
REMARK SMILES IDX 3 1 5 2 6 3 2 5 1 6 4 8
REMARK H PARENT 6 4 1 7 4 9
REMARK Flexibility Score: inf
ROOT
ATOM      1  C   UNL     1     -24.909 -11.778  23.332  1.00  0.00     0.165 C 
ENDROOT
BRANCH   1   2
ATOM      2  C   UNL     1     -24.833 -10.261  23.111  1.00  0.00     0.190 C 
BRANCH   2   3
ATOM      3  O   UNL     1     -24.108  -9.971  21.945  1.00  0.00    -0.394 OA
ATOM      4  H   UNL     1     -24.517 -10.507  21.216  1.00  0.00     0.210 HD
ENDBRANCH   2   3
ENDBRANCH   1   2
BRANCH   1   5
ATOM      5  C   UNL     1     -23.521 -12.365  23.633  1.00  0.00     0.190 C 
BRANCH   5   6
ATOM      6  O   UNL     1     -22.827 -12.645  22.447  1.00  0.00    -0.394 OA
ATOM      7  H   UNL     1     -21.951 -13.030  22.713  1.00  0.00     0.210 HD
ENDBRANCH   5   6
ENDBRANCH   1   5
BRANCH   1   8
ATOM      8  O   UNL     1     -25.774 -12.041  24.406  1.00  0.00    -0.388 OA
ATOM      9  H   UNL     1     -26.575 -11.468  24.277  1.00  0.00     0.211 HD
ENDBRANCH   1   8
TORSDOF 5
ENDMDL
MODEL 4
REMARK VINA RESULT:    -2.781      1.013      2.310
REMARK INTER + INTRA:          -3.565
REMARK INTER:                  -3.346
REMARK INTRA:                  -0.219
REMARK UNBOUND:                -0.215
REMARK SMILES OCC(O)CO
REMARK SMILES IDX 3 1 5 2 6 3 2 5 1 6 4 8
REMARK H PARENT 6 4 1 7 4 9
REMARK Flexibility Score: inf
ROOT
ATOM      1  C   UNL     1     -23.769 -12.529  23.236  1.00  0.00     0.165 C 
ENDROOT
BRANCH   1   2
ATOM      2  C   UNL     1     -23.035 -12.282  24.561  1.00  0.00     0.190 C 
BRANCH   2   3
ATOM      3  O   UNL     1     -23.435 -11.062  25.125  1.00  0.00    -0.394 OA
ATOM      4  H   UNL     1     -24.399 -10.955  24.913  1.00  0.00     0.210 HD
ENDBRANCH   2   3
ENDBRANCH   1   2
BRANCH   1   5
ATOM      5  C   UNL     1     -24.869 -11.479  23.008  1.00  0.00     0.190 C 
BRANCH   5   6
ATOM      6  O   UNL     1     -26.017 -11.785  23.754  1.00  0.00    -0.394 OA
ATOM      7  H   UNL     1     -26.552 -10.950  23.809  1.00  0.00     0.210 HD
ENDBRANCH   5   6
ENDBRANCH   1   5
BRANCH   1   8
ATOM      8  O   UNL     1     -22.843 -12.476  22.183  1.00  0.00    -0.388 OA
ATOM      9  H   UNL     1     -22.282 -13.293  22.252  1.00  0.00     0.211 HD
ENDBRANCH   1   8
TORSDOF 5
ENDMDL
MODEL 5
REMARK VINA RESULT:    -2.523     15.336     15.893
REMARK INTER + INTRA:          -3.253
REMARK INTER:                  -3.030
REMARK INTRA:                  -0.223
REMARK UNBOUND:                -0.215
REMARK SMILES OCC(O)CO
REMARK SMILES IDX 3 1 5 2 6 3 2 5 1 6 4 8
REMARK H PARENT 6 4 1 7 4 9
REMARK Flexibility Score: inf
ROOT
ATOM      1  C   UNL     1     -23.074   1.340  14.938  1.00  0.00     0.165 C 
ENDROOT
BRANCH   1   2
ATOM      2  C   UNL     1     -21.786   1.387  15.773  1.00  0.00     0.190 C 
BRANCH   2   3
ATOM      3  O   UNL     1     -22.087   1.591  17.128  1.00  0.00    -0.394 OA
ATOM      4  H   UNL     1     -21.580   2.395  17.413  1.00  0.00     0.210 HD
ENDBRANCH   2   3
ENDBRANCH   1   2
BRANCH   1   5
ATOM      5  C   UNL     1     -24.053   0.289  15.487  1.00  0.00     0.190 C 
BRANCH   5   6
ATOM      6  O   UNL     1     -24.830   0.822  16.526  1.00  0.00    -0.394 OA
ATOM      7  H   UNL     1     -25.775   0.784  16.223  1.00  0.00     0.210 HD
ENDBRANCH   5   6
ENDBRANCH   1   5
BRANCH   1   8
ATOM      8  O   UNL     1     -23.681   2.606  14.963  1.00  0.00    -0.388 OA
ATOM      9  H   UNL     1     -23.487   3.034  14.088  1.00  0.00     0.211 HD
ENDBRANCH   1   8
TORSDOF 5
ENDMDL
MODEL 6
REMARK VINA RESULT:    -2.501     16.715     17.796
REMARK INTER + INTRA:          -3.227
REMARK INTER:                  -3.224
REMARK INTRA:                  -0.003
REMARK UNBOUND:                -0.215
REMARK SMILES OCC(O)CO
REMARK SMILES IDX 3 1 5 2 6 3 2 5 1 6 4 8
REMARK H PARENT 6 4 1 7 4 9
REMARK Flexibility Score: inf
ROOT
ATOM      1  C   UNL     1     -35.353  -1.366  14.406  1.00  0.00     0.165 C 
ENDROOT
BRANCH   1   2
ATOM      2  C   UNL     1     -36.311  -0.937  15.526  1.00  0.00     0.190 C 
BRANCH   2   3
ATOM      3  O   UNL     1     -37.374  -1.845  15.638  1.00  0.00    -0.394 OA
ATOM      4  H   UNL     1     -37.887  -1.786  14.790  1.00  0.00     0.210 HD
ENDBRANCH   2   3
ENDBRANCH   1   2
BRANCH   1   5
ATOM      5  C   UNL     1     -33.971  -1.736  14.970  1.00  0.00     0.190 C 
BRANCH   5   6
ATOM      6  O   UNL     1     -33.421  -2.821  14.273  1.00  0.00    -0.394 OA
ATOM      7  H   UNL     1     -32.463  -2.869  14.531  1.00  0.00     0.210 HD
ENDBRANCH   5   6
ENDBRANCH   1   5
BRANCH   1   8
ATOM      8  O   UNL     1     -35.900  -2.472  13.736  1.00  0.00    -0.388 OA
ATOM      9  H   UNL     1     -36.873  -2.476  13.934  1.00  0.00     0.211 HD
ENDBRANCH   1   8
TORSDOF 5
ENDMDL
MODEL 7
REMARK VINA RESULT:    -2.483     15.074     15.560
REMARK INTER + INTRA:          -3.206
REMARK INTER:                  -2.982
REMARK INTRA:                  -0.224
REMARK UNBOUND:                -0.215
REMARK SMILES OCC(O)CO
REMARK SMILES IDX 3 1 5 2 6 3 2 5 1 6 4 8
REMARK H PARENT 6 4 1 7 4 9
REMARK Flexibility Score: inf
ROOT
ATOM      1  C   UNL     1     -23.611   0.423  16.142  1.00  0.00     0.165 C 
ENDROOT
BRANCH   1   2
ATOM      2  C   UNL     1     -23.128   1.268  14.955  1.00  0.00     0.190 C 
BRANCH   2   3
ATOM      3  O   UNL     1     -23.721   2.539  14.985  1.00  0.00    -0.394 OA
ATOM      4  H   UNL     1     -24.036   2.727  14.063  1.00  0.00     0.210 HD
ENDBRANCH   2   3
ENDBRANCH   1   2
BRANCH   1   5
ATOM      5  C   UNL     1     -22.739   0.663  17.385  1.00  0.00     0.190 C 
BRANCH   5   6
ATOM      6  O   UNL     1     -21.964   1.823  17.237  1.00  0.00    -0.394 OA
ATOM      7  H   UNL     1     -21.139   1.554  16.753  1.00  0.00     0.210 HD
ENDBRANCH   5   6
ENDBRANCH   1   5
BRANCH   1   8
ATOM      8  O   UNL     1     -24.944   0.758  16.430  1.00  0.00    -0.388 OA
ATOM      9  H   UNL     1     -25.359   1.044  15.575  1.00  0.00     0.211 HD
ENDBRANCH   1   8
TORSDOF 5
ENDMDL
MODEL 8
REMARK VINA RESULT:    -2.434      1.745      2.497
REMARK INTER + INTRA:          -3.146
REMARK INTER:                  -2.923
REMARK INTRA:                  -0.223
REMARK UNBOUND:                -0.215
REMARK SMILES OCC(O)CO
REMARK SMILES IDX 3 1 5 2 6 3 2 5 1 6 4 8
REMARK H PARENT 6 4 1 7 4 9
REMARK Flexibility Score: inf
ROOT
ATOM      1  C   UNL     1     -24.018 -11.444  23.150  1.00  0.00     0.165 C 
ENDROOT
BRANCH   1   2
ATOM      2  C   UNL     1     -24.229 -10.303  22.144  1.00  0.00     0.190 C 
BRANCH   2   3
ATOM      3  O   UNL     1     -24.681  -9.149  22.800  1.00  0.00    -0.394 OA
ATOM      4  H   UNL     1     -23.971  -8.892  23.444  1.00  0.00     0.210 HD
ENDBRANCH   2   3
ENDBRANCH   1   2
BRANCH   1   5
ATOM      5  C   UNL     1     -25.350 -11.879  23.784  1.00  0.00     0.190 C 
BRANCH   5   6
ATOM      6  O   UNL     1     -26.433 -11.524  22.966  1.00  0.00    -0.394 OA
ATOM      7  H   UNL     1     -26.457 -10.532  22.939  1.00  0.00     0.210 HD
ENDBRANCH   5   6
ENDBRANCH   1   5
BRANCH   1   8
ATOM      8  O   UNL     1     -23.434 -12.535  22.488  1.00  0.00    -0.388 OA
ATOM      9  H   UNL     1     -22.480 -12.561  22.763  1.00  0.00     0.211 HD
ENDBRANCH   1   8
TORSDOF 5
ENDMDL
MODEL 9
REMARK VINA RESULT:    -2.375      1.712      2.380
REMARK INTER + INTRA:          -3.075
REMARK INTER:                  -2.866
REMARK INTRA:                  -0.209
REMARK UNBOUND:                -0.215
REMARK SMILES OCC(O)CO
REMARK SMILES IDX 3 1 5 2 6 3 2 5 1 6 4 8
REMARK H PARENT 6 4 1 7 4 9
REMARK Flexibility Score: inf
ROOT
ATOM      1  C   UNL     1     -24.593 -12.024  23.173  1.00  0.00     0.165 C 
ENDROOT
BRANCH   1   2
ATOM      2  C   UNL     1     -25.523 -11.388  24.215  1.00  0.00     0.190 C 
BRANCH   2   3
ATOM      3  O   UNL     1     -26.692 -10.911  23.602  1.00  0.00    -0.394 OA
ATOM      4  H   UNL     1     -27.447 -11.418  23.999  1.00  0.00     0.210 HD
ENDBRANCH   2   3
ENDBRANCH   1   2
BRANCH   1   5
ATOM      5  C   UNL     1     -23.771 -10.954  22.436  1.00  0.00     0.190 C 
BRANCH   5   6
ATOM      6  O   UNL     1     -24.554  -9.825  22.158  1.00  0.00    -0.394 OA
ATOM      7  H   UNL     1     -25.164  -9.704  22.931  1.00  0.00     0.210 HD
ENDBRANCH   5   6
ENDBRANCH   1   5
BRANCH   1   8
ATOM      8  O   UNL     1     -23.726 -12.920  23.821  1.00  0.00    -0.388 OA
ATOM      9  H   UNL     1     -23.953 -12.891  24.787  1.00  0.00     0.211 HD
ENDBRANCH   1   8
TORSDOF 5
ENDMDL
