MODEL 1
REMARK VINA RESULT:    -4.040      0.000      0.000
REMARK INTER + INTRA:          -4.222
REMARK INTER:                  -4.985
REMARK INTRA:                   0.762
REMARK UNBOUND:                 0.762
REMARK SMILES CC1=CC=CC(C)(C)CC1=O
REMARK SMILES IDX 1 1 2 2 3 3 10 4 11 5 9 6 4 8 5 9 6 10 7 11 8 12
REMARK H PARENT
REMARK Flexibility Score: 80.00
ROOT
ATOM      1  C   UNL     1     -13.937 -20.168  28.578  1.00  0.00     0.048 C 
ATOM      2  C   UNL     1     -12.918 -19.093  28.872  1.00  0.00    -0.008 C 
ATOM      3  C   UNL     1     -12.504 -18.325  27.842  1.00  0.00     0.007 C 
ENDROOT
BRANCH   2   4
ATOM      4  C   UNL     1     -12.508 -18.918  30.288  1.00  0.00     0.159 C 
ATOM      5  O   UNL     1     -13.172 -19.502  31.189  1.00  0.00    -0.295 OA
BRANCH   4   6
ATOM      6  C   UNL     1     -11.335 -18.092  30.713  1.00  0.00     0.091 CG0
ATOM      7  G   UNL     1     -11.455 -16.606  30.304  1.00  0.00     0.000 G0
ENDBRANCH   4   6
ENDBRANCH   2   4
BRANCH   3   8
ATOM      8  C   UNL     1     -11.548 -17.193  27.823  1.00  0.00    -0.003 C 
ATOM      9  C   UNL     1     -11.103 -16.447  28.842  1.00  0.00    -0.020 C 
BRANCH   9  10
ATOM     10  C   UNL     1     -11.464 -16.610  30.299  1.00  0.00    -0.010 CG0
ATOM     11  C   UNL     1     -12.880 -16.046  30.559  1.00  0.00     0.016 C 
ATOM     12  C   UNL     1     -10.462 -15.790  31.143  1.00  0.00     0.016 C 
ATOM     13  G   UNL     1     -11.332 -18.096  30.704  1.00  0.00     0.000 G0
ENDBRANCH   9  10
ENDBRANCH   3   8
TORSDOF 0
ENDMDL
MODEL 2
REMARK VINA RESULT:    -3.944      1.833      3.121
REMARK INTER + INTRA:          -4.105
REMARK INTER:                  -4.853
REMARK INTRA:                   0.748
REMARK UNBOUND:                 0.762
REMARK SMILES CC1=CC=CC(C)(C)CC1=O
REMARK SMILES IDX 1 1 2 2 3 3 10 4 11 5 9 6 4 8 5 9 6 10 7 11 8 12
REMARK H PARENT
REMARK Flexibility Score: 80.00
ROOT
ATOM      1  C   UNL     1     -12.504 -20.027  31.651  1.00  0.00     0.048 C 
ATOM      2  C   UNL     1     -12.770 -18.993  30.585  1.00  0.00    -0.008 C 
ATOM      3  C   UNL     1     -12.743 -17.694  30.951  1.00  0.00     0.007 C 
ENDROOT
BRANCH   2   4
ATOM      4  C   UNL     1     -12.966 -19.486  29.198  1.00  0.00     0.159 C 
ATOM      5  O   UNL     1     -12.730 -20.700  28.946  1.00  0.00    -0.295 OA
BRANCH   4   6
ATOM      6  C   UNL     1     -13.445 -18.623  28.073  1.00  0.00     0.091 CG0
ATOM      7  G   UNL     1     -12.539 -17.398  27.815  1.00  0.00     0.000 G0
ENDBRANCH   4   6
ENDBRANCH   2   4
BRANCH   3   8
ATOM      8  C   UNL     1     -12.938 -16.471  30.137  1.00  0.00    -0.003 C 
ATOM      9  C   UNL     1     -12.850 -16.318  28.810  1.00  0.00    -0.020 C 
BRANCH   9  10
ATOM     10  C   UNL     1     -12.548 -17.399  27.799  1.00  0.00    -0.010 CG0
ATOM     11  C   UNL     1     -11.039 -17.731  27.816  1.00  0.00     0.016 C 
ATOM     12  C   UNL     1     -12.904 -16.862  26.394  1.00  0.00     0.016 C 
ATOM     13  G   UNL     1     -13.433 -18.634  28.080  1.00  0.00     0.000 G0
ENDBRANCH   9  10
ENDBRANCH   3   8
TORSDOF 0
ENDMDL
MODEL 3
REMARK VINA RESULT:    -3.937      1.550      2.601
REMARK INTER + INTRA:          -4.095
REMARK INTER:                  -4.855
REMARK INTRA:                   0.760
REMARK UNBOUND:                 0.762
REMARK SMILES CC1=CC=CC(C)(C)CC1=O
REMARK SMILES IDX 1 1 2 2 3 3 10 4 11 5 9 6 4 8 5 9 6 10 7 11 8 12
REMARK H PARENT
REMARK Flexibility Score: 80.00
ROOT
ATOM      1  C   UNL     1     -13.995 -20.127  28.237  1.00  0.00     0.048 C 
ATOM      2  C   UNL     1     -13.208 -19.480  29.351  1.00  0.00    -0.008 C 
ATOM      3  C   UNL     1     -12.915 -20.235  30.432  1.00  0.00     0.007 C 
ENDROOT
BRANCH   2   4
ATOM      4  C   UNL     1     -12.751 -18.084  29.135  1.00  0.00     0.159 C 
ATOM      5  O   UNL     1     -12.843 -17.587  27.978  1.00  0.00    -0.295 OA
BRANCH   4   6
ATOM      6  C   UNL     1     -12.194 -17.218  30.222  1.00  0.00     0.091 CG0
ATOM      7  G   UNL     1     -10.915 -17.797  30.867  1.00  0.00     0.000 G0
ENDBRANCH   4   6
ENDBRANCH   2   4
BRANCH   3   8
ATOM      8  C   UNL     1     -12.148 -19.893  31.652  1.00  0.00    -0.003 C 
ATOM      9  C   UNL     1     -11.293 -18.883  31.857  1.00  0.00    -0.020 C 
BRANCH   9  10
ATOM     10  C   UNL     1     -10.922 -17.807  30.865  1.00  0.00    -0.010 CG0
ATOM     11  C   UNL     1      -9.936 -18.371  29.816  1.00  0.00     0.016 C 
ATOM     12  C   UNL     1     -10.207 -16.669  31.628  1.00  0.00     0.016 C 
ATOM     13  G   UNL     1     -12.203 -17.225  30.225  1.00  0.00     0.000 G0
ENDBRANCH   9  10
ENDBRANCH   3   8
TORSDOF 0
ENDMDL
MODEL 4
REMARK VINA RESULT:    -3.893      1.979      3.151
REMARK INTER + INTRA:          -4.042
REMARK INTER:                  -4.801
REMARK INTRA:                   0.759
REMARK UNBOUND:                 0.762
REMARK SMILES CC1=CC=CC(C)(C)CC1=O
REMARK SMILES IDX 1 1 2 2 3 3 10 4 11 5 9 6 4 8 5 9 6 10 7 11 8 12
REMARK H PARENT
REMARK Flexibility Score: 80.00
ROOT
ATOM      1  C   UNL     1     -13.592 -15.758  26.799  1.00  0.00     0.048 C 
ATOM      2  C   UNL     1     -12.689 -16.206  27.923  1.00  0.00    -0.008 C 
ATOM      3  C   UNL     1     -12.915 -15.693  29.151  1.00  0.00     0.007 C 
ENDROOT
BRANCH   2   4
ATOM      4  C   UNL     1     -11.669 -17.236  27.601  1.00  0.00     0.159 C 
ATOM      5  O   UNL     1     -11.735 -17.831  26.489  1.00  0.00    -0.295 OA
BRANCH   4   6
ATOM      6  C   UNL     1     -10.547 -17.605  28.521  1.00  0.00     0.091 CG0
ATOM      7  G   UNL     1     -11.031 -18.150  29.884  1.00  0.00     0.000 G0
ENDBRANCH   4   6
ENDBRANCH   2   4
BRANCH   3   8
ATOM      8  C   UNL     1     -12.223 -15.957  30.435  1.00  0.00    -0.003 C 
ATOM      9  C   UNL     1     -11.441 -16.988  30.776  1.00  0.00    -0.020 C 
BRANCH   9  10
ATOM     10  C   UNL     1     -11.047 -18.147  29.891  1.00  0.00    -0.010 CG0
ATOM     11  C   UNL     1     -12.229 -19.134  29.754  1.00  0.00     0.016 C 
ATOM     12  C   UNL     1      -9.875 -18.896  30.565  1.00  0.00     0.016 C 
ATOM     13  G   UNL     1     -10.555 -17.615  28.526  1.00  0.00     0.000 G0
ENDBRANCH   9  10
ENDBRANCH   3   8
TORSDOF 0
ENDMDL
MODEL 5
REMARK VINA RESULT:    -3.805      1.745      2.734
REMARK INTER + INTRA:          -3.933
REMARK INTER:                  -4.690
REMARK INTRA:                   0.757
REMARK UNBOUND:                 0.762
REMARK SMILES CC1=CC=CC(C)(C)CC1=O
REMARK SMILES IDX 1 1 2 2 3 3 10 4 11 5 9 6 4 8 5 9 6 10 7 11 8 12
REMARK H PARENT
REMARK Flexibility Score: 80.00
ROOT
ATOM      1  C   UNL     1     -12.451 -17.024  26.372  1.00  0.00     0.048 C 
ATOM      2  C   UNL     1     -11.957 -17.688  27.635  1.00  0.00    -0.008 C 
ATOM      3  C   UNL     1     -10.770 -17.281  28.133  1.00  0.00     0.007 C 
ENDROOT
BRANCH   2   4
ATOM      4  C   UNL     1     -12.855 -18.684  28.272  1.00  0.00     0.159 C 
ATOM      5  O   UNL     1     -14.049 -18.769  27.872  1.00  0.00    -0.295 OA
BRANCH   4   6
ATOM      6  C   UNL     1     -12.419 -19.613  29.362  1.00  0.00     0.091 CG0
ATOM      7  G   UNL     1     -11.930 -18.877  30.630  1.00  0.00     0.000 G0
ENDBRANCH   4   6
ENDBRANCH   2   4
BRANCH   3   8
ATOM      8  C   UNL     1     -10.048 -17.719  29.351  1.00  0.00    -0.003 C 
ATOM      9  C   UNL     1     -10.516 -18.378  30.418  1.00  0.00    -0.020 C 
BRANCH   9  10
ATOM     10  C   UNL     1     -11.930 -18.867  30.622  1.00  0.00    -0.010 CG0
ATOM     11  C   UNL     1     -12.848 -17.684  31.007  1.00  0.00     0.016 C 
ATOM     12  C   UNL     1     -11.931 -19.873  31.796  1.00  0.00     0.016 C 
ATOM     13  G   UNL     1     -12.412 -19.607  29.354  1.00  0.00     0.000 G0
ENDBRANCH   9  10
ENDBRANCH   3   8
TORSDOF 0
ENDMDL
MODEL 6
REMARK VINA RESULT:    -3.785      1.851      2.832
REMARK INTER + INTRA:          -3.908
REMARK INTER:                  -4.668
REMARK INTRA:                   0.760
REMARK UNBOUND:                 0.762
REMARK SMILES CC1=CC=CC(C)(C)CC1=O
REMARK SMILES IDX 1 1 2 2 3 3 10 4 11 5 9 6 4 8 5 9 6 10 7 11 8 12
REMARK H PARENT
REMARK Flexibility Score: 80.00
ROOT
ATOM      1  C   UNL     1     -13.948 -14.247  28.681  1.00  0.00     0.048 C 
ATOM      2  C   UNL     1     -13.184 -15.533  28.884  1.00  0.00    -0.008 C 
ATOM      3  C   UNL     1     -12.475 -16.012  27.839  1.00  0.00     0.007 C 
ENDROOT
BRANCH   2   4
ATOM      4  C   UNL     1     -13.212 -16.129  30.243  1.00  0.00     0.159 C 
ATOM      5  O   UNL     1     -13.697 -15.454  31.193  1.00  0.00    -0.295 OA
BRANCH   4   6
ATOM      6  C   UNL     1     -12.706 -17.504  30.554  1.00  0.00     0.091 CG0
ATOM      7  G   UNL     1     -11.213 -17.697  30.205  1.00  0.00     0.000 G0
ENDBRANCH   4   6
ENDBRANCH   2   4
BRANCH   3   8
ATOM      8  C   UNL     1     -11.619 -17.217  27.743  1.00  0.00    -0.003 C 
ATOM      9  C   UNL     1     -11.064 -17.940  28.724  1.00  0.00    -0.020 C 
BRANCH   9  10
ATOM     10  C   UNL     1     -11.211 -17.700  30.208  1.00  0.00    -0.010 CG0
ATOM     11  C   UNL     1     -10.330 -16.505  30.640  1.00  0.00     0.016 C 
ATOM     12  C   UNL     1     -10.709 -18.957  30.955  1.00  0.00     0.016 C 
ATOM     13  G   UNL     1     -12.702 -17.497  30.558  1.00  0.00     0.000 G0
ENDBRANCH   9  10
ENDBRANCH   3   8
TORSDOF 0
ENDMDL
MODEL 7
REMARK VINA RESULT:    -3.766      1.769      2.875
REMARK INTER + INTRA:          -3.884
REMARK INTER:                  -4.654
REMARK INTRA:                   0.770
REMARK UNBOUND:                 0.762
REMARK SMILES CC1=CC=CC(C)(C)CC1=O
REMARK SMILES IDX 1 1 2 2 3 3 10 4 11 5 9 6 4 8 5 9 6 10 7 11 8 12
REMARK H PARENT
REMARK Flexibility Score: 80.00
ROOT
ATOM      1  C   UNL     1     -13.376 -16.390  26.809  1.00  0.00     0.048 C 
ATOM      2  C   UNL     1     -12.988 -17.239  27.995  1.00  0.00    -0.008 C 
ATOM      3  C   UNL     1     -13.180 -18.572  27.901  1.00  0.00     0.007 C 
ENDROOT
BRANCH   2   4
ATOM      4  C   UNL     1     -12.354 -16.546  29.145  1.00  0.00     0.159 C 
ATOM      5  O   UNL     1     -11.994 -15.344  29.006  1.00  0.00    -0.295 OA
BRANCH   4   6
ATOM      6  C   UNL     1     -12.125 -17.191  30.476  1.00  0.00     0.091 CG0
ATOM      7  G   UNL     1     -11.234 -18.451  30.398  1.00  0.00     0.000 G0
ENDBRANCH   4   6
ENDBRANCH   2   4
BRANCH   3   8
ATOM      8  C   UNL     1     -12.877 -19.648  28.874  1.00  0.00    -0.003 C 
ATOM      9  C   UNL     1     -12.053 -19.626  29.929  1.00  0.00    -0.020 C 
BRANCH   9  10
ATOM     10  C   UNL     1     -11.234 -18.449  30.403  1.00  0.00    -0.010 CG0
ATOM     11  C   UNL     1     -10.009 -18.251  29.481  1.00  0.00     0.016 C 
ATOM     12  C   UNL     1     -10.715 -18.760  31.825  1.00  0.00     0.016 C 
ATOM     13  G   UNL     1     -12.129 -17.191  30.482  1.00  0.00     0.000 G0
ENDBRANCH   9  10
ENDBRANCH   3   8
TORSDOF 0
ENDMDL
MODEL 8
REMARK VINA RESULT:    -3.712      2.339      3.824
REMARK INTER + INTRA:          -3.818
REMARK INTER:                  -4.564
REMARK INTRA:                   0.746
REMARK UNBOUND:                 0.762
REMARK SMILES CC1=CC=CC(C)(C)CC1=O
REMARK SMILES IDX 1 1 2 2 3 3 10 4 11 5 9 6 4 8 5 9 6 10 7 11 8 12
REMARK H PARENT
REMARK Flexibility Score: 80.00
ROOT
ATOM      1  C   UNL     1     -14.022 -15.101  31.272  1.00  0.00     0.048 C 
ATOM      2  C   UNL     1     -13.080 -15.870  30.378  1.00  0.00    -0.008 C 
ATOM      3  C   UNL     1     -12.561 -17.021  30.857  1.00  0.00     0.007 C 
ENDROOT
BRANCH   2   4
ATOM      4  C   UNL     1     -12.860 -15.337  29.010  1.00  0.00     0.159 C 
ATOM      5  O   UNL     1     -13.596 -14.399  28.597  1.00  0.00    -0.295 OA
BRANCH   4   6
ATOM      6  C   UNL     1     -11.795 -15.843  28.087  1.00  0.00     0.091 CG0
ATOM      7  G   UNL     1     -11.931 -17.349  27.765  1.00  0.00     0.000 G0
ENDBRANCH   4   6
ENDBRANCH   2   4
BRANCH   3   8
ATOM      8  C   UNL     1     -11.643 -17.991  30.215  1.00  0.00    -0.003 C 
ATOM      9  C   UNL     1     -11.366 -18.158  28.916  1.00  0.00    -0.020 C 
BRANCH   9  10
ATOM     10  C   UNL     1     -11.923 -17.351  27.768  1.00  0.00    -0.010 CG0
ATOM     11  C   UNL     1     -13.373 -17.793  27.465  1.00  0.00     0.016 C 
ATOM     12  C   UNL     1     -11.066 -17.635  26.513  1.00  0.00     0.016 C 
ATOM     13  G   UNL     1     -11.816 -15.843  28.092  1.00  0.00     0.000 G0
ENDBRANCH   9  10
ENDBRANCH   3   8
TORSDOF 0
ENDMDL
MODEL 9
REMARK VINA RESULT:    -3.522      1.962      2.711
REMARK INTER + INTRA:          -3.584
REMARK INTER:                  -4.333
REMARK INTRA:                   0.749
REMARK UNBOUND:                 0.762
REMARK SMILES CC1=CC=CC(C)(C)CC1=O
REMARK SMILES IDX 1 1 2 2 3 3 10 4 11 5 9 6 4 8 5 9 6 10 7 11 8 12
REMARK H PARENT
REMARK Flexibility Score: 80.00
ROOT
ATOM      1  C   UNL     1     -11.092 -17.844  26.055  1.00  0.00     0.048 C 
ATOM      2  C   UNL     1     -11.342 -17.381  27.470  1.00  0.00    -0.008 C 
ATOM      3  C   UNL     1     -10.327 -16.770  28.117  1.00  0.00     0.007 C 
ENDROOT
BRANCH   2   4
ATOM      4  C   UNL     1     -12.712 -17.568  28.011  1.00  0.00     0.159 C 
ATOM      5  O   UNL     1     -13.642 -17.879  27.217  1.00  0.00    -0.295 OA
BRANCH   4   6
ATOM      6  C   UNL     1     -13.056 -17.421  29.461  1.00  0.00     0.091 CG0
ATOM      7  G   UNL     1     -12.773 -16.006  30.014  1.00  0.00     0.000 G0
ENDBRANCH   4   6
ENDBRANCH   2   4
BRANCH   3   8
ATOM      8  C   UNL     1     -10.278 -16.194  29.482  1.00  0.00    -0.003 C 
ATOM      9  C   UNL     1     -11.289 -15.850  30.290  1.00  0.00    -0.020 C 
BRANCH   9  10
ATOM     10  C   UNL     1     -12.763 -16.003  29.998  1.00  0.00    -0.010 CG0
ATOM     11  C   UNL     1     -13.229 -14.888  29.034  1.00  0.00     0.016 C 
ATOM     12  C   UNL     1     -13.540 -15.842  31.325  1.00  0.00     0.016 C 
ATOM     13  G   UNL     1     -13.040 -17.420  29.447  1.00  0.00     0.000 G0
ENDBRANCH   9  10
ENDBRANCH   3   8
TORSDOF 0
ENDMDL
