MODEL 1
REMARK VINA RESULT:    -4.388      0.000      0.000
REMARK INTER + INTRA:          -6.232
REMARK INTER:                  -6.697
REMARK INTRA:                   0.465
REMARK UNBOUND:                 0.465
REMARK SMILES CC1=CCC[C@@H](C)C(=O)C[C@H](C(C)C)C(=O)C1
REMARK SMILES IDX 8 1 9 2 6 3 7 4 5 5 4 6 3 7 2 8 1 9 10 11 11 12 15 13 16 14
REMARK SMILES IDX 17 15 12 17 13 18 14 19
REMARK H PARENT
REMARK Flexibility Score: 70.00
ROOT
ATOM      1  C   UNL     1       7.727  -3.165  49.599  1.00  0.00     0.136 C 
ATOM      2  O   UNL     1       7.223  -3.689  50.582  1.00  0.00    -0.299 OA
ENDROOT
BRANCH   1   3
ATOM      3  C   UNL     1       9.081  -3.633  49.105  1.00  0.00     0.053 C 
ATOM      4  C   UNL     1       9.953  -2.415  48.788  1.00  0.00     0.016 C 
BRANCH   3   5
ATOM      5  C   UNL     1       8.958  -4.542  47.860  1.00  0.00     0.015 C 
BRANCH   5   6
ATOM      6  C   UNL     1       8.213  -5.856  48.138  1.00  0.00     0.028 C 
BRANCH   6   7
ATOM      7  C   UNL     1       7.112  -6.088  47.132  1.00  0.00    -0.028 C 
ATOM      8  C   UNL     1       5.818  -5.721  47.277  1.00  0.00    -0.070 CG0
ATOM      9  C   UNL     1       4.861  -6.049  46.158  1.00  0.00     0.039 C 
ATOM     10  G   UNL     1       5.278  -5.036  48.518  1.00  0.00     0.000 G0
ENDBRANCH   6   7
ENDBRANCH   5   6
ENDBRANCH   3   5
ENDBRANCH   1   3
BRANCH   1  11
ATOM     11  C   UNL     1       6.967  -2.085  48.876  1.00  0.00     0.087 C 
BRANCH  11  12
ATOM     12  C   UNL     1       6.118  -2.657  47.711  1.00  0.00     0.066 C 
BRANCH  12  13
ATOM     13  C   UNL     1       5.035  -3.561  48.280  1.00  0.00     0.140 C 
ATOM     14  O   UNL     1       3.917  -3.105  48.483  1.00  0.00    -0.299 OA
BRANCH  13  15
ATOM     15  C   UNL     1       5.277  -5.031  48.512  1.00  0.00     0.106 CG0
ATOM     16  G   UNL     1       5.797  -5.702  47.256  1.00  0.00     0.000 G0
ENDBRANCH  13  15
ENDBRANCH  12  13
BRANCH  12  17
ATOM     17  C   UNL     1       5.481  -1.532  46.831  1.00  0.00    -0.006 C 
ATOM     18  C   UNL     1       5.156  -2.041  45.412  1.00  0.00     0.008 C 
ATOM     19  C   UNL     1       6.397  -0.297  46.710  1.00  0.00     0.008 C 
ENDBRANCH  12  17
ENDBRANCH  11  12
ENDBRANCH   1  11
TORSDOF 1
ENDMDL
MODEL 2
REMARK VINA RESULT:    -3.950      1.978      3.645
REMARK INTER + INTRA:          -5.563
REMARK INTER:                  -6.902
REMARK INTRA:                   1.339
REMARK UNBOUND:                 0.465
REMARK SMILES CC1=CCC[C@@H](C)C(=O)C[C@H](C(C)C)C(=O)C1
REMARK SMILES IDX 8 1 9 2 6 3 7 4 5 5 4 6 3 7 2 8 1 9 10 11 11 12 15 13 16 14
REMARK SMILES IDX 17 15 12 17 13 18 14 19
REMARK H PARENT
REMARK Flexibility Score: 70.00
ROOT
ATOM      1  C   UNL     1       5.977  -2.342  50.350  1.00  0.00     0.136 C 
ATOM      2  O   UNL     1       5.497  -1.251  50.624  1.00  0.00    -0.299 OA
ENDROOT
BRANCH   1   3
ATOM      3  C   UNL     1       5.120  -3.588  50.445  1.00  0.00     0.053 C 
ATOM      4  C   UNL     1       6.006  -4.786  50.802  1.00  0.00     0.016 C 
BRANCH   3   5
ATOM      5  C   UNL     1       4.353  -3.863  49.130  1.00  0.00     0.015 C 
BRANCH   5   6
ATOM      6  C   UNL     1       5.076  -4.847  48.200  1.00  0.00     0.028 C 
BRANCH   6   7
ATOM      7  C   UNL     1       4.917  -4.451  46.751  1.00  0.00    -0.028 C 
ATOM      8  C   UNL     1       5.127  -3.217  46.241  1.00  0.00    -0.070 CG0
ATOM      9  C   UNL     1       4.908  -3.017  44.762  1.00  0.00     0.039 C 
ATOM     10  G   UNL     1       5.533  -2.023  47.083  1.00  0.00     0.000 G0
ENDBRANCH   6   7
ENDBRANCH   5   6
ENDBRANCH   3   5
ENDBRANCH   1   3
BRANCH   1  11
ATOM     11  C   UNL     1       7.406  -2.415  49.883  1.00  0.00     0.087 C 
BRANCH  11  12
ATOM     12  C   UNL     1       7.521  -3.026  48.463  1.00  0.00     0.066 C 
BRANCH  12  13
ATOM     13  C   UNL     1       6.980  -2.031  47.447  1.00  0.00     0.140 C 
ATOM     14  O   UNL     1       7.757  -1.286  46.864  1.00  0.00    -0.299 OA
BRANCH  13  15
ATOM     15  C   UNL     1       5.521  -2.005  47.070  1.00  0.00     0.106 CG0
ATOM     16  G   UNL     1       5.146  -3.228  46.255  1.00  0.00     0.000 G0
ENDBRANCH  13  15
ENDBRANCH  12  13
BRANCH  12  17
ATOM     17  C   UNL     1       8.990  -3.428  48.104  1.00  0.00    -0.006 C 
ATOM     18  C   UNL     1       9.124  -4.950  47.894  1.00  0.00     0.008 C 
ATOM     19  C   UNL     1       9.994  -2.993  49.189  1.00  0.00     0.008 C 
ENDBRANCH  12  17
ENDBRANCH  11  12
ENDBRANCH   1  11
TORSDOF 1
ENDMDL
MODEL 3
REMARK VINA RESULT:    -3.878      9.852     11.608
REMARK INTER + INTRA:          -5.454
REMARK INTER:                  -5.284
REMARK INTRA:                  -0.170
REMARK UNBOUND:                 0.465
REMARK SMILES CC1=CCC[C@@H](C)C(=O)C[C@H](C(C)C)C(=O)C1
REMARK SMILES IDX 8 1 9 2 6 3 7 4 5 5 4 6 3 7 2 8 1 9 10 11 11 12 15 13 16 14
REMARK SMILES IDX 17 15 12 17 13 18 14 19
REMARK H PARENT
REMARK Flexibility Score: 70.00
ROOT
ATOM      1  C   UNL     1      10.583   3.538  54.872  1.00  0.00     0.136 C 
ATOM      2  O   UNL     1       9.968   3.088  55.829  1.00  0.00    -0.299 OA
ENDROOT
BRANCH   1   3
ATOM      3  C   UNL     1      11.951   4.155  55.077  1.00  0.00     0.053 C 
ATOM      4  C   UNL     1      12.815   3.206  55.912  1.00  0.00     0.016 C 
BRANCH   3   5
ATOM      5  C   UNL     1      11.863   5.540  55.760  1.00  0.00     0.015 C 
BRANCH   5   6
ATOM      6  C   UNL     1      12.031   6.712  54.781  1.00  0.00     0.028 C 
BRANCH   6   7
ATOM      7  C   UNL     1      12.558   6.241  53.447  1.00  0.00    -0.028 C 
ATOM      8  C   UNL     1      11.857   6.195  52.292  1.00  0.00    -0.070 CG0
ATOM      9  C   UNL     1      12.560   5.685  51.058  1.00  0.00     0.039 C 
ATOM     10  G   UNL     1      10.397   6.592  52.184  1.00  0.00     0.000 G0
ENDBRANCH   6   7
ENDBRANCH   5   6
ENDBRANCH   3   5
ENDBRANCH   1   3
BRANCH   1  11
ATOM     11  C   UNL     1       9.976   3.431  53.498  1.00  0.00     0.087 C 
BRANCH  11  12
ATOM     12  C   UNL     1       8.993   4.594  53.208  1.00  0.00     0.066 C 
BRANCH  12  13
ATOM     13  C   UNL     1       9.494   5.382  52.007  1.00  0.00     0.140 C 
ATOM     14  O   UNL     1       9.110   5.076  50.885  1.00  0.00    -0.299 OA
BRANCH  13  15
ATOM     15  C   UNL     1      10.378   6.592  52.171  1.00  0.00     0.106 CG0
ATOM     16  G   UNL     1      11.836   6.191  52.282  1.00  0.00     0.000 G0
ENDBRANCH  13  15
ENDBRANCH  12  13
BRANCH  12  17
ATOM     17  C   UNL     1       7.532   4.092  52.959  1.00  0.00    -0.006 C 
ATOM     18  C   UNL     1       6.500   5.207  53.221  1.00  0.00     0.008 C 
ATOM     19  C   UNL     1       7.176   2.878  53.841  1.00  0.00     0.008 C 
ENDBRANCH  12  17
ENDBRANCH  11  12
ENDBRANCH   1  11
TORSDOF 1
ENDMDL
MODEL 4
REMARK VINA RESULT:    -3.876      9.510     11.008
REMARK INTER + INTRA:          -5.450
REMARK INTER:                  -5.136
REMARK INTRA:                  -0.314
REMARK UNBOUND:                 0.465
REMARK SMILES CC1=CCC[C@@H](C)C(=O)C[C@H](C(C)C)C(=O)C1
REMARK SMILES IDX 8 1 9 2 6 3 7 4 5 5 4 6 3 7 2 8 1 9 10 11 11 12 15 13 16 14
REMARK SMILES IDX 17 15 12 17 13 18 14 19
REMARK H PARENT
REMARK Flexibility Score: 70.00
ROOT
ATOM      1  C   UNL     1       9.542   5.611  50.843  1.00  0.00     0.136 C 
ATOM      2  O   UNL     1       8.865   5.129  49.946  1.00  0.00    -0.299 OA
ENDROOT
BRANCH   1   3
ATOM      3  C   UNL     1      10.936   6.124  50.544  1.00  0.00     0.053 C 
ATOM      4  C   UNL     1      10.845   7.293  49.559  1.00  0.00     0.016 C 
BRANCH   3   5
ATOM      5  C   UNL     1      11.849   5.014  49.975  1.00  0.00     0.015 C 
BRANCH   5   6
ATOM      6  C   UNL     1      12.072   3.851  50.952  1.00  0.00     0.028 C 
BRANCH   6   7
ATOM      7  C   UNL     1      12.869   4.290  52.157  1.00  0.00    -0.028 C 
ATOM      8  C   UNL     1      12.523   4.093  53.449  1.00  0.00    -0.070 CG0
ATOM      9  C   UNL     1      13.452   4.615  54.517  1.00  0.00     0.039 C 
ATOM     10  G   UNL     1      11.237   3.411  53.874  1.00  0.00     0.000 G0
ENDBRANCH   6   7
ENDBRANCH   5   6
ENDBRANCH   3   5
ENDBRANCH   1   3
BRANCH   1  11
ATOM     11  C   UNL     1       8.953   5.720  52.225  1.00  0.00     0.087 C 
BRANCH  11  12
ATOM     12  C   UNL     1       8.955   4.356  52.963  1.00  0.00     0.066 C 
BRANCH  12  13
ATOM     13  C   UNL     1      10.073   4.349  53.995  1.00  0.00     0.140 C 
ATOM     14  O   UNL     1       9.991   5.080  54.973  1.00  0.00    -0.299 OA
BRANCH  13  15
ATOM     15  C   UNL     1      11.235   3.395  53.892  1.00  0.00     0.106 CG0
ATOM     16  G   UNL     1      12.497   4.117  53.460  1.00  0.00     0.000 G0
ENDBRANCH  13  15
ENDBRANCH  12  13
BRANCH  12  17
ATOM     17  C   UNL     1       7.582   4.046  53.645  1.00  0.00    -0.006 C 
ATOM     18  C   UNL     1       7.442   2.546  53.977  1.00  0.00     0.008 C 
ATOM     19  C   UNL     1       6.387   4.466  52.766  1.00  0.00     0.008 C 
ENDBRANCH  12  17
ENDBRANCH  11  12
ENDBRANCH   1  11
TORSDOF 1
ENDMDL
MODEL 5
REMARK VINA RESULT:    -3.851      8.910     11.114
REMARK INTER + INTRA:          -5.412
REMARK INTER:                  -5.170
REMARK INTRA:                  -0.241
REMARK UNBOUND:                 0.465
REMARK SMILES CC1=CCC[C@@H](C)C(=O)C[C@H](C(C)C)C(=O)C1
REMARK SMILES IDX 8 1 9 2 6 3 7 4 5 5 4 6 3 7 2 8 1 9 10 11 11 12 15 13 16 14
REMARK SMILES IDX 17 15 12 17 13 18 14 19
REMARK H PARENT
REMARK Flexibility Score: 70.00
ROOT
ATOM      1  C   UNL     1      10.908   4.920  52.509  1.00  0.00     0.136 C 
ATOM      2  O   UNL     1      11.510   5.932  52.180  1.00  0.00    -0.299 OA
ENDROOT
BRANCH   1   3
ATOM      3  C   UNL     1       9.533   4.641  51.937  1.00  0.00     0.053 C 
ATOM      4  C   UNL     1       9.530   4.969  50.441  1.00  0.00     0.016 C 
BRANCH   3   5
ATOM      5  C   UNL     1       8.432   5.447  52.664  1.00  0.00     0.015 C 
BRANCH   5   6
ATOM      6  C   UNL     1       7.782   4.678  53.824  1.00  0.00     0.028 C 
BRANCH   6   7
ATOM      7  C   UNL     1       7.832   3.187  53.591  1.00  0.00    -0.028 C 
ATOM      8  C   UNL     1       8.394   2.276  54.417  1.00  0.00    -0.070 CG0
ATOM      9  C   UNL     1       8.350   0.826  54.004  1.00  0.00     0.039 C 
ATOM     10  G   UNL     1       9.096   2.643  55.710  1.00  0.00     0.000 G0
ENDBRANCH   6   7
ENDBRANCH   5   6
ENDBRANCH   3   5
ENDBRANCH   1   3
BRANCH   1  11
ATOM     11  C   UNL     1      11.571   3.949  53.449  1.00  0.00     0.087 C 
BRANCH  11  12
ATOM     12  C   UNL     1      11.122   4.168  54.917  1.00  0.00     0.066 C 
BRANCH  12  13
ATOM     13  C   UNL     1      10.593   2.856  55.478  1.00  0.00     0.140 C 
ATOM     14  O   UNL     1      11.384   1.985  55.816  1.00  0.00    -0.299 OA
BRANCH  13  15
ATOM     15  C   UNL     1       9.121   2.638  55.717  1.00  0.00     0.106 CG0
ATOM     16  G   UNL     1       8.408   2.270  54.430  1.00  0.00     0.000 G0
ENDBRANCH  13  15
ENDBRANCH  12  13
BRANCH  12  17
ATOM     17  C   UNL     1      12.276   4.719  55.818  1.00  0.00    -0.006 C 
ATOM     18  C   UNL     1      12.160   6.244  56.015  1.00  0.00     0.008 C 
ATOM     19  C   UNL     1      13.669   4.406  55.235  1.00  0.00     0.008 C 
ENDBRANCH  12  17
ENDBRANCH  11  12
ENDBRANCH   1  11
TORSDOF 1
ENDMDL
MODEL 6
REMARK VINA RESULT:    -3.833      1.735      3.679
REMARK INTER + INTRA:          -5.386
REMARK INTER:                  -5.969
REMARK INTRA:                   0.583
REMARK UNBOUND:                 0.465
REMARK SMILES CC1=CCC[C@@H](C)C(=O)C[C@H](C(C)C)C(=O)C1
REMARK SMILES IDX 8 1 9 2 6 3 7 4 5 5 4 6 3 7 2 8 1 9 10 11 11 12 15 13 16 14
REMARK SMILES IDX 17 15 12 17 13 18 14 19
REMARK H PARENT
REMARK Flexibility Score: 70.00
ROOT
ATOM      1  C   UNL     1       5.946  -2.283  46.650  1.00  0.00     0.136 C 
ATOM      2  O   UNL     1       6.213  -2.478  45.472  1.00  0.00    -0.299 OA
ENDROOT
BRANCH   1   3
ATOM      3  C   UNL     1       6.627  -1.157  47.401  1.00  0.00     0.053 C 
ATOM      4  C   UNL     1       6.327   0.173  46.702  1.00  0.00     0.016 C 
BRANCH   3   5
ATOM      5  C   UNL     1       8.155  -1.374  47.505  1.00  0.00     0.015 C 
BRANCH   5   6
ATOM      6  C   UNL     1       8.558  -2.316  48.649  1.00  0.00     0.028 C 
BRANCH   6   7
ATOM      7  C   UNL     1       8.930  -3.684  48.130  1.00  0.00    -0.028 C 
ATOM      8  C   UNL     1       8.395  -4.857  48.535  1.00  0.00    -0.070 CG0
ATOM      9  C   UNL     1       8.907  -6.125  47.899  1.00  0.00     0.039 C 
ATOM     10  G   UNL     1       7.339  -4.962  49.619  1.00  0.00     0.000 G0
ENDBRANCH   6   7
ENDBRANCH   5   6
ENDBRANCH   3   5
ENDBRANCH   1   3
BRANCH   1  11
ATOM     11  C   UNL     1       4.911  -3.148  47.318  1.00  0.00     0.087 C 
BRANCH  11  12
ATOM     12  C   UNL     1       5.504  -4.504  47.784  1.00  0.00     0.066 C 
BRANCH  12  13
ATOM     13  C   UNL     1       6.019  -4.359  49.208  1.00  0.00     0.140 C 
ATOM     14  O   UNL     1       5.320  -3.805  50.046  1.00  0.00    -0.299 OA
BRANCH  13  15
ATOM     15  C   UNL     1       7.331  -4.965  49.637  1.00  0.00     0.106 CG0
ATOM     16  G   UNL     1       8.367  -4.859  48.534  1.00  0.00     0.000 G0
ENDBRANCH  13  15
ENDBRANCH  12  13
BRANCH  12  17
ATOM     17  C   UNL     1       4.465  -5.670  47.696  1.00  0.00    -0.006 C 
ATOM     18  C   UNL     1       3.973  -5.880  46.250  1.00  0.00     0.008 C 
ATOM     19  C   UNL     1       3.239  -5.427  48.600  1.00  0.00     0.008 C 
ENDBRANCH  12  17
ENDBRANCH  11  12
ENDBRANCH   1  11
TORSDOF 1
ENDMDL
MODEL 7
REMARK VINA RESULT:    -3.790      9.048     10.675
REMARK INTER + INTRA:          -5.320
REMARK INTER:                  -5.247
REMARK INTRA:                  -0.072
REMARK UNBOUND:                 0.465
REMARK SMILES CC1=CCC[C@@H](C)C(=O)C[C@H](C(C)C)C(=O)C1
REMARK SMILES IDX 8 1 9 2 6 3 7 4 5 5 4 6 3 7 2 8 1 9 10 11 11 12 15 13 16 14
REMARK SMILES IDX 17 15 12 17 13 18 14 19
REMARK H PARENT
REMARK Flexibility Score: 70.00
ROOT
ATOM      1  C   UNL     1       7.304   4.066  53.276  1.00  0.00     0.136 C 
ATOM      2  O   UNL     1       6.650   5.058  53.564  1.00  0.00    -0.299 OA
ENDROOT
BRANCH   1   3
ATOM      3  C   UNL     1       6.856   2.701  53.758  1.00  0.00     0.053 C 
ATOM      4  C   UNL     1       5.360   2.530  53.479  1.00  0.00     0.016 C 
BRANCH   3   5
ATOM      5  C   UNL     1       7.147   2.497  55.263  1.00  0.00     0.015 C 
BRANCH   5   6
ATOM      6  C   UNL     1       8.178   1.392  55.538  1.00  0.00     0.028 C 
BRANCH   6   7
ATOM      7  C   UNL     1       9.471   1.966  56.066  1.00  0.00    -0.028 C 
ATOM      8  C   UNL     1      10.551   2.295  55.323  1.00  0.00    -0.070 CG0
ATOM      9  C   UNL     1      11.758   2.851  56.038  1.00  0.00     0.039 C 
ATOM     10  G   UNL     1      10.624   2.097  53.821  1.00  0.00     0.000 G0
ENDBRANCH   6   7
ENDBRANCH   5   6
ENDBRANCH   3   5
ENDBRANCH   1   3
BRANCH   1  11
ATOM     11  C   UNL     1       8.525   4.222  52.409  1.00  0.00     0.087 C 
BRANCH  11  12
ATOM     12  C   UNL     1       9.793   4.532  53.246  1.00  0.00     0.066 C 
BRANCH  12  13
ATOM     13  C   UNL     1      10.793   3.398  53.075  1.00  0.00     0.140 C 
ATOM     14  O   UNL     1      11.796   3.581  52.398  1.00  0.00    -0.299 OA
BRANCH  13  15
ATOM     15  C   UNL     1      10.627   2.085  53.796  1.00  0.00     0.106 CG0
ATOM     16  G   UNL     1      10.549   2.294  55.297  1.00  0.00     0.000 G0
ENDBRANCH  13  15
ENDBRANCH  12  13
BRANCH  12  17
ATOM     17  C   UNL     1      10.446   5.899  52.856  1.00  0.00    -0.006 C 
ATOM     18  C   UNL     1      11.332   6.447  53.992  1.00  0.00     0.008 C 
ATOM     19  C   UNL     1       9.392   6.966  52.498  1.00  0.00     0.008 C 
ENDBRANCH  12  17
ENDBRANCH  11  12
ENDBRANCH   1  11
TORSDOF 1
ENDMDL
MODEL 8
REMARK VINA RESULT:    -3.748      9.281     11.036
REMARK INTER + INTRA:          -5.255
REMARK INTER:                  -5.065
REMARK INTRA:                  -0.191
REMARK UNBOUND:                 0.465
REMARK SMILES CC1=CCC[C@@H](C)C(=O)C[C@H](C(C)C)C(=O)C1
REMARK SMILES IDX 8 1 9 2 6 3 7 4 5 5 4 6 3 7 2 8 1 9 10 11 11 12 15 13 16 14
REMARK SMILES IDX 17 15 12 17 13 18 14 19
REMARK H PARENT
REMARK Flexibility Score: 70.00
ROOT
ATOM      1  C   UNL     1       8.937   5.852  53.091  1.00  0.00     0.136 C 
ATOM      2  O   UNL     1       7.772   6.222  53.107  1.00  0.00    -0.299 OA
ENDROOT
BRANCH   1   3
ATOM      3  C   UNL     1       9.848   6.275  51.956  1.00  0.00     0.053 C 
ATOM      4  C   UNL     1       9.660   7.771  51.687  1.00  0.00     0.016 C 
BRANCH   3   5
ATOM      5  C   UNL     1       9.581   5.461  50.668  1.00  0.00     0.015 C 
BRANCH   5   6
ATOM      6  C   UNL     1      10.643   4.385  50.400  1.00  0.00     0.028 C 
BRANCH   6   7
ATOM      7  C   UNL     1      11.973   4.761  51.007  1.00  0.00    -0.028 C 
ATOM      8  C   UNL     1      12.599   4.105  52.010  1.00  0.00    -0.070 CG0
ATOM      9  C   UNL     1      13.925   4.643  52.487  1.00  0.00     0.039 C 
ATOM     10  G   UNL     1      12.018   2.886  52.701  1.00  0.00     0.000 G0
ENDBRANCH   6   7
ENDBRANCH   5   6
ENDBRANCH   3   5
ENDBRANCH   1   3
BRANCH   1  11
ATOM     11  C   UNL     1       9.453   5.011  54.229  1.00  0.00     0.087 C 
BRANCH  11  12
ATOM     12  C   UNL     1       9.714   3.546  53.793  1.00  0.00     0.066 C 
BRANCH  12  13
ATOM     13  C   UNL     1      11.201   3.247  53.918  1.00  0.00     0.140 C 
ATOM     14  O   UNL     1      11.722   3.245  55.025  1.00  0.00    -0.299 OA
BRANCH  13  15
ATOM     15  C   UNL     1      12.030   2.859  52.720  1.00  0.00     0.106 CG0
ATOM     16  G   UNL     1      12.571   4.085  52.011  1.00  0.00     0.000 G0
ENDBRANCH  13  15
ENDBRANCH  12  13
BRANCH  12  17
ATOM     17  C   UNL     1       8.880   2.518  54.627  1.00  0.00    -0.006 C 
ATOM     18  C   UNL     1       9.342   1.071  54.363  1.00  0.00     0.008 C 
ATOM     19  C   UNL     1       7.371   2.613  54.326  1.00  0.00     0.008 C 
ENDBRANCH  12  17
ENDBRANCH  11  12
ENDBRANCH   1  11
TORSDOF 1
ENDMDL
MODEL 9
REMARK VINA RESULT:    -3.470     10.015     11.984
REMARK INTER + INTRA:          -4.830
REMARK INTER:                  -4.683
REMARK INTRA:                  -0.148
REMARK UNBOUND:                 0.465
REMARK SMILES CC1=CCC[C@@H](C)C(=O)C[C@H](C(C)C)C(=O)C1
REMARK SMILES IDX 8 1 9 2 6 3 7 4 5 5 4 6 3 7 2 8 1 9 10 11 11 12 15 13 16 14
REMARK SMILES IDX 17 15 12 17 13 18 14 19
REMARK H PARENT
REMARK Flexibility Score: 70.00
ROOT
ATOM      1  C   UNL     1       9.220   8.209  51.816  1.00  0.00     0.136 C 
ATOM      2  O   UNL     1       8.307   8.620  52.518  1.00  0.00    -0.299 OA
ENDROOT
BRANCH   1   3
ATOM      3  C   UNL     1       9.707   9.042  50.648  1.00  0.00     0.053 C 
ATOM      4  C   UNL     1      10.134  10.424  51.155  1.00  0.00     0.016 C 
BRANCH   3   5
ATOM      5  C   UNL     1       8.627   9.185  49.550  1.00  0.00     0.015 C 
BRANCH   5   6
ATOM      6  C   UNL     1       8.865   8.267  48.342  1.00  0.00     0.028 C 
BRANCH   6   7
ATOM      7  C   UNL     1      10.308   7.829  48.261  1.00  0.00    -0.028 C 
ATOM      8  C   UNL     1      10.772   6.583  48.504  1.00  0.00    -0.070 CG0
ATOM      9  C   UNL     1      12.256   6.343  48.377  1.00  0.00     0.039 C 
ATOM     10  G   UNL     1       9.884   5.431  48.934  1.00  0.00     0.000 G0
ENDBRANCH   6   7
ENDBRANCH   5   6
ENDBRANCH   3   5
ENDBRANCH   1   3
BRANCH   1  11
ATOM     11  C   UNL     1       9.868   6.893  52.156  1.00  0.00     0.087 C 
BRANCH  11  12
ATOM     12  C   UNL     1       9.160   5.703  51.459  1.00  0.00     0.066 C 
BRANCH  12  13
ATOM     13  C   UNL     1      10.088   5.119  50.404  1.00  0.00     0.140 C 
ATOM     14  O   UNL     1      10.955   4.322  50.742  1.00  0.00    -0.299 OA
BRANCH  13  15
ATOM     15  C   UNL     1       9.907   5.423  48.939  1.00  0.00     0.106 CG0
ATOM     16  G   UNL     1      10.781   6.587  48.512  1.00  0.00     0.000 G0
ENDBRANCH  13  15
ENDBRANCH  12  13
BRANCH  12  17
ATOM     17  C   UNL     1       8.721   4.595  52.472  1.00  0.00    -0.006 C 
ATOM     18  C   UNL     1       7.203   4.642  52.738  1.00  0.00     0.008 C 
ATOM     19  C   UNL     1       9.458   4.714  53.821  1.00  0.00     0.008 C 
ENDBRANCH  12  17
ENDBRANCH  11  12
ENDBRANCH   1  11
TORSDOF 1
ENDMDL
