MODEL 1
REMARK VINA RESULT:    -1.289      0.000      0.000
REMARK INTER + INTRA:          -2.782
REMARK INTER:                  -2.946
REMARK INTRA:                   0.164
REMARK UNBOUND:                 0.164
REMARK SMILES CCCCCCCCCCCCCCCCCCCCCCCC(=O)[O-]
REMARK SMILES IDX 13 1 14 2 15 3 16 4 17 5 18 6 19 7 20 8 21 9 22 10 23 11
REMARK SMILES IDX 24 12 25 13 26 14 12 15 11 16 10 17 9 18 8 19 7 20 6 21 5 22
REMARK SMILES IDX 4 23 3 24 2 25 1 26
REMARK H PARENT
REMARK Flexibility Score: inf
ROOT
ATOM      1  C   UNL     1      26.015  24.042  -0.866  1.00  0.00     0.000 C 
ENDROOT
BRANCH   1   2
ATOM      2  C   UNL     1      26.921  23.533  -2.005  1.00  0.00     0.000 C 
BRANCH   2   3
ATOM      3  C   UNL     1      28.391  23.981  -1.915  1.00  0.00     0.000 C 
BRANCH   3   4
ATOM      4  C   UNL     1      29.025  24.414  -3.252  1.00  0.00     0.000 C 
BRANCH   4   5
ATOM      5  C   UNL     1      29.034  23.307  -4.328  1.00  0.00     0.000 C 
BRANCH   5   6
ATOM      6  C   UNL     1      28.089  22.143  -3.979  1.00  0.00     0.000 C 
BRANCH   6   7
ATOM      7  C   UNL     1      28.700  20.768  -4.288  1.00  0.00     0.000 C 
BRANCH   7   8
ATOM      8  C   UNL     1      29.115  20.005  -3.020  1.00  0.00     0.000 C 
BRANCH   8   9
ATOM      9  C   UNL     1      27.931  19.215  -2.443  1.00  0.00     0.000 C 
BRANCH   9  10
ATOM     10  C   UNL     1      28.361  17.899  -1.776  1.00  0.00     0.006 C 
BRANCH  10  11
ATOM     11  C   UNL     1      29.061  18.120  -0.430  1.00  0.00     0.053 C 
BRANCH  11  12
ATOM     12  C   UNL     1      28.428  17.276   0.632  1.00  0.00     0.041 C 
ATOM     13  O   UNL     1      29.076  16.964   1.666  1.00  0.00    -0.550 OA
ATOM     14  O   UNL     1      27.104  16.875   0.503  1.00  0.00    -0.550 OA
ENDBRANCH  11  12
ENDBRANCH  10  11
ENDBRANCH   9  10
ENDBRANCH   8   9
ENDBRANCH   7   8
ENDBRANCH   6   7
ENDBRANCH   5   6
ENDBRANCH   4   5
ENDBRANCH   3   4
ENDBRANCH   2   3
ENDBRANCH   1   2
BRANCH   1  15
ATOM     15  C   UNL     1      26.614  25.223  -0.073  1.00  0.00     0.000 C 
BRANCH  15  16
ATOM     16  C   UNL     1      27.565  24.756   1.044  1.00  0.00     0.000 C 
BRANCH  16  17
ATOM     17  C   UNL     1      27.339  25.506   2.367  1.00  0.00     0.000 C 
BRANCH  17  18
ATOM     18  C   UNL     1      28.654  25.802   3.111  1.00  0.00    -0.000 C 
BRANCH  18  19
ATOM     19  C   UNL     1      28.857  27.310   3.376  1.00  0.00    -0.000 C 
BRANCH  19  20
ATOM     20  C   UNL     1      28.724  27.701   4.862  1.00  0.00    -0.000 C 
BRANCH  20  21
ATOM     21  C   UNL     1      28.861  29.208   5.153  1.00  0.00    -0.000 C 
BRANCH  21  22
ATOM     22  C   UNL     1      28.182  29.683   6.452  1.00  0.00    -0.000 C 
BRANCH  22  23
ATOM     23  C   UNL     1      29.125  30.486   7.359  1.00  0.00    -0.000 C 
BRANCH  23  24
ATOM     24  C   UNL     1      28.743  31.972   7.370  1.00  0.00    -0.000 C 
BRANCH  24  25
ATOM     25  C   UNL     1      28.699  32.518   8.802  1.00  0.00    -0.003 C 
ATOM     26  C   UNL     1      28.688  34.044   8.809  1.00  0.00     0.004 C 
ENDBRANCH  24  25
ENDBRANCH  23  24
ENDBRANCH  22  23
ENDBRANCH  21  22
ENDBRANCH  20  21
ENDBRANCH  19  20
ENDBRANCH  18  19
ENDBRANCH  17  18
ENDBRANCH  16  17
ENDBRANCH  15  16
ENDBRANCH   1  15
TORSDOF 22
ENDMDL
MODEL 2
REMARK VINA RESULT:    -0.855      5.421      7.248
REMARK INTER + INTRA:          -1.790
REMARK INTER:                  -0.838
REMARK INTRA:                  -0.953
REMARK UNBOUND:                 0.164
REMARK SMILES CCCCCCCCCCCCCCCCCCCCCCCC(=O)[O-]
REMARK SMILES IDX 13 1 14 2 15 3 16 4 17 5 18 6 19 7 20 8 21 9 22 10 23 11
REMARK SMILES IDX 24 12 25 13 26 14 12 15 11 16 10 17 9 18 8 19 7 20 6 21 5 22
REMARK SMILES IDX 4 23 3 24 2 25 1 26
REMARK H PARENT
REMARK Flexibility Score: inf
ROOT
ATOM      1  C   UNL     1      26.719  24.222  -1.891  1.00  0.00     0.000 C 
ENDROOT
BRANCH   1   2
ATOM      2  C   UNL     1      27.602  22.960  -1.945  1.00  0.00     0.000 C 
BRANCH   2   3
ATOM      3  C   UNL     1      28.595  22.913  -3.121  1.00  0.00     0.000 C 
BRANCH   3   4
ATOM      4  C   UNL     1      28.303  21.832  -4.181  1.00  0.00     0.000 C 
BRANCH   4   5
ATOM      5  C   UNL     1      29.074  22.030  -5.505  1.00  0.00     0.000 C 
BRANCH   5   6
ATOM      6  C   UNL     1      29.044  23.491  -5.989  1.00  0.00     0.000 C 
BRANCH   6   7
ATOM      7  C   UNL     1      29.125  23.615  -7.517  1.00  0.00     0.000 C 
BRANCH   7   8
ATOM      8  C   UNL     1      28.074  24.578  -8.092  1.00  0.00     0.000 C 
BRANCH   8   9
ATOM      9  C   UNL     1      28.616  25.303  -9.332  1.00  0.00     0.000 C 
BRANCH   9  10
ATOM     10  C   UNL     1      29.038  26.751  -9.037  1.00  0.00     0.006 C 
BRANCH  10  11
ATOM     11  C   UNL     1      27.841  27.680  -8.799  1.00  0.00     0.053 C 
BRANCH  11  12
ATOM     12  C   UNL     1      27.936  28.889  -9.677  1.00  0.00     0.041 C 
ATOM     13  O   UNL     1      27.029  29.763  -9.654  1.00  0.00    -0.550 OA
ATOM     14  O   UNL     1      29.050  29.075 -10.485  1.00  0.00    -0.550 OA
ENDBRANCH  11  12
ENDBRANCH  10  11
ENDBRANCH   9  10
ENDBRANCH   8   9
ENDBRANCH   7   8
ENDBRANCH   6   7
ENDBRANCH   5   6
ENDBRANCH   4   5
ENDBRANCH   3   4
ENDBRANCH   2   3
ENDBRANCH   1   2
BRANCH   1  15
ATOM     15  C   UNL     1      27.417  25.446  -1.261  1.00  0.00     0.000 C 
BRANCH  15  16
ATOM     16  C   UNL     1      28.470  25.043  -0.213  1.00  0.00     0.000 C 
BRANCH  16  17
ATOM     17  C   UNL     1      27.842  24.469   1.068  1.00  0.00     0.000 C 
BRANCH  17  18
ATOM     18  C   UNL     1      27.229  25.558   1.966  1.00  0.00    -0.000 C 
BRANCH  18  19
ATOM     19  C   UNL     1      28.129  25.909   3.170  1.00  0.00    -0.000 C 
BRANCH  19  20
ATOM     20  C   UNL     1      29.124  27.053   2.889  1.00  0.00    -0.000 C 
BRANCH  20  21
ATOM     21  C   UNL     1      28.768  28.402   3.543  1.00  0.00    -0.000 C 
BRANCH  21  22
ATOM     22  C   UNL     1      29.118  28.512   5.039  1.00  0.00    -0.000 C 
BRANCH  22  23
ATOM     23  C   UNL     1      28.353  29.637   5.750  1.00  0.00    -0.000 C 
BRANCH  23  24
ATOM     24  C   UNL     1      28.856  29.819   7.188  1.00  0.00    -0.000 C 
BRANCH  24  25
ATOM     25  C   UNL     1      28.112  28.889   8.153  1.00  0.00    -0.003 C 
ATOM     26  C   UNL     1      29.061  27.868   8.776  1.00  0.00     0.004 C 
ENDBRANCH  24  25
ENDBRANCH  23  24
ENDBRANCH  22  23
ENDBRANCH  21  22
ENDBRANCH  20  21
ENDBRANCH  19  20
ENDBRANCH  18  19
ENDBRANCH  17  18
ENDBRANCH  16  17
ENDBRANCH  15  16
ENDBRANCH   1  15
TORSDOF 22
ENDMDL
MODEL 3
REMARK VINA RESULT:    -0.720      5.724     12.451
REMARK INTER + INTRA:          -1.481
REMARK INTER:                  -0.888
REMARK INTRA:                  -0.593
REMARK UNBOUND:                 0.164
REMARK SMILES CCCCCCCCCCCCCCCCCCCCCCCC(=O)[O-]
REMARK SMILES IDX 13 1 14 2 15 3 16 4 17 5 18 6 19 7 20 8 21 9 22 10 23 11
REMARK SMILES IDX 24 12 25 13 26 14 12 15 11 16 10 17 9 18 8 19 7 20 6 21 5 22
REMARK SMILES IDX 4 23 3 24 2 25 1 26
REMARK H PARENT
REMARK Flexibility Score: inf
ROOT
ATOM      1  C   UNL     1      27.836  23.802  -2.413  1.00  0.00     0.000 C 
ENDROOT
BRANCH   1   2
ATOM      2  C   UNL     1      28.298  24.364  -1.053  1.00  0.00     0.000 C 
BRANCH   2   3
ATOM      3  C   UNL     1      27.571  25.643  -0.599  1.00  0.00     0.000 C 
BRANCH   3   4
ATOM      4  C   UNL     1      27.483  25.838   0.928  1.00  0.00     0.000 C 
BRANCH   4   5
ATOM      5  C   UNL     1      28.217  24.750   1.742  1.00  0.00     0.000 C 
BRANCH   5   6
ATOM      6  C   UNL     1      28.966  25.330   2.955  1.00  0.00     0.000 C 
BRANCH   6   7
ATOM      7  C   UNL     1      29.125  26.856   2.883  1.00  0.00     0.000 C 
BRANCH   7   8
ATOM      8  C   UNL     1      28.915  27.539   4.243  1.00  0.00     0.000 C 
BRANCH   8   9
ATOM      9  C   UNL     1      29.120  29.057   4.132  1.00  0.00     0.000 C 
BRANCH   9  10
ATOM     10  C   UNL     1      28.112  29.856   4.972  1.00  0.00     0.006 C 
BRANCH  10  11
ATOM     11  C   UNL     1      28.789  30.742   6.025  1.00  0.00     0.053 C 
BRANCH  11  12
ATOM     12  C   UNL     1      28.890  30.017   7.331  1.00  0.00     0.041 C 
ATOM     13  O   UNL     1      29.023  30.660   8.406  1.00  0.00    -0.550 OA
ATOM     14  O   UNL     1      28.786  28.632   7.366  1.00  0.00    -0.550 OA
ENDBRANCH  11  12
ENDBRANCH  10  11
ENDBRANCH   9  10
ENDBRANCH   8   9
ENDBRANCH   7   8
ENDBRANCH   6   7
ENDBRANCH   5   6
ENDBRANCH   4   5
ENDBRANCH   3   4
ENDBRANCH   2   3
ENDBRANCH   1   2
BRANCH   1  15
ATOM     15  C   UNL     1      28.995  23.405  -3.351  1.00  0.00     0.000 C 
BRANCH  15  16
ATOM     16  C   UNL     1      28.495  22.866  -4.704  1.00  0.00     0.000 C 
BRANCH  16  17
ATOM     17  C   UNL     1      29.125  23.595  -5.902  1.00  0.00     0.000 C 
BRANCH  17  18
ATOM     18  C   UNL     1      28.336  23.381  -7.206  1.00  0.00    -0.000 C 
BRANCH  18  19
ATOM     19  C   UNL     1      29.040  24.000  -8.432  1.00  0.00    -0.000 C 
BRANCH  19  20
ATOM     20  C   UNL     1      28.331  25.251  -8.989  1.00  0.00    -0.000 C 
BRANCH  20  21
ATOM     21  C   UNL     1      29.017  25.903 -10.205  1.00  0.00    -0.000 C 
BRANCH  21  22
ATOM     22  C   UNL     1      29.112  27.439 -10.151  1.00  0.00    -0.000 C 
BRANCH  22  23
ATOM     23  C   UNL     1      28.139  28.132 -11.115  1.00  0.00    -0.000 C 
BRANCH  23  24
ATOM     24  C   UNL     1      26.697  28.036 -10.602  1.00  0.00    -0.000 C 
BRANCH  24  25
ATOM     25  C   UNL     1      26.254  29.353  -9.954  1.00  0.00    -0.003 C 
ATOM     26  C   UNL     1      27.449  30.262  -9.681  1.00  0.00     0.004 C 
ENDBRANCH  24  25
ENDBRANCH  23  24
ENDBRANCH  22  23
ENDBRANCH  21  22
ENDBRANCH  20  21
ENDBRANCH  19  20
ENDBRANCH  18  19
ENDBRANCH  17  18
ENDBRANCH  16  17
ENDBRANCH  15  16
ENDBRANCH   1  15
TORSDOF 22
ENDMDL
MODEL 4
REMARK VINA RESULT:    -0.403      5.419     11.880
REMARK INTER + INTRA:          -0.758
REMARK INTER:                  -0.520
REMARK INTRA:                  -0.238
REMARK UNBOUND:                 0.164
REMARK SMILES CCCCCCCCCCCCCCCCCCCCCCCC(=O)[O-]
REMARK SMILES IDX 13 1 14 2 15 3 16 4 17 5 18 6 19 7 20 8 21 9 22 10 23 11
REMARK SMILES IDX 24 12 25 13 26 14 12 15 11 16 10 17 9 18 8 19 7 20 6 21 5 22
REMARK SMILES IDX 4 23 3 24 2 25 1 26
REMARK H PARENT
REMARK Flexibility Score: inf
ROOT
ATOM      1  C   UNL     1      26.943  23.416  -2.457  1.00  0.00     0.000 C 
ENDROOT
BRANCH   1   2
ATOM      2  C   UNL     1      26.824  24.800  -1.790  1.00  0.00     0.000 C 
BRANCH   2   3
ATOM      3  C   UNL     1      26.532  24.770  -0.279  1.00  0.00     0.000 C 
BRANCH   3   4
ATOM      4  C   UNL     1      27.773  24.885   0.630  1.00  0.00     0.000 C 
BRANCH   4   5
ATOM      5  C   UNL     1      28.802  25.933   0.154  1.00  0.00     0.000 C 
BRANCH   5   6
ATOM      6  C   UNL     1      29.125  26.974   1.241  1.00  0.00     0.000 C 
BRANCH   6   7
ATOM      7  C   UNL     1      29.029  26.400   2.663  1.00  0.00     0.000 C 
BRANCH   7   8
ATOM      8  C   UNL     1      27.605  25.956   3.029  1.00  0.00     0.000 C 
BRANCH   8   9
ATOM      9  C   UNL     1      26.975  26.919   4.046  1.00  0.00     0.000 C 
BRANCH   9  10
ATOM     10  C   UNL     1      28.012  27.824   4.729  1.00  0.00     0.006 C 
BRANCH  10  11
ATOM     11  C   UNL     1      27.381  29.061   5.380  1.00  0.00     0.053 C 
BRANCH  11  12
ATOM     12  C   UNL     1      28.279  30.249   5.223  1.00  0.00     0.041 C 
ATOM     13  O   UNL     1      29.019  30.357   4.209  1.00  0.00    -0.550 OA
ATOM     14  O   UNL     1      28.263  31.262   6.174  1.00  0.00    -0.550 OA
ENDBRANCH  11  12
ENDBRANCH  10  11
ENDBRANCH   9  10
ENDBRANCH   8   9
ENDBRANCH   7   8
ENDBRANCH   6   7
ENDBRANCH   5   6
ENDBRANCH   4   5
ENDBRANCH   3   4
ENDBRANCH   2   3
ENDBRANCH   1   2
BRANCH   1  15
ATOM     15  C   UNL     1      28.207  23.248  -3.327  1.00  0.00     0.000 C 
BRANCH  15  16
ATOM     16  C   UNL     1      28.344  21.821  -3.890  1.00  0.00     0.000 C 
BRANCH  16  17
ATOM     17  C   UNL     1      29.025  21.792  -5.269  1.00  0.00     0.000 C 
BRANCH  17  18
ATOM     18  C   UNL     1      29.125  23.188  -5.909  1.00  0.00    -0.000 C 
BRANCH  18  19
ATOM     19  C   UNL     1      28.994  23.145  -7.447  1.00  0.00    -0.000 C 
BRANCH  19  20
ATOM     20  C   UNL     1      28.687  24.515  -8.082  1.00  0.00    -0.000 C 
BRANCH  20  21
ATOM     21  C   UNL     1      27.705  24.478  -9.269  1.00  0.00    -0.000 C 
BRANCH  21  22
ATOM     22  C   UNL     1      27.740  25.718 -10.182  1.00  0.00    -0.000 C 
BRANCH  22  23
ATOM     23  C   UNL     1      28.997  26.575  -9.976  1.00  0.00    -0.000 C 
BRANCH  23  24
ATOM     24  C   UNL     1      28.722  28.045 -10.316  1.00  0.00    -0.000 C 
BRANCH  24  25
ATOM     25  C   UNL     1      27.980  28.745  -9.172  1.00  0.00    -0.003 C 
ATOM     26  C   UNL     1      27.263  29.998  -9.665  1.00  0.00     0.004 C 
ENDBRANCH  24  25
ENDBRANCH  23  24
ENDBRANCH  22  23
ENDBRANCH  21  22
ENDBRANCH  20  21
ENDBRANCH  19  20
ENDBRANCH  18  19
ENDBRANCH  17  18
ENDBRANCH  16  17
ENDBRANCH  15  16
ENDBRANCH   1  15
TORSDOF 22
ENDMDL
MODEL 5
REMARK VINA RESULT:    -0.191      5.038      6.961
REMARK INTER + INTRA:          -0.272
REMARK INTER:                  -0.249
REMARK INTRA:                  -0.023
REMARK UNBOUND:                 0.164
REMARK SMILES CCCCCCCCCCCCCCCCCCCCCCCC(=O)[O-]
REMARK SMILES IDX 13 1 14 2 15 3 16 4 17 5 18 6 19 7 20 8 21 9 22 10 23 11
REMARK SMILES IDX 24 12 25 13 26 14 12 15 11 16 10 17 9 18 8 19 7 20 6 21 5 22
REMARK SMILES IDX 4 23 3 24 2 25 1 26
REMARK H PARENT
REMARK Flexibility Score: inf
ROOT
ATOM      1  C   UNL     1      26.778  23.481  -2.325  1.00  0.00     0.000 C 
ENDROOT
BRANCH   1   2
ATOM      2  C   UNL     1      28.137  22.789  -2.098  1.00  0.00     0.000 C 
BRANCH   2   3
ATOM      3  C   UNL     1      29.097  22.836  -3.300  1.00  0.00     0.000 C 
BRANCH   3   4
ATOM      4  C   UNL     1      28.767  21.850  -4.439  1.00  0.00     0.000 C 
BRANCH   4   5
ATOM      5  C   UNL     1      29.078  22.396  -5.850  1.00  0.00     0.000 C 
BRANCH   5   6
ATOM      6  C   UNL     1      28.945  23.927  -5.928  1.00  0.00     0.000 C 
BRANCH   6   7
ATOM      7  C   UNL     1      28.905  24.448  -7.372  1.00  0.00     0.000 C 
BRANCH   7   8
ATOM      8  C   UNL     1      28.694  23.328  -8.402  1.00  0.00     0.000 C 
BRANCH   8   9
ATOM      9  C   UNL     1      29.118  23.787  -9.805  1.00  0.00     0.000 C 
BRANCH   9  10
ATOM     10  C   UNL     1      28.078  24.701 -10.472  1.00  0.00     0.006 C 
BRANCH  10  11
ATOM     11  C   UNL     1      26.776  23.966 -10.814  1.00  0.00     0.053 C 
BRANCH  11  12
ATOM     12  C   UNL     1      25.632  24.929 -10.868  1.00  0.00     0.041 C 
ATOM     13  O   UNL     1      25.844  26.160 -11.032  1.00  0.00    -0.550 OA
ATOM     14  O   UNL     1      24.326  24.462 -10.788  1.00  0.00    -0.550 OA
ENDBRANCH  11  12
ENDBRANCH  10  11
ENDBRANCH   9  10
ENDBRANCH   8   9
ENDBRANCH   7   8
ENDBRANCH   6   7
ENDBRANCH   5   6
ENDBRANCH   4   5
ENDBRANCH   3   4
ENDBRANCH   2   3
ENDBRANCH   1   2
BRANCH   1  15
ATOM     15  C   UNL     1      26.716  24.927  -1.789  1.00  0.00     0.000 C 
BRANCH  15  16
ATOM     16  C   UNL     1      28.097  25.608  -1.783  1.00  0.00     0.000 C 
BRANCH  16  17
ATOM     17  C   UNL     1      29.056  24.996  -0.749  1.00  0.00     0.000 C 
BRANCH  17  18
ATOM     18  C   UNL     1      28.403  24.828   0.635  1.00  0.00    -0.000 C 
BRANCH  18  19
ATOM     19  C   UNL     1      29.022  25.761   1.698  1.00  0.00    -0.000 C 
BRANCH  19  20
ATOM     20  C   UNL     1      28.025  26.211   2.784  1.00  0.00    -0.000 C 
BRANCH  20  21
ATOM     21  C   UNL     1      28.642  26.459   4.174  1.00  0.00    -0.000 C 
BRANCH  21  22
ATOM     22  C   UNL     1      29.122  27.901   4.425  1.00  0.00    -0.000 C 
BRANCH  22  23
ATOM     23  C   UNL     1      28.012  28.943   4.229  1.00  0.00    -0.000 C 
BRANCH  23  24
ATOM     24  C   UNL     1      28.503  30.346   4.604  1.00  0.00    -0.000 C 
BRANCH  24  25
ATOM     25  C   UNL     1      29.023  31.095   3.372  1.00  0.00    -0.003 C 
ATOM     26  C   UNL     1      28.675  30.350   2.087  1.00  0.00     0.004 C 
ENDBRANCH  24  25
ENDBRANCH  23  24
ENDBRANCH  22  23
ENDBRANCH  21  22
ENDBRANCH  20  21
ENDBRANCH  19  20
ENDBRANCH  18  19
ENDBRANCH  17  18
ENDBRANCH  16  17
ENDBRANCH  15  16
ENDBRANCH   1  15
TORSDOF 22
ENDMDL
MODEL 6
REMARK VINA RESULT:    -0.035      4.803     12.287
REMARK INTER + INTRA:           0.085
REMARK INTER:                   0.645
REMARK INTRA:                  -0.560
REMARK UNBOUND:                 0.164
REMARK SMILES CCCCCCCCCCCCCCCCCCCCCCCC(=O)[O-]
REMARK SMILES IDX 13 1 14 2 15 3 16 4 17 5 18 6 19 7 20 8 21 9 22 10 23 11
REMARK SMILES IDX 24 12 25 13 26 14 12 15 11 16 10 17 9 18 8 19 7 20 6 21 5 22
REMARK SMILES IDX 4 23 3 24 2 25 1 26
REMARK H PARENT
REMARK Flexibility Score: inf
ROOT
ATOM      1  C   UNL     1      27.433  24.612  -1.988  1.00  0.00     0.000 C 
ENDROOT
BRANCH   1   2
ATOM      2  C   UNL     1      28.227  24.176  -0.740  1.00  0.00     0.000 C 
BRANCH   2   3
ATOM      3  C   UNL     1      28.558  25.311   0.247  1.00  0.00     0.000 C 
BRANCH   3   4
ATOM      4  C   UNL     1      28.791  24.863   1.704  1.00  0.00     0.000 C 
BRANCH   4   5
ATOM      5  C   UNL     1      28.020  25.701   2.747  1.00  0.00     0.000 C 
BRANCH   5   6
ATOM      6  C   UNL     1      28.955  26.362   3.776  1.00  0.00     0.000 C 
BRANCH   6   7
ATOM      7  C   UNL     1      29.095  27.877   3.567  1.00  0.00     0.000 C 
BRANCH   7   8
ATOM      8  C   UNL     1      27.766  28.627   3.747  1.00  0.00     0.000 C 
BRANCH   8   9
ATOM      9  C   UNL     1      27.603  29.111   5.195  1.00  0.00     0.000 C 
BRANCH   9  10
ATOM     10  C   UNL     1      28.921  29.606   5.810  1.00  0.00     0.006 C 
BRANCH  10  11
ATOM     11  C   UNL     1      28.772  30.019   7.279  1.00  0.00     0.053 C 
BRANCH  11  12
ATOM     12  C   UNL     1      28.405  28.836   8.119  1.00  0.00     0.041 C 
ATOM     13  O   UNL     1      29.112  27.793   8.092  1.00  0.00    -0.550 OA
ATOM     14  O   UNL     1      27.308  28.901   8.970  1.00  0.00    -0.550 OA
ENDBRANCH  11  12
ENDBRANCH  10  11
ENDBRANCH   9  10
ENDBRANCH   8   9
ENDBRANCH   7   8
ENDBRANCH   6   7
ENDBRANCH   5   6
ENDBRANCH   4   5
ENDBRANCH   3   4
ENDBRANCH   2   3
ENDBRANCH   1   2
BRANCH   1  15
ATOM     15  C   UNL     1      27.312  23.513  -3.065  1.00  0.00     0.000 C 
BRANCH  15  16
ATOM     16  C   UNL     1      28.203  22.295  -2.761  1.00  0.00     0.000 C 
BRANCH  16  17
ATOM     17  C   UNL     1      28.147  21.229  -3.868  1.00  0.00     0.000 C 
BRANCH  17  18
ATOM     18  C   UNL     1      28.894  21.660  -5.142  1.00  0.00    -0.000 C 
BRANCH  18  19
ATOM     19  C   UNL     1      29.125  23.185  -5.206  1.00  0.00    -0.000 C 
BRANCH  19  20
ATOM     20  C   UNL     1      29.073  23.762  -6.634  1.00  0.00    -0.000 C 
BRANCH  20  21
ATOM     21  C   UNL     1      28.837  22.724  -7.748  1.00  0.00    -0.000 C 
BRANCH  21  22
ATOM     22  C   UNL     1      28.705  23.310  -9.166  1.00  0.00    -0.000 C 
BRANCH  22  23
ATOM     23  C   UNL     1      27.945  24.644  -9.193  1.00  0.00    -0.000 C 
BRANCH  23  24
ATOM     24  C   UNL     1      28.692  25.685 -10.036  1.00  0.00    -0.000 C 
BRANCH  24  25
ATOM     25  C   UNL     1      27.736  26.409 -10.991  1.00  0.00    -0.003 C 
ATOM     26  C   UNL     1      26.953  27.498 -10.264  1.00  0.00     0.004 C 
ENDBRANCH  24  25
ENDBRANCH  23  24
ENDBRANCH  22  23
ENDBRANCH  21  22
ENDBRANCH  20  21
ENDBRANCH  19  20
ENDBRANCH  18  19
ENDBRANCH  17  18
ENDBRANCH  16  17
ENDBRANCH  15  16
ENDBRANCH   1  15
TORSDOF 22
ENDMDL
MODEL 7
REMARK VINA RESULT:    -0.026      5.736      7.793
REMARK INTER + INTRA:           0.104
REMARK INTER:                   0.550
REMARK INTRA:                  -0.446
REMARK UNBOUND:                 0.164
REMARK SMILES CCCCCCCCCCCCCCCCCCCCCCCC(=O)[O-]
REMARK SMILES IDX 13 1 14 2 15 3 16 4 17 5 18 6 19 7 20 8 21 9 22 10 23 11
REMARK SMILES IDX 24 12 25 13 26 14 12 15 11 16 10 17 9 18 8 19 7 20 6 21 5 22
REMARK SMILES IDX 4 23 3 24 2 25 1 26
REMARK H PARENT
REMARK Flexibility Score: inf
ROOT
ATOM      1  C   UNL     1      28.514  22.512  -3.887  1.00  0.00     0.000 C 
ENDROOT
BRANCH   1   2
ATOM      2  C   UNL     1      28.109  23.698  -4.786  1.00  0.00     0.000 C 
BRANCH   2   3
ATOM      3  C   UNL     1      29.098  24.019  -5.921  1.00  0.00     0.000 C 
BRANCH   3   4
ATOM      4  C   UNL     1      29.041  23.062  -7.129  1.00  0.00     0.000 C 
BRANCH   4   5
ATOM      5  C   UNL     1      28.314  23.649  -8.359  1.00  0.00     0.000 C 
BRANCH   5   6
ATOM      6  C   UNL     1      28.963  23.215  -9.685  1.00  0.00     0.000 C 
BRANCH   6   7
ATOM      7  C   UNL     1      28.129  23.609 -10.913  1.00  0.00     0.000 C 
BRANCH   7   8
ATOM      8  C   UNL     1      27.555  25.030 -10.810  1.00  0.00     0.000 C 
BRANCH   8   9
ATOM      9  C   UNL     1      28.627  26.021 -10.334  1.00  0.00     0.000 C 
BRANCH   9  10
ATOM     10  C   UNL     1      28.609  27.341 -11.121  1.00  0.00     0.006 C 
BRANCH  10  11
ATOM     11  C   UNL     1      28.903  28.560 -10.239  1.00  0.00     0.053 C 
BRANCH  11  12
ATOM     12  C   UNL     1      27.771  28.802  -9.290  1.00  0.00     0.041 C 
ATOM     13  O   UNL     1      26.589  28.525  -9.625  1.00  0.00    -0.550 OA
ATOM     14  O   UNL     1      28.027  29.290  -8.014  1.00  0.00    -0.550 OA
ENDBRANCH  11  12
ENDBRANCH  10  11
ENDBRANCH   9  10
ENDBRANCH   8   9
ENDBRANCH   7   8
ENDBRANCH   6   7
ENDBRANCH   5   6
ENDBRANCH   4   5
ENDBRANCH   3   4
ENDBRANCH   2   3
ENDBRANCH   1   2
BRANCH   1  15
ATOM     15  C   UNL     1      28.164  22.710  -2.397  1.00  0.00     0.000 C 
BRANCH  15  16
ATOM     16  C   UNL     1      28.981  23.843  -1.750  1.00  0.00     0.000 C 
BRANCH  16  17
ATOM     17  C   UNL     1      28.861  23.860  -0.217  1.00  0.00     0.000 C 
BRANCH  17  18
ATOM     18  C   UNL     1      28.707  25.283   0.349  1.00  0.00    -0.000 C 
BRANCH  18  19
ATOM     19  C   UNL     1      28.238  25.287   1.820  1.00  0.00    -0.000 C 
BRANCH  19  20
ATOM     20  C   UNL     1      29.040  26.245   2.723  1.00  0.00    -0.000 C 
BRANCH  20  21
ATOM     21  C   UNL     1      28.285  27.515   3.160  1.00  0.00    -0.000 C 
BRANCH  21  22
ATOM     22  C   UNL     1      29.125  28.529   3.959  1.00  0.00    -0.000 C 
BRANCH  22  23
ATOM     23  C   UNL     1      28.811  28.512   5.462  1.00  0.00    -0.000 C 
BRANCH  23  24
ATOM     24  C   UNL     1      27.893  29.680   5.844  1.00  0.00    -0.000 C 
BRANCH  24  25
ATOM     25  C   UNL     1      28.706  30.950   6.123  1.00  0.00    -0.003 C 
ATOM     26  C   UNL     1      28.930  31.143   7.620  1.00  0.00     0.004 C 
ENDBRANCH  24  25
ENDBRANCH  23  24
ENDBRANCH  22  23
ENDBRANCH  21  22
ENDBRANCH  20  21
ENDBRANCH  19  20
ENDBRANCH  18  19
ENDBRANCH  17  18
ENDBRANCH  16  17
ENDBRANCH  15  16
ENDBRANCH   1  15
TORSDOF 22
ENDMDL
MODEL 8
REMARK VINA RESULT:     0.016      5.006     13.029
REMARK INTER + INTRA:           0.200
REMARK INTER:                   0.494
REMARK INTRA:                  -0.295
REMARK UNBOUND:                 0.164
REMARK SMILES CCCCCCCCCCCCCCCCCCCCCCCC(=O)[O-]
REMARK SMILES IDX 13 1 14 2 15 3 16 4 17 5 18 6 19 7 20 8 21 9 22 10 23 11
REMARK SMILES IDX 24 12 25 13 26 14 12 15 11 16 10 17 9 18 8 19 7 20 6 21 5 22
REMARK SMILES IDX 4 23 3 24 2 25 1 26
REMARK H PARENT
REMARK Flexibility Score: inf
ROOT
ATOM      1  C   UNL     1      27.394  24.592  -1.988  1.00  0.00     0.000 C 
ENDROOT
BRANCH   1   2
ATOM      2  C   UNL     1      28.283  24.172  -0.800  1.00  0.00     0.000 C 
BRANCH   2   3
ATOM      3  C   UNL     1      28.514  25.269   0.256  1.00  0.00     0.000 C 
BRANCH   3   4
ATOM      4  C   UNL     1      28.960  24.759   1.641  1.00  0.00     0.000 C 
BRANCH   4   5
ATOM      5  C   UNL     1      28.191  25.396   2.820  1.00  0.00     0.000 C 
BRANCH   5   6
ATOM      6  C   UNL     1      29.125  26.117   3.808  1.00  0.00     0.000 C 
BRANCH   6   7
ATOM      7  C   UNL     1      29.096  27.644   3.649  1.00  0.00     0.000 C 
BRANCH   7   8
ATOM      8  C   UNL     1      27.694  28.237   3.855  1.00  0.00     0.000 C 
BRANCH   8   9
ATOM      9  C   UNL     1      27.695  29.263   4.997  1.00  0.00     0.000 C 
BRANCH   9  10
ATOM     10  C   UNL     1      29.110  29.708   5.396  1.00  0.00     0.006 C 
BRANCH  10  11
ATOM     11  C   UNL     1      29.121  30.603   6.641  1.00  0.00     0.053 C 
BRANCH  11  12
ATOM     12  C   UNL     1      28.821  29.797   7.867  1.00  0.00     0.041 C 
ATOM     13  O   UNL     1      28.603  30.370   8.967  1.00  0.00    -0.550 OA
ATOM     14  O   UNL     1      28.733  28.413   7.783  1.00  0.00    -0.550 OA
ENDBRANCH  11  12
ENDBRANCH  10  11
ENDBRANCH   9  10
ENDBRANCH   8   9
ENDBRANCH   7   8
ENDBRANCH   6   7
ENDBRANCH   5   6
ENDBRANCH   4   5
ENDBRANCH   3   4
ENDBRANCH   2   3
ENDBRANCH   1   2
BRANCH   1  15
ATOM     15  C   UNL     1      27.264  23.510  -3.082  1.00  0.00     0.000 C 
BRANCH  15  16
ATOM     16  C   UNL     1      28.341  22.417  -2.955  1.00  0.00     0.000 C 
BRANCH  16  17
ATOM     17  C   UNL     1      28.583  21.668  -4.276  1.00  0.00     0.000 C 
BRANCH  17  18
ATOM     18  C   UNL     1      29.125  22.587  -5.386  1.00  0.00    -0.000 C 
BRANCH  18  19
ATOM     19  C   UNL     1      28.163  23.749  -5.714  1.00  0.00    -0.000 C 
BRANCH  19  20
ATOM     20  C   UNL     1      28.271  24.252  -7.167  1.00  0.00    -0.000 C 
BRANCH  20  21
ATOM     21  C   UNL     1      29.097  23.354  -8.108  1.00  0.00    -0.000 C 
BRANCH  21  22
ATOM     22  C   UNL     1      29.120  23.803  -9.581  1.00  0.00    -0.000 C 
BRANCH  22  23
ATOM     23  C   UNL     1      28.714  22.686 -10.553  1.00  0.00    -0.000 C 
BRANCH  23  24
ATOM     24  C   UNL     1      27.196  22.673 -10.773  1.00  0.00    -0.000 C 
BRANCH  24  25
ATOM     25  C   UNL     1      26.693  21.254 -11.057  1.00  0.00    -0.003 C 
ATOM     26  C   UNL     1      27.738  20.211 -10.673  1.00  0.00     0.004 C 
ENDBRANCH  24  25
ENDBRANCH  23  24
ENDBRANCH  22  23
ENDBRANCH  21  22
ENDBRANCH  20  21
ENDBRANCH  19  20
ENDBRANCH  18  19
ENDBRANCH  17  18
ENDBRANCH  16  17
ENDBRANCH  15  16
ENDBRANCH   1  15
TORSDOF 22
ENDMDL
