MODEL 1
REMARK VINA RESULT:    -3.314      0.000      0.000
REMARK INTER + INTRA:          -6.619
REMARK INTER:                  -5.252
REMARK INTRA:                  -1.367
REMARK UNBOUND:                -1.367
REMARK SMILES CCCCCCCCCCCC(=O)[O-]
REMARK SMILES IDX 7 1 8 2 9 3 10 4 11 5 12 6 13 7 14 8 6 9 5 10 4 11 3 12 2 13
REMARK SMILES IDX 1 14
REMARK H PARENT
REMARK Flexibility Score: inf
ROOT
ATOM      1  C   UNL     1     -35.318   5.055  -2.414  1.00  0.00     0.000 C 
ENDROOT
BRANCH   1   2
ATOM      2  C   UNL     1     -36.118   5.893  -1.401  1.00  0.00     0.000 C 
BRANCH   2   3
ATOM      3  C   UNL     1     -35.980   7.404  -1.634  1.00  0.00     0.000 C 
BRANCH   3   4
ATOM      4  C   UNL     1     -35.918   7.726  -3.133  1.00  0.00     0.006 C 
BRANCH   4   5
ATOM      5  C   UNL     1     -35.043   8.954  -3.395  1.00  0.00     0.053 C 
BRANCH   5   6
ATOM      6  C   UNL     1     -35.798   9.974  -4.188  1.00  0.00     0.041 C 
ATOM      7  O   UNL     1     -35.671  10.026  -5.439  1.00  0.00    -0.550 OA
ATOM      8  O   UNL     1     -36.602  10.901  -3.539  1.00  0.00    -0.550 OA
ENDBRANCH   5   6
ENDBRANCH   4   5
ENDBRANCH   3   4
ENDBRANCH   2   3
ENDBRANCH   1   2
BRANCH   1   9
ATOM      9  C   UNL     1     -34.257   4.119  -1.799  1.00  0.00     0.000 C 
BRANCH   9  10
ATOM     10  C   UNL     1     -33.867   4.435  -0.343  1.00  0.00    -0.000 C 
BRANCH  10  11
ATOM     11  C   UNL     1     -32.494   5.120  -0.230  1.00  0.00    -0.000 C 
BRANCH  11  12
ATOM     12  C   UNL     1     -32.556   6.620  -0.565  1.00  0.00    -0.000 C 
BRANCH  12  13
ATOM     13  C   UNL     1     -31.509   7.037  -1.610  1.00  0.00    -0.003 C 
ATOM     14  C   UNL     1     -32.056   6.881  -3.026  1.00  0.00     0.004 C 
ENDBRANCH  12  13
ENDBRANCH  11  12
ENDBRANCH  10  11
ENDBRANCH   9  10
ENDBRANCH   1   9
TORSDOF 10
ENDMDL
MODEL 2
REMARK VINA RESULT:    -3.253      3.876      5.443
REMARK INTER + INTRA:          -6.523
REMARK INTER:                  -5.281
REMARK INTRA:                  -1.241
REMARK UNBOUND:                -1.367
REMARK SMILES CCCCCCCCCCCC(=O)[O-]
REMARK SMILES IDX 7 1 8 2 9 3 10 4 11 5 12 6 13 7 14 8 6 9 5 10 4 11 3 12 2 13
REMARK SMILES IDX 1 14
REMARK H PARENT
REMARK Flexibility Score: inf
ROOT
ATOM      1  C   UNL     1     -36.420   5.455  -2.379  1.00  0.00     0.000 C 
ENDROOT
BRANCH   1   2
ATOM      2  C   UNL     1     -36.799   5.625  -3.862  1.00  0.00     0.000 C 
BRANCH   2   3
ATOM      3  C   UNL     1     -35.848   4.878  -4.809  1.00  0.00     0.000 C 
BRANCH   3   4
ATOM      4  C   UNL     1     -34.830   4.044  -4.022  1.00  0.00     0.006 C 
BRANCH   4   5
ATOM      5  C   UNL     1     -34.645   2.662  -4.653  1.00  0.00     0.053 C 
BRANCH   5   6
ATOM      6  C   UNL     1     -35.498   1.650  -3.957  1.00  0.00     0.041 C 
ATOM      7  O   UNL     1     -35.819   0.581  -4.541  1.00  0.00    -0.550 OA
ATOM      8  O   UNL     1     -35.981   1.908  -2.681  1.00  0.00    -0.550 OA
ENDBRANCH   5   6
ENDBRANCH   4   5
ENDBRANCH   3   4
ENDBRANCH   2   3
ENDBRANCH   1   2
BRANCH   1   9
ATOM      9  C   UNL     1     -36.172   6.771  -1.612  1.00  0.00     0.000 C 
BRANCH   9  10
ATOM     10  C   UNL     1     -34.701   7.057  -1.257  1.00  0.00    -0.000 C 
BRANCH  10  11
ATOM     11  C   UNL     1     -33.843   7.381  -2.492  1.00  0.00    -0.000 C 
BRANCH  11  12
ATOM     12  C   UNL     1     -33.990   8.843  -2.944  1.00  0.00    -0.000 C 
BRANCH  12  13
ATOM     13  C   UNL     1     -34.910   8.996  -4.165  1.00  0.00    -0.003 C 
ATOM     14  C   UNL     1     -36.086   9.918  -3.853  1.00  0.00     0.004 C 
ENDBRANCH  12  13
ENDBRANCH  11  12
ENDBRANCH  10  11
ENDBRANCH   9  10
ENDBRANCH   1   9
TORSDOF 10
ENDMDL
MODEL 3
REMARK VINA RESULT:    -3.229      3.328      4.894
REMARK INTER + INTRA:          -6.484
REMARK INTER:                  -5.329
REMARK INTRA:                  -1.155
REMARK UNBOUND:                -1.367
REMARK SMILES CCCCCCCCCCCC(=O)[O-]
REMARK SMILES IDX 7 1 8 2 9 3 10 4 11 5 12 6 13 7 14 8 6 9 5 10 4 11 3 12 2 13
REMARK SMILES IDX 1 14
REMARK H PARENT
REMARK Flexibility Score: inf
ROOT
ATOM      1  C   UNL     1     -34.653   4.087  -3.580  1.00  0.00     0.000 C 
ENDROOT
BRANCH   1   2
ATOM      2  C   UNL     1     -36.107   4.493  -3.883  1.00  0.00     0.000 C 
BRANCH   2   3
ATOM      3  C   UNL     1     -36.863   4.975  -2.636  1.00  0.00     0.000 C 
BRANCH   3   4
ATOM      4  C   UNL     1     -35.916   5.676  -1.655  1.00  0.00     0.006 C 
BRANCH   4   5
ATOM      5  C   UNL     1     -36.212   7.176  -1.582  1.00  0.00     0.053 C 
BRANCH   5   6
ATOM      6  C   UNL     1     -35.459   7.911  -2.645  1.00  0.00     0.041 C 
ATOM      7  O   UNL     1     -36.021   8.825  -3.304  1.00  0.00    -0.550 OA
ATOM      8  O   UNL     1     -34.151   7.552  -2.944  1.00  0.00    -0.550 OA
ENDBRANCH   5   6
ENDBRANCH   4   5
ENDBRANCH   3   4
ENDBRANCH   2   3
ENDBRANCH   1   2
BRANCH   1   9
ATOM      9  C   UNL     1     -34.451   2.603  -3.210  1.00  0.00     0.000 C 
BRANCH   9  10
ATOM     10  C   UNL     1     -35.581   1.655  -3.653  1.00  0.00    -0.000 C 
BRANCH  10  11
ATOM     11  C   UNL     1     -35.160   0.722  -4.800  1.00  0.00    -0.000 C 
BRANCH  11  12
ATOM     12  C   UNL     1     -36.210   0.655  -5.921  1.00  0.00    -0.000 C 
BRANCH  12  13
ATOM     13  C   UNL     1     -36.499   2.030  -6.544  1.00  0.00    -0.003 C 
ATOM     14  C   UNL     1     -35.269   2.575  -7.264  1.00  0.00     0.004 C 
ENDBRANCH  12  13
ENDBRANCH  11  12
ENDBRANCH  10  11
ENDBRANCH   9  10
ENDBRANCH   1   9
TORSDOF 10
ENDMDL
MODEL 4
REMARK VINA RESULT:    -3.208      2.877      4.696
REMARK INTER + INTRA:          -6.450
REMARK INTER:                  -5.215
REMARK INTRA:                  -1.235
REMARK UNBOUND:                -1.367
REMARK SMILES CCCCCCCCCCCC(=O)[O-]
REMARK SMILES IDX 7 1 8 2 9 3 10 4 11 5 12 6 13 7 14 8 6 9 5 10 4 11 3 12 2 13
REMARK SMILES IDX 1 14
REMARK H PARENT
REMARK Flexibility Score: inf
ROOT
ATOM      1  C   UNL     1     -34.261   4.215  -1.976  1.00  0.00     0.000 C 
ENDROOT
BRANCH   1   2
ATOM      2  C   UNL     1     -33.863   4.458  -0.509  1.00  0.00     0.000 C 
BRANCH   2   3
ATOM      3  C   UNL     1     -32.490   5.132  -0.367  1.00  0.00     0.000 C 
BRANCH   3   4
ATOM      4  C   UNL     1     -32.596   6.647  -0.578  1.00  0.00     0.006 C 
BRANCH   4   5
ATOM      5  C   UNL     1     -31.780   7.092  -1.794  1.00  0.00     0.053 C 
BRANCH   5   6
ATOM      6  C   UNL     1     -30.478   7.688  -1.360  1.00  0.00     0.041 C 
ATOM      7  O   UNL     1     -29.539   6.946  -0.969  1.00  0.00    -0.550 OA
ATOM      8  O   UNL     1     -30.318   9.067  -1.341  1.00  0.00    -0.550 OA
ENDBRANCH   5   6
ENDBRANCH   4   5
ENDBRANCH   3   4
ENDBRANCH   2   3
ENDBRANCH   1   2
BRANCH   1   9
ATOM      9  C   UNL     1     -35.490   5.010  -2.463  1.00  0.00     0.000 C 
BRANCH   9  10
ATOM     10  C   UNL     1     -36.131   5.937  -1.413  1.00  0.00    -0.000 C 
BRANCH  10  11
ATOM     11  C   UNL     1     -36.066   7.422  -1.810  1.00  0.00    -0.000 C 
BRANCH  11  12
ATOM     12  C   UNL     1     -35.396   7.636  -3.178  1.00  0.00    -0.000 C 
BRANCH  12  13
ATOM     13  C   UNL     1     -34.694   8.998  -3.286  1.00  0.00    -0.003 C 
ATOM     14  C   UNL     1     -35.644  10.064  -3.826  1.00  0.00     0.004 C 
ENDBRANCH  12  13
ENDBRANCH  11  12
ENDBRANCH  10  11
ENDBRANCH   9  10
ENDBRANCH   1   9
TORSDOF 10
ENDMDL
MODEL 5
REMARK VINA RESULT:    -3.160      3.344      5.170
REMARK INTER + INTRA:          -6.374
REMARK INTER:                  -5.077
REMARK INTRA:                  -1.297
REMARK UNBOUND:                -1.367
REMARK SMILES CCCCCCCCCCCC(=O)[O-]
REMARK SMILES IDX 7 1 8 2 9 3 10 4 11 5 12 6 13 7 14 8 6 9 5 10 4 11 3 12 2 13
REMARK SMILES IDX 1 14
REMARK H PARENT
REMARK Flexibility Score: inf
ROOT
ATOM      1  C   UNL     1     -36.303   6.967  -1.795  1.00  0.00     0.000 C 
ENDROOT
BRANCH   1   2
ATOM      2  C   UNL     1     -35.228   6.111  -1.101  1.00  0.00     0.000 C 
BRANCH   2   3
ATOM      3  C   UNL     1     -33.861   6.808  -1.037  1.00  0.00     0.000 C 
BRANCH   3   4
ATOM      4  C   UNL     1     -32.741   5.797  -0.767  1.00  0.00     0.006 C 
BRANCH   4   5
ATOM      5  C   UNL     1     -31.475   6.499  -0.269  1.00  0.00     0.053 C 
BRANCH   5   6
ATOM      6  C   UNL     1     -30.301   6.129  -1.119  1.00  0.00     0.041 C 
ATOM      7  O   UNL     1     -29.129   6.336  -0.708  1.00  0.00    -0.550 OA
ATOM      8  O   UNL     1     -30.501   5.600  -2.387  1.00  0.00    -0.550 OA
ENDBRANCH   5   6
ENDBRANCH   4   5
ENDBRANCH   3   4
ENDBRANCH   2   3
ENDBRANCH   1   2
BRANCH   1   9
ATOM      9  C   UNL     1     -35.950   7.430  -3.224  1.00  0.00     0.000 C 
BRANCH   9  10
ATOM     10  C   UNL     1     -35.824   8.954  -3.408  1.00  0.00    -0.000 C 
BRANCH  10  11
ATOM     11  C   UNL     1     -34.367   9.412  -3.591  1.00  0.00    -0.000 C 
BRANCH  11  12
ATOM     12  C   UNL     1     -33.527   8.401  -4.390  1.00  0.00    -0.000 C 
BRANCH  12  13
ATOM     13  C   UNL     1     -32.059   8.363  -3.939  1.00  0.00    -0.003 C 
ATOM     14  C   UNL     1     -31.801   9.376  -2.827  1.00  0.00     0.004 C 
ENDBRANCH  12  13
ENDBRANCH  11  12
ENDBRANCH  10  11
ENDBRANCH   9  10
ENDBRANCH   1   9
TORSDOF 10
ENDMDL
MODEL 6
REMARK VINA RESULT:    -3.147      1.428      2.435
REMARK INTER + INTRA:          -6.353
REMARK INTER:                  -4.813
REMARK INTRA:                  -1.541
REMARK UNBOUND:                -1.367
REMARK SMILES CCCCCCCCCCCC(=O)[O-]
REMARK SMILES IDX 7 1 8 2 9 3 10 4 11 5 12 6 13 7 14 8 6 9 5 10 4 11 3 12 2 13
REMARK SMILES IDX 1 14
REMARK H PARENT
REMARK Flexibility Score: inf
ROOT
ATOM      1  C   UNL     1     -34.585   5.301  -1.065  1.00  0.00     0.000 C 
ENDROOT
BRANCH   1   2
ATOM      2  C   UNL     1     -35.988   5.800  -1.453  1.00  0.00     0.000 C 
BRANCH   2   3
ATOM      3  C   UNL     1     -36.041   7.318  -1.680  1.00  0.00     0.000 C 
BRANCH   3   4
ATOM      4  C   UNL     1     -35.975   7.652  -3.176  1.00  0.00     0.006 C 
BRANCH   4   5
ATOM      5  C   UNL     1     -35.104   8.886  -3.425  1.00  0.00     0.053 C 
BRANCH   5   6
ATOM      6  C   UNL     1     -35.858   9.910  -4.213  1.00  0.00     0.041 C 
ATOM      7  O   UNL     1     -35.849   9.875  -5.471  1.00  0.00    -0.550 OA
ATOM      8  O   UNL     1     -36.531  10.933  -3.558  1.00  0.00    -0.550 OA
ENDBRANCH   5   6
ENDBRANCH   4   5
ENDBRANCH   3   4
ENDBRANCH   2   3
ENDBRANCH   1   2
BRANCH   1   9
ATOM      9  C   UNL     1     -33.511   6.402  -0.936  1.00  0.00     0.000 C 
BRANCH   9  10
ATOM     10  C   UNL     1     -32.432   6.400  -2.034  1.00  0.00    -0.000 C 
BRANCH  10  11
ATOM     11  C   UNL     1     -32.689   5.340  -3.119  1.00  0.00    -0.000 C 
BRANCH  11  12
ATOM     12  C   UNL     1     -32.928   5.963  -4.505  1.00  0.00    -0.000 C 
BRANCH  12  13
ATOM     13  C   UNL     1     -33.722   5.038  -5.440  1.00  0.00    -0.003 C 
ATOM     14  C   UNL     1     -34.870   4.360  -4.696  1.00  0.00     0.004 C 
ENDBRANCH  12  13
ENDBRANCH  11  12
ENDBRANCH  10  11
ENDBRANCH   9  10
ENDBRANCH   1   9
TORSDOF 10
ENDMDL
MODEL 7
REMARK VINA RESULT:    -3.143      3.959      6.059
REMARK INTER + INTRA:          -6.348
REMARK INTER:                  -4.754
REMARK INTRA:                  -1.593
REMARK UNBOUND:                -1.367
REMARK SMILES CCCCCCCCCCCC(=O)[O-]
REMARK SMILES IDX 7 1 8 2 9 3 10 4 11 5 12 6 13 7 14 8 6 9 5 10 4 11 3 12 2 13
REMARK SMILES IDX 1 14
REMARK H PARENT
REMARK Flexibility Score: inf
ROOT
ATOM      1  C   UNL     1     -33.207   7.373  -2.092  1.00  0.00     0.000 C 
ENDROOT
BRANCH   1   2
ATOM      2  C   UNL     1     -32.761   6.132  -2.886  1.00  0.00     0.000 C 
BRANCH   2   3
ATOM      3  C   UNL     1     -32.570   4.893  -1.998  1.00  0.00     0.000 C 
BRANCH   3   4
ATOM      4  C   UNL     1     -33.177   5.115  -0.607  1.00  0.00     0.006 C 
BRANCH   4   5
ATOM      5  C   UNL     1     -34.168   4.002  -0.256  1.00  0.00     0.053 C 
BRANCH   5   6
ATOM      6  C   UNL     1     -33.653   3.182   0.883  1.00  0.00     0.041 C 
ATOM      7  O   UNL     1     -34.293   2.172   1.278  1.00  0.00    -0.550 OA
ATOM      8  O   UNL     1     -32.491   3.561   1.542  1.00  0.00    -0.550 OA
ENDBRANCH   5   6
ENDBRANCH   4   5
ENDBRANCH   3   4
ENDBRANCH   2   3
ENDBRANCH   1   2
BRANCH   1   9
ATOM      9  C   UNL     1     -34.097   8.364  -2.871  1.00  0.00     0.000 C 
BRANCH   9  10
ATOM     10  C   UNL     1     -35.608   8.068  -2.824  1.00  0.00    -0.000 C 
BRANCH  10  11
ATOM     11  C   UNL     1     -36.026   7.309  -1.553  1.00  0.00    -0.000 C 
BRANCH  11  12
ATOM     12  C   UNL     1     -36.678   5.952  -1.866  1.00  0.00    -0.000 C 
BRANCH  12  13
ATOM     13  C   UNL     1     -36.387   5.470  -3.295  1.00  0.00    -0.003 C 
ATOM     14  C   UNL     1     -36.220   3.954  -3.340  1.00  0.00     0.004 C 
ENDBRANCH  12  13
ENDBRANCH  11  12
ENDBRANCH  10  11
ENDBRANCH   9  10
ENDBRANCH   1   9
TORSDOF 10
ENDMDL
MODEL 8
REMARK VINA RESULT:    -3.142      3.649      5.348
REMARK INTER + INTRA:          -6.346
REMARK INTER:                  -4.876
REMARK INTRA:                  -1.469
REMARK UNBOUND:                -1.367
REMARK SMILES CCCCCCCCCCCC(=O)[O-]
REMARK SMILES IDX 7 1 8 2 9 3 10 4 11 5 12 6 13 7 14 8 6 9 5 10 4 11 3 12 2 13
REMARK SMILES IDX 1 14
REMARK H PARENT
REMARK Flexibility Score: inf
ROOT
ATOM      1  C   UNL     1     -33.798   4.972  -0.635  1.00  0.00     0.000 C 
ENDROOT
BRANCH   1   2
ATOM      2  C   UNL     1     -32.404   5.499  -1.022  1.00  0.00     0.000 C 
BRANCH   2   3
ATOM      3  C   UNL     1     -31.964   6.701  -0.172  1.00  0.00     0.000 C 
BRANCH   3   4
ATOM      4  C   UNL     1     -30.910   7.537  -0.907  1.00  0.00     0.006 C 
BRANCH   4   5
ATOM      5  C   UNL     1     -30.247   6.728  -2.025  1.00  0.00     0.053 C 
BRANCH   5   6
ATOM      6  C   UNL     1     -28.775   6.615  -1.788  1.00  0.00     0.041 C 
ATOM      7  O   UNL     1     -28.340   6.217  -0.675  1.00  0.00    -0.550 OA
ATOM      8  O   UNL     1     -27.880   6.997  -2.778  1.00  0.00    -0.550 OA
ENDBRANCH   5   6
ENDBRANCH   4   5
ENDBRANCH   3   4
ENDBRANCH   2   3
ENDBRANCH   1   2
BRANCH   1   9
ATOM      9  C   UNL     1     -34.771   4.767  -1.815  1.00  0.00     0.000 C 
BRANCH   9  10
ATOM     10  C   UNL     1     -36.064   5.602  -1.753  1.00  0.00    -0.000 C 
BRANCH  10  11
ATOM     11  C   UNL     1     -35.803   7.078  -1.412  1.00  0.00    -0.000 C 
BRANCH  11  12
ATOM     12  C   UNL     1     -35.540   7.935  -2.662  1.00  0.00    -0.000 C 
BRANCH  12  13
ATOM     13  C   UNL     1     -34.077   8.387  -2.773  1.00  0.00    -0.003 C 
ATOM     14  C   UNL     1     -33.359   7.650  -3.901  1.00  0.00     0.004 C 
ENDBRANCH  12  13
ENDBRANCH  11  12
ENDBRANCH  10  11
ENDBRANCH   9  10
ENDBRANCH   1   9
TORSDOF 10
ENDMDL
MODEL 9
REMARK VINA RESULT:    -3.117      3.765      5.016
REMARK INTER + INTRA:          -6.307
REMARK INTER:                  -4.867
REMARK INTRA:                  -1.440
REMARK UNBOUND:                -1.367
REMARK SMILES CCCCCCCCCCCC(=O)[O-]
REMARK SMILES IDX 7 1 8 2 9 3 10 4 11 5 12 6 13 7 14 8 6 9 5 10 4 11 3 12 2 13
REMARK SMILES IDX 1 14
REMARK H PARENT
REMARK Flexibility Score: inf
ROOT
ATOM      1  C   UNL     1     -35.282   7.196  -1.336  1.00  0.00     0.000 C 
ENDROOT
BRANCH   1   2
ATOM      2  C   UNL     1     -36.405   6.180  -1.611  1.00  0.00     0.000 C 
BRANCH   2   3
ATOM      3  C   UNL     1     -36.347   5.599  -3.032  1.00  0.00     0.000 C 
BRANCH   3   4
ATOM      4  C   UNL     1     -36.298   4.066  -2.998  1.00  0.00     0.006 C 
BRANCH   4   5
ATOM      5  C   UNL     1     -35.224   3.529  -3.948  1.00  0.00     0.053 C 
BRANCH   5   6
ATOM      6  C   UNL     1     -35.198   2.034  -3.916  1.00  0.00     0.041 C 
ATOM      7  O   UNL     1     -35.565   1.415  -2.883  1.00  0.00    -0.550 OA
ATOM      8  O   UNL     1     -34.719   1.325  -5.009  1.00  0.00    -0.550 OA
ENDBRANCH   5   6
ENDBRANCH   4   5
ENDBRANCH   3   4
ENDBRANCH   2   3
ENDBRANCH   1   2
BRANCH   1   9
ATOM      9  C   UNL     1     -34.200   7.290  -2.431  1.00  0.00     0.000 C 
BRANCH   9  10
ATOM     10  C   UNL     1     -32.878   6.566  -2.113  1.00  0.00    -0.000 C 
BRANCH  10  11
ATOM     11  C   UNL     1     -32.590   6.489  -0.604  1.00  0.00    -0.000 C 
BRANCH  11  12
ATOM     12  C   UNL     1     -32.324   5.052  -0.127  1.00  0.00    -0.000 C 
BRANCH  12  13
ATOM     13  C   UNL     1     -33.314   4.038  -0.722  1.00  0.00    -0.003 C 
ATOM     14  C   UNL     1     -32.578   2.871  -1.374  1.00  0.00     0.004 C 
ENDBRANCH  12  13
ENDBRANCH  11  12
ENDBRANCH  10  11
ENDBRANCH   9  10
ENDBRANCH   1   9
TORSDOF 10
ENDMDL
