MODEL 1
REMARK VINA RESULT:    -6.012      0.000      0.000
REMARK INTER + INTRA:          -7.812
REMARK INTER:                  -7.418
REMARK INTRA:                  -0.394
REMARK UNBOUND:                -0.394
REMARK SMILES COc1cc(-c2oc3cc(O)cc(O)c3c(=O)c2O)ccc1O
REMARK SMILES IDX 6 1 18 2 16 3 17 4 15 5 13 6 12 7 10 8 9 9 8 10 7 11 5 12
REMARK SMILES IDX 3 13 22 14 4 15 21 16 20 17 2 18 1 19 23 20 19 22 14 24
REMARK SMILES IDX 11 26
REMARK H PARENT 23 21 19 23 14 25 11 27
REMARK Flexibility Score: inf
ROOT
ATOM      1  C   UNL     1     172.227 175.236 175.928  1.00  0.00     0.180 A 
ATOM      2  C   UNL     1     173.553 175.135 175.473  1.00  0.00     0.208 A 
ATOM      3  C   UNL     1     174.505 174.500 176.286  1.00  0.00     0.238 A 
ATOM      4  O   UNL     1     175.679 174.365 175.850  1.00  0.00    -0.285 OA
ATOM      5  C   UNL     1     174.123 173.987 177.549  1.00  0.00     0.111 A 
ATOM      6  C   UNL     1     175.014 173.361 178.473  1.00  0.00     0.134 A 
ATOM      7  C   UNL     1     174.502 172.776 179.637  1.00  0.00     0.093 A 
ATOM      8  C   UNL     1     173.141 172.851 179.942  1.00  0.00     0.123 A 
ATOM      9  C   UNL     1     172.274 173.512 179.077  1.00  0.00     0.094 A 
ATOM     10  C   UNL     1     172.749 174.075 177.890  1.00  0.00     0.146 A 
ATOM     11  O   UNL     1     171.886 174.687 177.088  1.00  0.00    -0.452 OA
ENDROOT
BRANCH   1  12
ATOM     12  C   UNL     1     171.173 175.913 175.138  1.00  0.00     0.025 A 
ATOM     13  C   UNL     1     169.412 175.873 173.441  1.00  0.00     0.161 A 
ATOM     14  C   UNL     1     169.220 177.249 173.617  1.00  0.00     0.157 A 
ATOM     15  C   UNL     1     170.397 175.209 174.199  1.00  0.00     0.062 A 
ATOM     16  C   UNL     1     170.007 177.956 174.536  1.00  0.00     0.051 A 
ATOM     17  C   UNL     1     170.982 177.294 175.285  1.00  0.00     0.016 A 
BRANCH  13  18
ATOM     18  O   UNL     1     168.611 175.201 172.502  1.00  0.00    -0.493 OA
ATOM     19  C   UNL     1     167.419 174.492 172.820  1.00  0.00     0.278 C 
ENDBRANCH  13  18
BRANCH  14  20
ATOM     20  O   UNL     1     168.246 177.911 172.872  1.00  0.00    -0.504 OA
ATOM     21  H   UNL     1     168.493 178.589 172.159  1.00  0.00     0.293 HD
ENDBRANCH  14  20
ENDBRANCH   1  12
BRANCH   2  22
ATOM     22  O   UNL     1     173.904 175.628 174.213  1.00  0.00    -0.502 OA
ATOM     23  H   UNL     1     173.836 176.611 173.976  1.00  0.00     0.293 HD
ENDBRANCH   2  22
BRANCH   6  24
ATOM     24  O   UNL     1     176.401 173.312 178.308  1.00  0.00    -0.507 OA
ATOM     25  H   UNL     1     176.968 174.076 177.970  1.00  0.00     0.293 HD
ENDBRANCH   6  24
BRANCH   8  26
ATOM     26  O   UNL     1     172.642 172.279 181.110  1.00  0.00    -0.508 OA
ATOM     27  H   UNL     1     173.092 172.425 182.007  1.00  0.00     0.293 HD
ENDBRANCH   8  26
TORSDOF 6
ENDMDL
MODEL 2
REMARK VINA RESULT:    -6.004      4.108      7.071
REMARK INTER + INTRA:          -7.802
REMARK INTER:                  -7.407
REMARK INTRA:                  -0.396
REMARK UNBOUND:                -0.394
REMARK SMILES COc1cc(-c2oc3cc(O)cc(O)c3c(=O)c2O)ccc1O
REMARK SMILES IDX 6 1 18 2 16 3 17 4 15 5 13 6 12 7 10 8 9 9 8 10 7 11 5 12
REMARK SMILES IDX 3 13 22 14 4 15 21 16 20 17 2 18 1 19 23 20 19 22 14 24
REMARK SMILES IDX 11 26
REMARK H PARENT 23 21 19 23 14 25 11 27
REMARK Flexibility Score: inf
ROOT
ATOM      1  C   UNL     1     174.165 171.175 175.930  1.00  0.00     0.180 A 
ATOM      2  C   UNL     1     172.839 171.282 175.476  1.00  0.00     0.208 A 
ATOM      3  C   UNL     1     171.888 171.907 176.298  1.00  0.00     0.238 A 
ATOM      4  O   UNL     1     170.714 172.048 175.865  1.00  0.00    -0.285 OA
ATOM      5  C   UNL     1     172.271 172.405 177.567  1.00  0.00     0.111 A 
ATOM      6  C   UNL     1     171.381 173.020 178.499  1.00  0.00     0.134 A 
ATOM      7  C   UNL     1     171.894 173.591 179.669  1.00  0.00     0.093 A 
ATOM      8  C   UNL     1     173.255 173.511 179.973  1.00  0.00     0.123 A 
ATOM      9  C   UNL     1     174.122 172.860 179.099  1.00  0.00     0.094 A 
ATOM     10  C   UNL     1     173.646 172.312 177.906  1.00  0.00     0.146 A 
ATOM     11  O   UNL     1     174.508 171.709 177.096  1.00  0.00    -0.452 OA
ENDROOT
BRANCH   1  12
ATOM     12  C   UNL     1     175.219 170.507 175.130  1.00  0.00     0.025 A 
ATOM     13  C   UNL     1     176.987 170.570 173.441  1.00  0.00     0.161 A 
ATOM     14  C   UNL     1     177.169 169.189 173.591  1.00  0.00     0.157 A 
ATOM     15  C   UNL     1     176.003 171.225 174.209  1.00  0.00     0.062 A 
ATOM     16  C   UNL     1     176.374 168.469 174.492  1.00  0.00     0.051 A 
ATOM     17  C   UNL     1     175.401 169.122 175.250  1.00  0.00     0.016 A 
BRANCH  13  18
ATOM     18  O   UNL     1     177.796 171.255 172.520  1.00  0.00    -0.493 OA
ATOM     19  C   UNL     1     178.979 171.970 172.860  1.00  0.00     0.278 C 
ENDBRANCH  13  18
BRANCH  14  20
ATOM     20  O   UNL     1     178.143 168.536 172.836  1.00  0.00    -0.504 OA
ATOM     21  H   UNL     1     178.822 169.051 172.287  1.00  0.00     0.293 HD
ENDBRANCH  14  20
ENDBRANCH   1  12
BRANCH   2  22
ATOM     22  O   UNL     1     172.487 170.804 174.210  1.00  0.00    -0.502 OA
ATOM     23  H   UNL     1     172.424 171.408 173.400  1.00  0.00     0.293 HD
ENDBRANCH   2  22
BRANCH   6  24
ATOM     24  O   UNL     1     169.994 173.072 178.336  1.00  0.00    -0.507 OA
ATOM     25  H   UNL     1     169.524 173.201 177.452  1.00  0.00     0.293 HD
ENDBRANCH   6  24
BRANCH   8  26
ATOM     26  O   UNL     1     173.756 174.069 181.147  1.00  0.00    -0.508 OA
ATOM     27  H   UNL     1     174.555 173.669 181.626  1.00  0.00     0.293 HD
ENDBRANCH   8  26
TORSDOF 6
ENDMDL
MODEL 3
REMARK VINA RESULT:    -5.939      1.373      1.817
REMARK INTER + INTRA:          -7.722
REMARK INTER:                  -7.347
REMARK INTRA:                  -0.374
REMARK UNBOUND:                -0.394
REMARK SMILES COc1cc(-c2oc3cc(O)cc(O)c3c(=O)c2O)ccc1O
REMARK SMILES IDX 6 1 18 2 16 3 17 4 15 5 13 6 12 7 10 8 9 9 8 10 7 11 5 12
REMARK SMILES IDX 3 13 22 14 4 15 21 16 20 17 2 18 1 19 23 20 19 22 14 24
REMARK SMILES IDX 11 26
REMARK H PARENT 23 21 19 23 14 25 11 27
REMARK Flexibility Score: inf
ROOT
ATOM      1  C   UNL     1     171.444 175.935 175.107  1.00  0.00     0.180 A 
ATOM      2  C   UNL     1     172.615 176.467 174.539  1.00  0.00     0.208 A 
ATOM      3  C   UNL     1     173.860 176.080 175.059  1.00  0.00     0.238 A 
ATOM      4  O   UNL     1     174.906 176.517 174.512  1.00  0.00    -0.285 OA
ATOM      5  C   UNL     1     173.919 175.177 176.149  1.00  0.00     0.111 A 
ATOM      6  C   UNL     1     175.124 174.748 176.781  1.00  0.00     0.134 A 
ATOM      7  C   UNL     1     175.071 173.755 177.766  1.00  0.00     0.093 A 
ATOM      8  C   UNL     1     173.850 173.222 178.186  1.00  0.00     0.123 A 
ATOM      9  C   UNL     1     172.664 173.677 177.617  1.00  0.00     0.094 A 
ATOM     10  C   UNL     1     172.687 174.643 176.608  1.00  0.00     0.146 A 
ATOM     11  O   UNL     1     171.534 175.041 176.085  1.00  0.00    -0.452 OA
ENDROOT
BRANCH   1  12
ATOM     12  C   UNL     1     170.094 176.315 174.629  1.00  0.00     0.025 A 
ATOM     13  C   UNL     1     168.123 175.908 173.240  1.00  0.00     0.161 A 
ATOM     14  C   UNL     1     167.558 177.103 173.704  1.00  0.00     0.157 A 
ATOM     15  C   UNL     1     169.397 175.521 173.700  1.00  0.00     0.062 A 
ATOM     16  C   UNL     1     168.260 177.907 174.612  1.00  0.00     0.051 A 
ATOM     17  C   UNL     1     169.523 177.519 175.065  1.00  0.00     0.016 A 
BRANCH  13  18
ATOM     18  O   UNL     1     167.393 175.136 172.322  1.00  0.00    -0.493 OA
ATOM     19  C   UNL     1     166.576 174.023 172.672  1.00  0.00     0.278 C 
ENDBRANCH  13  18
BRANCH  14  20
ATOM     20  O   UNL     1     166.296 177.490 173.254  1.00  0.00    -0.504 OA
ATOM     21  H   UNL     1     165.450 177.068 173.620  1.00  0.00     0.293 HD
ENDBRANCH  14  20
ENDBRANCH   1  12
BRANCH   2  22
ATOM     22  O   UNL     1     172.535 177.339 173.449  1.00  0.00    -0.502 OA
ATOM     23  H   UNL     1     172.096 178.249 173.512  1.00  0.00     0.293 HD
ENDBRANCH   2  22
BRANCH   6  24
ATOM     24  O   UNL     1     176.386 175.281 176.501  1.00  0.00    -0.507 OA
ATOM     25  H   UNL     1     176.552 176.216 176.159  1.00  0.00     0.293 HD
ENDBRANCH   6  24
BRANCH   8  26
ATOM     26  O   UNL     1     173.805 172.244 179.177  1.00  0.00    -0.508 OA
ATOM     27  H   UNL     1     172.924 171.894 179.537  1.00  0.00     0.293 HD
ENDBRANCH   8  26
TORSDOF 6
ENDMDL
MODEL 4
REMARK VINA RESULT:    -5.925      5.000      8.033
REMARK INTER + INTRA:          -7.704
REMARK INTER:                  -7.326
REMARK INTRA:                  -0.379
REMARK UNBOUND:                -0.394
REMARK SMILES COc1cc(-c2oc3cc(O)cc(O)c3c(=O)c2O)ccc1O
REMARK SMILES IDX 6 1 18 2 16 3 17 4 15 5 13 6 12 7 10 8 9 9 8 10 7 11 5 12
REMARK SMILES IDX 3 13 22 14 4 15 21 16 20 17 2 18 1 19 23 20 19 22 14 24
REMARK SMILES IDX 11 26
REMARK H PARENT 23 21 19 23 14 25 11 27
REMARK Flexibility Score: inf
ROOT
ATOM      1  C   UNL     1     174.996 170.382 175.049  1.00  0.00     0.180 A 
ATOM      2  C   UNL     1     173.859 169.786 174.478  1.00  0.00     0.208 A 
ATOM      3  C   UNL     1     172.590 170.143 174.960  1.00  0.00     0.238 A 
ATOM      4  O   UNL     1     171.572 169.646 174.410  1.00  0.00    -0.285 OA
ATOM      5  C   UNL     1     172.474 171.080 176.015  1.00  0.00     0.111 A 
ATOM      6  C   UNL     1     171.241 171.485 176.609  1.00  0.00     0.134 A 
ATOM      7  C   UNL     1     171.236 172.514 177.558  1.00  0.00     0.093 A 
ATOM      8  C   UNL     1     172.427 173.109 177.981  1.00  0.00     0.123 A 
ATOM      9  C   UNL     1     173.641 172.679 177.452  1.00  0.00     0.094 A 
ATOM     10  C   UNL     1     173.676 171.678 176.477  1.00  0.00     0.146 A 
ATOM     11  O   UNL     1     174.853 171.306 175.991  1.00  0.00    -0.452 OA
ENDROOT
BRANCH   1  12
ATOM     12  C   UNL     1     176.370 170.038 174.610  1.00  0.00     0.025 A 
ATOM     13  C   UNL     1     178.354 170.475 173.249  1.00  0.00     0.161 A 
ATOM     14  C   UNL     1     178.952 169.316 173.762  1.00  0.00     0.157 A 
ATOM     15  C   UNL     1     177.057 170.828 173.671  1.00  0.00     0.062 A 
ATOM     16  C   UNL     1     178.260 168.515 174.680  1.00  0.00     0.051 A 
ATOM     17  C   UNL     1     176.975 168.870 175.095  1.00  0.00     0.016 A 
BRANCH  13  18
ATOM     18  O   UNL     1     179.075 171.245 172.322  1.00  0.00    -0.493 OA
ATOM     19  C   UNL     1     179.763 172.451 172.637  1.00  0.00     0.278 C 
ENDBRANCH  13  18
BRANCH  14  20
ATOM     20  O   UNL     1     180.236 168.962 173.350  1.00  0.00    -0.504 OA
ATOM     21  H   UNL     1     180.787 169.568 172.752  1.00  0.00     0.293 HD
ENDBRANCH  14  20
ENDBRANCH   1  12
BRANCH   2  22
ATOM     22  O   UNL     1     173.994 168.879 173.423  1.00  0.00    -0.502 OA
ATOM     23  H   UNL     1     173.554 167.967 173.429  1.00  0.00     0.293 HD
ENDBRANCH   2  22
BRANCH   6  24
ATOM     24  O   UNL     1     170.007 170.893 176.324  1.00  0.00    -0.507 OA
ATOM     25  H   UNL     1     169.516 170.262 176.940  1.00  0.00     0.293 HD
ENDBRANCH   6  24
BRANCH   8  26
ATOM     26  O   UNL     1     172.416 174.122 178.937  1.00  0.00    -0.508 OA
ATOM     27  H   UNL     1     173.136 174.190 179.647  1.00  0.00     0.293 HD
ENDBRANCH   8  26
TORSDOF 6
ENDMDL
MODEL 5
REMARK VINA RESULT:    -5.903      0.850      1.824
REMARK INTER + INTRA:          -7.677
REMARK INTER:                  -7.287
REMARK INTRA:                  -0.390
REMARK UNBOUND:                -0.394
REMARK SMILES COc1cc(-c2oc3cc(O)cc(O)c3c(=O)c2O)ccc1O
REMARK SMILES IDX 6 1 18 2 16 3 17 4 15 5 13 6 12 7 10 8 9 9 8 10 7 11 5 12
REMARK SMILES IDX 3 13 22 14 4 15 21 16 20 17 2 18 1 19 23 20 19 22 14 24
REMARK SMILES IDX 11 26
REMARK H PARENT 23 21 19 23 14 25 11 27
REMARK Flexibility Score: inf
ROOT
ATOM      1  C   UNL     1     171.958 174.577 175.697  1.00  0.00     0.180 A 
ATOM      2  C   UNL     1     173.289 174.488 175.253  1.00  0.00     0.208 A 
ATOM      3  C   UNL     1     174.279 174.063 176.153  1.00  0.00     0.238 A 
ATOM      4  O   UNL     1     175.460 173.934 175.736  1.00  0.00    -0.285 OA
ATOM      5  C   UNL     1     173.929 173.747 177.488  1.00  0.00     0.111 A 
ATOM      6  C   UNL     1     174.857 173.346 178.496  1.00  0.00     0.134 A 
ATOM      7  C   UNL     1     174.382 172.933 179.746  1.00  0.00     0.093 A 
ATOM      8  C   UNL     1     173.019 172.969 180.047  1.00  0.00     0.123 A 
ATOM      9  C   UNL     1     172.111 173.417 179.090  1.00  0.00     0.094 A 
ATOM     10  C   UNL     1     172.551 173.802 177.821  1.00  0.00     0.146 A 
ATOM     11  O   UNL     1     171.651 174.211 176.935  1.00  0.00    -0.452 OA
ENDROOT
BRANCH   1  12
ATOM     12  C   UNL     1     170.863 175.040 174.812  1.00  0.00     0.025 A 
ATOM     13  C   UNL     1     169.443 176.819 173.917  1.00  0.00     0.161 A 
ATOM     14  C   UNL     1     168.741 175.869 173.164  1.00  0.00     0.157 A 
ATOM     15  C   UNL     1     170.501 176.398 174.748  1.00  0.00     0.062 A 
ATOM     16  C   UNL     1     169.086 174.513 173.244  1.00  0.00     0.051 A 
ATOM     17  C   UNL     1     170.134 174.101 174.069  1.00  0.00     0.016 A 
BRANCH  13  18
ATOM     18  O   UNL     1     169.060 178.166 173.818  1.00  0.00    -0.493 OA
ATOM     19  C   UNL     1     169.647 179.109 172.926  1.00  0.00     0.278 C 
ENDBRANCH  13  18
BRANCH  14  20
ATOM     20  O   UNL     1     167.695 176.279 172.338  1.00  0.00    -0.504 OA
ATOM     21  H   UNL     1     167.394 175.722 171.546  1.00  0.00     0.293 HD
ENDBRANCH  14  20
ENDBRANCH   1  12
BRANCH   2  22
ATOM     22  O   UNL     1     173.609 174.783 173.924  1.00  0.00    -0.502 OA
ATOM     23  H   UNL     1     174.495 174.525 173.508  1.00  0.00     0.293 HD
ENDBRANCH   2  22
BRANCH   6  24
ATOM     24  O   UNL     1     176.245 173.361 178.329  1.00  0.00    -0.507 OA
ATOM     25  H   UNL     1     176.870 174.019 178.770  1.00  0.00     0.293 HD
ENDBRANCH   6  24
BRANCH   8  26
ATOM     26  O   UNL     1     172.556 172.572 181.299  1.00  0.00    -0.508 OA
ATOM     27  H   UNL     1     171.578 172.358 181.460  1.00  0.00     0.293 HD
ENDBRANCH   8  26
TORSDOF 6
ENDMDL
MODEL 6
REMARK VINA RESULT:    -5.902      4.023      6.805
REMARK INTER + INTRA:          -7.676
REMARK INTER:                  -7.274
REMARK INTRA:                  -0.402
REMARK UNBOUND:                -0.394
REMARK SMILES COc1cc(-c2oc3cc(O)cc(O)c3c(=O)c2O)ccc1O
REMARK SMILES IDX 6 1 18 2 16 3 17 4 15 5 13 6 12 7 10 8 9 9 8 10 7 11 5 12
REMARK SMILES IDX 3 13 22 14 4 15 21 16 20 17 2 18 1 19 23 20 19 22 14 24
REMARK SMILES IDX 11 26
REMARK H PARENT 23 21 19 23 14 25 11 27
REMARK Flexibility Score: inf
ROOT
ATOM      1  C   UNL     1     174.506 171.836 175.644  1.00  0.00     0.180 A 
ATOM      2  C   UNL     1     173.175 171.930 175.202  1.00  0.00     0.208 A 
ATOM      3  C   UNL     1     172.187 172.348 176.108  1.00  0.00     0.238 A 
ATOM      4  O   UNL     1     171.005 172.483 175.693  1.00  0.00    -0.285 OA
ATOM      5  C   UNL     1     172.539 172.652 177.445  1.00  0.00     0.111 A 
ATOM      6  C   UNL     1     171.613 173.045 178.457  1.00  0.00     0.134 A 
ATOM      7  C   UNL     1     172.089 173.447 179.711  1.00  0.00     0.093 A 
ATOM      8  C   UNL     1     173.453 173.406 180.009  1.00  0.00     0.123 A 
ATOM      9  C   UNL     1     174.359 172.966 179.048  1.00  0.00     0.094 A 
ATOM     10  C   UNL     1     173.918 172.593 177.776  1.00  0.00     0.146 A 
ATOM     11  O   UNL     1     174.816 172.190 176.885  1.00  0.00    -0.452 OA
ENDROOT
BRANCH   1  12
ATOM     12  C   UNL     1     175.600 171.379 174.754  1.00  0.00     0.025 A 
ATOM     13  C   UNL     1     177.023 169.608 173.848  1.00  0.00     0.161 A 
ATOM     14  C   UNL     1     177.719 170.562 173.095  1.00  0.00     0.157 A 
ATOM     15  C   UNL     1     175.967 170.023 174.684  1.00  0.00     0.062 A 
ATOM     16  C   UNL     1     177.370 171.916 173.181  1.00  0.00     0.051 A 
ATOM     17  C   UNL     1     176.323 172.322 174.010  1.00  0.00     0.016 A 
BRANCH  13  18
ATOM     18  O   UNL     1     177.410 168.262 173.744  1.00  0.00    -0.493 OA
ATOM     19  C   UNL     1     176.733 167.286 172.960  1.00  0.00     0.278 C 
ENDBRANCH  13  18
BRANCH  14  20
ATOM     20  O   UNL     1     178.763 170.158 172.265  1.00  0.00    -0.504 OA
ATOM     21  H   UNL     1     179.675 169.920 172.637  1.00  0.00     0.293 HD
ENDBRANCH  14  20
ENDBRANCH   1  12
BRANCH   2  22
ATOM     22  O   UNL     1     172.853 171.647 173.872  1.00  0.00    -0.502 OA
ATOM     23  H   UNL     1     173.525 171.260 173.220  1.00  0.00     0.293 HD
ENDBRANCH   2  22
BRANCH   6  24
ATOM     24  O   UNL     1     170.224 173.034 178.292  1.00  0.00    -0.507 OA
ATOM     25  H   UNL     1     169.570 172.642 178.953  1.00  0.00     0.293 HD
ENDBRANCH   6  24
BRANCH   8  26
ATOM     26  O   UNL     1     173.918 173.793 181.264  1.00  0.00    -0.508 OA
ATOM     27  H   UNL     1     173.993 173.131 182.029  1.00  0.00     0.293 HD
ENDBRANCH   8  26
TORSDOF 6
ENDMDL
MODEL 7
REMARK VINA RESULT:    -5.763      1.940      6.677
REMARK INTER + INTRA:          -7.505
REMARK INTER:                  -7.198
REMARK INTRA:                  -0.307
REMARK UNBOUND:                -0.394
REMARK SMILES COc1cc(-c2oc3cc(O)cc(O)c3c(=O)c2O)ccc1O
REMARK SMILES IDX 6 1 18 2 16 3 17 4 15 5 13 6 12 7 10 8 9 9 8 10 7 11 5 12
REMARK SMILES IDX 3 13 22 14 4 15 21 16 20 17 2 18 1 19 23 20 19 22 14 24
REMARK SMILES IDX 11 26
REMARK H PARENT 23 21 19 23 14 25 11 27
REMARK Flexibility Score: inf
ROOT
ATOM      1  C   UNL     1     173.134 175.425 176.181  1.00  0.00     0.180 A 
ATOM      2  C   UNL     1     174.292 175.803 175.481  1.00  0.00     0.208 A 
ATOM      3  C   UNL     1     174.172 176.676 174.389  1.00  0.00     0.238 A 
ATOM      4  O   UNL     1     175.218 177.055 173.799  1.00  0.00    -0.285 OA
ATOM      5  C   UNL     1     172.894 177.148 174.000  1.00  0.00     0.111 A 
ATOM      6  C   UNL     1     172.651 178.003 172.884  1.00  0.00     0.134 A 
ATOM      7  C   UNL     1     171.363 178.511 172.671  1.00  0.00     0.093 A 
ATOM      8  C   UNL     1     170.298 178.142 173.496  1.00  0.00     0.123 A 
ATOM      9  C   UNL     1     170.514 177.260 174.552  1.00  0.00     0.094 A 
ATOM     10  C   UNL     1     171.794 176.764 174.811  1.00  0.00     0.146 A 
ATOM     11  O   UNL     1     171.958 175.935 175.834  1.00  0.00    -0.452 OA
ENDROOT
BRANCH   1  12
ATOM     12  C   UNL     1     173.178 174.488 177.329  1.00  0.00     0.025 A 
ATOM     13  C   UNL     1     173.475 172.240 178.246  1.00  0.00     0.161 A 
ATOM     14  C   UNL     1     173.197 172.734 179.527  1.00  0.00     0.157 A 
ATOM     15  C   UNL     1     173.457 173.121 177.146  1.00  0.00     0.062 A 
ATOM     16  C   UNL     1     172.898 174.091 179.708  1.00  0.00     0.051 A 
ATOM     17  C   UNL     1     172.881 174.960 178.615  1.00  0.00     0.016 A 
BRANCH  13  18
ATOM     18  O   UNL     1     173.759 170.872 178.104  1.00  0.00    -0.493 OA
ATOM     19  C   UNL     1     173.627 170.143 176.889  1.00  0.00     0.278 C 
ENDBRANCH  13  18
BRANCH  14  20
ATOM     20  O   UNL     1     173.216 171.869 180.620  1.00  0.00    -0.504 OA
ATOM     21  H   UNL     1     173.074 172.205 181.566  1.00  0.00     0.293 HD
ENDBRANCH  14  20
ENDBRANCH   1  12
BRANCH   2  22
ATOM     22  O   UNL     1     175.546 175.344 175.895  1.00  0.00    -0.502 OA
ATOM     23  H   UNL     1     176.207 175.935 176.385  1.00  0.00     0.293 HD
ENDBRANCH   2  22
BRANCH   6  24
ATOM     24  O   UNL     1     173.625 178.360 171.947  1.00  0.00    -0.507 OA
ATOM     25  H   UNL     1     174.239 177.709 171.480  1.00  0.00     0.293 HD
ENDBRANCH   6  24
BRANCH   8  26
ATOM     26  O   UNL     1     169.017 178.639 173.268  1.00  0.00    -0.508 OA
ATOM     27  H   UNL     1     168.190 178.113 173.528  1.00  0.00     0.293 HD
ENDBRANCH   8  26
TORSDOF 6
ENDMDL
MODEL 8
REMARK VINA RESULT:    -5.664      4.433      7.173
REMARK INTER + INTRA:          -7.383
REMARK INTER:                  -6.998
REMARK INTRA:                  -0.385
REMARK UNBOUND:                -0.394
REMARK SMILES COc1cc(-c2oc3cc(O)cc(O)c3c(=O)c2O)ccc1O
REMARK SMILES IDX 6 1 18 2 16 3 17 4 15 5 13 6 12 7 10 8 9 9 8 10 7 11 5 12
REMARK SMILES IDX 3 13 22 14 4 15 21 16 20 17 2 18 1 19 23 20 19 22 14 24
REMARK SMILES IDX 11 26
REMARK H PARENT 23 21 19 23 14 25 11 27
REMARK Flexibility Score: inf
ROOT
ATOM      1  C   UNL     1     174.102 171.371 176.346  1.00  0.00     0.180 A 
ATOM      2  C   UNL     1     174.108 169.980 176.141  1.00  0.00     0.208 A 
ATOM      3  C   UNL     1     174.870 169.451 175.087  1.00  0.00     0.238 A 
ATOM      4  O   UNL     1     174.914 168.201 174.941  1.00  0.00    -0.285 OA
ATOM      5  C   UNL     1     175.605 170.319 174.244  1.00  0.00     0.111 A 
ATOM      6  C   UNL     1     176.379 169.896 173.122  1.00  0.00     0.134 A 
ATOM      7  C   UNL     1     177.168 170.827 172.437  1.00  0.00     0.093 A 
ATOM      8  C   UNL     1     177.161 172.177 172.793  1.00  0.00     0.123 A 
ATOM      9  C   UNL     1     176.363 172.610 173.848  1.00  0.00     0.094 A 
ATOM     10  C   UNL     1     175.591 171.699 174.574  1.00  0.00     0.146 A 
ATOM     11  O   UNL     1     174.853 172.152 175.580  1.00  0.00    -0.452 OA
ENDROOT
BRANCH   1  12
ATOM     12  C   UNL     1     173.303 172.004 177.421  1.00  0.00     0.025 A 
ATOM     13  C   UNL     1     173.038 172.746 179.736  1.00  0.00     0.161 A 
ATOM     14  C   UNL     1     171.732 173.161 179.447  1.00  0.00     0.157 A 
ATOM     15  C   UNL     1     173.819 172.160 178.720  1.00  0.00     0.062 A 
ATOM     16  C   UNL     1     171.208 172.986 178.159  1.00  0.00     0.051 A 
ATOM     17  C   UNL     1     171.986 172.405 177.155  1.00  0.00     0.016 A 
BRANCH  13  18
ATOM     18  O   UNL     1     173.523 172.928 181.042  1.00  0.00    -0.493 OA
ATOM     19  C   UNL     1     174.902 173.013 181.386  1.00  0.00     0.278 C 
ENDBRANCH  13  18
BRANCH  14  20
ATOM     20  O   UNL     1     170.955 173.744 180.447  1.00  0.00    -0.504 OA
ATOM     21  H   UNL     1     170.175 173.251 180.867  1.00  0.00     0.293 HD
ENDBRANCH  14  20
ENDBRANCH   1  12
BRANCH   2  22
ATOM     22  O   UNL     1     173.393 169.139 176.999  1.00  0.00    -0.502 OA
ATOM     23  H   UNL     1     173.837 168.402 177.533  1.00  0.00     0.293 HD
ENDBRANCH   2  22
BRANCH   6  24
ATOM     24  O   UNL     1     176.385 168.588 172.627  1.00  0.00    -0.507 OA
ATOM     25  H   UNL     1     175.655 167.910 172.785  1.00  0.00     0.293 HD
ENDBRANCH   6  24
BRANCH   8  26
ATOM     26  O   UNL     1     177.938 173.100 172.097  1.00  0.00    -0.508 OA
ATOM     27  H   UNL     1     178.695 173.604 172.546  1.00  0.00     0.293 HD
ENDBRANCH   8  26
TORSDOF 6
ENDMDL
MODEL 9
REMARK VINA RESULT:    -5.632      4.376      7.134
REMARK INTER + INTRA:          -7.343
REMARK INTER:                  -6.957
REMARK INTRA:                  -0.386
REMARK UNBOUND:                -0.394
REMARK SMILES COc1cc(-c2oc3cc(O)cc(O)c3c(=O)c2O)ccc1O
REMARK SMILES IDX 6 1 18 2 16 3 17 4 15 5 13 6 12 7 10 8 9 9 8 10 7 11 5 12
REMARK SMILES IDX 3 13 22 14 4 15 21 16 20 17 2 18 1 19 23 20 19 22 14 24
REMARK SMILES IDX 11 26
REMARK H PARENT 23 21 19 23 14 25 11 27
REMARK Flexibility Score: inf
ROOT
ATOM      1  C   UNL     1     174.708 171.365 175.601  1.00  0.00     0.180 A 
ATOM      2  C   UNL     1     174.603 172.622 174.981  1.00  0.00     0.208 A 
ATOM      3  C   UNL     1     174.064 173.695 175.708  1.00  0.00     0.238 A 
ATOM      4  O   UNL     1     174.022 174.832 175.168  1.00  0.00    -0.285 OA
ATOM      5  C   UNL     1     173.624 173.495 177.039  1.00  0.00     0.111 A 
ATOM      6  C   UNL     1     173.025 174.501 177.855  1.00  0.00     0.134 A 
ATOM      7  C   UNL     1     172.747 174.226 179.199  1.00  0.00     0.093 A 
ATOM      8  C   UNL     1     172.986 172.960 179.739  1.00  0.00     0.123 A 
ATOM      9  C   UNL     1     173.514 171.954 178.935  1.00  0.00     0.094 A 
ATOM     10  C   UNL     1     173.836 172.208 177.599  1.00  0.00     0.146 A 
ATOM     11  O   UNL     1     174.348 171.224 176.871  1.00  0.00    -0.452 OA
ENDROOT
BRANCH   1  12
ATOM     12  C   UNL     1     175.243 170.179 174.890  1.00  0.00     0.025 A 
ATOM     13  C   UNL     1     177.118 168.809 174.124  1.00  0.00     0.161 A 
ATOM     14  C   UNL     1     176.218 167.949 173.482  1.00  0.00     0.157 A 
ATOM     15  C   UNL     1     176.625 169.930 174.822  1.00  0.00     0.062 A 
ATOM     16  C   UNL     1     174.842 168.208 173.530  1.00  0.00     0.051 A 
ATOM     17  C   UNL     1     174.359 169.319 174.223  1.00  0.00     0.016 A 
BRANCH  13  18
ATOM     18  O   UNL     1     178.491 168.523 174.043  1.00  0.00    -0.493 OA
ATOM     19  C   UNL     1     179.480 169.438 173.584  1.00  0.00     0.278 C 
ENDBRANCH  13  18
BRANCH  14  20
ATOM     20  O   UNL     1     176.700 166.837 172.792  1.00  0.00    -0.504 OA
ATOM     21  H   UNL     1     177.683 166.736 172.569  1.00  0.00     0.293 HD
ENDBRANCH  14  20
ENDBRANCH   1  12
BRANCH   2  22
ATOM     22  O   UNL     1     175.064 172.803 173.674  1.00  0.00    -0.502 OA
ATOM     23  H   UNL     1     176.005 172.558 173.390  1.00  0.00     0.293 HD
ENDBRANCH   2  22
BRANCH   6  24
ATOM     24  O   UNL     1     172.662 175.769 177.390  1.00  0.00    -0.507 OA
ATOM     25  H   UNL     1     171.844 176.279 177.691  1.00  0.00     0.293 HD
ENDBRANCH   6  24
BRANCH   8  26
ATOM     26  O   UNL     1     172.692 172.689 181.073  1.00  0.00    -0.508 OA
ATOM     27  H   UNL     1     173.403 172.738 181.794  1.00  0.00     0.293 HD
ENDBRANCH   8  26
TORSDOF 6
ENDMDL
