MODEL 1
REMARK VINA RESULT:    -3.702      0.000      0.000
REMARK INTER + INTRA:          -4.683
REMARK INTER:                  -4.459
REMARK INTRA:                  -0.224
REMARK UNBOUND:                -0.224
REMARK SMILES OCC(O)CO
REMARK SMILES IDX 3 1 5 2 6 3 2 5 1 6 4 8
REMARK H PARENT 6 4 1 7 4 9
REMARK Flexibility Score: inf
ROOT
ATOM      1  C   UNL     1     -10.125  15.522  20.386  1.00  0.00     0.165 C 
ENDROOT
BRANCH   1   2
ATOM      2  C   UNL     1      -9.645  16.194  19.088  1.00  0.00     0.190 C 
BRANCH   2   3
ATOM      3  O   UNL     1      -8.283  15.948  18.863  1.00  0.00    -0.394 OA
ATOM      4  H   UNL     1      -7.796  16.271  19.666  1.00  0.00     0.210 HD
ENDBRANCH   2   3
ENDBRANCH   1   2
BRANCH   1   5
ATOM      5  C   UNL     1      -9.799  16.373  21.627  1.00  0.00     0.190 C 
BRANCH   5   6
ATOM      6  O   UNL     1      -8.420  16.595  21.736  1.00  0.00    -0.394 OA
ATOM      7  H   UNL     1      -8.052  15.841  22.268  1.00  0.00     0.210 HD
ENDBRANCH   5   6
ENDBRANCH   1   5
BRANCH   1   8
ATOM      8  O   UNL     1      -9.524  14.259  20.503  1.00  0.00    -0.388 OA
ATOM      9  H   UNL     1     -10.151  13.688  21.018  1.00  0.00     0.211 HD
ENDBRANCH   1   8
TORSDOF 5
ENDMDL
MODEL 2
REMARK VINA RESULT:    -3.465      1.342      2.830
REMARK INTER + INTRA:          -4.398
REMARK INTER:                  -4.372
REMARK INTRA:                  -0.026
REMARK UNBOUND:                -0.224
REMARK SMILES OCC(O)CO
REMARK SMILES IDX 3 1 5 2 6 3 2 5 1 6 4 8
REMARK H PARENT 6 4 1 7 4 9
REMARK Flexibility Score: inf
ROOT
ATOM      1  C   UNL     1      -9.996  16.280  20.697  1.00  0.00     0.165 C 
ENDROOT
BRANCH   1   2
ATOM      2  C   UNL     1      -9.229  16.471  22.017  1.00  0.00     0.190 C 
BRANCH   2   3
ATOM      3  O   UNL     1      -8.764  17.788  22.148  1.00  0.00    -0.394 OA
ATOM      4  H   UNL     1      -9.333  18.226  22.834  1.00  0.00     0.210 HD
ENDBRANCH   2   3
ENDBRANCH   1   2
BRANCH   1   5
ATOM      5  C   UNL     1      -9.293  15.277  19.765  1.00  0.00     0.190 C 
BRANCH   5   6
ATOM      6  O   UNL     1      -8.309  15.911  18.995  1.00  0.00    -0.394 OA
ATOM      7  H   UNL     1      -7.963  15.230  18.360  1.00  0.00     0.210 HD
ENDBRANCH   5   6
ENDBRANCH   1   5
BRANCH   1   8
ATOM      8  O   UNL     1     -10.125  17.520  20.053  1.00  0.00    -0.388 OA
ATOM      9  H   UNL     1     -10.856  18.009  20.513  1.00  0.00     0.211 HD
ENDBRANCH   1   8
TORSDOF 5
ENDMDL
MODEL 3
REMARK VINA RESULT:    -3.132     13.270     14.016
REMARK INTER + INTRA:          -3.996
REMARK INTER:                  -3.994
REMARK INTRA:                  -0.002
REMARK UNBOUND:                -0.224
REMARK SMILES OCC(O)CO
REMARK SMILES IDX 3 1 5 2 6 3 2 5 1 6 4 8
REMARK H PARENT 6 4 1 7 4 9
REMARK Flexibility Score: inf
ROOT
ATOM      1  C   UNL     1      -0.447  24.986  25.031  1.00  0.00     0.165 C 
ENDROOT
BRANCH   1   2
ATOM      2  C   UNL     1      -0.508  25.515  23.589  1.00  0.00     0.190 C 
BRANCH   2   3
ATOM      3  O   UNL     1      -0.064  24.548  22.674  1.00  0.00    -0.394 OA
ATOM      4  H   UNL     1       0.839  24.832  22.373  1.00  0.00     0.210 HD
ENDBRANCH   2   3
ENDBRANCH   1   2
BRANCH   1   5
ATOM      5  C   UNL     1      -0.532  26.125  26.064  1.00  0.00     0.190 C 
BRANCH   5   6
ATOM      6  O   UNL     1       0.588  26.125  26.906  1.00  0.00    -0.394 OA
ATOM      7  H   UNL     1       0.782  27.075  27.120  1.00  0.00     0.210 HD
ENDBRANCH   5   6
ENDBRANCH   1   5
BRANCH   1   8
ATOM      8  O   UNL     1       0.745  24.268  25.211  1.00  0.00    -0.388 OA
ATOM      9  H   UNL     1       1.455  24.761  24.724  1.00  0.00     0.211 HD
ENDBRANCH   1   8
TORSDOF 5
ENDMDL
MODEL 4
REMARK VINA RESULT:    -3.079      8.159      8.573
REMARK INTER + INTRA:          -3.933
REMARK INTER:                  -3.719
REMARK INTRA:                  -0.215
REMARK UNBOUND:                -0.224
REMARK SMILES OCC(O)CO
REMARK SMILES IDX 3 1 5 2 6 3 2 5 1 6 4 8
REMARK H PARENT 6 4 1 7 4 9
REMARK Flexibility Score: inf
ROOT
ATOM      1  C   UNL     1      -7.451  11.218  27.241  1.00  0.00     0.165 C 
ENDROOT
BRANCH   1   2
ATOM      2  C   UNL     1      -6.039  11.548  26.727  1.00  0.00     0.190 C 
BRANCH   2   3
ATOM      3  O   UNL     1      -5.472  10.452  26.060  1.00  0.00    -0.394 OA
ATOM      4  H   UNL     1      -5.250   9.777  26.754  1.00  0.00     0.210 HD
ENDBRANCH   2   3
ENDBRANCH   1   2
BRANCH   1   5
ATOM      5  C   UNL     1      -8.334  10.608  26.138  1.00  0.00     0.190 C 
BRANCH   5   6
ATOM      6  O   UNL     1      -8.030   9.255  25.941  1.00  0.00    -0.394 OA
ATOM      7  H   UNL     1      -8.044   9.101  24.960  1.00  0.00     0.210 HD
ENDBRANCH   5   6
ENDBRANCH   1   5
BRANCH   1   8
ATOM      8  O   UNL     1      -8.047  12.388  27.738  1.00  0.00    -0.388 OA
ATOM      9  H   UNL     1      -8.709  12.684  27.060  1.00  0.00     0.211 HD
ENDBRANCH   1   8
TORSDOF 5
ENDMDL
MODEL 5
REMARK VINA RESULT:    -3.076     13.103     13.688
REMARK INTER + INTRA:          -3.929
REMARK INTER:                  -3.926
REMARK INTRA:                  -0.003
REMARK UNBOUND:                -0.224
REMARK SMILES OCC(O)CO
REMARK SMILES IDX 3 1 5 2 6 3 2 5 1 6 4 8
REMARK H PARENT 6 4 1 7 4 9
REMARK Flexibility Score: inf
ROOT
ATOM      1  C   UNL     1      -0.200  25.382  23.917  1.00  0.00     0.165 C 
ENDROOT
BRANCH   1   2
ATOM      2  C   UNL     1      -0.436  25.134  25.416  1.00  0.00     0.190 C 
BRANCH   2   3
ATOM      3  O   UNL     1       0.668  24.499  26.006  1.00  0.00    -0.394 OA
ATOM      4  H   UNL     1       0.591  23.533  25.790  1.00  0.00     0.210 HD
ENDBRANCH   2   3
ENDBRANCH   1   2
BRANCH   1   5
ATOM      5  C   UNL     1      -1.424  26.026  23.242  1.00  0.00     0.190 C 
BRANCH   5   6
ATOM      6  O   UNL     1      -1.242  26.123  21.856  1.00  0.00    -0.394 OA
ATOM      7  H   UNL     1      -2.042  26.589  21.496  1.00  0.00     0.210 HD
ENDBRANCH   5   6
ENDBRANCH   1   5
BRANCH   1   8
ATOM      8  O   UNL     1       0.105  24.164  23.289  1.00  0.00    -0.388 OA
ATOM      9  H   UNL     1       1.068  24.196  23.051  1.00  0.00     0.211 HD
ENDBRANCH   1   8
TORSDOF 5
ENDMDL
MODEL 6
REMARK VINA RESULT:    -3.017      8.214      8.422
REMARK INTER + INTRA:          -3.858
REMARK INTER:                  -3.854
REMARK INTRA:                  -0.004
REMARK UNBOUND:                -0.224
REMARK SMILES OCC(O)CO
REMARK SMILES IDX 3 1 5 2 6 3 2 5 1 6 4 8
REMARK H PARENT 6 4 1 7 4 9
REMARK Flexibility Score: inf
ROOT
ATOM      1  C   UNL     1      -7.644  10.866  26.365  1.00  0.00     0.165 C 
ENDROOT
BRANCH   1   2
ATOM      2  C   UNL     1      -6.113  10.985  26.279  1.00  0.00     0.190 C 
BRANCH   2   3
ATOM      3  O   UNL     1      -5.516   9.733  26.072  1.00  0.00    -0.394 OA
ATOM      4  H   UNL     1      -5.752   9.452  25.149  1.00  0.00     0.210 HD
ENDBRANCH   2   3
ENDBRANCH   1   2
BRANCH   1   5
ATOM      5  C   UNL     1      -8.194  11.467  27.670  1.00  0.00     0.190 C 
BRANCH   5   6
ATOM      6  O   UNL     1      -7.856  12.822  27.783  1.00  0.00    -0.394 OA
ATOM      7  H   UNL     1      -7.090  12.975  27.169  1.00  0.00     0.210 HD
ENDBRANCH   5   6
ENDBRANCH   1   5
BRANCH   1   8
ATOM      8  O   UNL     1      -8.008   9.513  26.272  1.00  0.00    -0.388 OA
ATOM      9  H   UNL     1      -7.849   9.236  25.333  1.00  0.00     0.211 HD
ENDBRANCH   1   8
TORSDOF 5
ENDMDL
MODEL 7
REMARK VINA RESULT:    -2.958     13.240     13.946
REMARK INTER + INTRA:          -3.786
REMARK INTER:                  -3.592
REMARK INTRA:                  -0.195
REMARK UNBOUND:                -0.224
REMARK SMILES OCC(O)CO
REMARK SMILES IDX 3 1 5 2 6 3 2 5 1 6 4 8
REMARK H PARENT 6 4 1 7 4 9
REMARK Flexibility Score: inf
ROOT
ATOM      1  C   UNL     1      -0.917  25.025  24.734  1.00  0.00     0.165 C 
ENDROOT
BRANCH   1   2
ATOM      2  C   UNL     1      -0.362  25.502  26.086  1.00  0.00     0.190 C 
BRANCH   2   3
ATOM      3  O   UNL     1       0.719  24.709  26.500  1.00  0.00    -0.394 OA
ATOM      4  H   UNL     1       1.450  24.856  25.843  1.00  0.00     0.210 HD
ENDBRANCH   2   3
ENDBRANCH   1   2
BRANCH   1   5
ATOM      5  C   UNL     1       0.165  25.020  23.639  1.00  0.00     0.190 C 
BRANCH   5   6
ATOM      6  O   UNL     1       1.116  24.018  23.876  1.00  0.00    -0.394 OA
ATOM      7  H   UNL     1       0.847  23.564  24.717  1.00  0.00     0.210 HD
ENDBRANCH   5   6
ENDBRANCH   1   5
BRANCH   1   8
ATOM      8  O   UNL     1      -1.980  25.857  24.350  1.00  0.00    -0.388 OA
ATOM      9  H   UNL     1      -2.672  25.786  25.057  1.00  0.00     0.211 HD
ENDBRANCH   1   8
TORSDOF 5
ENDMDL
MODEL 8
REMARK VINA RESULT:    -2.918     20.912     21.620
REMARK INTER + INTRA:          -3.738
REMARK INTER:                  -3.517
REMARK INTRA:                  -0.222
REMARK UNBOUND:                -0.224
REMARK SMILES OCC(O)CO
REMARK SMILES IDX 3 1 5 2 6 3 2 5 1 6 4 8
REMARK H PARENT 6 4 1 7 4 9
REMARK Flexibility Score: inf
ROOT
ATOM      1  C   UNL     1       8.724   6.900  11.532  1.00  0.00     0.165 C 
ENDROOT
BRANCH   1   2
ATOM      2  C   UNL     1       9.828   6.898  12.603  1.00  0.00     0.190 C 
BRANCH   2   3
ATOM      3  O   UNL     1       9.359   7.423  13.817  1.00  0.00    -0.394 OA
ATOM      4  H   UNL     1       9.301   8.407  13.700  1.00  0.00     0.210 HD
ENDBRANCH   2   3
ENDBRANCH   1   2
BRANCH   1   5
ATOM      5  C   UNL     1       7.331   6.669  12.144  1.00  0.00     0.190 C 
BRANCH   5   6
ATOM      6  O   UNL     1       6.723   7.885  12.486  1.00  0.00    -0.394 OA
ATOM      7  H   UNL     1       5.932   7.661  13.043  1.00  0.00     0.210 HD
ENDBRANCH   5   6
ENDBRANCH   1   5
BRANCH   1   8
ATOM      8  O   UNL     1       8.999   5.903  10.583  1.00  0.00    -0.388 OA
ATOM      9  H   UNL     1       9.986   5.824  10.525  1.00  0.00     0.211 HD
ENDBRANCH   1   8
TORSDOF 5
ENDMDL
MODEL 9
REMARK VINA RESULT:    -2.880     12.878     13.472
REMARK INTER + INTRA:          -3.692
REMARK INTER:                  -3.682
REMARK INTRA:                  -0.010
REMARK UNBOUND:                -0.224
REMARK SMILES OCC(O)CO
REMARK SMILES IDX 3 1 5 2 6 3 2 5 1 6 4 8
REMARK H PARENT 6 4 1 7 4 9
REMARK Flexibility Score: inf
ROOT
ATOM      1  C   UNL     1      -0.358  25.423  24.550  1.00  0.00     0.165 C 
ENDROOT
BRANCH   1   2
ATOM      2  C   UNL     1      -1.786  25.761  24.091  1.00  0.00     0.190 C 
BRANCH   2   3
ATOM      3  O   UNL     1      -1.901  25.692  22.694  1.00  0.00    -0.394 OA
ATOM      4  H   UNL     1      -2.519  26.419  22.421  1.00  0.00     0.210 HD
ENDBRANCH   2   3
ENDBRANCH   1   2
BRANCH   1   5
ATOM      5  C   UNL     1       0.458  24.745  23.435  1.00  0.00     0.190 C 
BRANCH   5   6
ATOM      6  O   UNL     1       1.417  23.875  23.970  1.00  0.00    -0.394 OA
ATOM      7  H   UNL     1       1.429  24.034  24.950  1.00  0.00     0.210 HD
ENDBRANCH   5   6
ENDBRANCH   1   5
BRANCH   1   8
ATOM      8  O   UNL     1      -0.420  24.582  25.673  1.00  0.00    -0.388 OA
ATOM      9  H   UNL     1      -0.422  25.170  26.473  1.00  0.00     0.211 HD
ENDBRANCH   1   8
TORSDOF 5
ENDMDL
