MODEL 1
REMARK VINA RESULT:    -3.305      0.000      0.000
REMARK INTER + INTRA:          -4.128
REMARK INTER:                  -4.077
REMARK INTRA:                  -0.050
REMARK UNBOUND:                -0.050
REMARK SMILES CCCCCC(=O)[O-]
REMARK SMILES IDX 4 1 5 2 6 3 7 4 8 5 3 6 2 7 1 8
REMARK H PARENT
REMARK Flexibility Score: inf
ROOT
ATOM      1  C   UNL     1      -0.722  17.422  28.797  1.00  0.00     0.006 C 
ENDROOT
BRANCH   1   2
ATOM      2  C   UNL     1       0.268  17.436  27.622  1.00  0.00     0.053 C 
BRANCH   2   3
ATOM      3  C   UNL     1       1.465  16.576  27.888  1.00  0.00     0.041 C 
ATOM      4  O   UNL     1       2.573  16.849  27.357  1.00  0.00    -0.550 OA
ATOM      5  O   UNL     1       1.349  15.453  28.697  1.00  0.00    -0.550 OA
ENDBRANCH   2   3
ENDBRANCH   1   2
BRANCH   1   6
ATOM      6  C   UNL     1      -1.160  18.821  29.271  1.00  0.00     0.000 C 
BRANCH   6   7
ATOM      7  C   UNL     1      -2.683  19.013  29.230  1.00  0.00    -0.003 C 
ATOM      8  C   UNL     1      -3.084  20.354  29.836  1.00  0.00     0.004 C 
ENDBRANCH   6   7
ENDBRANCH   1   6
TORSDOF 4
ENDMDL
MODEL 2
REMARK VINA RESULT:    -3.213      8.858     10.483
REMARK INTER + INTRA:          -4.014
REMARK INTER:                  -3.789
REMARK INTRA:                  -0.225
REMARK UNBOUND:                -0.050
REMARK SMILES CCCCCC(=O)[O-]
REMARK SMILES IDX 4 1 5 2 6 3 7 4 8 5 3 6 2 7 1 8
REMARK H PARENT
REMARK Flexibility Score: inf
ROOT
ATOM      1  C   UNL     1       9.381  22.186  29.156  1.00  0.00     0.006 C 
ENDROOT
BRANCH   1   2
ATOM      2  C   UNL     1       8.422  22.997  28.270  1.00  0.00     0.053 C 
BRANCH   2   3
ATOM      3  C   UNL     1       6.990  22.643  28.525  1.00  0.00     0.041 C 
ATOM      4  O   UNL     1       6.361  23.187  29.472  1.00  0.00    -0.550 OA
ATOM      5  O   UNL     1       6.358  21.690  27.738  1.00  0.00    -0.550 OA
ENDBRANCH   2   3
ENDBRANCH   1   2
BRANCH   1   6
ATOM      6  C   UNL     1       9.940  20.916  28.485  1.00  0.00     0.000 C 
BRANCH   6   7
ATOM      7  C   UNL     1       9.971  21.018  26.953  1.00  0.00    -0.003 C 
ATOM      8  C   UNL     1       9.344  19.785  26.309  1.00  0.00     0.004 C 
ENDBRANCH   6   7
ENDBRANCH   1   6
TORSDOF 4
ENDMDL
MODEL 3
REMARK VINA RESULT:    -3.210      1.269      2.100
REMARK INTER + INTRA:          -4.011
REMARK INTER:                  -3.928
REMARK INTRA:                  -0.082
REMARK UNBOUND:                -0.050
REMARK SMILES CCCCCC(=O)[O-]
REMARK SMILES IDX 4 1 5 2 6 3 7 4 8 5 3 6 2 7 1 8
REMARK H PARENT
REMARK Flexibility Score: inf
ROOT
ATOM      1  C   UNL     1      -1.213  19.118  29.518  1.00  0.00     0.006 C 
ENDROOT
BRANCH   1   2
ATOM      2  C   UNL     1      -0.737  17.885  28.733  1.00  0.00     0.053 C 
BRANCH   2   3
ATOM      3  C   UNL     1       0.689  17.544  29.038  1.00  0.00     0.041 C 
ATOM      4  O   UNL     1       0.985  16.958  30.112  1.00  0.00    -0.550 OA
ATOM      5  O   UNL     1       1.695  17.902  28.149  1.00  0.00    -0.550 OA
ENDBRANCH   2   3
ENDBRANCH   1   2
BRANCH   1   6
ATOM      6  C   UNL     1      -2.728  19.383  29.422  1.00  0.00     0.000 C 
BRANCH   6   7
ATOM      7  C   UNL     1      -3.124  20.766  29.957  1.00  0.00    -0.003 C 
ATOM      8  C   UNL     1      -1.890  21.604  30.281  1.00  0.00     0.004 C 
ENDBRANCH   6   7
ENDBRANCH   1   6
TORSDOF 4
ENDMDL
MODEL 4
REMARK VINA RESULT:    -3.145     14.969     16.053
REMARK INTER + INTRA:          -3.930
REMARK INTER:                  -3.756
REMARK INTRA:                  -0.174
REMARK UNBOUND:                -0.050
REMARK SMILES CCCCCC(=O)[O-]
REMARK SMILES IDX 4 1 5 2 6 3 7 4 8 5 3 6 2 7 1 8
REMARK H PARENT
REMARK Flexibility Score: inf
ROOT
ATOM      1  C   UNL     1       8.662  16.094  15.081  1.00  0.00     0.006 C 
ENDROOT
BRANCH   1   2
ATOM      2  C   UNL     1       7.671  15.629  14.002  1.00  0.00     0.053 C 
BRANCH   2   3
ATOM      3  C   UNL     1       7.476  14.145  14.022  1.00  0.00     0.041 C 
ATOM      4  O   UNL     1       6.526  13.621  13.383  1.00  0.00    -0.550 OA
ATOM      5  O   UNL     1       8.326  13.342  14.773  1.00  0.00    -0.550 OA
ENDBRANCH   2   3
ENDBRANCH   1   2
BRANCH   1   6
ATOM      6  C   UNL     1       8.040  16.992  16.166  1.00  0.00     0.000 C 
BRANCH   6   7
ATOM      7  C   UNL     1       8.560  16.670  17.574  1.00  0.00    -0.003 C 
ATOM      8  C   UNL     1       8.658  15.163  17.792  1.00  0.00     0.004 C 
ENDBRANCH   6   7
ENDBRANCH   1   6
TORSDOF 4
ENDMDL
MODEL 5
REMARK VINA RESULT:    -3.083      8.722      9.892
REMARK INTER + INTRA:          -3.854
REMARK INTER:                  -3.699
REMARK INTRA:                  -0.155
REMARK UNBOUND:                -0.050
REMARK SMILES CCCCCC(=O)[O-]
REMARK SMILES IDX 4 1 5 2 6 3 7 4 8 5 3 6 2 7 1 8
REMARK H PARENT
REMARK Flexibility Score: inf
ROOT
ATOM      1  C   UNL     1       9.297  22.206  28.571  1.00  0.00     0.006 C 
ENDROOT
BRANCH   1   2
ATOM      2  C   UNL     1       9.976  21.811  27.250  1.00  0.00     0.053 C 
BRANCH   2   3
ATOM      3  C   UNL     1       9.904  20.336  27.003  1.00  0.00     0.041 C 
ATOM      4  O   UNL     1       9.313  19.892  25.983  1.00  0.00    -0.550 OA
ATOM      5  O   UNL     1      10.463  19.450  27.915  1.00  0.00    -0.550 OA
ENDBRANCH   2   3
ENDBRANCH   1   2
BRANCH   1   6
ATOM      6  C   UNL     1       8.139  23.210  28.413  1.00  0.00     0.000 C 
BRANCH   6   7
ATOM      7  C   UNL     1       6.786  22.630  28.850  1.00  0.00    -0.003 C 
ATOM      8  C   UNL     1       6.376  21.461  27.960  1.00  0.00     0.004 C 
ENDBRANCH   6   7
ENDBRANCH   1   6
TORSDOF 4
ENDMDL
MODEL 6
REMARK VINA RESULT:    -3.033     14.444     15.624
REMARK INTER + INTRA:          -3.793
REMARK INTER:                  -3.631
REMARK INTRA:                  -0.162
REMARK UNBOUND:                -0.050
REMARK SMILES CCCCCC(=O)[O-]
REMARK SMILES IDX 4 1 5 2 6 3 7 4 8 5 3 6 2 7 1 8
REMARK H PARENT
REMARK Flexibility Score: inf
ROOT
ATOM      1  C   UNL     1       8.429  16.782  17.526  1.00  0.00     0.006 C 
ENDROOT
BRANCH   1   2
ATOM      2  C   UNL     1       9.694  15.943  17.769  1.00  0.00     0.053 C 
BRANCH   2   3
ATOM      3  C   UNL     1      10.906  16.800  17.966  1.00  0.00     0.041 C 
ATOM      4  O   UNL     1      11.499  17.296  16.972  1.00  0.00    -0.550 OA
ATOM      5  O   UNL     1      11.398  17.028  19.244  1.00  0.00    -0.550 OA
ENDBRANCH   2   3
ENDBRANCH   1   2
BRANCH   1   6
ATOM      6  C   UNL     1       8.054  16.944  16.041  1.00  0.00     0.000 C 
BRANCH   6   7
ATOM      7  C   UNL     1       8.488  15.747  15.184  1.00  0.00    -0.003 C 
ATOM      8  C   UNL     1       7.601  15.605  13.950  1.00  0.00     0.004 C 
ENDBRANCH   6   7
ENDBRANCH   1   6
TORSDOF 4
ENDMDL
MODEL 7
REMARK VINA RESULT:    -3.008      9.246     11.212
REMARK INTER + INTRA:          -3.761
REMARK INTER:                  -3.692
REMARK INTRA:                  -0.069
REMARK UNBOUND:                -0.050
REMARK SMILES CCCCCC(=O)[O-]
REMARK SMILES IDX 4 1 5 2 6 3 7 4 8 5 3 6 2 7 1 8
REMARK H PARENT
REMARK Flexibility Score: inf
ROOT
ATOM      1  C   UNL     1       9.505  21.618  27.455  1.00  0.00     0.006 C 
ENDROOT
BRANCH   1   2
ATOM      2  C   UNL     1       8.860  22.749  28.272  1.00  0.00     0.053 C 
BRANCH   2   3
ATOM      3  C   UNL     1       7.381  22.565  28.412  1.00  0.00     0.041 C 
ATOM      4  O   UNL     1       6.777  21.716  27.704  1.00  0.00    -0.550 OA
ATOM      5  O   UNL     1       6.662  23.353  29.302  1.00  0.00    -0.550 OA
ENDBRANCH   2   3
ENDBRANCH   1   2
BRANCH   1   6
ATOM      6  C   UNL     1      10.344  20.633  28.290  1.00  0.00     0.000 C 
BRANCH   6   7
ATOM      7  C   UNL     1      11.273  19.765  27.429  1.00  0.00    -0.003 C 
ATOM      8  C   UNL     1      12.284  19.018  28.294  1.00  0.00     0.004 C 
ENDBRANCH   6   7
ENDBRANCH   1   6
TORSDOF 4
ENDMDL
MODEL 8
REMARK VINA RESULT:    -2.997      3.334      4.318
REMARK INTER + INTRA:          -3.748
REMARK INTER:                  -3.676
REMARK INTRA:                  -0.072
REMARK UNBOUND:                -0.050
REMARK SMILES CCCCCC(=O)[O-]
REMARK SMILES IDX 4 1 5 2 6 3 7 4 8 5 3 6 2 7 1 8
REMARK H PARENT
REMARK Flexibility Score: inf
ROOT
ATOM      1  C   UNL     1       0.512  14.619  29.495  1.00  0.00     0.006 C 
ENDROOT
BRANCH   1   2
ATOM      2  C   UNL     1      -0.778  13.851  29.824  1.00  0.00     0.053 C 
BRANCH   2   3
ATOM      3  C   UNL     1      -0.643  12.385  29.548  1.00  0.00     0.041 C 
ATOM      4  O   UNL     1      -1.417  11.561  30.102  1.00  0.00    -0.550 OA
ATOM      5  O   UNL     1       0.359  11.926  28.702  1.00  0.00    -0.550 OA
ENDBRANCH   2   3
ENDBRANCH   1   2
BRANCH   1   6
ATOM      6  C   UNL     1       0.413  16.141  29.707  1.00  0.00     0.000 C 
BRANCH   6   7
ATOM      7  C   UNL     1      -0.299  16.857  28.550  1.00  0.00    -0.003 C 
ATOM      8  C   UNL     1      -0.852  18.208  28.998  1.00  0.00     0.004 C 
ENDBRANCH   6   7
ENDBRANCH   1   6
TORSDOF 4
ENDMDL
MODEL 9
REMARK VINA RESULT:    -2.898      5.154      6.232
REMARK INTER + INTRA:          -3.626
REMARK INTER:                  -3.409
REMARK INTRA:                  -0.217
REMARK UNBOUND:                -0.050
REMARK SMILES CCCCCC(=O)[O-]
REMARK SMILES IDX 4 1 5 2 6 3 7 4 8 5 3 6 2 7 1 8
REMARK H PARENT
REMARK Flexibility Score: inf
ROOT
ATOM      1  C   UNL     1      -1.181  13.186  29.851  1.00  0.00     0.006 C 
ENDROOT
BRANCH   1   2
ATOM      2  C   UNL     1       0.293  13.578  29.656  1.00  0.00     0.053 C 
BRANCH   2   3
ATOM      3  C   UNL     1       1.100  12.453  29.087  1.00  0.00     0.041 C 
ATOM      4  O   UNL     1       2.357  12.472  29.164  1.00  0.00    -0.550 OA
ATOM      5  O   UNL     1       0.467  11.397  28.443  1.00  0.00    -0.550 OA
ENDBRANCH   2   3
ENDBRANCH   1   2
BRANCH   1   6
ATOM      6  C   UNL     1      -1.536  12.754  31.286  1.00  0.00     0.000 C 
BRANCH   6   7
ATOM      7  C   UNL     1      -1.949  11.278  31.377  1.00  0.00    -0.003 C 
ATOM      8  C   UNL     1      -0.852  10.441  32.030  1.00  0.00     0.004 C 
ENDBRANCH   6   7
ENDBRANCH   1   6
TORSDOF 4
ENDMDL
