MODEL 1
REMARK VINA RESULT:    -5.492      0.000      0.000
REMARK INTER + INTRA:          -6.429
REMARK INTER:                  -6.294
REMARK INTRA:                  -0.135
REMARK UNBOUND:                -0.135
REMARK SMILES O=C([O-])C=Cc1ccc(O)cc1
REMARK SMILES IDX 6 1 7 2 12 3 8 4 11 5 9 6 5 7 4 8 2 9 1 10 3 11 10 12
REMARK H PARENT 10 13
REMARK Flexibility Score: inf
ROOT
ATOM      1  C   UNL     1       8.930  28.550  -0.067  1.00  0.00    -0.025 A 
ATOM      2  C   UNL     1       7.940  28.326  -1.046  1.00  0.00     0.012 A 
ATOM      3  C   UNL     1      10.228  28.061  -0.294  1.00  0.00     0.012 A 
ATOM      4  C   UNL     1       8.254  27.649  -2.229  1.00  0.00     0.047 A 
ATOM      5  C   UNL     1      10.537  27.384  -1.478  1.00  0.00     0.047 A 
ATOM      6  C   UNL     1       9.554  27.179  -2.449  1.00  0.00     0.115 A 
ENDROOT
BRANCH   1   7
ATOM      7  C   UNL     1       8.648  29.252   1.209  1.00  0.00     0.010 C 
ATOM      8  C   UNL     1       7.789  30.276   1.323  1.00  0.00     0.025 C 
BRANCH   8   9
ATOM      9  C   UNL     1       7.544  30.956   2.606  1.00  0.00     0.064 C 
ATOM     10  O   UNL     1       6.917  30.383   3.537  1.00  0.00    -0.545 OA
ATOM     11  O   UNL     1       8.008  32.251   2.791  1.00  0.00    -0.545 OA
ENDBRANCH   8   9
ENDBRANCH   1   7
BRANCH   6  12
ATOM     12  O   UNL     1       9.878  26.505  -3.624  1.00  0.00    -0.508 OA
ATOM     13  H   UNL     1       9.184  25.972  -4.136  1.00  0.00     0.293 HD
ENDBRANCH   6  12
TORSDOF 3
ENDMDL
MODEL 2
REMARK VINA RESULT:    -5.460      3.006      3.866
REMARK INTER + INTRA:          -6.392
REMARK INTER:                  -6.246
REMARK INTRA:                  -0.146
REMARK UNBOUND:                -0.135
REMARK SMILES O=C([O-])C=Cc1ccc(O)cc1
REMARK SMILES IDX 6 1 7 2 12 3 8 4 11 5 9 6 5 7 4 8 2 9 1 10 3 11 10 12
REMARK H PARENT 10 13
REMARK Flexibility Score: inf
ROOT
ATOM      1  C   UNL     1       8.262  28.057  -0.978  1.00  0.00    -0.025 A 
ATOM      2  C   UNL     1       9.240  28.384  -0.017  1.00  0.00     0.012 A 
ATOM      3  C   UNL     1       8.668  27.441  -2.174  1.00  0.00     0.012 A 
ATOM      4  C   UNL     1      10.585  28.079  -0.244  1.00  0.00     0.047 A 
ATOM      5  C   UNL     1      10.015  27.137  -2.397  1.00  0.00     0.047 A 
ATOM      6  C   UNL     1      10.976  27.453  -1.432  1.00  0.00     0.115 A 
ENDROOT
BRANCH   1   7
ATOM      7  C   UNL     1       6.823  28.368  -0.793  1.00  0.00     0.010 C 
ATOM      8  C   UNL     1       5.827  27.614  -1.280  1.00  0.00     0.025 C 
BRANCH   8   9
ATOM      9  C   UNL     1       4.410  27.961  -1.086  1.00  0.00     0.064 C 
ATOM     10  O   UNL     1       3.879  27.918   0.056  1.00  0.00    -0.545 OA
ATOM     11  O   UNL     1       3.644  28.341  -2.180  1.00  0.00    -0.545 OA
ENDBRANCH   8   9
ENDBRANCH   1   7
BRANCH   6  12
ATOM     12  O   UNL     1      12.314  27.143  -1.668  1.00  0.00    -0.508 OA
ATOM     13  H   UNL     1      12.580  26.376  -2.276  1.00  0.00     0.293 HD
ENDBRANCH   6  12
TORSDOF 3
ENDMDL
MODEL 3
REMARK VINA RESULT:    -5.459      0.133      1.404
REMARK INTER + INTRA:          -6.392
REMARK INTER:                  -6.244
REMARK INTRA:                  -0.148
REMARK UNBOUND:                -0.135
REMARK SMILES O=C([O-])C=Cc1ccc(O)cc1
REMARK SMILES IDX 6 1 7 2 12 3 8 4 11 5 9 6 5 7 4 8 2 9 1 10 3 11 10 12
REMARK H PARENT 10 13
REMARK Flexibility Score: inf
ROOT
ATOM      1  C   UNL     1       8.998  28.521  -0.023  1.00  0.00    -0.025 A 
ATOM      2  C   UNL     1      10.303  28.051  -0.278  1.00  0.00     0.012 A 
ATOM      3  C   UNL     1       8.007  28.331  -1.001  1.00  0.00     0.012 A 
ATOM      4  C   UNL     1      10.595  27.388  -1.474  1.00  0.00     0.047 A 
ATOM      5  C   UNL     1       8.304  27.667  -2.195  1.00  0.00     0.047 A 
ATOM      6  C   UNL     1       9.596  27.192  -2.434  1.00  0.00     0.115 A 
ENDROOT
BRANCH   1   7
ATOM      7  C   UNL     1       8.637  29.241   1.224  1.00  0.00     0.010 C 
ATOM      8  C   UNL     1       7.681  30.178   1.294  1.00  0.00     0.025 C 
BRANCH   8   9
ATOM      9  C   UNL     1       7.359  30.880   2.548  1.00  0.00     0.064 C 
ATOM     10  O   UNL     1       6.712  30.309   3.466  1.00  0.00    -0.545 OA
ATOM     11  O   UNL     1       7.772  32.194   2.719  1.00  0.00    -0.545 OA
ENDBRANCH   8   9
ENDBRANCH   1   7
BRANCH   6  12
ATOM     12  O   UNL     1       9.876  26.531  -3.628  1.00  0.00    -0.508 OA
ATOM     13  H   UNL     1      10.822  26.265  -3.876  1.00  0.00     0.293 HD
ENDBRANCH   6  12
TORSDOF 3
ENDMDL
MODEL 4
REMARK VINA RESULT:    -5.404      7.504     11.568
REMARK INTER + INTRA:          -6.329
REMARK INTER:                  -6.192
REMARK INTRA:                  -0.137
REMARK UNBOUND:                -0.135
REMARK SMILES O=C([O-])C=Cc1ccc(O)cc1
REMARK SMILES IDX 6 1 7 2 12 3 8 4 11 5 9 6 5 7 4 8 2 9 1 10 3 11 10 12
REMARK H PARENT 10 13
REMARK Flexibility Score: inf
ROOT
ATOM      1  C   UNL     1       3.800  37.106   4.208  1.00  0.00    -0.025 A 
ATOM      2  C   UNL     1       3.169  36.323   5.196  1.00  0.00     0.012 A 
ATOM      3  C   UNL     1       3.989  38.477   4.450  1.00  0.00     0.012 A 
ATOM      4  C   UNL     1       2.761  36.899   6.403  1.00  0.00     0.047 A 
ATOM      5  C   UNL     1       3.580  39.050   5.659  1.00  0.00     0.047 A 
ATOM      6  C   UNL     1       2.968  38.263   6.638  1.00  0.00     0.115 A 
ENDROOT
BRANCH   1   7
ATOM      7  C   UNL     1       4.242  36.547   2.907  1.00  0.00     0.010 C 
ATOM      8  C   UNL     1       4.474  35.244   2.695  1.00  0.00     0.025 C 
BRANCH   8   9
ATOM      9  C   UNL     1       4.924  34.727   1.391  1.00  0.00     0.064 C 
ATOM     10  O   UNL     1       4.106  34.525   0.454  1.00  0.00    -0.545 OA
ATOM     11  O   UNL     1       6.271  34.455   1.193  1.00  0.00    -0.545 OA
ENDBRANCH   8   9
ENDBRANCH   1   7
BRANCH   6  12
ATOM     12  O   UNL     1       2.566  38.848   7.838  1.00  0.00    -0.508 OA
ATOM     13  H   UNL     1       3.213  39.381   8.408  1.00  0.00     0.293 HD
ENDBRANCH   6  12
TORSDOF 3
ENDMDL
MODEL 5
REMARK VINA RESULT:    -5.318     10.432     12.213
REMARK INTER + INTRA:          -6.230
REMARK INTER:                  -6.092
REMARK INTRA:                  -0.138
REMARK UNBOUND:                -0.135
REMARK SMILES O=C([O-])C=Cc1ccc(O)cc1
REMARK SMILES IDX 6 1 7 2 12 3 8 4 11 5 9 6 5 7 4 8 2 9 1 10 3 11 10 12
REMARK H PARENT 10 13
REMARK Flexibility Score: inf
ROOT
ATOM      1  C   UNL     1       2.896  36.798   5.197  1.00  0.00    -0.025 A 
ATOM      2  C   UNL     1       2.741  37.310   6.502  1.00  0.00     0.012 A 
ATOM      3  C   UNL     1       3.487  37.613   4.216  1.00  0.00     0.012 A 
ATOM      4  C   UNL     1       3.190  38.596   6.816  1.00  0.00     0.047 A 
ATOM      5  C   UNL     1       3.934  38.899   4.535  1.00  0.00     0.047 A 
ATOM      6  C   UNL     1       3.790  39.393   5.834  1.00  0.00     0.115 A 
ENDROOT
BRANCH   1   7
ATOM      7  C   UNL     1       2.427  35.445   4.808  1.00  0.00     0.010 C 
ATOM      8  C   UNL     1       1.619  34.689   5.565  1.00  0.00     0.025 C 
BRANCH   8   9
ATOM      9  C   UNL     1       1.184  33.344   5.151  1.00  0.00     0.064 C 
ATOM     10  O   UNL     1       1.689  32.310   5.663  1.00  0.00    -0.545 OA
ATOM     11  O   UNL     1       0.204  33.215   4.177  1.00  0.00    -0.545 OA
ENDBRANCH   8   9
ENDBRANCH   1   7
BRANCH   6  12
ATOM     12  O   UNL     1       4.242  40.676   6.136  1.00  0.00    -0.508 OA
ATOM     13  H   UNL     1       4.804  41.206   5.481  1.00  0.00     0.293 HD
ENDBRANCH   6  12
TORSDOF 3
ENDMDL
MODEL 6
REMARK VINA RESULT:    -5.298     10.396     12.153
REMARK INTER + INTRA:          -6.208
REMARK INTER:                  -6.059
REMARK INTRA:                  -0.148
REMARK UNBOUND:                -0.135
REMARK SMILES O=C([O-])C=Cc1ccc(O)cc1
REMARK SMILES IDX 6 1 7 2 12 3 8 4 11 5 9 6 5 7 4 8 2 9 1 10 3 11 10 12
REMARK H PARENT 10 13
REMARK Flexibility Score: inf
ROOT
ATOM      1  C   UNL     1       3.006  36.821   5.035  1.00  0.00    -0.025 A 
ATOM      2  C   UNL     1       3.653  37.634   4.081  1.00  0.00     0.012 A 
ATOM      3  C   UNL     1       2.811  37.325   6.332  1.00  0.00     0.012 A 
ATOM      4  C   UNL     1       4.070  38.926   4.419  1.00  0.00     0.047 A 
ATOM      5  C   UNL     1       3.230  38.617   6.665  1.00  0.00     0.047 A 
ATOM      6  C   UNL     1       3.857  39.421   5.710  1.00  0.00     0.115 A 
ENDROOT
BRANCH   1   7
ATOM      7  C   UNL     1       2.554  35.441   4.733  1.00  0.00     0.010 C 
ATOM      8  C   UNL     1       1.605  34.798   5.427  1.00  0.00     0.025 C 
BRANCH   8   9
ATOM      9  C   UNL     1       1.190  33.422   5.105  1.00  0.00     0.064 C 
ATOM     10  O   UNL     1       1.810  32.429   5.571  1.00  0.00    -0.545 OA
ATOM     11  O   UNL     1       0.100  33.216   4.270  1.00  0.00    -0.545 OA
ENDBRANCH   8   9
ENDBRANCH   1   7
BRANCH   6  12
ATOM     12  O   UNL     1       4.267  40.707   6.056  1.00  0.00    -0.508 OA
ATOM     13  H   UNL     1       3.771  41.250   6.754  1.00  0.00     0.293 HD
ENDBRANCH   6  12
TORSDOF 3
ENDMDL
MODEL 7
REMARK VINA RESULT:    -5.264      6.099     10.201
REMARK INTER + INTRA:          -6.169
REMARK INTER:                  -6.035
REMARK INTRA:                  -0.133
REMARK UNBOUND:                -0.135
REMARK SMILES O=C([O-])C=Cc1ccc(O)cc1
REMARK SMILES IDX 6 1 7 2 12 3 8 4 11 5 9 6 5 7 4 8 2 9 1 10 3 11 10 12
REMARK H PARENT 10 13
REMARK Flexibility Score: inf
ROOT
ATOM      1  C   UNL     1       4.272  35.759   3.394  1.00  0.00    -0.025 A 
ATOM      2  C   UNL     1       3.535  35.031   4.350  1.00  0.00     0.012 A 
ATOM      3  C   UNL     1       4.226  37.164   3.430  1.00  0.00     0.012 A 
ATOM      4  C   UNL     1       2.792  35.699   5.329  1.00  0.00     0.047 A 
ATOM      5  C   UNL     1       3.482  37.827   4.411  1.00  0.00     0.047 A 
ATOM      6  C   UNL     1       2.766  37.097   5.363  1.00  0.00     0.115 A 
ENDROOT
BRANCH   1   7
ATOM      7  C   UNL     1       5.068  35.102   2.328  1.00  0.00     0.010 C 
ATOM      8  C   UNL     1       6.175  34.382   2.560  1.00  0.00     0.025 C 
BRANCH   8   9
ATOM      9  C   UNL     1       6.945  33.753   1.474  1.00  0.00     0.064 C 
ATOM     10  O   UNL     1       6.558  32.681   0.936  1.00  0.00    -0.545 OA
ATOM     11  O   UNL     1       8.120  34.350   1.037  1.00  0.00    -0.545 OA
ENDBRANCH   8   9
ENDBRANCH   1   7
BRANCH   6  12
ATOM     12  O   UNL     1       2.030  37.772   6.335  1.00  0.00    -0.508 OA
ATOM     13  H   UNL     1       2.011  38.785   6.375  1.00  0.00     0.293 HD
ENDBRANCH   6  12
TORSDOF 3
ENDMDL
MODEL 8
REMARK VINA RESULT:    -5.198      7.508     10.271
REMARK INTER + INTRA:          -6.093
REMARK INTER:                  -5.955
REMARK INTRA:                  -0.138
REMARK UNBOUND:                -0.135
REMARK SMILES O=C([O-])C=Cc1ccc(O)cc1
REMARK SMILES IDX 6 1 7 2 12 3 8 4 11 5 9 6 5 7 4 8 2 9 1 10 3 11 10 12
REMARK H PARENT 10 13
REMARK Flexibility Score: inf
ROOT
ATOM      1  C   UNL     1       0.183  30.226   2.328  1.00  0.00    -0.025 A 
ATOM      2  C   UNL     1       0.688  30.603   3.590  1.00  0.00     0.012 A 
ATOM      3  C   UNL     1      -0.895  30.948   1.788  1.00  0.00     0.012 A 
ATOM      4  C   UNL     1       0.138  31.691   4.276  1.00  0.00     0.047 A 
ATOM      5  C   UNL     1      -1.441  32.035   2.478  1.00  0.00     0.047 A 
ATOM      6  C   UNL     1      -0.926  32.410   3.721  1.00  0.00     0.115 A 
ENDROOT
BRANCH   1   7
ATOM      7  C   UNL     1       0.722  29.075   1.563  1.00  0.00     0.010 C 
ATOM      8  C   UNL     1       1.906  28.500   1.816  1.00  0.00     0.025 C 
BRANCH   8   9
ATOM      9  C   UNL     1       2.414  27.365   1.027  1.00  0.00     0.064 C 
ATOM     10  O   UNL     1       2.607  26.238   1.557  1.00  0.00    -0.545 OA
ATOM     11  O   UNL     1       2.686  27.541  -0.323  1.00  0.00    -0.545 OA
ENDBRANCH   8   9
ENDBRANCH   1   7
BRANCH   6  12
ATOM     12  O   UNL     1      -1.480  33.496   4.395  1.00  0.00    -0.508 OA
ATOM     13  H   UNL     1      -1.850  33.402   5.335  1.00  0.00     0.293 HD
ENDBRANCH   6  12
TORSDOF 3
ENDMDL
MODEL 9
REMARK VINA RESULT:    -5.164      6.999      7.829
REMARK INTER + INTRA:          -6.053
REMARK INTER:                  -5.904
REMARK INTRA:                  -0.149
REMARK UNBOUND:                -0.135
REMARK SMILES O=C([O-])C=Cc1ccc(O)cc1
REMARK SMILES IDX 6 1 7 2 12 3 8 4 11 5 9 6 5 7 4 8 2 9 1 10 3 11 10 12
REMARK H PARENT 10 13
REMARK Flexibility Score: inf
ROOT
ATOM      1  C   UNL     1       1.491  28.368   1.756  1.00  0.00    -0.025 A 
ATOM      2  C   UNL     1       1.672  27.106   2.359  1.00  0.00     0.012 A 
ATOM      3  C   UNL     1       2.075  28.608   0.501  1.00  0.00     0.012 A 
ATOM      4  C   UNL     1       2.401  26.107   1.705  1.00  0.00     0.047 A 
ATOM      5  C   UNL     1       2.802  27.605  -0.149  1.00  0.00     0.047 A 
ATOM      6  C   UNL     1       2.965  26.353   0.449  1.00  0.00     0.115 A 
ENDROOT
BRANCH   1   7
ATOM      7  C   UNL     1       0.738  29.465   2.411  1.00  0.00     0.010 C 
ATOM      8  C   UNL     1       0.068  30.414   1.741  1.00  0.00     0.025 C 
BRANCH   8   9
ATOM      9  C   UNL     1      -0.660  31.496   2.426  1.00  0.00     0.064 C 
ATOM     10  O   UNL     1      -0.630  31.608   3.680  1.00  0.00    -0.545 OA
ATOM     11  O   UNL     1      -1.393  32.405   1.676  1.00  0.00    -0.545 OA
ENDBRANCH   8   9
ENDBRANCH   1   7
BRANCH   6  12
ATOM     12  O   UNL     1       3.691  25.365  -0.212  1.00  0.00    -0.508 OA
ATOM     13  H   UNL     1       4.678  25.480  -0.415  1.00  0.00     0.293 HD
ENDBRANCH   6  12
TORSDOF 3
ENDMDL
