MODEL 1
REMARK VINA RESULT:    -3.362      0.000      0.000
REMARK INTER + INTRA:          -4.252
REMARK INTER:                  -4.148
REMARK INTRA:                  -0.104
REMARK UNBOUND:                -0.104
REMARK SMILES CCCCCC(=O)[O-]
REMARK SMILES IDX 4 1 5 2 6 3 7 4 8 5 3 6 2 7 1 8
REMARK H PARENT
REMARK Flexibility Score: inf
ROOT
ATOM      1  C   UNL     1       6.499   9.577  33.233  1.00  0.00     0.006 C 
ENDROOT
BRANCH   1   2
ATOM      2  C   UNL     1       7.786   8.755  33.383  1.00  0.00     0.053 C 
BRANCH   2   3
ATOM      3  C   UNL     1       7.461   7.333  33.717  1.00  0.00     0.041 C 
ATOM      4  O   UNL     1       8.266   6.641  34.395  1.00  0.00    -0.550 OA
ATOM      5  O   UNL     1       6.246   6.786  33.323  1.00  0.00    -0.550 OA
ENDBRANCH   2   3
ENDBRANCH   1   2
BRANCH   1   6
ATOM      6  C   UNL     1       5.881   9.960  34.586  1.00  0.00     0.000 C 
BRANCH   6   7
ATOM      7  C   UNL     1       5.154  11.312  34.543  1.00  0.00    -0.003 C 
ATOM      8  C   UNL     1       5.042  11.830  33.112  1.00  0.00     0.004 C 
ENDBRANCH   6   7
ENDBRANCH   1   6
TORSDOF 4
ENDMDL
MODEL 2
REMARK VINA RESULT:    -3.158      1.284      1.963
REMARK INTER + INTRA:          -4.000
REMARK INTER:                  -3.863
REMARK INTRA:                  -0.137
REMARK UNBOUND:                -0.104
REMARK SMILES CCCCCC(=O)[O-]
REMARK SMILES IDX 4 1 5 2 6 3 7 4 8 5 3 6 2 7 1 8
REMARK H PARENT
REMARK Flexibility Score: inf
ROOT
ATOM      1  C   UNL     1       7.883   8.650  33.445  1.00  0.00     0.006 C 
ENDROOT
BRANCH   1   2
ATOM      2  C   UNL     1       7.417   7.226  33.770  1.00  0.00     0.053 C 
BRANCH   2   3
ATOM      3  C   UNL     1       7.918   6.808  35.116  1.00  0.00     0.041 C 
ATOM      4  O   UNL     1       7.413   7.297  36.161  1.00  0.00    -0.550 OA
ATOM      5  O   UNL     1       8.909   5.840  35.220  1.00  0.00    -0.550 OA
ENDBRANCH   2   3
ENDBRANCH   1   2
BRANCH   1   6
ATOM      6  C   UNL     1       6.730   9.563  33.001  1.00  0.00     0.000 C 
BRANCH   6   7
ATOM      7  C   UNL     1       5.750   9.876  34.143  1.00  0.00    -0.003 C 
ATOM      8  C   UNL     1       5.180  11.284  34.006  1.00  0.00     0.004 C 
ENDBRANCH   6   7
ENDBRANCH   1   6
TORSDOF 4
ENDMDL
MODEL 3
REMARK VINA RESULT:    -3.135      1.373      1.998
REMARK INTER + INTRA:          -3.972
REMARK INTER:                  -3.898
REMARK INTRA:                  -0.074
REMARK UNBOUND:                -0.104
REMARK SMILES CCCCCC(=O)[O-]
REMARK SMILES IDX 4 1 5 2 6 3 7 4 8 5 3 6 2 7 1 8
REMARK H PARENT
REMARK Flexibility Score: inf
ROOT
ATOM      1  C   UNL     1       5.994  10.604  32.958  1.00  0.00     0.006 C 
ENDROOT
BRANCH   1   2
ATOM      2  C   UNL     1       6.031   9.454  33.971  1.00  0.00     0.053 C 
BRANCH   2   3
ATOM      3  C   UNL     1       6.928   8.359  33.486  1.00  0.00     0.041 C 
ATOM      4  O   UNL     1       6.455   7.221  33.223  1.00  0.00    -0.550 OA
ATOM      5  O   UNL     1       8.278   8.608  33.275  1.00  0.00    -0.550 OA
ENDBRANCH   2   3
ENDBRANCH   1   2
BRANCH   1   6
ATOM      6  C   UNL     1       4.986  11.699  33.341  1.00  0.00     0.000 C 
BRANCH   6   7
ATOM      7  C   UNL     1       5.167  12.191  34.785  1.00  0.00    -0.003 C 
ATOM      8  C   UNL     1       5.164  13.715  34.850  1.00  0.00     0.004 C 
ENDBRANCH   6   7
ENDBRANCH   1   6
TORSDOF 4
ENDMDL
MODEL 4
REMARK VINA RESULT:    -3.123      1.131      1.765
REMARK INTER + INTRA:          -3.957
REMARK INTER:                  -3.899
REMARK INTRA:                  -0.058
REMARK UNBOUND:                -0.104
REMARK SMILES CCCCCC(=O)[O-]
REMARK SMILES IDX 4 1 5 2 6 3 7 4 8 5 3 6 2 7 1 8
REMARK H PARENT
REMARK Flexibility Score: inf
ROOT
ATOM      1  C   UNL     1       7.633   8.583  33.312  1.00  0.00     0.006 C 
ENDROOT
BRANCH   1   2
ATOM      2  C   UNL     1       7.769   7.189  33.937  1.00  0.00     0.053 C 
BRANCH   2   3
ATOM      3  C   UNL     1       6.423   6.552  34.090  1.00  0.00     0.041 C 
ATOM      4  O   UNL     1       5.761   6.217  33.072  1.00  0.00    -0.550 OA
ATOM      5  O   UNL     1       5.920   6.283  35.357  1.00  0.00    -0.550 OA
ENDBRANCH   2   3
ENDBRANCH   1   2
BRANCH   1   6
ATOM      6  C   UNL     1       6.488   9.399  33.930  1.00  0.00     0.000 C 
BRANCH   6   7
ATOM      7  C   UNL     1       6.027  10.552  33.024  1.00  0.00    -0.003 C 
ATOM      8  C   UNL     1       5.219  11.579  33.811  1.00  0.00     0.004 C 
ENDBRANCH   6   7
ENDBRANCH   1   6
TORSDOF 4
ENDMDL
MODEL 5
REMARK VINA RESULT:    -3.032      3.000      4.589
REMARK INTER + INTRA:          -3.844
REMARK INTER:                  -3.745
REMARK INTRA:                  -0.099
REMARK UNBOUND:                -0.104
REMARK SMILES CCCCCC(=O)[O-]
REMARK SMILES IDX 4 1 5 2 6 3 7 4 8 5 3 6 2 7 1 8
REMARK H PARENT
REMARK Flexibility Score: inf
ROOT
ATOM      1  C   UNL     1       6.680   9.761  32.996  1.00  0.00     0.006 C 
ENDROOT
BRANCH   1   2
ATOM      2  C   UNL     1       5.693  10.026  34.141  1.00  0.00     0.053 C 
BRANCH   2   3
ATOM      3  C   UNL     1       5.226  11.447  34.107  1.00  0.00     0.041 C 
ATOM      4  O   UNL     1       4.877  11.974  33.017  1.00  0.00    -0.550 OA
ATOM      5  O   UNL     1       5.127  12.175  35.286  1.00  0.00    -0.550 OA
ENDBRANCH   2   3
ENDBRANCH   1   2
BRANCH   1   6
ATOM      6  C   UNL     1       7.764   8.741  33.375  1.00  0.00     0.000 C 
BRANCH   6   7
ATOM      7  C   UNL     1       7.183   7.366  33.741  1.00  0.00    -0.003 C 
ATOM      8  C   UNL     1       7.877   6.787  34.970  1.00  0.00     0.004 C 
ENDBRANCH   6   7
ENDBRANCH   1   6
TORSDOF 4
ENDMDL
MODEL 6
REMARK VINA RESULT:    -3.027      2.478      3.987
REMARK INTER + INTRA:          -3.838
REMARK INTER:                  -3.602
REMARK INTRA:                  -0.236
REMARK UNBOUND:                -0.104
REMARK SMILES CCCCCC(=O)[O-]
REMARK SMILES IDX 4 1 5 2 6 3 7 4 8 5 3 6 2 7 1 8
REMARK H PARENT
REMARK Flexibility Score: inf
ROOT
ATOM      1  C   UNL     1       7.422   8.735  34.178  1.00  0.00     0.006 C 
ENDROOT
BRANCH   1   2
ATOM      2  C   UNL     1       6.659   9.576  33.147  1.00  0.00     0.053 C 
BRANCH   2   3
ATOM      3  C   UNL     1       5.596  10.386  33.819  1.00  0.00     0.041 C 
ATOM      4  O   UNL     1       5.241  10.115  34.997  1.00  0.00    -0.550 OA
ATOM      5  O   UNL     1       5.031  11.474  33.164  1.00  0.00    -0.550 OA
ENDBRANCH   2   3
ENDBRANCH   1   2
BRANCH   1   6
ATOM      6  C   UNL     1       7.465   7.244  33.810  1.00  0.00     0.000 C 
BRANCH   6   7
ATOM      7  C   UNL     1       6.074   6.672  33.495  1.00  0.00    -0.003 C 
ATOM      8  C   UNL     1       5.240   6.527  34.764  1.00  0.00     0.004 C 
ENDBRANCH   6   7
ENDBRANCH   1   6
TORSDOF 4
ENDMDL
MODEL 7
REMARK VINA RESULT:    -2.971      1.844      2.691
REMARK INTER + INTRA:          -3.769
REMARK INTER:                  -3.692
REMARK INTRA:                  -0.077
REMARK UNBOUND:                -0.104
REMARK SMILES CCCCCC(=O)[O-]
REMARK SMILES IDX 4 1 5 2 6 3 7 4 8 5 3 6 2 7 1 8
REMARK H PARENT
REMARK Flexibility Score: inf
ROOT
ATOM      1  C   UNL     1       7.808   7.229  33.783  1.00  0.00     0.006 C 
ENDROOT
BRANCH   1   2
ATOM      2  C   UNL     1       7.709   6.919  35.282  1.00  0.00     0.053 C 
BRANCH   2   3
ATOM      3  C   UNL     1       8.547   5.728  35.625  1.00  0.00     0.041 C 
ATOM      4  O   UNL     1       9.648   5.539  35.044  1.00  0.00    -0.550 OA
ATOM      5  O   UNL     1       8.137   4.853  36.624  1.00  0.00    -0.550 OA
ENDBRANCH   2   3
ENDBRANCH   1   2
BRANCH   1   6
ATOM      6  C   UNL     1       7.698   8.731  33.481  1.00  0.00     0.000 C 
BRANCH   6   7
ATOM      7  C   UNL     1       6.367   9.334  33.955  1.00  0.00    -0.003 C 
ATOM      8  C   UNL     1       5.995  10.562  33.128  1.00  0.00     0.004 C 
ENDBRANCH   6   7
ENDBRANCH   1   6
TORSDOF 4
ENDMDL
MODEL 8
REMARK VINA RESULT:    -2.876      2.393      4.663
REMARK INTER + INTRA:          -3.652
REMARK INTER:                  -3.515
REMARK INTRA:                  -0.136
REMARK UNBOUND:                -0.104
REMARK SMILES CCCCCC(=O)[O-]
REMARK SMILES IDX 4 1 5 2 6 3 7 4 8 5 3 6 2 7 1 8
REMARK H PARENT
REMARK Flexibility Score: inf
ROOT
ATOM      1  C   UNL     1       6.535   6.602  33.823  1.00  0.00     0.006 C 
ENDROOT
BRANCH   1   2
ATOM      2  C   UNL     1       6.050   8.028  34.111  1.00  0.00     0.053 C 
BRANCH   2   3
ATOM      3  C   UNL     1       6.911   9.025  33.400  1.00  0.00     0.041 C 
ATOM      4  O   UNL     1       6.412  10.093  32.957  1.00  0.00    -0.550 OA
ATOM      5  O   UNL     1       8.276   8.798  33.271  1.00  0.00    -0.550 OA
ENDBRANCH   2   3
ENDBRANCH   1   2
BRANCH   1   6
ATOM      6  C   UNL     1       6.921   5.840  35.100  1.00  0.00     0.000 C 
BRANCH   6   7
ATOM      7  C   UNL     1       8.394   6.040  35.486  1.00  0.00    -0.003 C 
ATOM      8  C   UNL     1       9.028   4.726  35.933  1.00  0.00     0.004 C 
ENDBRANCH   6   7
ENDBRANCH   1   6
TORSDOF 4
ENDMDL
MODEL 9
REMARK VINA RESULT:    -2.783      2.719      5.185
REMARK INTER + INTRA:          -3.537
REMARK INTER:                  -3.428
REMARK INTRA:                  -0.110
REMARK UNBOUND:                -0.104
REMARK SMILES CCCCCC(=O)[O-]
REMARK SMILES IDX 4 1 5 2 6 3 7 4 8 5 3 6 2 7 1 8
REMARK H PARENT
REMARK Flexibility Score: inf
ROOT
ATOM      1  C   UNL     1       8.234   6.241  34.961  1.00  0.00     0.006 C 
ENDROOT
BRANCH   1   2
ATOM      2  C   UNL     1       8.201   7.356  33.908  1.00  0.00     0.053 C 
BRANCH   2   3
ATOM      3  C   UNL     1       6.793   7.623  33.476  1.00  0.00     0.041 C 
ATOM      4  O   UNL     1       5.995   6.667  33.287  1.00  0.00    -0.550 OA
ATOM      5  O   UNL     1       6.347   8.931  33.329  1.00  0.00    -0.550 OA
ENDBRANCH   2   3
ENDBRANCH   1   2
BRANCH   1   6
ATOM      6  C   UNL     1       9.597   5.536  35.032  1.00  0.00     0.000 C 
BRANCH   6   7
ATOM      7  C   UNL     1      10.525   5.921  33.870  1.00  0.00    -0.003 C 
ATOM      8  C   UNL     1      11.682   4.935  33.741  1.00  0.00     0.004 C 
ENDBRANCH   6   7
ENDBRANCH   1   6
TORSDOF 4
ENDMDL
