MODEL 1
REMARK VINA RESULT:     7.789      0.000      0.000
REMARK INTER + INTRA:          11.754
REMARK INTER:                  12.799
REMARK INTRA:                  -1.045
REMARK UNBOUND:                -1.045
REMARK SMILES C[C@@H]1O[C@@H](OC[C@H]2O[C@@H](Oc3c(-c4ccc(O)c(O)c4)oc4cc(O)cc(O)c4c3=O)[C@H](O)[C@H](O)[C@H]2O)[C@@H](O)[C@@H](O)[C@H]1O
REMARK SMILES IDX 7 1 36 2 34 3 32 4 9 5 8 6 6 7 5 8 4 9 1 10 2 11 42 12 3 13
REMARK SMILES IDX 40 14 38 15 43 16 41 18 39 20 37 22 35 24 10 26 11 27 12 28
REMARK SMILES IDX 30 29 21 30 29 31 31 32 22 33 27 34 23 35 26 36 24 37 13 38
REMARK SMILES IDX 20 39 14 40 18 41 15 42 16 43 19 44 17 46 28 48 25 50 33 52
REMARK H PARENT 43 17 41 19 39 21 37 23 35 25 19 45 17 47 28 49 25 51 33 53
REMARK Flexibility Score: inf
ROOT
ATOM      1  C   UNL     1     -18.602  43.164  -1.741  1.00  0.00     0.180 C 
ATOM      2  C   UNL     1     -17.571  41.957  -1.991  1.00  0.00     0.177 C 
ATOM      3  C   UNL     1     -17.441  41.467  -3.481  1.00  0.00     0.180 C 
ATOM      4  C   UNL     1     -17.489  42.744  -4.372  1.00  0.00     0.214 C 
ATOM      5  C   UNL     1     -18.862  43.368  -4.036  1.00  0.00     0.339 C 
ATOM      6  O   UNL     1     -18.613  44.118  -2.831  1.00  0.00    -0.332 OA
ENDROOT
BRANCH   1   7
ATOM      7  C   UNL     1     -18.362  43.751  -0.311  1.00  0.00     0.198 C 
BRANCH   7   8
ATOM      8  O   UNL     1     -18.836  42.909   0.770  1.00  0.00    -0.347 OA
BRANCH   8   9
ATOM      9  C   UNL     1     -19.687  43.624   1.662  1.00  0.00     0.281 C 
ATOM     10  C   UNL     1     -18.633  44.878   4.808  1.00  0.00     0.041 C 
ATOM     11  C   UNL     1     -18.367  43.890   3.690  1.00  0.00     0.150 C 
ATOM     12  C   UNL     1     -18.832  42.438   4.061  1.00  0.00     0.174 C 
ATOM     13  O   UNL     1     -19.007  44.451   2.554  1.00  0.00    -0.344 OA
ATOM     14  C   UNL     1     -20.283  42.173   3.732  1.00  0.00     0.179 C 
ATOM     15  C   UNL     1     -20.709  42.685   2.325  1.00  0.00     0.202 C 
BRANCH  12  16
ATOM     16  O   UNL     1     -17.965  41.461   3.488  1.00  0.00    -0.388 OA
ATOM     17  H   UNL     1     -17.749  40.747   4.156  1.00  0.00     0.211 HD
ENDBRANCH  12  16
BRANCH  14  18
ATOM     18  O   UNL     1     -20.498  40.811   3.878  1.00  0.00    -0.387 OA
ATOM     19  H   UNL     1     -19.590  40.389   3.912  1.00  0.00     0.211 HD
ENDBRANCH  14  18
BRANCH  15  20
ATOM     20  O   UNL     1     -21.029  41.557   1.426  1.00  0.00    -0.385 OA
ATOM     21  H   UNL     1     -21.945  41.649   1.057  1.00  0.00     0.211 HD
ENDBRANCH  15  20
ENDBRANCH   8   9
ENDBRANCH   7   8
ENDBRANCH   1   7
BRANCH   2  22
ATOM     22  O   UNL     1     -16.306  42.320  -1.459  1.00  0.00    -0.387 OA
ATOM     23  H   UNL     1     -16.252  42.146  -0.484  1.00  0.00     0.211 HD
ENDBRANCH   2  22
BRANCH   3  24
ATOM     24  O   UNL     1     -18.397  40.485  -3.866  1.00  0.00    -0.387 OA
ATOM     25  H   UNL     1     -18.508  39.792  -3.148  1.00  0.00     0.211 HD
ENDBRANCH   3  24
BRANCH   5  26
ATOM     26  O   UNL     1     -19.399  44.070  -5.187  1.00  0.00    -0.454 OA
BRANCH  26  27
ATOM     27  C   UNL     1     -20.254  43.454  -6.143  1.00  0.00     0.214 A 
ATOM     28  C   UNL     1     -21.578  43.026  -5.907  1.00  0.00     0.180 A 
ATOM     29  C   UNL     1     -19.641  42.861  -7.237  1.00  0.00     0.239 A 
ATOM     30  O   UNL     1     -21.877  41.731  -6.110  1.00  0.00    -0.452 OA
ATOM     31  C   UNL     1     -19.979  41.515  -7.528  1.00  0.00     0.111 A 
ATOM     32  O   UNL     1     -19.281  43.575  -8.216  1.00  0.00    -0.285 OA
ATOM     33  C   UNL     1     -21.074  40.939  -6.816  1.00  0.00     0.146 A 
ATOM     34  C   UNL     1     -19.325  40.745  -8.466  1.00  0.00     0.134 A 
ATOM     35  C   UNL     1     -21.438  39.635  -7.069  1.00  0.00     0.094 A 
ATOM     36  C   UNL     1     -19.668  39.395  -8.714  1.00  0.00     0.093 A 
ATOM     37  C   UNL     1     -20.805  38.883  -8.090  1.00  0.00     0.123 A 
BRANCH  28  38
ATOM     38  C   UNL     1     -22.722  43.923  -6.015  1.00  0.00     0.025 A 
ATOM     39  C   UNL     1     -22.560  45.203  -6.580  1.00  0.00     0.062 A 
ATOM     40  C   UNL     1     -23.994  43.297  -6.177  1.00  0.00     0.016 A 
ATOM     41  C   UNL     1     -23.664  45.916  -7.153  1.00  0.00     0.158 A 
ATOM     42  C   UNL     1     -25.091  44.057  -6.582  1.00  0.00     0.051 A 
ATOM     43  C   UNL     1     -24.958  45.356  -7.131  1.00  0.00     0.157 A 
BRANCH  41  44
ATOM     44  O   UNL     1     -23.459  47.125  -7.778  1.00  0.00    -0.504 OA
ATOM     45  H   UNL     1     -24.117  47.522  -8.465  1.00  0.00     0.293 HD
ENDBRANCH  41  44
BRANCH  43  46
ATOM     46  O   UNL     1     -26.065  46.012  -7.636  1.00  0.00    -0.504 OA
ATOM     47  H   UNL     1     -26.312  46.951  -7.261  1.00  0.00     0.293 HD
ENDBRANCH  43  46
ENDBRANCH  28  38
BRANCH  34  48
ATOM     48  O   UNL     1     -18.200  41.166  -9.102  1.00  0.00    -0.507 OA
ATOM     49  H   UNL     1     -17.563  40.557  -9.674  1.00  0.00     0.293 HD
ENDBRANCH  34  48
BRANCH  37  50
ATOM     50  O   UNL     1     -21.330  37.622  -8.423  1.00  0.00    -0.508 OA
ATOM     51  H   UNL     1     -22.271  37.604  -8.853  1.00  0.00     0.293 HD
ENDBRANCH  37  50
ENDBRANCH  26  27
ENDBRANCH   5  26
BRANCH   4  52
ATOM     52  O   UNL     1     -17.363  42.387  -5.699  1.00  0.00    -0.384 OA
ATOM     53  H   UNL     1     -16.679  41.682  -5.738  1.00  0.00     0.211 HD
ENDBRANCH   4  52
TORSDOF 16
ENDMDL
MODEL 2
REMARK VINA RESULT:     8.428      1.121      4.593
REMARK INTER + INTRA:          12.803
REMARK INTER:                  14.185
REMARK INTRA:                  -1.381
REMARK UNBOUND:                -1.045
REMARK SMILES C[C@@H]1O[C@@H](OC[C@H]2O[C@@H](Oc3c(-c4ccc(O)c(O)c4)oc4cc(O)cc(O)c4c3=O)[C@H](O)[C@H](O)[C@H]2O)[C@@H](O)[C@@H](O)[C@H]1O
REMARK SMILES IDX 7 1 36 2 34 3 32 4 9 5 8 6 6 7 5 8 4 9 1 10 2 11 42 12 3 13
REMARK SMILES IDX 40 14 38 15 43 16 41 18 39 20 37 22 35 24 10 26 11 27 12 28
REMARK SMILES IDX 30 29 21 30 29 31 31 32 22 33 27 34 23 35 26 36 24 37 13 38
REMARK SMILES IDX 20 39 14 40 18 41 15 42 16 43 19 44 17 46 28 48 25 50 33 52
REMARK H PARENT 43 17 41 19 39 21 37 23 35 25 19 45 17 47 28 49 25 51 33 53
REMARK Flexibility Score: inf
ROOT
ATOM      1  C   UNL     1     -18.622  43.090  -1.983  1.00  0.00     0.180 C 
ATOM      2  C   UNL     1     -17.818  41.702  -2.079  1.00  0.00     0.177 C 
ATOM      3  C   UNL     1     -17.655  41.106  -3.527  1.00  0.00     0.180 C 
ATOM      4  C   UNL     1     -17.386  42.313  -4.474  1.00  0.00     0.214 C 
ATOM      5  C   UNL     1     -18.642  43.197  -4.299  1.00  0.00     0.339 C 
ATOM      6  O   UNL     1     -18.361  43.961  -3.110  1.00  0.00    -0.332 OA
ENDROOT
BRANCH   1   7
ATOM      7  C   UNL     1     -18.401  43.710  -0.564  1.00  0.00     0.198 C 
BRANCH   7   8
ATOM      8  O   UNL     1     -18.845  42.872   0.533  1.00  0.00    -0.347 OA
BRANCH   8   9
ATOM      9  C   UNL     1     -19.698  43.582   1.427  1.00  0.00     0.281 C 
ATOM     10  C   UNL     1     -18.620  44.924   4.528  1.00  0.00     0.041 C 
ATOM     11  C   UNL     1     -18.349  43.921   3.424  1.00  0.00     0.150 C 
ATOM     12  C   UNL     1     -18.768  42.465   3.832  1.00  0.00     0.174 C 
ATOM     13  O   UNL     1     -19.024  44.443   2.291  1.00  0.00    -0.344 OA
ATOM     14  C   UNL     1     -20.217  42.156   3.535  1.00  0.00     0.179 C 
ATOM     15  C   UNL     1     -20.682  42.629   2.127  1.00  0.00     0.202 C 
BRANCH  12  16
ATOM     16  O   UNL     1     -17.886  41.500   3.260  1.00  0.00    -0.388 OA
ATOM     17  H   UNL     1     -18.331  41.025   2.500  1.00  0.00     0.211 HD
ENDBRANCH  12  16
BRANCH  14  18
ATOM     18  O   UNL     1     -20.393  40.793   3.711  1.00  0.00    -0.387 OA
ATOM     19  H   UNL     1     -20.796  40.452   2.859  1.00  0.00     0.211 HD
ENDBRANCH  14  18
BRANCH  15  20
ATOM     20  O   UNL     1     -20.988  41.477   1.255  1.00  0.00    -0.385 OA
ATOM     21  H   UNL     1     -21.745  40.949   1.621  1.00  0.00     0.211 HD
ENDBRANCH  15  20
ENDBRANCH   8   9
ENDBRANCH   7   8
ENDBRANCH   1   7
BRANCH   2  22
ATOM     22  O   UNL     1     -16.558  41.860  -1.445  1.00  0.00    -0.387 OA
ATOM     23  H   UNL     1     -16.649  41.950  -0.462  1.00  0.00     0.211 HD
ENDBRANCH   2  22
BRANCH   3  24
ATOM     24  O   UNL     1     -18.741  40.293  -3.957  1.00  0.00    -0.387 OA
ATOM     25  H   UNL     1     -19.205  40.702  -4.747  1.00  0.00     0.211 HD
ENDBRANCH   3  24
BRANCH   5  26
ATOM     26  O   UNL     1     -18.937  43.913  -5.526  1.00  0.00    -0.454 OA
BRANCH  26  27
ATOM     27  C   UNL     1     -20.107  43.676  -6.301  1.00  0.00     0.214 A 
ATOM     28  C   UNL     1     -20.139  43.468  -7.697  1.00  0.00     0.180 A 
ATOM     29  C   UNL     1     -21.313  44.075  -5.747  1.00  0.00     0.239 A 
ATOM     30  O   UNL     1     -20.877  44.303  -8.449  1.00  0.00    -0.452 OA
ATOM     31  C   UNL     1     -22.154  44.903  -6.534  1.00  0.00     0.111 A 
ATOM     32  O   UNL     1     -21.888  43.336  -4.897  1.00  0.00    -0.285 OA
ATOM     33  C   UNL     1     -21.804  45.087  -7.906  1.00  0.00     0.146 A 
ATOM     34  C   UNL     1     -23.290  45.519  -6.056  1.00  0.00     0.134 A 
ATOM     35  C   UNL     1     -22.594  45.881  -8.707  1.00  0.00     0.094 A 
ATOM     36  C   UNL     1     -24.094  46.361  -6.859  1.00  0.00     0.093 A 
ATOM     37  C   UNL     1     -23.800  46.444  -8.220  1.00  0.00     0.123 A 
BRANCH  28  38
ATOM     38  C   UNL     1     -19.926  42.158  -8.299  1.00  0.00     0.025 A 
ATOM     39  C   UNL     1     -18.733  41.453  -8.044  1.00  0.00     0.062 A 
ATOM     40  C   UNL     1     -21.099  41.383  -8.541  1.00  0.00     0.016 A 
ATOM     41  C   UNL     1     -18.659  40.028  -8.179  1.00  0.00     0.158 A 
ATOM     42  C   UNL     1     -20.981  40.024  -8.832  1.00  0.00     0.051 A 
ATOM     43  C   UNL     1     -19.786  39.297  -8.608  1.00  0.00     0.157 A 
BRANCH  41  44
ATOM     44  O   UNL     1     -17.507  39.358  -7.836  1.00  0.00    -0.504 OA
ATOM     45  H   UNL     1     -16.620  39.837  -7.621  1.00  0.00     0.293 HD
ENDBRANCH  41  44
BRANCH  43  46
ATOM     46  O   UNL     1     -19.764  37.927  -8.789  1.00  0.00    -0.504 OA
ATOM     47  H   UNL     1     -18.954  37.381  -8.426  1.00  0.00     0.293 HD
ENDBRANCH  43  46
ENDBRANCH  28  38
BRANCH  34  48
ATOM     48  O   UNL     1     -23.634  45.500  -4.740  1.00  0.00    -0.507 OA
ATOM     49  H   UNL     1     -24.083  46.294  -4.219  1.00  0.00     0.293 HD
ENDBRANCH  34  48
BRANCH  37  50
ATOM     50  O   UNL     1     -24.653  47.098  -9.125  1.00  0.00    -0.508 OA
ATOM     51  H   UNL     1     -24.337  48.012  -9.493  1.00  0.00     0.293 HD
ENDBRANCH  37  50
ENDBRANCH  26  27
ENDBRANCH   5  26
BRANCH   4  52
ATOM     52  O   UNL     1     -17.215  41.858  -5.765  1.00  0.00    -0.384 OA
ATOM     53  H   UNL     1     -17.058  42.649  -6.325  1.00  0.00     0.211 HD
ENDBRANCH   4  52
TORSDOF 16
ENDMDL
