MODEL 1
REMARK VINA RESULT:    -2.334      0.000      0.000
REMARK INTER + INTRA:          -4.970
REMARK INTER:                  -3.084
REMARK INTRA:                  -1.886
REMARK UNBOUND:                -1.886
REMARK SMILES CC(C)=CCC[C@H](C(=O)[O-])[C@@H]1CC[C@]2(C)C3=C(CC[C@]12C)[C@@]1(C)CC[C@H](O)C(C)(C)[C@@H]1CC3
REMARK SMILES IDX 6 1 7 2 8 3 9 4 10 5 11 6 12 7 20 8 13 9 14 10 19 11 21 12
REMARK SMILES IDX 15 13 16 14 18 15 17 16 33 17 22 18 32 19 31 20 24 21 23 22
REMARK SMILES IDX 28 23 25 24 26 25 29 26 30 27 27 28 5 30 4 31 2 32 1 33 3 34
REMARK H PARENT 27 29
REMARK Flexibility Score: inf
ROOT
ATOM      1  C   UNL     1      31.106  56.564  10.360  1.00  0.00     0.014 C 
ENDROOT
BRANCH   1   2
ATOM      2  C   UNL     1      29.859  57.371   9.898  1.00  0.00     0.039 C 
BRANCH   2   3
ATOM      3  C   UNL     1      29.108  56.608   8.836  1.00  0.00     0.045 C 
ATOM      4  O   UNL     1      27.848  56.602   8.830  1.00  0.00    -0.550 OA
ATOM      5  O   UNL     1      29.807  55.884   7.875  1.00  0.00    -0.550 OA
ENDBRANCH   2   3
BRANCH   2   6
ATOM      6  C   UNL     1      30.263  58.791   9.374  1.00  0.00     0.004 C 
ATOM      7  C   UNL     1      31.693  59.164   9.773  1.00  0.00     0.006 C 
ATOM      8  C   UNL     1      29.382  60.031   9.763  1.00  0.00    -0.020 C 
ATOM      9  C   UNL     1      31.798  60.680   9.689  1.00  0.00     0.012 C 
ATOM     10  C   UNL     1      30.362  61.254   9.499  1.00  0.00    -0.006 C 
ATOM     11  C   UNL     1      28.877  60.014  11.253  1.00  0.00     0.012 C 
ATOM     12  C   UNL     1      28.104  60.093   8.874  1.00  0.00     0.012 C 
ATOM     13  C   UNL     1      30.272  61.750   8.021  1.00  0.00     0.017 C 
ATOM     14  C   UNL     1      30.161  62.412  10.514  1.00  0.00    -0.064 C 
ATOM     15  C   UNL     1      29.849  60.662  12.236  1.00  0.00     0.032 C 
ATOM     16  C   UNL     1      30.078  62.114  11.851  1.00  0.00    -0.064 C 
ATOM     17  C   UNL     1      30.178  63.858  10.012  1.00  0.00     0.032 C 
ATOM     18  C   UNL     1      30.030  63.216  12.935  1.00  0.00    -0.008 C 
ATOM     19  C   UNL     1      30.052  64.946  11.087  1.00  0.00     0.009 C 
ATOM     20  C   UNL     1      30.752  64.496  12.381  1.00  0.00     0.007 C 
ATOM     21  C   UNL     1      30.794  62.740  14.207  1.00  0.00     0.014 C 
ATOM     22  C   UNL     1      28.527  63.422  13.267  1.00  0.00     0.016 C 
ATOM     23  C   UNL     1      31.084  65.651  13.413  1.00  0.00    -0.006 C 
ATOM     24  C   UNL     1      30.972  63.847  15.249  1.00  0.00     0.033 C 
ATOM     25  C   UNL     1      31.761  65.030  14.676  1.00  0.00     0.120 C 
ATOM     26  C   UNL     1      29.851  66.512  13.813  1.00  0.00     0.014 C 
ATOM     27  C   UNL     1      32.124  66.618  12.779  1.00  0.00     0.014 C 
BRANCH  25  28
ATOM     28  O   UNL     1      31.915  66.001  15.686  1.00  0.00    -0.393 OA
ATOM     29  H   UNL     1      31.903  66.893  15.245  1.00  0.00     0.210 HD
ENDBRANCH  25  28
ENDBRANCH   2   6
ENDBRANCH   1   2
BRANCH   1  30
ATOM     30  C   UNL     1      30.968  55.898  11.742  1.00  0.00     0.028 C 
BRANCH  30  31
ATOM     31  C   UNL     1      31.419  56.804  12.866  1.00  0.00    -0.028 C 
ATOM     32  C   UNL     1      30.570  57.391  13.740  1.00  0.00    -0.080 C 
ATOM     33  C   UNL     1      31.143  58.262  14.830  1.00  0.00     0.039 C 
ATOM     34  C   UNL     1      29.073  57.210  13.642  1.00  0.00     0.039 C 
ENDBRANCH  30  31
ENDBRANCH   1  30
TORSDOF 6
ENDMDL
MODEL 2
REMARK VINA RESULT:    -2.231      3.201      6.106
REMARK INTER + INTRA:          -4.834
REMARK INTER:                  -2.943
REMARK INTRA:                  -1.890
REMARK UNBOUND:                -1.886
REMARK SMILES CC(C)=CCC[C@H](C(=O)[O-])[C@@H]1CC[C@]2(C)C3=C(CC[C@]12C)[C@@]1(C)CC[C@H](O)C(C)(C)[C@@H]1CC3
REMARK SMILES IDX 6 1 7 2 8 3 9 4 10 5 11 6 12 7 20 8 13 9 14 10 19 11 21 12
REMARK SMILES IDX 15 13 16 14 18 15 17 16 33 17 22 18 32 19 31 20 24 21 23 22
REMARK SMILES IDX 28 23 25 24 26 25 29 26 30 27 27 28 5 30 4 31 2 32 1 33 3 34
REMARK H PARENT 27 29
REMARK Flexibility Score: inf
ROOT
ATOM      1  C   UNL     1      31.913  60.839   9.621  1.00  0.00     0.014 C 
ENDROOT
BRANCH   1   2
ATOM      2  C   UNL     1      30.477  61.369   9.903  1.00  0.00     0.039 C 
BRANCH   2   3
ATOM      3  C   UNL     1      30.094  62.408   8.879  1.00  0.00     0.045 C 
ATOM      4  O   UNL     1      30.936  62.798   8.027  1.00  0.00    -0.550 OA
ATOM      5  O   UNL     1      28.816  62.959   8.892  1.00  0.00    -0.550 OA
ENDBRANCH   2   3
BRANCH   2   6
ATOM      6  C   UNL     1      30.362  61.953  11.351  1.00  0.00     0.004 C 
ATOM      7  C   UNL     1      31.717  62.001  12.061  1.00  0.00     0.006 C 
ATOM      8  C   UNL     1      29.376  61.281  12.373  1.00  0.00    -0.020 C 
ATOM      9  C   UNL     1      31.436  62.072  13.555  1.00  0.00     0.012 C 
ATOM     10  C   UNL     1      29.918  61.799  13.774  1.00  0.00    -0.006 C 
ATOM     11  C   UNL     1      29.366  59.708  12.310  1.00  0.00     0.012 C 
ATOM     12  C   UNL     1      27.912  61.734  12.098  1.00  0.00     0.012 C 
ATOM     13  C   UNL     1      29.271  63.165  14.167  1.00  0.00     0.017 C 
ATOM     14  C   UNL     1      29.771  60.741  14.901  1.00  0.00    -0.064 C 
ATOM     15  C   UNL     1      30.412  59.053  13.208  1.00  0.00     0.032 C 
ATOM     16  C   UNL     1      30.169  59.451  14.655  1.00  0.00    -0.064 C 
ATOM     17  C   UNL     1      29.298  61.185  16.288  1.00  0.00     0.032 C 
ATOM     18  C   UNL     1      30.197  58.374  15.765  1.00  0.00    -0.008 C 
ATOM     19  C   UNL     1      29.254  60.094  17.366  1.00  0.00     0.009 C 
ATOM     20  C   UNL     1      30.398  59.088  17.149  1.00  0.00     0.007 C 
ATOM     21  C   UNL     1      31.399  57.410  15.537  1.00  0.00     0.014 C 
ATOM     22  C   UNL     1      28.861  57.594  15.636  1.00  0.00     0.016 C 
ATOM     23  C   UNL     1      30.749  58.177  18.397  1.00  0.00    -0.006 C 
ATOM     24  C   UNL     1      31.623  56.444  16.703  1.00  0.00     0.033 C 
ATOM     25  C   UNL     1      31.903  57.198  18.007  1.00  0.00     0.120 C 
ATOM     26  C   UNL     1      29.531  57.396  18.969  1.00  0.00     0.014 C 
ATOM     27  C   UNL     1      31.293  59.072  19.546  1.00  0.00     0.014 C 
BRANCH  25  28
ATOM     28  O   UNL     1      32.125  56.259  19.033  1.00  0.00    -0.393 OA
ATOM     29  H   UNL     1      32.931  55.732  18.786  1.00  0.00     0.210 HD
ENDBRANCH  25  28
ENDBRANCH   2   6
ENDBRANCH   1   2
BRANCH   1  30
ATOM     30  C   UNL     1      31.969  59.496   8.870  1.00  0.00     0.028 C 
BRANCH  30  31
ATOM     31  C   UNL     1      31.796  58.311   9.793  1.00  0.00    -0.028 C 
ATOM     32  C   UNL     1      30.765  57.440   9.708  1.00  0.00    -0.080 C 
ATOM     33  C   UNL     1      30.712  56.287  10.678  1.00  0.00     0.039 C 
ATOM     34  C   UNL     1      29.665  57.604   8.685  1.00  0.00     0.039 C 
ENDBRANCH  30  31
ENDBRANCH   1  30
TORSDOF 6
ENDMDL
MODEL 3
REMARK VINA RESULT:    -2.173      1.635      2.305
REMARK INTER + INTRA:          -4.757
REMARK INTER:                  -2.871
REMARK INTRA:                  -1.886
REMARK UNBOUND:                -1.886
REMARK SMILES CC(C)=CCC[C@H](C(=O)[O-])[C@@H]1CC[C@]2(C)C3=C(CC[C@]12C)[C@@]1(C)CC[C@H](O)C(C)(C)[C@@H]1CC3
REMARK SMILES IDX 6 1 7 2 8 3 9 4 10 5 11 6 12 7 20 8 13 9 14 10 19 11 21 12
REMARK SMILES IDX 15 13 16 14 18 15 17 16 33 17 22 18 32 19 31 20 24 21 23 22
REMARK SMILES IDX 28 23 25 24 26 25 29 26 30 27 27 28 5 30 4 31 2 32 1 33 3 34
REMARK H PARENT 27 29
REMARK Flexibility Score: inf
ROOT
ATOM      1  C   UNL     1      31.258  56.960  10.814  1.00  0.00     0.014 C 
ENDROOT
BRANCH   1   2
ATOM      2  C   UNL     1      29.893  57.571  10.384  1.00  0.00     0.039 C 
BRANCH   2   3
ATOM      3  C   UNL     1      29.486  57.037   9.033  1.00  0.00     0.045 C 
ATOM      4  O   UNL     1      29.811  57.654   7.984  1.00  0.00    -0.550 OA
ATOM      5  O   UNL     1      28.725  55.875   8.945  1.00  0.00    -0.550 OA
ENDBRANCH   2   3
BRANCH   2   6
ATOM      6  C   UNL     1      29.952  59.135  10.364  1.00  0.00     0.004 C 
ATOM      7  C   UNL     1      31.370  59.660  10.601  1.00  0.00     0.006 C 
ATOM      8  C   UNL     1      29.034  59.950  11.344  1.00  0.00    -0.020 C 
ATOM      9  C   UNL     1      31.240  61.101  11.072  1.00  0.00     0.012 C 
ATOM     10  C   UNL     1      29.737  61.375  11.379  1.00  0.00    -0.006 C 
ATOM     11  C   UNL     1      28.928  59.327  12.785  1.00  0.00     0.012 C 
ATOM     12  C   UNL     1      27.578  60.021  10.795  1.00  0.00     0.012 C 
ATOM     13  C   UNL     1      29.210  62.301  10.239  1.00  0.00     0.017 C 
ATOM     14  C   UNL     1      29.640  62.055  12.772  1.00  0.00    -0.064 C 
ATOM     15  C   UNL     1      30.017  59.808  13.741  1.00  0.00     0.032 C 
ATOM     16  C   UNL     1      29.938  61.319  13.891  1.00  0.00    -0.064 C 
ATOM     17  C   UNL     1      29.330  63.552  12.854  1.00  0.00     0.032 C 
ATOM     18  C   UNL     1      30.012  61.958  15.298  1.00  0.00    -0.008 C 
ATOM     19  C   UNL     1      29.329  64.164  14.261  1.00  0.00     0.009 C 
ATOM     20  C   UNL     1      30.387  63.475  15.139  1.00  0.00     0.007 C 
ATOM     21  C   UNL     1      31.131  61.267  16.135  1.00  0.00     0.014 C 
ATOM     22  C   UNL     1      28.628  61.706  15.955  1.00  0.00     0.016 C 
ATOM     23  C   UNL     1      30.805  64.265  16.448  1.00  0.00    -0.006 C 
ATOM     24  C   UNL     1      31.410  61.975  17.462  1.00  0.00     0.033 C 
ATOM     25  C   UNL     1      31.859  63.423  17.238  1.00  0.00     0.120 C 
ATOM     26  C   UNL     1      29.606  64.649  17.361  1.00  0.00     0.014 C 
ATOM     27  C   UNL     1      31.508  65.590  16.041  1.00  0.00     0.014 C 
BRANCH  25  28
ATOM     28  O   UNL     1      32.125  64.012  18.491  1.00  0.00    -0.393 OA
ATOM     29  H   UNL     1      32.262  64.985  18.339  1.00  0.00     0.210 HD
ENDBRANCH  25  28
ENDBRANCH   2   6
ENDBRANCH   1   2
BRANCH   1  30
ATOM     30  C   UNL     1      31.174  55.932  11.957  1.00  0.00     0.028 C 
BRANCH  30  31
ATOM     31  C   UNL     1      31.740  56.464  13.255  1.00  0.00    -0.028 C 
ATOM     32  C   UNL     1      31.064  56.453  14.427  1.00  0.00    -0.080 C 
ATOM     33  C   UNL     1      31.744  56.998  15.657  1.00  0.00     0.039 C 
ATOM     34  C   UNL     1      29.652  55.926  14.527  1.00  0.00     0.039 C 
ENDBRANCH  30  31
ENDBRANCH   1  30
TORSDOF 6
ENDMDL
MODEL 4
REMARK VINA RESULT:    -2.172      3.781      8.319
REMARK INTER + INTRA:          -4.756
REMARK INTER:                  -2.871
REMARK INTRA:                  -1.885
REMARK UNBOUND:                -1.886
REMARK SMILES CC(C)=CCC[C@H](C(=O)[O-])[C@@H]1CC[C@]2(C)C3=C(CC[C@]12C)[C@@]1(C)CC[C@H](O)C(C)(C)[C@@H]1CC3
REMARK SMILES IDX 6 1 7 2 8 3 9 4 10 5 11 6 12 7 20 8 13 9 14 10 19 11 21 12
REMARK SMILES IDX 15 13 16 14 18 15 17 16 33 17 22 18 32 19 31 20 24 21 23 22
REMARK SMILES IDX 28 23 25 24 26 25 29 26 30 27 27 28 5 30 4 31 2 32 1 33 3 34
REMARK H PARENT 27 29
REMARK Flexibility Score: inf
ROOT
ATOM      1  C   UNL     1      27.996  60.388  18.052  1.00  0.00     0.014 C 
ENDROOT
BRANCH   1   2
ATOM      2  C   UNL     1      28.369  58.913  18.383  1.00  0.00     0.039 C 
BRANCH   2   3
ATOM      3  C   UNL     1      28.571  58.747  19.868  1.00  0.00     0.045 C 
ATOM      4  O   UNL     1      29.649  58.271  20.311  1.00  0.00    -0.550 OA
ATOM      5  O   UNL     1      27.553  59.095  20.751  1.00  0.00    -0.550 OA
ENDBRANCH   2   3
BRANCH   2   6
ATOM      6  C   UNL     1      29.647  58.462  17.598  1.00  0.00     0.004 C 
ATOM      7  C   UNL     1      30.272  59.613  16.807  1.00  0.00     0.006 C 
ATOM      8  C   UNL     1      29.542  57.265  16.586  1.00  0.00    -0.020 C 
ATOM      9  C   UNL     1      31.136  58.990  15.720  1.00  0.00     0.012 C 
ATOM     10  C   UNL     1      30.830  57.463  15.676  1.00  0.00    -0.006 C 
ATOM     11  C   UNL     1      28.226  57.272  15.724  1.00  0.00     0.012 C 
ATOM     12  C   UNL     1      29.556  55.906  17.346  1.00  0.00     0.012 C 
ATOM     13  C   UNL     1      32.075  56.741  16.282  1.00  0.00     0.017 C 
ATOM     14  C   UNL     1      30.585  57.057  14.198  1.00  0.00    -0.064 C 
ATOM     15  C   UNL     1      28.343  58.079  14.434  1.00  0.00     0.032 C 
ATOM     16  C   UNL     1      29.451  57.503  13.567  1.00  0.00    -0.064 C 
ATOM     17  C   UNL     1      31.666  56.272  13.448  1.00  0.00     0.032 C 
ATOM     18  C   UNL     1      29.206  57.271  12.057  1.00  0.00    -0.008 C 
ATOM     19  C   UNL     1      31.381  55.978  11.969  1.00  0.00     0.009 C 
ATOM     20  C   UNL     1      30.597  57.142  11.339  1.00  0.00     0.007 C 
ATOM     21  C   UNL     1      28.458  58.494  11.449  1.00  0.00     0.014 C 
ATOM     22  C   UNL     1      28.315  56.004  11.959  1.00  0.00     0.016 C 
ATOM     23  C   UNL     1      30.608  57.192   9.755  1.00  0.00    -0.006 C 
ATOM     24  C   UNL     1      28.360  58.439   9.922  1.00  0.00     0.033 C 
ATOM     25  C   UNL     1      29.749  58.406   9.276  1.00  0.00     0.120 C 
ATOM     26  C   UNL     1      30.130  55.875   9.080  1.00  0.00     0.014 C 
ATOM     27  C   UNL     1      32.061  57.452   9.263  1.00  0.00     0.014 C 
BRANCH  25  28
ATOM     28  O   UNL     1      29.595  58.382   7.875  1.00  0.00    -0.393 OA
ATOM     29  H   UNL     1      30.073  57.579   7.537  1.00  0.00     0.210 HD
ENDBRANCH  25  28
ENDBRANCH   2   6
ENDBRANCH   1   2
BRANCH   1  30
ATOM     30  C   UNL     1      26.782  60.553  17.120  1.00  0.00     0.028 C 
BRANCH  30  31
ATOM     31  C   UNL     1      27.152  61.188  15.798  1.00  0.00    -0.028 C 
ATOM     32  C   UNL     1      26.500  60.939  14.639  1.00  0.00    -0.080 C 
ATOM     33  C   UNL     1      26.955  61.647  13.388  1.00  0.00     0.039 C 
ATOM     34  C   UNL     1      25.348  59.963  14.566  1.00  0.00     0.039 C 
ENDBRANCH  30  31
ENDBRANCH   1  30
TORSDOF 6
ENDMDL
MODEL 5
REMARK VINA RESULT:    -2.104      3.281      6.781
REMARK INTER + INTRA:          -4.666
REMARK INTER:                  -2.866
REMARK INTRA:                  -1.801
REMARK UNBOUND:                -1.886
REMARK SMILES CC(C)=CCC[C@H](C(=O)[O-])[C@@H]1CC[C@]2(C)C3=C(CC[C@]12C)[C@@]1(C)CC[C@H](O)C(C)(C)[C@@H]1CC3
REMARK SMILES IDX 6 1 7 2 8 3 9 4 10 5 11 6 12 7 20 8 13 9 14 10 19 11 21 12
REMARK SMILES IDX 15 13 16 14 18 15 17 16 33 17 22 18 32 19 31 20 24 21 23 22
REMARK SMILES IDX 28 23 25 24 26 25 29 26 30 27 27 28 5 30 4 31 2 32 1 33 3 34
REMARK H PARENT 27 29
REMARK Flexibility Score: inf
ROOT
ATOM      1  C   UNL     1      30.813  60.656  10.518  1.00  0.00     0.014 C 
ENDROOT
BRANCH   1   2
ATOM      2  C   UNL     1      31.209  59.155  10.627  1.00  0.00     0.039 C 
BRANCH   2   3
ATOM      3  C   UNL     1      31.625  58.626   9.277  1.00  0.00     0.045 C 
ATOM      4  O   UNL     1      31.646  57.385   9.062  1.00  0.00    -0.550 OA
ATOM      5  O   UNL     1      32.012  59.509   8.274  1.00  0.00    -0.550 OA
ENDBRANCH   2   3
BRANCH   2   6
ATOM      6  C   UNL     1      30.037  58.300  11.217  1.00  0.00     0.004 C 
ATOM      7  C   UNL     1      28.849  59.168  11.639  1.00  0.00     0.006 C 
ATOM      8  C   UNL     1      30.318  57.352  12.437  1.00  0.00    -0.020 C 
ATOM      9  C   UNL     1      28.033  58.355  12.633  1.00  0.00     0.012 C 
ATOM     10  C   UNL     1      28.864  57.096  13.024  1.00  0.00    -0.006 C 
ATOM     11  C   UNL     1      31.272  57.975  13.523  1.00  0.00     0.012 C 
ATOM     12  C   UNL     1      31.006  56.038  11.960  1.00  0.00     0.012 C 
ATOM     13  C   UNL     1      28.176  55.876  12.333  1.00  0.00     0.017 C 
ATOM     14  C   UNL     1      28.857  56.967  14.571  1.00  0.00    -0.064 C 
ATOM     15  C   UNL     1      30.538  58.784  14.590  1.00  0.00     0.032 C 
ATOM     16  C   UNL     1      29.543  57.894  15.316  1.00  0.00    -0.064 C 
ATOM     17  C   UNL     1      27.994  55.886  15.229  1.00  0.00     0.032 C 
ATOM     18  C   UNL     1      29.464  57.926  16.860  1.00  0.00    -0.008 C 
ATOM     19  C   UNL     1      27.982  55.876  16.764  1.00  0.00     0.009 C 
ATOM     20  C   UNL     1      28.088  57.313  17.304  1.00  0.00     0.007 C 
ATOM     21  C   UNL     1      29.521  59.401  17.362  1.00  0.00     0.014 C 
ATOM     22  C   UNL     1      30.706  57.146  17.368  1.00  0.00     0.016 C 
ATOM     23  C   UNL     1      27.656  57.505  18.816  1.00  0.00    -0.006 C 
ATOM     24  C   UNL     1      29.241  59.536  18.860  1.00  0.00     0.033 C 
ATOM     25  C   UNL     1      27.849  59.003  19.217  1.00  0.00     0.120 C 
ATOM     26  C   UNL     1      28.402  56.567  19.808  1.00  0.00     0.014 C 
ATOM     27  C   UNL     1      26.138  57.197  18.957  1.00  0.00     0.014 C 
BRANCH  25  28
ATOM     28  O   UNL     1      27.639  59.178  20.599  1.00  0.00    -0.393 OA
ATOM     29  H   UNL     1      27.794  60.138  20.805  1.00  0.00     0.210 HD
ENDBRANCH  25  28
ENDBRANCH   2   6
ENDBRANCH   1   2
BRANCH   1  30
ATOM     30  C   UNL     1      31.722  61.622  11.299  1.00  0.00     0.028 C 
BRANCH  30  31
ATOM     31  C   UNL     1      31.374  61.678  12.770  1.00  0.00    -0.028 C 
ATOM     32  C   UNL     1      30.343  62.398  13.269  1.00  0.00    -0.080 C 
ATOM     33  C   UNL     1      30.088  62.360  14.755  1.00  0.00     0.039 C 
ATOM     34  C   UNL     1      29.459  63.244  12.383  1.00  0.00     0.039 C 
ENDBRANCH  30  31
ENDBRANCH   1  30
TORSDOF 6
ENDMDL
MODEL 6
REMARK VINA RESULT:    -2.050      3.006      5.085
REMARK INTER + INTRA:          -4.595
REMARK INTER:                  -2.747
REMARK INTRA:                  -1.848
REMARK UNBOUND:                -1.886
REMARK SMILES CC(C)=CCC[C@H](C(=O)[O-])[C@@H]1CC[C@]2(C)C3=C(CC[C@]12C)[C@@]1(C)CC[C@H](O)C(C)(C)[C@@H]1CC3
REMARK SMILES IDX 6 1 7 2 8 3 9 4 10 5 11 6 12 7 20 8 13 9 14 10 19 11 21 12
REMARK SMILES IDX 15 13 16 14 18 15 17 16 33 17 22 18 32 19 31 20 24 21 23 22
REMARK SMILES IDX 28 23 25 24 26 25 29 26 30 27 27 28 5 30 4 31 2 32 1 33 3 34
REMARK H PARENT 27 29
REMARK Flexibility Score: inf
ROOT
ATOM      1  C   UNL     1      29.554  56.947  13.101  1.00  0.00     0.014 C 
ENDROOT
BRANCH   1   2
ATOM      2  C   UNL     1      30.558  57.665  14.050  1.00  0.00     0.039 C 
BRANCH   2   3
ATOM      3  C   UNL     1      30.891  56.778  15.223  1.00  0.00     0.045 C 
ATOM      4  O   UNL     1      30.047  55.947  15.649  1.00  0.00    -0.550 OA
ATOM      5  O   UNL     1      32.125  56.898  15.856  1.00  0.00    -0.550 OA
ENDBRANCH   2   3
BRANCH   2   6
ATOM      6  C   UNL     1      29.990  59.040  14.541  1.00  0.00     0.004 C 
ATOM      7  C   UNL     1      28.490  59.173  14.269  1.00  0.00     0.006 C 
ATOM      8  C   UNL     1      30.633  60.369  14.006  1.00  0.00    -0.020 C 
ATOM      9  C   UNL     1      28.163  60.658  14.288  1.00  0.00     0.012 C 
ATOM     10  C   UNL     1      29.506  61.448  14.306  1.00  0.00    -0.006 C 
ATOM     11  C   UNL     1      30.996  60.331  12.475  1.00  0.00     0.012 C 
ATOM     12  C   UNL     1      31.962  60.674  14.759  1.00  0.00     0.012 C 
ATOM     13  C   UNL     1      29.654  62.045  15.741  1.00  0.00     0.017 C 
ATOM     14  C   UNL     1      29.435  62.556  13.220  1.00  0.00    -0.064 C 
ATOM     15  C   UNL     1      29.851  60.765  11.563  1.00  0.00     0.032 C 
ATOM     16  C   UNL     1      29.439  62.190  11.898  1.00  0.00    -0.064 C 
ATOM     17  C   UNL     1      29.243  64.014  13.650  1.00  0.00     0.032 C 
ATOM     18  C   UNL     1      29.220  63.215  10.761  1.00  0.00    -0.008 C 
ATOM     19  C   UNL     1      29.103  65.037  12.515  1.00  0.00     0.009 C 
ATOM     20  C   UNL     1      28.365  64.407  11.321  1.00  0.00     0.007 C 
ATOM     21  C   UNL     1      28.425  62.552   9.597  1.00  0.00     0.014 C 
ATOM     22  C   UNL     1      30.637  63.619  10.271  1.00  0.00     0.016 C 
ATOM     23  C   UNL     1      27.768  65.434  10.272  1.00  0.00    -0.006 C 
ATOM     24  C   UNL     1      27.985  63.553   8.524  1.00  0.00     0.033 C 
ATOM     25  C   UNL     1      27.080  64.640   9.114  1.00  0.00     0.120 C 
ATOM     26  C   UNL     1      28.813  66.439   9.708  1.00  0.00     0.014 C 
ATOM     27  C   UNL     1      26.654  66.275  10.957  1.00  0.00     0.014 C 
BRANCH  25  28
ATOM     28  O   UNL     1      26.689  65.512   8.078  1.00  0.00    -0.393 OA
ATOM     29  H   UNL     1      27.445  65.569   7.435  1.00  0.00     0.210 HD
ENDBRANCH  25  28
ENDBRANCH   2   6
ENDBRANCH   1   2
BRANCH   1  30
ATOM     30  C   UNL     1      30.205  56.074  12.013  1.00  0.00     0.028 C 
BRANCH  30  31
ATOM     31  C   UNL     1      31.232  56.833  11.203  1.00  0.00    -0.028 C 
ATOM     32  C   UNL     1      30.937  57.523  10.077  1.00  0.00    -0.080 C 
ATOM     33  C   UNL     1      32.048  58.253   9.366  1.00  0.00     0.039 C 
ATOM     34  C   UNL     1      29.537  57.564   9.512  1.00  0.00     0.039 C 
ENDBRANCH  30  31
ENDBRANCH   1  30
TORSDOF 6
ENDMDL
MODEL 7
REMARK VINA RESULT:    -1.893      2.030      4.426
REMARK INTER + INTRA:          -4.388
REMARK INTER:                  -2.579
REMARK INTRA:                  -1.809
REMARK UNBOUND:                -1.886
REMARK SMILES CC(C)=CCC[C@H](C(=O)[O-])[C@@H]1CC[C@]2(C)C3=C(CC[C@]12C)[C@@]1(C)CC[C@H](O)C(C)(C)[C@@H]1CC3
REMARK SMILES IDX 6 1 7 2 8 3 9 4 10 5 11 6 12 7 20 8 13 9 14 10 19 11 21 12
REMARK SMILES IDX 15 13 16 14 18 15 17 16 33 17 22 18 32 19 31 20 24 21 23 22
REMARK SMILES IDX 28 23 25 24 26 25 29 26 30 27 27 28 5 30 4 31 2 32 1 33 3 34
REMARK H PARENT 27 29
REMARK Flexibility Score: inf
ROOT
ATOM      1  C   UNL     1      30.815  58.558   9.924  1.00  0.00     0.014 C 
ENDROOT
BRANCH   1   2
ATOM      2  C   UNL     1      30.953  58.047  11.388  1.00  0.00     0.039 C 
BRANCH   2   3
ATOM      3  C   UNL     1      31.006  56.540  11.411  1.00  0.00     0.045 C 
ATOM      4  O   UNL     1      30.710  55.880  10.381  1.00  0.00    -0.550 OA
ATOM      5  O   UNL     1      31.355  55.875  12.583  1.00  0.00    -0.550 OA
ENDBRANCH   2   3
BRANCH   2   6
ATOM      6  C   UNL     1      29.781  58.572  12.284  1.00  0.00     0.004 C 
ATOM      7  C   UNL     1      28.834  59.493  11.512  1.00  0.00     0.006 C 
ATOM      8  C   UNL     1      30.116  59.336  13.615  1.00  0.00    -0.020 C 
ATOM      9  C   UNL     1      28.085  60.327  12.540  1.00  0.00     0.012 C 
ATOM     10  C   UNL     1      28.762  60.108  13.926  1.00  0.00    -0.006 C 
ATOM     11  C   UNL     1      31.328  60.332  13.491  1.00  0.00     0.012 C 
ATOM     12  C   UNL     1      30.497  58.329  14.741  1.00  0.00     0.012 C 
ATOM     13  C   UNL     1      27.784  59.230  14.768  1.00  0.00     0.017 C 
ATOM     14  C   UNL     1      29.003  61.498  14.576  1.00  0.00    -0.064 C 
ATOM     15  C   UNL     1      30.925  61.732  13.035  1.00  0.00     0.032 C 
ATOM     16  C   UNL     1      29.943  62.333  14.028  1.00  0.00    -0.064 C 
ATOM     17  C   UNL     1      28.108  61.946  15.735  1.00  0.00     0.032 C 
ATOM     18  C   UNL     1      30.137  63.786  14.520  1.00  0.00    -0.008 C 
ATOM     19  C   UNL     1      28.358  63.363  16.271  1.00  0.00     0.009 C 
ATOM     20  C   UNL     1      28.779  64.296  15.122  1.00  0.00     0.007 C 
ATOM     21  C   UNL     1      30.511  64.706  13.319  1.00  0.00     0.014 C 
ATOM     22  C   UNL     1      31.311  63.740  15.535  1.00  0.00     0.016 C 
ATOM     23  C   UNL     1      28.650  65.846  15.424  1.00  0.00    -0.006 C 
ATOM     24  C   UNL     1      30.517  66.193  13.682  1.00  0.00     0.033 C 
ATOM     25  C   UNL     1      29.141  66.652  14.177  1.00  0.00     0.120 C 
ATOM     26  C   UNL     1      29.400  66.303  16.708  1.00  0.00     0.014 C 
ATOM     27  C   UNL     1      27.150  66.204  15.623  1.00  0.00     0.014 C 
BRANCH  25  28
ATOM     28  O   UNL     1      29.203  68.029  14.470  1.00  0.00    -0.393 OA
ATOM     29  H   UNL     1      29.288  68.513  13.606  1.00  0.00     0.210 HD
ENDBRANCH  25  28
ENDBRANCH   2   6
ENDBRANCH   1   2
BRANCH   1  30
ATOM     30  C   UNL     1      32.058  59.282   9.374  1.00  0.00     0.028 C 
BRANCH  30  31
ATOM     31  C   UNL     1      32.125  60.727   9.813  1.00  0.00    -0.028 C 
ATOM     32  C   UNL     1      31.425  61.723   9.221  1.00  0.00    -0.080 C 
ATOM     33  C   UNL     1      31.565  63.124   9.761  1.00  0.00     0.039 C 
ATOM     34  C   UNL     1      30.528  61.468   8.032  1.00  0.00     0.039 C 
ENDBRANCH  30  31
ENDBRANCH   1  30
TORSDOF 6
ENDMDL
MODEL 8
REMARK VINA RESULT:    -1.667      2.802      5.832
REMARK INTER + INTRA:          -4.089
REMARK INTER:                  -2.322
REMARK INTRA:                  -1.767
REMARK UNBOUND:                -1.886
REMARK SMILES CC(C)=CCC[C@H](C(=O)[O-])[C@@H]1CC[C@]2(C)C3=C(CC[C@]12C)[C@@]1(C)CC[C@H](O)C(C)(C)[C@@H]1CC3
REMARK SMILES IDX 6 1 7 2 8 3 9 4 10 5 11 6 12 7 20 8 13 9 14 10 19 11 21 12
REMARK SMILES IDX 15 13 16 14 18 15 17 16 33 17 22 18 32 19 31 20 24 21 23 22
REMARK SMILES IDX 28 23 25 24 26 25 29 26 30 27 27 28 5 30 4 31 2 32 1 33 3 34
REMARK H PARENT 27 29
REMARK Flexibility Score: inf
ROOT
ATOM      1  C   UNL     1      30.426  59.418   9.761  1.00  0.00     0.014 C 
ENDROOT
BRANCH   1   2
ATOM      2  C   UNL     1      30.834  58.021  10.315  1.00  0.00     0.039 C 
BRANCH   2   3
ATOM      3  C   UNL     1      30.933  57.023   9.189  1.00  0.00     0.045 C 
ATOM      4  O   UNL     1      31.539  55.933   9.360  1.00  0.00    -0.550 OA
ATOM      5  O   UNL     1      30.378  57.319   7.947  1.00  0.00    -0.550 OA
ENDBRANCH   2   3
BRANCH   2   6
ATOM      6  C   UNL     1      29.823  57.525  11.403  1.00  0.00     0.004 C 
ATOM      7  C   UNL     1      28.635  58.478  11.561  1.00  0.00     0.006 C 
ATOM      8  C   UNL     1      30.339  57.253  12.862  1.00  0.00    -0.020 C 
ATOM      9  C   UNL     1      28.027  58.209  12.930  1.00  0.00     0.012 C 
ATOM     10  C   UNL     1      29.000  57.283  13.718  1.00  0.00    -0.006 C 
ATOM     11  C   UNL     1      31.374  58.318  13.381  1.00  0.00     0.012 C 
ATOM     12  C   UNL     1      31.061  55.875  12.937  1.00  0.00     0.012 C 
ATOM     13  C   UNL     1      28.328  55.875  13.776  1.00  0.00     0.017 C 
ATOM     14  C   UNL     1      29.210  57.886  15.133  1.00  0.00    -0.064 C 
ATOM     15  C   UNL     1      30.726  59.522  14.060  1.00  0.00     0.032 C 
ATOM     16  C   UNL     1      29.911  59.059  15.257  1.00  0.00    -0.064 C 
ATOM     17  C   UNL     1      28.531  57.224  16.336  1.00  0.00     0.032 C 
ATOM     18  C   UNL     1      30.035  59.803  16.608  1.00  0.00    -0.008 C 
ATOM     19  C   UNL     1      28.723  57.926  17.688  1.00  0.00     0.009 C 
ATOM     20  C   UNL     1      28.784  59.451  17.489  1.00  0.00     0.007 C 
ATOM     21  C   UNL     1      30.039  61.342  16.365  1.00  0.00     0.014 C 
ATOM     22  C   UNL     1      31.392  59.359  17.216  1.00  0.00     0.016 C 
ATOM     23  C   UNL     1      28.542  60.317  18.794  1.00  0.00    -0.006 C 
ATOM     24  C   UNL     1      29.950  62.153  17.660  1.00  0.00     0.033 C 
ATOM     25  C   UNL     1      28.665  61.832  18.431  1.00  0.00     0.120 C 
ATOM     26  C   UNL     1      29.486  59.953  19.976  1.00  0.00     0.014 C 
ATOM     27  C   UNL     1      27.086  60.094  19.292  1.00  0.00     0.014 C 
BRANCH  25  28
ATOM     28  O   UNL     1      28.627  62.625  19.595  1.00  0.00    -0.393 OA
ATOM     29  H   UNL     1      29.565  62.758  19.896  1.00  0.00     0.210 HD
ENDBRANCH  25  28
ENDBRANCH   2   6
ENDBRANCH   1   2
BRANCH   1  30
ATOM     30  C   UNL     1      31.568  60.450   9.711  1.00  0.00     0.028 C 
BRANCH  30  31
ATOM     31  C   UNL     1      31.756  61.166  11.030  1.00  0.00    -0.028 C 
ATOM     32  C   UNL     1      31.031  62.245  11.406  1.00  0.00    -0.080 C 
ATOM     33  C   UNL     1      31.302  62.863  12.754  1.00  0.00     0.039 C 
ATOM     34  C   UNL     1      29.978  62.851  10.507  1.00  0.00     0.039 C 
ENDBRANCH  30  31
ENDBRANCH   1  30
TORSDOF 6
ENDMDL
