MODEL 1
REMARK VINA RESULT:    -4.872      0.000      0.000
REMARK INTER + INTRA:          -9.327
REMARK INTER:                  -8.432
REMARK INTRA:                  -0.895
REMARK UNBOUND:                -0.895
REMARK SMILES CCCCCCCCCCCCCCO
REMARK SMILES IDX 8 1 7 2 6 3 5 4 4 5 3 6 2 7 1 8 9 9 10 10 11 11 12 12 13 13
REMARK SMILES IDX 14 14 15 15
REMARK H PARENT 15 16
REMARK Flexibility Score: inf
ROOT
ATOM      1  C   UNL     1      20.984  -0.713 -18.803  1.00  0.00     0.000 C 
ENDROOT
BRANCH   1   2
ATOM      2  C   UNL     1      20.315   0.471 -19.516  1.00  0.00    -0.000 C 
BRANCH   2   3
ATOM      3  C   UNL     1      21.126   0.971 -20.722  1.00  0.00    -0.000 C 
BRANCH   3   4
ATOM      4  C   UNL     1      20.341   0.883 -22.040  1.00  0.00    -0.000 C 
BRANCH   4   5
ATOM      5  C   UNL     1      18.832   0.784 -21.774  1.00  0.00    -0.000 C 
BRANCH   5   6
ATOM      6  C   UNL     1      18.103  -0.126 -22.779  1.00  0.00    -0.000 C 
BRANCH   6   7
ATOM      7  C   UNL     1      16.653   0.286 -23.088  1.00  0.00    -0.003 C 
ATOM      8  C   UNL     1      16.194  -0.144 -24.481  1.00  0.00     0.004 C 
ENDBRANCH   6   7
ENDBRANCH   5   6
ENDBRANCH   4   5
ENDBRANCH   3   4
ENDBRANCH   2   3
ENDBRANCH   1   2
BRANCH   1   9
ATOM      9  C   UNL     1      19.988  -1.864 -18.600  1.00  0.00     0.000 C 
BRANCH   9  10
ATOM     10  C   UNL     1      19.940  -2.365 -17.145  1.00  0.00     0.000 C 
BRANCH  10  11
ATOM     11  C   UNL     1      20.879  -1.626 -16.172  1.00  0.00     0.000 C 
BRANCH  11  12
ATOM     12  C   UNL     1      20.181  -0.928 -14.988  1.00  0.00     0.002 C 
BRANCH  12  13
ATOM     13  C   UNL     1      19.892   0.569 -15.197  1.00  0.00     0.028 C 
BRANCH  13  14
ATOM     14  C   UNL     1      18.578   0.825 -15.939  1.00  0.00     0.156 C 
BRANCH  14  15
ATOM     15  O   UNL     1      17.519   0.825 -15.024  1.00  0.00    -0.396 OA
ATOM     16  H   UNL     1      16.824   0.228 -15.406  1.00  0.00     0.210 HD
ENDBRANCH  14  15
ENDBRANCH  13  14
ENDBRANCH  12  13
ENDBRANCH  11  12
ENDBRANCH  10  11
ENDBRANCH   9  10
ENDBRANCH   1   9
TORSDOF 13
ENDMDL
MODEL 2
REMARK VINA RESULT:    -4.774      5.211      8.190
REMARK INTER + INTRA:          -9.157
REMARK INTER:                  -7.015
REMARK INTRA:                  -2.143
REMARK UNBOUND:                -0.895
REMARK SMILES CCCCCCCCCCCCCCO
REMARK SMILES IDX 8 1 7 2 6 3 5 4 4 5 3 6 2 7 1 8 9 9 10 10 11 11 12 12 13 13
REMARK SMILES IDX 14 14 15 15
REMARK H PARENT 15 16
REMARK Flexibility Score: inf
ROOT
ATOM      1  C   UNL     1      17.307   2.452 -26.080  1.00  0.00     0.000 C 
ENDROOT
BRANCH   1   2
ATOM      2  C   UNL     1      16.114   1.978 -25.237  1.00  0.00    -0.000 C 
BRANCH   2   3
ATOM      3  C   UNL     1      15.743   0.511 -25.507  1.00  0.00    -0.000 C 
BRANCH   3   4
ATOM      4  C   UNL     1      16.172  -0.428 -24.369  1.00  0.00    -0.000 C 
BRANCH   4   5
ATOM      5  C   UNL     1      16.629   0.373 -23.141  1.00  0.00    -0.000 C 
BRANCH   5   6
ATOM      6  C   UNL     1      17.968  -0.121 -22.565  1.00  0.00    -0.000 C 
BRANCH   6   7
ATOM      7  C   UNL     1      18.845   0.976 -21.936  1.00  0.00    -0.003 C 
ATOM      8  C   UNL     1      20.330   0.615 -21.914  1.00  0.00     0.004 C 
ENDBRANCH   6   7
ENDBRANCH   5   6
ENDBRANCH   4   5
ENDBRANCH   3   4
ENDBRANCH   2   3
ENDBRANCH   1   2
BRANCH   1   9
ATOM      9  C   UNL     1      18.468   2.903 -25.182  1.00  0.00     0.000 C 
BRANCH   9  10
ATOM     10  C   UNL     1      19.718   2.016 -25.328  1.00  0.00     0.000 C 
BRANCH  10  11
ATOM     11  C   UNL     1      19.474   0.658 -26.016  1.00  0.00     0.000 C 
BRANCH  11  12
ATOM     12  C   UNL     1      20.349  -0.503 -25.505  1.00  0.00     0.002 C 
BRANCH  12  13
ATOM     13  C   UNL     1      19.580  -1.793 -25.167  1.00  0.00     0.028 C 
BRANCH  13  14
ATOM     14  C   UNL     1      19.889  -2.942 -26.130  1.00  0.00     0.156 C 
BRANCH  14  15
ATOM     15  O   UNL     1      19.339  -2.656 -27.386  1.00  0.00    -0.396 OA
ATOM     16  H   UNL     1      18.585  -3.289 -27.507  1.00  0.00     0.210 HD
ENDBRANCH  14  15
ENDBRANCH  13  14
ENDBRANCH  12  13
ENDBRANCH  11  12
ENDBRANCH  10  11
ENDBRANCH   9  10
ENDBRANCH   1   9
TORSDOF 13
ENDMDL
MODEL 3
REMARK VINA RESULT:    -4.730      3.461      6.452
REMARK INTER + INTRA:          -9.081
REMARK INTER:                  -7.317
REMARK INTRA:                  -1.764
REMARK UNBOUND:                -0.895
REMARK SMILES CCCCCCCCCCCCCCO
REMARK SMILES IDX 8 1 7 2 6 3 5 4 4 5 3 6 2 7 1 8 9 9 10 10 11 11 12 12 13 13
REMARK SMILES IDX 14 14 15 15
REMARK H PARENT 15 16
REMARK Flexibility Score: inf
ROOT
ATOM      1  C   UNL     1      15.909   1.127 -25.415  1.00  0.00     0.000 C 
ENDROOT
BRANCH   1   2
ATOM      2  C   UNL     1      16.969   1.314 -26.509  1.00  0.00    -0.000 C 
BRANCH   2   3
ATOM      3  C   UNL     1      17.534  -0.020 -27.022  1.00  0.00    -0.000 C 
BRANCH   3   4
ATOM      4  C   UNL     1      19.067  -0.014 -27.122  1.00  0.00    -0.000 C 
BRANCH   4   5
ATOM      5  C   UNL     1      19.707   0.139 -25.734  1.00  0.00    -0.000 C 
BRANCH   5   6
ATOM      6  C   UNL     1      20.329  -1.169 -25.212  1.00  0.00    -0.000 C 
BRANCH   6   7
ATOM      7  C   UNL     1      19.313  -2.245 -24.793  1.00  0.00    -0.003 C 
ATOM      8  C   UNL     1      19.699  -3.647 -25.262  1.00  0.00     0.004 C 
ENDBRANCH   6   7
ENDBRANCH   5   6
ENDBRANCH   4   5
ENDBRANCH   3   4
ENDBRANCH   2   3
ENDBRANCH   1   2
BRANCH   1   9
ATOM      9  C   UNL     1      16.216  -0.112 -24.561  1.00  0.00     0.000 C 
BRANCH   9  10
ATOM     10  C   UNL     1      16.617   0.240 -23.117  1.00  0.00     0.000 C 
BRANCH  10  11
ATOM     11  C   UNL     1      17.157   1.671 -22.923  1.00  0.00     0.000 C 
BRANCH  11  12
ATOM     12  C   UNL     1      18.632   1.762 -22.486  1.00  0.00     0.002 C 
BRANCH  12  13
ATOM     13  C   UNL     1      19.271   0.422 -22.079  1.00  0.00     0.028 C 
BRANCH  13  14
ATOM     14  C   UNL     1      19.741   0.402 -20.623  1.00  0.00     0.156 C 
BRANCH  14  15
ATOM     15  O   UNL     1      18.821   1.096 -19.829  1.00  0.00    -0.396 OA
ATOM     16  H   UNL     1      19.045   2.058 -19.924  1.00  0.00     0.210 HD
ENDBRANCH  14  15
ENDBRANCH  13  14
ENDBRANCH  12  13
ENDBRANCH  11  12
ENDBRANCH  10  11
ENDBRANCH   9  10
ENDBRANCH   1   9
TORSDOF 13
ENDMDL
MODEL 4
REMARK VINA RESULT:    -4.723      2.214      4.211
REMARK INTER + INTRA:          -9.068
REMARK INTER:                  -7.970
REMARK INTRA:                  -1.098
REMARK UNBOUND:                -0.895
REMARK SMILES CCCCCCCCCCCCCCO
REMARK SMILES IDX 8 1 7 2 6 3 5 4 4 5 3 6 2 7 1 8 9 9 10 10 11 11 12 12 13 13
REMARK SMILES IDX 14 14 15 15
REMARK H PARENT 15 16
REMARK Flexibility Score: inf
ROOT
ATOM      1  C   UNL     1      19.359   0.411 -23.312  1.00  0.00     0.000 C 
ENDROOT
BRANCH   1   2
ATOM      2  C   UNL     1      18.093  -0.346 -22.887  1.00  0.00    -0.000 C 
BRANCH   2   3
ATOM      3  C   UNL     1      16.840   0.545 -22.889  1.00  0.00    -0.000 C 
BRANCH   3   4
ATOM      4  C   UNL     1      17.042   1.847 -23.678  1.00  0.00    -0.000 C 
BRANCH   4   5
ATOM      5  C   UNL     1      16.233   1.829 -24.983  1.00  0.00    -0.000 C 
BRANCH   5   6
ATOM      6  C   UNL     1      17.111   1.633 -26.232  1.00  0.00    -0.000 C 
BRANCH   6   7
ATOM      7  C   UNL     1      17.185   0.186 -26.749  1.00  0.00    -0.003 C 
ATOM      8  C   UNL     1      18.618  -0.320 -26.909  1.00  0.00     0.004 C 
ENDBRANCH   6   7
ENDBRANCH   5   6
ENDBRANCH   4   5
ENDBRANCH   3   4
ENDBRANCH   2   3
ENDBRANCH   1   2
BRANCH   1   9
ATOM      9  C   UNL     1      20.266   0.684 -22.103  1.00  0.00     0.000 C 
BRANCH   9  10
ATOM     10  C   UNL     1      19.767   0.005 -20.815  1.00  0.00     0.000 C 
BRANCH  10  11
ATOM     11  C   UNL     1      20.377   0.558 -19.511  1.00  0.00     0.000 C 
BRANCH  11  12
ATOM     12  C   UNL     1      21.178  -0.462 -18.678  1.00  0.00     0.002 C 
BRANCH  12  13
ATOM     13  C   UNL     1      20.606  -1.891 -18.677  1.00  0.00     0.028 C 
BRANCH  13  14
ATOM     14  C   UNL     1      19.614  -2.135 -17.537  1.00  0.00     0.156 C 
BRANCH  14  15
ATOM     15  O   UNL     1      19.080  -3.424 -17.655  1.00  0.00    -0.396 OA
ATOM     16  H   UNL     1      18.748  -3.501 -18.587  1.00  0.00     0.210 HD
ENDBRANCH  14  15
ENDBRANCH  13  14
ENDBRANCH  12  13
ENDBRANCH  11  12
ENDBRANCH  10  11
ENDBRANCH   9  10
ENDBRANCH   1   9
TORSDOF 13
ENDMDL
MODEL 5
REMARK VINA RESULT:    -4.713      5.708      7.597
REMARK INTER + INTRA:          -9.052
REMARK INTER:                  -7.540
REMARK INTRA:                  -1.512
REMARK UNBOUND:                -0.895
REMARK SMILES CCCCCCCCCCCCCCO
REMARK SMILES IDX 8 1 7 2 6 3 5 4 4 5 3 6 2 7 1 8 9 9 10 10 11 11 12 12 13 13
REMARK SMILES IDX 14 14 15 15
REMARK H PARENT 15 16
REMARK Flexibility Score: inf
ROOT
ATOM      1  C   UNL     1      19.069   1.232 -23.053  1.00  0.00     0.000 C 
ENDROOT
BRANCH   1   2
ATOM      2  C   UNL     1      20.086   0.922 -24.161  1.00  0.00    -0.000 C 
BRANCH   2   3
ATOM      3  C   UNL     1      20.367  -0.582 -24.305  1.00  0.00    -0.000 C 
BRANCH   3   4
ATOM      4  C   UNL     1      20.655  -0.995 -25.756  1.00  0.00    -0.000 C 
BRANCH   4   5
ATOM      5  C   UNL     1      19.443  -1.707 -26.375  1.00  0.00    -0.000 C 
BRANCH   5   6
ATOM      6  C   UNL     1      19.749  -3.153 -26.801  1.00  0.00    -0.000 C 
BRANCH   6   7
ATOM      7  C   UNL     1      19.959  -4.139 -25.638  1.00  0.00    -0.003 C 
ATOM      8  C   UNL     1      18.892  -4.016 -24.551  1.00  0.00     0.004 C 
ENDBRANCH   6   7
ENDBRANCH   5   6
ENDBRANCH   4   5
ENDBRANCH   3   4
ENDBRANCH   2   3
ENDBRANCH   1   2
BRANCH   1   9
ATOM      9  C   UNL     1      18.248  -0.017 -22.698  1.00  0.00     0.000 C 
BRANCH   9  10
ATOM     10  C   UNL     1      16.772   0.097 -23.118  1.00  0.00     0.000 C 
BRANCH  10  11
ATOM     11  C   UNL     1      16.426  -0.571 -24.464  1.00  0.00     0.000 C 
BRANCH  11  12
ATOM     12  C   UNL     1      15.868   0.378 -25.543  1.00  0.00     0.002 C 
BRANCH  12  13
ATOM     13  C   UNL     1      15.998   1.877 -25.218  1.00  0.00     0.028 C 
BRANCH  13  14
ATOM     14  C   UNL     1      17.187   2.539 -25.916  1.00  0.00     0.156 C 
BRANCH  14  15
ATOM     15  O   UNL     1      17.185   2.186 -27.271  1.00  0.00    -0.396 OA
ATOM     16  H   UNL     1      16.300   1.774 -27.448  1.00  0.00     0.210 HD
ENDBRANCH  14  15
ENDBRANCH  13  14
ENDBRANCH  12  13
ENDBRANCH  11  12
ENDBRANCH  10  11
ENDBRANCH   9  10
ENDBRANCH   1   9
TORSDOF 13
ENDMDL
MODEL 6
REMARK VINA RESULT:    -4.703      5.228      7.032
REMARK INTER + INTRA:          -9.034
REMARK INTER:                  -7.610
REMARK INTRA:                  -1.424
REMARK UNBOUND:                -0.895
REMARK SMILES CCCCCCCCCCCCCCO
REMARK SMILES IDX 8 1 7 2 6 3 5 4 4 5 3 6 2 7 1 8 9 9 10 10 11 11 12 12 13 13
REMARK SMILES IDX 14 14 15 15
REMARK H PARENT 15 16
REMARK Flexibility Score: inf
ROOT
ATOM      1  C   UNL     1      20.506   0.177 -23.171  1.00  0.00     0.000 C 
ENDROOT
BRANCH   1   2
ATOM      2  C   UNL     1      19.218   0.456 -22.383  1.00  0.00    -0.000 C 
BRANCH   2   3
ATOM      3  C   UNL     1      18.626   1.842 -22.686  1.00  0.00    -0.000 C 
BRANCH   3   4
ATOM      4  C   UNL     1      17.114   1.795 -22.953  1.00  0.00    -0.000 C 
BRANCH   4   5
ATOM      5  C   UNL     1      16.648   0.356 -23.217  1.00  0.00    -0.000 C 
BRANCH   5   6
ATOM      6  C   UNL     1      16.063   0.163 -24.627  1.00  0.00    -0.000 C 
BRANCH   6   7
ATOM      7  C   UNL     1      16.147   1.401 -25.536  1.00  0.00    -0.003 C 
ATOM      8  C   UNL     1      17.273   1.312 -26.565  1.00  0.00     0.004 C 
ENDBRANCH   6   7
ENDBRANCH   5   6
ENDBRANCH   4   5
ENDBRANCH   3   4
ENDBRANCH   2   3
ENDBRANCH   1   2
BRANCH   1   9
ATOM      9  C   UNL     1      20.190  -0.154 -24.637  1.00  0.00     0.000 C 
BRANCH   9  10
ATOM     10  C   UNL     1      19.299  -1.400 -24.791  1.00  0.00     0.000 C 
BRANCH  10  11
ATOM     11  C   UNL     1      19.670  -2.323 -25.968  1.00  0.00     0.000 C 
BRANCH  11  12
ATOM     12  C   UNL     1      19.691  -3.829 -25.640  1.00  0.00     0.002 C 
BRANCH  12  13
ATOM     13  C   UNL     1      18.929  -4.225 -24.363  1.00  0.00     0.028 C 
BRANCH  13  14
ATOM     14  C   UNL     1      17.910  -5.342 -24.598  1.00  0.00     0.156 C 
BRANCH  14  15
ATOM     15  O   UNL     1      16.629  -4.879 -24.276  1.00  0.00    -0.396 OA
ATOM     16  H   UNL     1      16.749  -4.225 -23.539  1.00  0.00     0.210 HD
ENDBRANCH  14  15
ENDBRANCH  13  14
ENDBRANCH  12  13
ENDBRANCH  11  12
ENDBRANCH  10  11
ENDBRANCH   9  10
ENDBRANCH   1   9
TORSDOF 13
ENDMDL
MODEL 7
REMARK VINA RESULT:    -4.692      3.396      7.519
REMARK INTER + INTRA:          -9.015
REMARK INTER:                  -8.311
REMARK INTRA:                  -0.704
REMARK UNBOUND:                -0.895
REMARK SMILES CCCCCCCCCCCCCCO
REMARK SMILES IDX 8 1 7 2 6 3 5 4 4 5 3 6 2 7 1 8 9 9 10 10 11 11 12 12 13 13
REMARK SMILES IDX 14 14 15 15
REMARK H PARENT 15 16
REMARK Flexibility Score: inf
ROOT
ATOM      1  C   UNL     1      20.221   0.521 -22.309  1.00  0.00     0.000 C 
ENDROOT
BRANCH   1   2
ATOM      2  C   UNL     1      20.946   0.815 -20.987  1.00  0.00    -0.000 C 
BRANCH   2   3
ATOM      3  C   UNL     1      20.117   0.419 -19.755  1.00  0.00    -0.000 C 
BRANCH   3   4
ATOM      4  C   UNL     1      20.840  -0.593 -18.854  1.00  0.00    -0.000 C 
BRANCH   4   5
ATOM      5  C   UNL     1      20.057  -1.912 -18.772  1.00  0.00    -0.000 C 
BRANCH   5   6
ATOM      6  C   UNL     1      19.811  -2.376 -17.326  1.00  0.00    -0.000 C 
BRANCH   6   7
ATOM      7  C   UNL     1      20.660  -1.656 -16.264  1.00  0.00    -0.003 C 
ATOM      8  C   UNL     1      19.826  -0.798 -15.313  1.00  0.00     0.004 C 
ENDBRANCH   6   7
ENDBRANCH   5   6
ENDBRANCH   4   5
ENDBRANCH   3   4
ENDBRANCH   2   3
ENDBRANCH   1   2
BRANCH   1   9
ATOM      9  C   UNL     1      18.988  -0.364 -22.073  1.00  0.00     0.000 C 
BRANCH   9  10
ATOM     10  C   UNL     1      18.117  -0.523 -23.332  1.00  0.00     0.000 C 
BRANCH  10  11
ATOM     11  C   UNL     1      16.754   0.195 -23.274  1.00  0.00     0.000 C 
BRANCH  11  12
ATOM     12  C   UNL     1      16.778   1.682 -23.682  1.00  0.00     0.002 C 
BRANCH  12  13
ATOM     13  C   UNL     1      16.235   1.975 -25.092  1.00  0.00     0.028 C 
BRANCH  13  14
ATOM     14  C   UNL     1      17.267   2.643 -26.002  1.00  0.00     0.156 C 
BRANCH  14  15
ATOM     15  O   UNL     1      17.197   2.075 -27.280  1.00  0.00    -0.396 OA
ATOM     16  H   UNL     1      16.920   2.806 -27.892  1.00  0.00     0.210 HD
ENDBRANCH  14  15
ENDBRANCH  13  14
ENDBRANCH  12  13
ENDBRANCH  11  12
ENDBRANCH  10  11
ENDBRANCH   9  10
ENDBRANCH   1   9
TORSDOF 13
ENDMDL
MODEL 8
REMARK VINA RESULT:    -4.630      5.830      8.279
REMARK INTER + INTRA:          -8.907
REMARK INTER:                  -7.059
REMARK INTRA:                  -1.848
REMARK UNBOUND:                -0.895
REMARK SMILES CCCCCCCCCCCCCCO
REMARK SMILES IDX 8 1 7 2 6 3 5 4 4 5 3 6 2 7 1 8 9 9 10 10 11 11 12 12 13 13
REMARK SMILES IDX 14 14 15 15
REMARK H PARENT 15 16
REMARK Flexibility Score: inf
ROOT
ATOM      1  C   UNL     1      17.017   0.032 -23.138  1.00  0.00     0.000 C 
ENDROOT
BRANCH   1   2
ATOM      2  C   UNL     1      17.081   1.519 -22.760  1.00  0.00    -0.000 C 
BRANCH   2   3
ATOM      3  C   UNL     1      18.512   1.996 -22.468  1.00  0.00    -0.000 C 
BRANCH   3   4
ATOM      4  C   UNL     1      19.089   2.866 -23.595  1.00  0.00    -0.000 C 
BRANCH   4   5
ATOM      5  C   UNL     1      20.248   2.149 -24.303  1.00  0.00    -0.000 C 
BRANCH   5   6
ATOM      6  C   UNL     1      20.764   0.926 -23.524  1.00  0.00    -0.000 C 
BRANCH   6   7
ATOM      7  C   UNL     1      20.647  -0.413 -24.272  1.00  0.00    -0.003 C 
ATOM      8  C   UNL     1      21.922  -0.790 -25.026  1.00  0.00     0.004 C 
ENDBRANCH   6   7
ENDBRANCH   5   6
ENDBRANCH   4   5
ENDBRANCH   3   4
ENDBRANCH   2   3
ENDBRANCH   1   2
BRANCH   1   9
ATOM      9  C   UNL     1      16.325  -0.160 -24.496  1.00  0.00     0.000 C 
BRANCH   9  10
ATOM     10  C   UNL     1      16.004   1.173 -25.197  1.00  0.00     0.000 C 
BRANCH  10  11
ATOM     11  C   UNL     1      16.705   1.379 -26.554  1.00  0.00     0.000 C 
BRANCH  11  12
ATOM     12  C   UNL     1      18.060   0.661 -26.708  1.00  0.00     0.002 C 
BRANCH  12  13
ATOM     13  C   UNL     1      18.158  -0.285 -27.919  1.00  0.00     0.028 C 
BRANCH  13  14
ATOM     14  C   UNL     1      19.255  -1.340 -27.765  1.00  0.00     0.156 C 
BRANCH  14  15
ATOM     15  O   UNL     1      18.901  -2.233 -26.746  1.00  0.00    -0.396 OA
ATOM     16  H   UNL     1      19.305  -1.875 -25.913  1.00  0.00     0.210 HD
ENDBRANCH  14  15
ENDBRANCH  13  14
ENDBRANCH  12  13
ENDBRANCH  11  12
ENDBRANCH  10  11
ENDBRANCH   9  10
ENDBRANCH   1   9
TORSDOF 13
ENDMDL
MODEL 9
REMARK VINA RESULT:    -4.621      2.500      5.471
REMARK INTER + INTRA:          -8.892
REMARK INTER:                  -7.220
REMARK INTRA:                  -1.673
REMARK UNBOUND:                -0.895
REMARK SMILES CCCCCCCCCCCCCCO
REMARK SMILES IDX 8 1 7 2 6 3 5 4 4 5 3 6 2 7 1 8 9 9 10 10 11 11 12 12 13 13
REMARK SMILES IDX 14 14 15 15
REMARK H PARENT 15 16
REMARK Flexibility Score: inf
ROOT
ATOM      1  C   UNL     1      16.770   0.211 -23.073  1.00  0.00     0.000 C 
ENDROOT
BRANCH   1   2
ATOM      2  C   UNL     1      16.160   0.105 -24.478  1.00  0.00    -0.000 C 
BRANCH   2   3
ATOM      3  C   UNL     1      16.061   1.466 -25.186  1.00  0.00    -0.000 C 
BRANCH   3   4
ATOM      4  C   UNL     1      16.943   1.547 -26.441  1.00  0.00    -0.000 C 
BRANCH   4   5
ATOM      5  C   UNL     1      17.883   0.336 -26.529  1.00  0.00    -0.000 C 
BRANCH   5   6
ATOM      6  C   UNL     1      19.332   0.670 -26.129  1.00  0.00    -0.000 C 
BRANCH   6   7
ATOM      7  C   UNL     1      20.159  -0.532 -25.640  1.00  0.00    -0.003 C 
ATOM      8  C   UNL     1      19.295  -1.702 -25.171  1.00  0.00     0.004 C 
ENDBRANCH   6   7
ENDBRANCH   5   6
ENDBRANCH   4   5
ENDBRANCH   3   4
ENDBRANCH   2   3
ENDBRANCH   1   2
BRANCH   1   9
ATOM      9  C   UNL     1      17.251   1.643 -22.791  1.00  0.00     0.000 C 
BRANCH   9  10
ATOM     10  C   UNL     1      18.767   1.726 -22.537  1.00  0.00     0.000 C 
BRANCH  10  11
ATOM     11  C   UNL     1      19.421   0.411 -22.071  1.00  0.00     0.000 C 
BRANCH  11  12
ATOM     12  C   UNL     1      20.367   0.541 -20.860  1.00  0.00     0.002 C 
BRANCH  12  13
ATOM     13  C   UNL     1      19.769   0.084 -19.518  1.00  0.00     0.028 C 
BRANCH  13  14
ATOM     14  C   UNL     1      20.440  -1.174 -18.963  1.00  0.00     0.156 C 
BRANCH  14  15
ATOM     15  O   UNL     1      19.465  -2.142 -18.695  1.00  0.00    -0.396 OA
ATOM     16  H   UNL     1      19.955  -2.953 -18.400  1.00  0.00     0.210 HD
ENDBRANCH  14  15
ENDBRANCH  13  14
ENDBRANCH  12  13
ENDBRANCH  11  12
ENDBRANCH  10  11
ENDBRANCH   9  10
ENDBRANCH   1   9
TORSDOF 13
ENDMDL
