MODEL 1
REMARK VINA RESULT:    -4.184      0.000      0.000
REMARK INTER + INTRA:          -6.526
REMARK INTER:                  -5.896
REMARK INTRA:                  -0.630
REMARK UNBOUND:                -0.630
REMARK SMILES CCCCCCCCC(=O)[O-]
REMARK SMILES IDX 6 1 7 2 8 3 9 4 10 5 11 6 5 7 4 8 3 9 2 10 1 11
REMARK H PARENT
REMARK Flexibility Score: inf
ROOT
ATOM      1  C   UNL     1       5.306  15.319  -8.330  1.00  0.00     0.000 C 
ENDROOT
BRANCH   1   2
ATOM      2  C   UNL     1       6.758  14.920  -8.011  1.00  0.00     0.006 C 
BRANCH   2   3
ATOM      3  C   UNL     1       7.787  15.912  -8.567  1.00  0.00     0.053 C 
BRANCH   3   4
ATOM      4  C   UNL     1       8.448  15.350  -9.786  1.00  0.00     0.041 C 
ATOM      5  O   UNL     1       7.969  15.578 -10.929  1.00  0.00    -0.550 OA
ATOM      6  O   UNL     1       9.564  14.533  -9.658  1.00  0.00    -0.550 OA
ENDBRANCH   3   4
ENDBRANCH   2   3
ENDBRANCH   1   2
BRANCH   1   7
ATOM      7  C   UNL     1       4.317  15.182  -7.157  1.00  0.00     0.000 C 
BRANCH   7   8
ATOM      8  C   UNL     1       4.091  16.505  -6.406  1.00  0.00    -0.000 C 
BRANCH   8   9
ATOM      9  C   UNL     1       4.632  17.720  -7.177  1.00  0.00    -0.000 C 
BRANCH   9  10
ATOM     10  C   UNL     1       5.820  18.389  -6.470  1.00  0.00    -0.003 C 
ATOM     11  C   UNL     1       5.887  17.979  -5.002  1.00  0.00     0.004 C 
ENDBRANCH   9  10
ENDBRANCH   8   9
ENDBRANCH   7   8
ENDBRANCH   1   7
TORSDOF 7
ENDMDL
MODEL 2
REMARK VINA RESULT:    -4.145     11.338     13.373
REMARK INTER + INTRA:          -6.470
REMARK INTER:                  -5.965
REMARK INTRA:                  -0.505
REMARK UNBOUND:                -0.630
REMARK SMILES CCCCCCCCC(=O)[O-]
REMARK SMILES IDX 6 1 7 2 8 3 9 4 10 5 11 6 5 7 4 8 3 9 2 10 1 11
REMARK H PARENT
REMARK Flexibility Score: inf
ROOT
ATOM      1  C   UNL     1      17.213  19.853 -13.263  1.00  0.00     0.000 C 
ENDROOT
BRANCH   1   2
ATOM      2  C   UNL     1      16.692  20.828 -12.190  1.00  0.00     0.006 C 
BRANCH   2   3
ATOM      3  C   UNL     1      16.057  22.090 -12.787  1.00  0.00     0.053 C 
BRANCH   3   4
ATOM      4  C   UNL     1      14.736  22.365 -12.140  1.00  0.00     0.041 C 
ATOM      5  O   UNL     1      14.399  23.547 -11.864  1.00  0.00    -0.550 OA
ATOM      6  O   UNL     1      13.897  21.312 -11.797  1.00  0.00    -0.550 OA
ENDBRANCH   3   4
ENDBRANCH   2   3
ENDBRANCH   1   2
BRANCH   1   7
ATOM      7  C   UNL     1      18.640  20.138 -13.768  1.00  0.00     0.000 C 
BRANCH   7   8
ATOM      8  C   UNL     1      19.652  19.060 -13.343  1.00  0.00    -0.000 C 
BRANCH   8   9
ATOM      9  C   UNL     1      18.971  17.750 -12.915  1.00  0.00    -0.000 C 
BRANCH   9  10
ATOM     10  C   UNL     1      19.438  17.263 -11.534  1.00  0.00    -0.003 C 
ATOM     11  C   UNL     1      19.448  18.408 -10.524  1.00  0.00     0.004 C 
ENDBRANCH   9  10
ENDBRANCH   8   9
ENDBRANCH   7   8
ENDBRANCH   1   7
TORSDOF 7
ENDMDL
MODEL 3
REMARK VINA RESULT:    -4.124     12.484     13.913
REMARK INTER + INTRA:          -6.442
REMARK INTER:                  -5.854
REMARK INTRA:                  -0.587
REMARK UNBOUND:                -0.630
REMARK SMILES CCCCCCCCC(=O)[O-]
REMARK SMILES IDX 6 1 7 2 8 3 9 4 10 5 11 6 5 7 4 8 3 9 2 10 1 11
REMARK H PARENT
REMARK Flexibility Score: inf
ROOT
ATOM      1  C   UNL     1      18.990  17.583 -13.800  1.00  0.00     0.000 C 
ENDROOT
BRANCH   1   2
ATOM      2  C   UNL     1      19.476  16.755 -12.596  1.00  0.00     0.006 C 
BRANCH   2   3
ATOM      3  C   UNL     1      20.591  17.450 -11.804  1.00  0.00     0.053 C 
BRANCH   3   4
ATOM      4  C   UNL     1      20.106  17.822 -10.438  1.00  0.00     0.041 C 
ATOM      5  O   UNL     1      20.687  17.372  -9.415  1.00  0.00    -0.550 OA
ATOM      6  O   UNL     1      18.981  18.625 -10.294  1.00  0.00    -0.550 OA
ENDBRANCH   3   4
ENDBRANCH   2   3
ENDBRANCH   1   2
BRANCH   1   7
ATOM      7  C   UNL     1      19.717  18.925 -14.008  1.00  0.00     0.000 C 
BRANCH   7   8
ATOM      8  C   UNL     1      18.808  20.142 -13.769  1.00  0.00    -0.000 C 
BRANCH   8   9
ATOM      9  C   UNL     1      17.350  19.743 -13.492  1.00  0.00    -0.000 C 
BRANCH   9  10
ATOM     10  C   UNL     1      16.731  20.531 -12.327  1.00  0.00    -0.003 C 
ATOM     11  C   UNL     1      16.217  21.889 -12.796  1.00  0.00     0.004 C 
ENDBRANCH   9  10
ENDBRANCH   8   9
ENDBRANCH   7   8
ENDBRANCH   1   7
TORSDOF 7
ENDMDL
MODEL 4
REMARK VINA RESULT:    -4.056      2.692      4.604
REMARK INTER + INTRA:          -6.346
REMARK INTER:                  -5.819
REMARK INTRA:                  -0.528
REMARK UNBOUND:                -0.630
REMARK SMILES CCCCCCCCC(=O)[O-]
REMARK SMILES IDX 6 1 7 2 8 3 9 4 10 5 11 6 5 7 4 8 3 9 2 10 1 11
REMARK H PARENT
REMARK Flexibility Score: inf
ROOT
ATOM      1  C   UNL     1       4.414  15.307  -7.015  1.00  0.00     0.000 C 
ENDROOT
BRANCH   1   2
ATOM      2  C   UNL     1       4.002  16.653  -6.388  1.00  0.00     0.006 C 
BRANCH   2   3
ATOM      3  C   UNL     1       4.926  17.809  -6.795  1.00  0.00     0.053 C 
BRANCH   3   4
ATOM      4  C   UNL     1       6.166  17.804  -5.958  1.00  0.00     0.041 C 
ATOM      5  O   UNL     1       7.257  17.402  -6.444  1.00  0.00    -0.550 OA
ATOM      6  O   UNL     1       6.109  18.197  -4.627  1.00  0.00    -0.550 OA
ENDBRANCH   3   4
ENDBRANCH   2   3
ENDBRANCH   1   2
BRANCH   1   7
ATOM      7  C   UNL     1       4.980  15.398  -8.444  1.00  0.00     0.000 C 
BRANCH   7   8
ATOM      8  C   UNL     1       5.923  14.233  -8.790  1.00  0.00    -0.000 C 
BRANCH   8   9
ATOM      9  C   UNL     1       7.399  14.574  -8.530  1.00  0.00    -0.000 C 
BRANCH   9  10
ATOM     10  C   UNL     1       7.911  15.714  -9.423  1.00  0.00    -0.003 C 
ATOM     11  C   UNL     1       7.923  15.297 -10.891  1.00  0.00     0.004 C 
ENDBRANCH   9  10
ENDBRANCH   8   9
ENDBRANCH   7   8
ENDBRANCH   1   7
TORSDOF 7
ENDMDL
MODEL 5
REMARK VINA RESULT:    -4.035     10.750     12.229
REMARK INTER + INTRA:          -6.316
REMARK INTER:                  -5.919
REMARK INTRA:                  -0.396
REMARK UNBOUND:                -0.630
REMARK SMILES CCCCCCCCC(=O)[O-]
REMARK SMILES IDX 6 1 7 2 8 3 9 4 10 5 11 6 5 7 4 8 3 9 2 10 1 11
REMARK H PARENT
REMARK Flexibility Score: inf
ROOT
ATOM      1  C   UNL     1      16.946  21.425 -12.710  1.00  0.00     0.000 C 
ENDROOT
BRANCH   1   2
ATOM      2  C   UNL     1      18.013  20.543 -13.384  1.00  0.00     0.006 C 
BRANCH   2   3
ATOM      3  C   UNL     1      17.885  19.060 -13.013  1.00  0.00     0.053 C 
BRANCH   3   4
ATOM      4  C   UNL     1      18.881  18.699 -11.957  1.00  0.00     0.041 C 
ATOM      5  O   UNL     1      20.035  18.311 -12.280  1.00  0.00    -0.550 OA
ATOM      6  O   UNL     1      18.520  18.743 -10.616  1.00  0.00    -0.550 OA
ENDBRANCH   3   4
ENDBRANCH   2   3
ENDBRANCH   1   2
BRANCH   1   7
ATOM      7  C   UNL     1      15.796  20.656 -12.033  1.00  0.00     0.000 C 
BRANCH   7   8
ATOM      8  C   UNL     1      14.485  21.459 -11.984  1.00  0.00    -0.000 C 
BRANCH   8   9
ATOM      9  C   UNL     1      14.667  22.912 -12.450  1.00  0.00    -0.000 C 
BRANCH   9  10
ATOM     10  C   UNL     1      13.335  23.595 -12.797  1.00  0.00    -0.003 C 
ATOM     11  C   UNL     1      12.259  22.563 -13.126  1.00  0.00     0.004 C 
ENDBRANCH   9  10
ENDBRANCH   8   9
ENDBRANCH   7   8
ENDBRANCH   1   7
TORSDOF 7
ENDMDL
MODEL 6
REMARK VINA RESULT:    -4.018     11.424     13.519
REMARK INTER + INTRA:          -6.292
REMARK INTER:                  -5.815
REMARK INTRA:                  -0.476
REMARK UNBOUND:                -0.630
REMARK SMILES CCCCCCCCC(=O)[O-]
REMARK SMILES IDX 6 1 7 2 8 3 9 4 10 5 11 6 5 7 4 8 3 9 2 10 1 11
REMARK H PARENT
REMARK Flexibility Score: inf
ROOT
ATOM      1  C   UNL     1      18.580  20.108 -13.160  1.00  0.00     0.000 C 
ENDROOT
BRANCH   1   2
ATOM      2  C   UNL     1      17.253  20.870 -13.335  1.00  0.00     0.006 C 
BRANCH   2   3
ATOM      3  C   UNL     1      16.259  20.609 -12.196  1.00  0.00     0.053 C 
BRANCH   3   4
ATOM      4  C   UNL     1      15.221  21.686 -12.153  1.00  0.00     0.041 C 
ATOM      5  O   UNL     1      14.193  21.547 -11.438  1.00  0.00    -0.550 OA
ATOM      6  O   UNL     1      15.363  22.821 -12.940  1.00  0.00    -0.550 OA
ENDBRANCH   3   4
ENDBRANCH   2   3
ENDBRANCH   1   2
BRANCH   1   7
ATOM      7  C   UNL     1      18.573  18.657 -13.677  1.00  0.00     0.000 C 
BRANCH   7   8
ATOM      8  C   UNL     1      18.916  17.630 -12.585  1.00  0.00    -0.000 C 
BRANCH   8   9
ATOM      9  C   UNL     1      18.839  18.227 -11.170  1.00  0.00    -0.000 C 
BRANCH   9  10
ATOM     10  C   UNL     1      20.132  18.020 -10.368  1.00  0.00    -0.003 C 
ATOM     11  C   UNL     1      21.175  17.272 -11.193  1.00  0.00     0.004 C 
ENDBRANCH   9  10
ENDBRANCH   8   9
ENDBRANCH   7   8
ENDBRANCH   1   7
TORSDOF 7
ENDMDL
MODEL 7
REMARK VINA RESULT:    -3.983     12.627     14.168
REMARK INTER + INTRA:          -6.243
REMARK INTER:                  -5.613
REMARK INTRA:                  -0.630
REMARK UNBOUND:                -0.630
REMARK SMILES CCCCCCCCC(=O)[O-]
REMARK SMILES IDX 6 1 7 2 8 3 9 4 10 5 11 6 5 7 4 8 3 9 2 10 1 11
REMARK H PARENT
REMARK Flexibility Score: inf
ROOT
ATOM      1  C   UNL     1      19.979  18.930 -13.346  1.00  0.00     0.000 C 
ENDROOT
BRANCH   1   2
ATOM      2  C   UNL     1      19.106  20.098 -13.841  1.00  0.00     0.006 C 
BRANCH   2   3
ATOM      3  C   UNL     1      17.603  19.811 -13.728  1.00  0.00     0.053 C 
BRANCH   3   4
ATOM      4  C   UNL     1      17.007  20.588 -12.597  1.00  0.00     0.041 C 
ATOM      5  O   UNL     1      17.027  20.121 -11.428  1.00  0.00    -0.550 OA
ATOM      6  O   UNL     1      16.385  21.806 -12.842  1.00  0.00    -0.550 OA
ENDBRANCH   3   4
ENDBRANCH   2   3
ENDBRANCH   1   2
BRANCH   1   7
ATOM      7  C   UNL     1      19.225  17.609 -13.102  1.00  0.00     0.000 C 
BRANCH   7   8
ATOM      8  C   UNL     1      19.266  17.157 -11.632  1.00  0.00    -0.000 C 
BRANCH   8   9
ATOM      9  C   UNL     1      19.900  18.212 -10.710  1.00  0.00    -0.000 C 
BRANCH   9  10
ATOM     10  C   UNL     1      21.215  17.731 -10.077  1.00  0.00    -0.003 C 
ATOM     11  C   UNL     1      21.256  16.208  -9.990  1.00  0.00     0.004 C 
ENDBRANCH   9  10
ENDBRANCH   8   9
ENDBRANCH   7   8
ENDBRANCH   1   7
TORSDOF 7
ENDMDL
MODEL 8
REMARK VINA RESULT:    -3.932      2.731      4.596
REMARK INTER + INTRA:          -6.171
REMARK INTER:                  -5.594
REMARK INTRA:                  -0.576
REMARK UNBOUND:                -0.630
REMARK SMILES CCCCCCCCC(=O)[O-]
REMARK SMILES IDX 6 1 7 2 8 3 9 4 10 5 11 6 5 7 4 8 3 9 2 10 1 11
REMARK H PARENT
REMARK Flexibility Score: inf
ROOT
ATOM      1  C   UNL     1       4.616  15.019  -7.426  1.00  0.00     0.000 C 
ENDROOT
BRANCH   1   2
ATOM      2  C   UNL     1       4.247  16.231  -6.550  1.00  0.00     0.006 C 
BRANCH   2   3
ATOM      3  C   UNL     1       4.909  17.532  -7.021  1.00  0.00     0.053 C 
BRANCH   3   4
ATOM      4  C   UNL     1       6.211  17.741  -6.314  1.00  0.00     0.041 C 
ATOM      5  O   UNL     1       6.227  18.144  -5.121  1.00  0.00    -0.550 OA
ATOM      6  O   UNL     1       7.409  17.539  -6.988  1.00  0.00    -0.550 OA
ENDBRANCH   3   4
ENDBRANCH   2   3
ENDBRANCH   1   2
BRANCH   1   7
ATOM      7  C   UNL     1       5.007  15.356  -8.877  1.00  0.00     0.000 C 
BRANCH   7   8
ATOM      8  C   UNL     1       6.423  14.879  -9.242  1.00  0.00    -0.000 C 
BRANCH   8   9
ATOM      9  C   UNL     1       7.184  14.313  -8.032  1.00  0.00    -0.000 C 
BRANCH   9  10
ATOM     10  C   UNL     1       8.009  13.065  -8.382  1.00  0.00    -0.003 C 
ATOM     11  C   UNL     1       7.797  11.960  -7.350  1.00  0.00     0.004 C 
ENDBRANCH   9  10
ENDBRANCH   8   9
ENDBRANCH   7   8
ENDBRANCH   1   7
TORSDOF 7
ENDMDL
MODEL 9
REMARK VINA RESULT:    -3.879     11.246     13.119
REMARK INTER + INTRA:          -6.096
REMARK INTER:                  -5.758
REMARK INTRA:                  -0.338
REMARK UNBOUND:                -0.630
REMARK SMILES CCCCCCCCC(=O)[O-]
REMARK SMILES IDX 6 1 7 2 8 3 9 4 10 5 11 6 5 7 4 8 3 9 2 10 1 11
REMARK H PARENT
REMARK Flexibility Score: inf
ROOT
ATOM      1  C   UNL     1      15.603  21.169 -12.122  1.00  0.00     0.000 C 
ENDROOT
BRANCH   1   2
ATOM      2  C   UNL     1      15.843  22.498 -12.861  1.00  0.00     0.006 C 
BRANCH   2   3
ATOM      3  C   UNL     1      14.541  23.186 -13.292  1.00  0.00     0.053 C 
BRANCH   3   4
ATOM      4  C   UNL     1      13.700  23.506 -12.097  1.00  0.00     0.041 C 
ATOM      5  O   UNL     1      14.087  24.364 -11.261  1.00  0.00    -0.550 OA
ATOM      6  O   UNL     1      12.511  22.820 -11.880  1.00  0.00    -0.550 OA
ENDBRANCH   3   4
ENDBRANCH   2   3
ENDBRANCH   1   2
BRANCH   1   7
ATOM      7  C   UNL     1      16.736  20.133 -12.256  1.00  0.00     0.000 C 
BRANCH   7   8
ATOM      8  C   UNL     1      17.774  20.515 -13.324  1.00  0.00    -0.000 C 
BRANCH   8   9
ATOM      9  C   UNL     1      19.022  19.619 -13.279  1.00  0.00    -0.000 C 
BRANCH   9  10
ATOM     10  C   UNL     1      18.725  18.168 -13.689  1.00  0.00    -0.003 C 
ATOM     11  C   UNL     1      19.183  17.189 -12.612  1.00  0.00     0.004 C 
ENDBRANCH   9  10
ENDBRANCH   8   9
ENDBRANCH   7   8
ENDBRANCH   1   7
TORSDOF 7
ENDMDL
