MODEL 1
REMARK VINA RESULT:    -4.321      0.000      0.000
REMARK INTER + INTRA:          -6.101
REMARK INTER:                  -5.837
REMARK INTRA:                  -0.264
REMARK UNBOUND:                -0.264
REMARK SMILES CCCCCCCC(=O)[O-]
REMARK SMILES IDX 5 1 6 2 7 3 8 4 9 5 10 6 4 7 3 8 2 9 1 10
REMARK H PARENT
REMARK Flexibility Score: inf
ROOT
ATOM      1  C   UNL     1     -32.012 -20.839 -22.834  1.00  0.00     0.000 C 
ENDROOT
BRANCH   1   2
ATOM      2  C   UNL     1     -31.390 -21.472 -21.579  1.00  0.00     0.006 C 
BRANCH   2   3
ATOM      3  C   UNL     1     -30.630 -22.769 -21.886  1.00  0.00     0.053 C 
BRANCH   3   4
ATOM      4  C   UNL     1     -29.193 -22.637 -21.491  1.00  0.00     0.041 C 
ATOM      5  O   UNL     1     -28.362 -22.124 -22.285  1.00  0.00    -0.550 OA
ATOM      6  O   UNL     1     -28.761 -23.125 -20.264  1.00  0.00    -0.550 OA
ENDBRANCH   3   4
ENDBRANCH   2   3
ENDBRANCH   1   2
BRANCH   1   7
ATOM      7  C   UNL     1     -31.317 -21.285 -24.130  1.00  0.00     0.000 C 
BRANCH   7   8
ATOM      8  C   UNL     1     -31.128 -20.099 -25.087  1.00  0.00    -0.000 C 
BRANCH   8   9
ATOM      9  C   UNL     1     -30.959 -20.541 -26.549  1.00  0.00    -0.003 C 
ATOM     10  C   UNL     1     -31.161 -22.045 -26.741  1.00  0.00     0.004 C 
ENDBRANCH   8   9
ENDBRANCH   7   8
ENDBRANCH   1   7
TORSDOF 6
ENDMDL
MODEL 2
REMARK VINA RESULT:    -4.136      2.733      5.183
REMARK INTER + INTRA:          -5.851
REMARK INTER:                  -5.591
REMARK INTRA:                  -0.260
REMARK UNBOUND:                -0.264
REMARK SMILES CCCCCCCC(=O)[O-]
REMARK SMILES IDX 5 1 6 2 7 3 8 4 9 5 10 6 4 7 3 8 2 9 1 10
REMARK H PARENT
REMARK Flexibility Score: inf
ROOT
ATOM      1  C   UNL     1     -31.271 -21.697 -21.577  1.00  0.00     0.000 C 
ENDROOT
BRANCH   1   2
ATOM      2  C   UNL     1     -31.715 -21.145 -22.942  1.00  0.00     0.006 C 
BRANCH   2   3
ATOM      3  C   UNL     1     -30.634 -21.294 -24.020  1.00  0.00     0.053 C 
BRANCH   3   4
ATOM      4  C   UNL     1     -31.218 -21.063 -25.378  1.00  0.00     0.041 C 
ATOM      5  O   UNL     1     -31.618 -22.035 -26.070  1.00  0.00    -0.550 OA
ATOM      6  O   UNL     1     -31.275 -19.777 -25.901  1.00  0.00    -0.550 OA
ENDBRANCH   3   4
ENDBRANCH   2   3
ENDBRANCH   1   2
BRANCH   1   7
ATOM      7  C   UNL     1     -30.592 -23.071 -21.687  1.00  0.00     0.000 C 
BRANCH   7   8
ATOM      8  C   UNL     1     -29.153 -23.014 -21.152  1.00  0.00    -0.000 C 
BRANCH   8   9
ATOM      9  C   UNL     1     -29.026 -22.149 -19.888  1.00  0.00    -0.003 C 
ATOM     10  C   UNL     1     -28.345 -22.883 -18.733  1.00  0.00     0.004 C 
ENDBRANCH   8   9
ENDBRANCH   7   8
ENDBRANCH   1   7
TORSDOF 6
ENDMDL
MODEL 3
REMARK VINA RESULT:    -4.026      2.668      4.474
REMARK INTER + INTRA:          -5.702
REMARK INTER:                  -5.253
REMARK INTRA:                  -0.450
REMARK UNBOUND:                -0.264
REMARK SMILES CCCCCCCC(=O)[O-]
REMARK SMILES IDX 5 1 6 2 7 3 8 4 9 5 10 6 4 7 3 8 2 9 1 10
REMARK H PARENT
REMARK Flexibility Score: inf
ROOT
ATOM      1  C   UNL     1     -31.401 -21.276 -21.733  1.00  0.00     0.000 C 
ENDROOT
BRANCH   1   2
ATOM      2  C   UNL     1     -31.864 -20.743 -23.099  1.00  0.00     0.006 C 
BRANCH   2   3
ATOM      3  C   UNL     1     -31.348 -21.590 -24.270  1.00  0.00     0.053 C 
BRANCH   3   4
ATOM      4  C   UNL     1     -30.956 -20.712 -25.415  1.00  0.00     0.041 C 
ATOM      5  O   UNL     1     -30.885 -19.464 -25.262  1.00  0.00    -0.550 OA
ATOM      6  O   UNL     1     -30.715 -21.265 -26.667  1.00  0.00    -0.550 OA
ENDBRANCH   3   4
ENDBRANCH   2   3
ENDBRANCH   1   2
BRANCH   1   7
ATOM      7  C   UNL     1     -30.635 -22.603 -21.844  1.00  0.00     0.000 C 
BRANCH   7   8
ATOM      8  C   UNL     1     -29.365 -22.576 -20.980  1.00  0.00    -0.000 C 
BRANCH   8   9
ATOM      9  C   UNL     1     -28.097 -22.902 -21.784  1.00  0.00    -0.003 C 
ATOM     10  C   UNL     1     -27.886 -21.959 -22.967  1.00  0.00     0.004 C 
ENDBRANCH   8   9
ENDBRANCH   7   8
ENDBRANCH   1   7
TORSDOF 6
ENDMDL
MODEL 4
REMARK VINA RESULT:    -4.009      1.212      1.420
REMARK INTER + INTRA:          -5.679
REMARK INTER:                  -5.508
REMARK INTRA:                  -0.171
REMARK UNBOUND:                -0.264
REMARK SMILES CCCCCCCC(=O)[O-]
REMARK SMILES IDX 5 1 6 2 7 3 8 4 9 5 10 6 4 7 3 8 2 9 1 10
REMARK H PARENT
REMARK Flexibility Score: inf
ROOT
ATOM      1  C   UNL     1     -30.041 -21.625 -23.352  1.00  0.00     0.000 C 
ENDROOT
BRANCH   1   2
ATOM      2  C   UNL     1     -30.549 -22.375 -22.110  1.00  0.00     0.006 C 
BRANCH   2   3
ATOM      3  C   UNL     1     -29.414 -23.012 -21.299  1.00  0.00     0.053 C 
BRANCH   3   4
ATOM      4  C   UNL     1     -29.142 -22.212 -20.065  1.00  0.00     0.041 C 
ATOM      5  O   UNL     1     -29.317 -20.965 -20.067  1.00  0.00    -0.550 OA
ATOM      6  O   UNL     1     -28.650 -22.835 -18.925  1.00  0.00    -0.550 OA
ENDBRANCH   3   4
ENDBRANCH   2   3
ENDBRANCH   1   2
BRANCH   1   7
ATOM      7  C   UNL     1     -31.179 -21.203 -24.295  1.00  0.00     0.000 C 
BRANCH   7   8
ATOM      8  C   UNL     1     -30.687 -20.167 -25.317  1.00  0.00    -0.000 C 
BRANCH   8   9
ATOM      9  C   UNL     1     -31.025 -20.557 -26.764  1.00  0.00    -0.003 C 
ATOM     10  C   UNL     1     -31.052 -22.071 -26.979  1.00  0.00     0.004 C 
ENDBRANCH   8   9
ENDBRANCH   7   8
ENDBRANCH   1   7
TORSDOF 6
ENDMDL
MODEL 5
REMARK VINA RESULT:    -3.987      2.899      5.843
REMARK INTER + INTRA:          -5.650
REMARK INTER:                  -5.466
REMARK INTRA:                  -0.184
REMARK UNBOUND:                -0.264
REMARK SMILES CCCCCCCC(=O)[O-]
REMARK SMILES IDX 5 1 6 2 7 3 8 4 9 5 10 6 4 7 3 8 2 9 1 10
REMARK H PARENT
REMARK Flexibility Score: inf
ROOT
ATOM      1  C   UNL     1     -29.052 -22.475 -21.720  1.00  0.00     0.000 C 
ENDROOT
BRANCH   1   2
ATOM      2  C   UNL     1     -30.570 -22.671 -21.860  1.00  0.00     0.006 C 
BRANCH   2   3
ATOM      3  C   UNL     1     -31.365 -21.410 -21.500  1.00  0.00     0.053 C 
BRANCH   3   4
ATOM      4  C   UNL     1     -32.036 -20.853 -22.716  1.00  0.00     0.041 C 
ATOM      5  O   UNL     1     -31.728 -21.278 -23.860  1.00  0.00    -0.550 OA
ATOM      6  O   UNL     1     -32.967 -19.829 -22.590  1.00  0.00    -0.550 OA
ENDBRANCH   3   4
ENDBRANCH   2   3
ENDBRANCH   1   2
BRANCH   1   7
ATOM      7  C   UNL     1     -28.484 -23.124 -20.449  1.00  0.00     0.000 C 
BRANCH   7   8
ATOM      8  C   UNL     1     -28.740 -22.238 -19.221  1.00  0.00    -0.000 C 
BRANCH   8   9
ATOM      9  C   UNL     1     -28.597 -23.007 -17.898  1.00  0.00    -0.003 C 
ATOM     10  C   UNL     1     -27.253 -22.760 -17.211  1.00  0.00     0.004 C 
ENDBRANCH   8   9
ENDBRANCH   7   8
ENDBRANCH   1   7
TORSDOF 6
ENDMDL
MODEL 6
REMARK VINA RESULT:    -3.905      2.139      3.181
REMARK INTER + INTRA:          -5.538
REMARK INTER:                  -5.348
REMARK INTRA:                  -0.190
REMARK UNBOUND:                -0.264
REMARK SMILES CCCCCCCC(=O)[O-]
REMARK SMILES IDX 5 1 6 2 7 3 8 4 9 5 10 6 4 7 3 8 2 9 1 10
REMARK H PARENT
REMARK Flexibility Score: inf
ROOT
ATOM      1  C   UNL     1     -29.225 -22.085 -21.594  1.00  0.00     0.000 C 
ENDROOT
BRANCH   1   2
ATOM      2  C   UNL     1     -29.129 -21.783 -20.089  1.00  0.00     0.006 C 
BRANCH   2   3
ATOM      3  C   UNL     1     -28.897 -23.043 -19.247  1.00  0.00     0.053 C 
BRANCH   3   4
ATOM      4  C   UNL     1     -28.385 -22.675 -17.889  1.00  0.00     0.041 C 
ATOM      5  O   UNL     1     -27.322 -22.013 -17.771  1.00  0.00    -0.550 OA
ATOM      6  O   UNL     1     -29.058 -23.106 -16.752  1.00  0.00    -0.550 OA
ENDBRANCH   3   4
ENDBRANCH   2   3
ENDBRANCH   1   2
BRANCH   1   7
ATOM      7  C   UNL     1     -30.642 -22.492 -22.026  1.00  0.00     0.000 C 
BRANCH   7   8
ATOM      8  C   UNL     1     -31.355 -21.329 -22.731  1.00  0.00    -0.000 C 
BRANCH   8   9
ATOM      9  C   UNL     1     -31.416 -21.510 -24.256  1.00  0.00    -0.003 C 
ATOM     10  C   UNL     1     -30.328 -20.727 -24.990  1.00  0.00     0.004 C 
ENDBRANCH   8   9
ENDBRANCH   7   8
ENDBRANCH   1   7
TORSDOF 6
ENDMDL
MODEL 7
REMARK VINA RESULT:    -3.380      2.493      4.714
REMARK INTER + INTRA:          -4.829
REMARK INTER:                  -4.376
REMARK INTRA:                  -0.453
REMARK UNBOUND:                -0.264
REMARK SMILES CCCCCCCC(=O)[O-]
REMARK SMILES IDX 5 1 6 2 7 3 8 4 9 5 10 6 4 7 3 8 2 9 1 10
REMARK H PARENT
REMARK Flexibility Score: inf
ROOT
ATOM      1  C   UNL     1     -29.245 -21.292 -23.795  1.00  0.00     0.000 C 
ENDROOT
BRANCH   1   2
ATOM      2  C   UNL     1     -30.720 -21.718 -23.728  1.00  0.00     0.006 C 
BRANCH   2   3
ATOM      3  C   UNL     1     -31.685 -20.535 -23.878  1.00  0.00     0.053 C 
BRANCH   3   4
ATOM      4  C   UNL     1     -32.379 -20.261 -22.582  1.00  0.00     0.041 C 
ATOM      5  O   UNL     1     -33.191 -19.303 -22.488  1.00  0.00    -0.550 OA
ATOM      6  O   UNL     1     -32.093 -21.032 -21.462  1.00  0.00    -0.550 OA
ENDBRANCH   3   4
ENDBRANCH   2   3
ENDBRANCH   1   2
BRANCH   1   7
ATOM      7  C   UNL     1     -28.383 -21.970 -22.718  1.00  0.00     0.000 C 
BRANCH   7   8
ATOM      8  C   UNL     1     -29.234 -22.901 -21.842  1.00  0.00    -0.000 C 
BRANCH   8   9
ATOM      9  C   UNL     1     -28.919 -22.755 -20.345  1.00  0.00    -0.003 C 
ATOM     10  C   UNL     1     -29.074 -21.319 -19.844  1.00  0.00     0.004 C 
ENDBRANCH   8   9
ENDBRANCH   7   8
ENDBRANCH   1   7
TORSDOF 6
ENDMDL
MODEL 8
REMARK VINA RESULT:    -3.191      2.695      3.108
REMARK INTER + INTRA:          -4.574
REMARK INTER:                  -4.231
REMARK INTRA:                  -0.343
REMARK UNBOUND:                -0.264
REMARK SMILES CCCCCCCC(=O)[O-]
REMARK SMILES IDX 5 1 6 2 7 3 8 4 9 5 10 6 4 7 3 8 2 9 1 10
REMARK H PARENT
REMARK Flexibility Score: inf
ROOT
ATOM      1  C   UNL     1     -29.647 -21.614 -23.062  1.00  0.00     0.000 C 
ENDROOT
BRANCH   1   2
ATOM      2  C   UNL     1     -31.049 -21.950 -22.529  1.00  0.00     0.006 C 
BRANCH   2   3
ATOM      3  C   UNL     1     -31.460 -21.063 -21.347  1.00  0.00     0.053 C 
BRANCH   3   4
ATOM      4  C   UNL     1     -32.549 -20.122 -21.755  1.00  0.00     0.041 C 
ATOM      5  O   UNL     1     -33.335 -20.430 -22.688  1.00  0.00    -0.550 OA
ATOM      6  O   UNL     1     -32.667 -18.883 -21.137  1.00  0.00    -0.550 OA
ENDBRANCH   3   4
ENDBRANCH   2   3
ENDBRANCH   1   2
BRANCH   1   7
ATOM      7  C   UNL     1     -29.685 -20.932 -24.439  1.00  0.00     0.000 C 
BRANCH   7   8
ATOM      8  C   UNL     1     -31.021 -21.202 -25.147  1.00  0.00    -0.000 C 
BRANCH   8   9
ATOM      9  C   UNL     1     -30.850 -21.465 -26.651  1.00  0.00    -0.003 C 
ATOM     10  C   UNL     1     -31.605 -22.707 -27.125  1.00  0.00     0.004 C 
ENDBRANCH   8   9
ENDBRANCH   7   8
ENDBRANCH   1   7
TORSDOF 6
ENDMDL
MODEL 9
REMARK VINA RESULT:    -3.012      2.747      4.624
REMARK INTER + INTRA:          -4.333
REMARK INTER:                  -3.886
REMARK INTRA:                  -0.447
REMARK UNBOUND:                -0.264
REMARK SMILES CCCCCCCC(=O)[O-]
REMARK SMILES IDX 5 1 6 2 7 3 8 4 9 5 10 6 4 7 3 8 2 9 1 10
REMARK H PARENT
REMARK Flexibility Score: inf
ROOT
ATOM      1  C   UNL     1     -29.116 -21.584 -22.486  1.00  0.00     0.000 C 
ENDROOT
BRANCH   1   2
ATOM      2  C   UNL     1     -29.902 -21.904 -23.768  1.00  0.00     0.006 C 
BRANCH   2   3
ATOM      3  C   UNL     1     -29.934 -20.727 -24.751  1.00  0.00     0.053 C 
BRANCH   3   4
ATOM      4  C   UNL     1     -30.938 -20.977 -25.831  1.00  0.00     0.041 C 
ATOM      5  O   UNL     1     -31.701 -21.976 -25.768  1.00  0.00    -0.550 OA
ATOM      6  O   UNL     1     -30.999 -20.134 -26.934  1.00  0.00    -0.550 OA
ENDBRANCH   3   4
ENDBRANCH   2   3
ENDBRANCH   1   2
BRANCH   1   7
ATOM      7  C   UNL     1     -29.962 -21.756 -21.215  1.00  0.00     0.000 C 
BRANCH   7   8
ATOM      8  C   UNL     1     -31.460 -21.634 -21.533  1.00  0.00    -0.000 C 
BRANCH   8   9
ATOM      9  C   UNL     1     -31.971 -20.188 -21.428  1.00  0.00    -0.003 C 
ATOM     10  C   UNL     1     -32.899 -19.803 -22.580  1.00  0.00     0.004 C 
ENDBRANCH   8   9
ENDBRANCH   7   8
ENDBRANCH   1   7
TORSDOF 6
ENDMDL
