MODEL 1
REMARK VINA RESULT:    -3.956      0.000      0.000
REMARK INTER + INTRA:          -9.643
REMARK INTER:                  -7.425
REMARK INTRA:                  -2.218
REMARK UNBOUND:                -2.218
REMARK SMILES O=C([O-])CCCCCCCCCCCCCCC(=O)[O-]
REMARK SMILES IDX 10 1 9 2 8 3 7 4 6 5 5 6 4 7 2 8 1 9 3 10 11 11 12 12 13 13
REMARK SMILES IDX 14 14 15 15 16 16 17 17 18 18 19 19 20 20
REMARK H PARENT
REMARK Flexibility Score: inf
ROOT
ATOM      1  C   UNL     1       2.599 125.354 110.997  1.00  0.00     0.000 C 
ENDROOT
BRANCH   1   2
ATOM      2  C   UNL     1       1.803 125.506 112.303  1.00  0.00     0.000 C 
BRANCH   2   3
ATOM      3  C   UNL     1       2.665 125.267 113.552  1.00  0.00     0.000 C 
BRANCH   3   4
ATOM      4  C   UNL     1       3.955 124.519 113.194  1.00  0.00     0.000 C 
BRANCH   4   5
ATOM      5  C   UNL     1       5.181 125.209 113.810  1.00  0.00     0.000 C 
BRANCH   5   6
ATOM      6  C   UNL     1       6.119 125.816 112.753  1.00  0.00     0.006 C 
BRANCH   6   7
ATOM      7  C   UNL     1       6.229 124.995 111.457  1.00  0.00     0.053 C 
BRANCH   7   8
ATOM      8  C   UNL     1       7.474 124.162 111.424  1.00  0.00     0.041 C 
ATOM      9  O   UNL     1       7.501 123.040 111.995  1.00  0.00    -0.550 OA
ATOM     10  O   UNL     1       8.615 124.641 110.791  1.00  0.00    -0.550 OA
ENDBRANCH   7   8
ENDBRANCH   6   7
ENDBRANCH   5   6
ENDBRANCH   4   5
ENDBRANCH   3   4
ENDBRANCH   2   3
ENDBRANCH   1   2
BRANCH   1  11
ATOM     11  C   UNL     1       3.041 126.707 110.413  1.00  0.00     0.000 C 
BRANCH  11  12
ATOM     12  C   UNL     1       2.108 127.858 110.819  1.00  0.00     0.000 C 
BRANCH  12  13
ATOM     13  C   UNL     1       2.877 129.149 111.155  1.00  0.00     0.000 C 
BRANCH  13  14
ATOM     14  C   UNL     1       2.827 129.494 112.652  1.00  0.00     0.000 C 
BRANCH  14  15
ATOM     15  C   UNL     1       3.901 128.754 113.464  1.00  0.00     0.000 C 
BRANCH  15  16
ATOM     16  C   UNL     1       5.302 129.296 113.142  1.00  0.00     0.006 C 
BRANCH  16  17
ATOM     17  C   UNL     1       5.610 130.596 113.899  1.00  0.00     0.053 C 
BRANCH  17  18
ATOM     18  C   UNL     1       7.082 130.799 114.083  1.00  0.00     0.041 C 
ATOM     19  O   UNL     1       7.532 131.208 115.186  1.00  0.00    -0.550 OA
ATOM     20  O   UNL     1       7.960 130.504 113.048  1.00  0.00    -0.550 OA
ENDBRANCH  17  18
ENDBRANCH  16  17
ENDBRANCH  15  16
ENDBRANCH  14  15
ENDBRANCH  13  14
ENDBRANCH  12  13
ENDBRANCH  11  12
ENDBRANCH   1  11
TORSDOF 15
ENDMDL
MODEL 2
REMARK VINA RESULT:    -3.940      1.235      2.029
REMARK INTER + INTRA:          -9.612
REMARK INTER:                  -7.997
REMARK INTRA:                  -1.616
REMARK UNBOUND:                -2.218
REMARK SMILES O=C([O-])CCCCCCCCCCCCCCC(=O)[O-]
REMARK SMILES IDX 10 1 9 2 8 3 7 4 6 5 5 6 4 7 2 8 1 9 3 10 11 11 12 12 13 13
REMARK SMILES IDX 14 14 15 15 16 16 17 17 18 18 19 19 20 20
REMARK H PARENT
REMARK Flexibility Score: inf
ROOT
ATOM      1  C   UNL     1       1.492 125.796 112.900  1.00  0.00     0.000 C 
ENDROOT
BRANCH   1   2
ATOM      2  C   UNL     1       2.412 124.921 112.035  1.00  0.00     0.000 C 
BRANCH   2   3
ATOM      3  C   UNL     1       2.620 125.495 110.626  1.00  0.00     0.000 C 
BRANCH   3   4
ATOM      4  C   UNL     1       4.112 125.589 110.286  1.00  0.00     0.000 C 
BRANCH   4   5
ATOM      5  C   UNL     1       4.949 124.714 111.231  1.00  0.00     0.000 C 
BRANCH   5   6
ATOM      6  C   UNL     1       6.197 125.437 111.767  1.00  0.00     0.006 C 
BRANCH   6   7
ATOM      7  C   UNL     1       6.718 124.894 113.108  1.00  0.00     0.053 C 
BRANCH   7   8
ATOM      8  C   UNL     1       7.612 123.707 112.925  1.00  0.00     0.041 C 
ATOM      9  O   UNL     1       7.496 122.977 111.905  1.00  0.00    -0.550 OA
ATOM     10  O   UNL     1       8.553 123.386 113.897  1.00  0.00    -0.550 OA
ENDBRANCH   7   8
ENDBRANCH   6   7
ENDBRANCH   5   6
ENDBRANCH   4   5
ENDBRANCH   3   4
ENDBRANCH   2   3
ENDBRANCH   1   2
BRANCH   1  11
ATOM     11  C   UNL     1       1.339 127.223 112.345  1.00  0.00     0.000 C 
BRANCH  11  12
ATOM     12  C   UNL     1       1.340 128.289 113.451  1.00  0.00     0.000 C 
BRANCH  12  13
ATOM     13  C   UNL     1       2.311 129.446 113.154  1.00  0.00     0.000 C 
BRANCH  13  14
ATOM     14  C   UNL     1       3.658 128.958 112.597  1.00  0.00     0.000 C 
BRANCH  14  15
ATOM     15  C   UNL     1       4.507 128.236 113.654  1.00  0.00     0.000 C 
BRANCH  15  16
ATOM     16  C   UNL     1       5.173 129.244 114.605  1.00  0.00     0.006 C 
BRANCH  16  17
ATOM     17  C   UNL     1       5.758 130.449 113.855  1.00  0.00     0.053 C 
BRANCH  17  18
ATOM     18  C   UNL     1       7.253 130.486 113.941  1.00  0.00     0.041 C 
ATOM     19  O   UNL     1       7.948 130.489 112.891  1.00  0.00    -0.550 OA
ATOM     20  O   UNL     1       7.878 130.553 115.180  1.00  0.00    -0.550 OA
ENDBRANCH  17  18
ENDBRANCH  16  17
ENDBRANCH  15  16
ENDBRANCH  14  15
ENDBRANCH  13  14
ENDBRANCH  12  13
ENDBRANCH  11  12
ENDBRANCH   1  11
TORSDOF 15
ENDMDL
MODEL 3
REMARK VINA RESULT:    -3.912      1.121      5.618
REMARK INTER + INTRA:          -9.559
REMARK INTER:                  -8.028
REMARK INTRA:                  -1.532
REMARK UNBOUND:                -2.218
REMARK SMILES O=C([O-])CCCCCCCCCCCCCCC(=O)[O-]
REMARK SMILES IDX 10 1 9 2 8 3 7 4 6 5 5 6 4 7 2 8 1 9 3 10 11 11 12 12 13 13
REMARK SMILES IDX 14 14 15 15 16 16 17 17 18 18 19 19 20 20
REMARK H PARENT
REMARK Flexibility Score: inf
ROOT
ATOM      1  C   UNL     1       1.926 127.501 112.993  1.00  0.00     0.000 C 
ENDROOT
BRANCH   1   2
ATOM      2  C   UNL     1       1.942 128.569 111.888  1.00  0.00     0.000 C 
BRANCH   2   3
ATOM      3  C   UNL     1       3.293 129.291 111.784  1.00  0.00     0.000 C 
BRANCH   3   4
ATOM      4  C   UNL     1       3.537 130.180 113.009  1.00  0.00     0.000 C 
BRANCH   4   5
ATOM      5  C   UNL     1       5.034 130.256 113.344  1.00  0.00     0.000 C 
BRANCH   5   6
ATOM      6  C   UNL     1       5.496 129.123 114.278  1.00  0.00     0.006 C 
BRANCH   6   7
ATOM      7  C   UNL     1       6.432 129.578 115.411  1.00  0.00     0.053 C 
BRANCH   7   8
ATOM      8  C   UNL     1       7.307 130.719 114.993  1.00  0.00     0.041 C 
ATOM      9  O   UNL     1       7.110 131.873 115.458  1.00  0.00    -0.550 OA
ATOM     10  O   UNL     1       8.319 130.516 114.063  1.00  0.00    -0.550 OA
ENDBRANCH   7   8
ENDBRANCH   6   7
ENDBRANCH   5   6
ENDBRANCH   4   5
ENDBRANCH   3   4
ENDBRANCH   2   3
ENDBRANCH   1   2
BRANCH   1  11
ATOM     11  C   UNL     1       1.106 126.258 112.603  1.00  0.00     0.000 C 
BRANCH  11  12
ATOM     12  C   UNL     1       1.990 125.033 112.324  1.00  0.00     0.000 C 
BRANCH  12  13
ATOM     13  C   UNL     1       2.699 125.116 110.960  1.00  0.00     0.000 C 
BRANCH  13  14
ATOM     14  C   UNL     1       4.215 124.885 111.067  1.00  0.00     0.000 C 
BRANCH  14  15
ATOM     15  C   UNL     1       4.824 125.531 112.320  1.00  0.00     0.000 C 
BRANCH  15  16
ATOM     16  C   UNL     1       6.233 126.071 112.030  1.00  0.00     0.006 C 
BRANCH  16  17
ATOM     17  C   UNL     1       6.958 125.250 110.954  1.00  0.00     0.053 C 
BRANCH  17  18
ATOM     18  C   UNL     1       7.877 124.231 111.554  1.00  0.00     0.041 C 
ATOM     19  O   UNL     1       9.125 124.394 111.499  1.00  0.00    -0.550 OA
ATOM     20  O   UNL     1       7.355 123.121 112.205  1.00  0.00    -0.550 OA
ENDBRANCH  17  18
ENDBRANCH  16  17
ENDBRANCH  15  16
ENDBRANCH  14  15
ENDBRANCH  13  14
ENDBRANCH  12  13
ENDBRANCH  11  12
ENDBRANCH   1  11
TORSDOF 15
ENDMDL
MODEL 4
REMARK VINA RESULT:    -3.885      1.426      2.129
REMARK INTER + INTRA:          -9.509
REMARK INTER:                  -7.944
REMARK INTRA:                  -1.565
REMARK UNBOUND:                -2.218
REMARK SMILES O=C([O-])CCCCCCCCCCCCCCC(=O)[O-]
REMARK SMILES IDX 10 1 9 2 8 3 7 4 6 5 5 6 4 7 2 8 1 9 3 10 11 11 12 12 13 13
REMARK SMILES IDX 14 14 15 15 16 16 17 17 18 18 19 19 20 20
REMARK H PARENT
REMARK Flexibility Score: inf
ROOT
ATOM      1  C   UNL     1       3.035 124.726 112.069  1.00  0.00     0.000 C 
ENDROOT
BRANCH   1   2
ATOM      2  C   UNL     1       4.313 124.279 112.795  1.00  0.00     0.000 C 
BRANCH   2   3
ATOM      3  C   UNL     1       4.959 123.044 112.149  1.00  0.00     0.000 C 
BRANCH   3   4
ATOM      4  C   UNL     1       6.422 123.318 111.783  1.00  0.00     0.000 C 
BRANCH   4   5
ATOM      5  C   UNL     1       6.812 124.765 112.117  1.00  0.00     0.000 C 
BRANCH   5   6
ATOM      6  C   UNL     1       7.072 125.618 110.862  1.00  0.00     0.006 C 
BRANCH   6   7
ATOM      7  C   UNL     1       7.098 124.820 109.548  1.00  0.00     0.053 C 
BRANCH   7   8
ATOM      8  C   UNL     1       8.445 124.859 108.894  1.00  0.00     0.041 C 
ATOM      9  O   UNL     1       8.546 124.750 107.643  1.00  0.00    -0.550 OA
ATOM     10  O   UNL     1       9.592 124.981 109.669  1.00  0.00    -0.550 OA
ENDBRANCH   7   8
ENDBRANCH   6   7
ENDBRANCH   5   6
ENDBRANCH   4   5
ENDBRANCH   3   4
ENDBRANCH   2   3
ENDBRANCH   1   2
BRANCH   1  11
ATOM     11  C   UNL     1       3.322 125.323 110.680  1.00  0.00     0.000 C 
BRANCH  11  12
ATOM     12  C   UNL     1       2.717 126.724 110.505  1.00  0.00     0.000 C 
BRANCH  12  13
ATOM     13  C   UNL     1       2.584 127.480 111.840  1.00  0.00     0.000 C 
BRANCH  13  14
ATOM     14  C   UNL     1       3.474 128.730 111.903  1.00  0.00     0.000 C 
BRANCH  14  15
ATOM     15  C   UNL     1       4.413 128.726 113.119  1.00  0.00     0.000 C 
BRANCH  15  16
ATOM     16  C   UNL     1       5.050 130.109 113.325  1.00  0.00     0.006 C 
BRANCH  16  17
ATOM     17  C   UNL     1       5.695 130.250 114.711  1.00  0.00     0.053 C 
BRANCH  17  18
ATOM     18  C   UNL     1       7.117 130.713 114.619  1.00  0.00     0.041 C 
ATOM     19  O   UNL     1       7.722 131.105 115.651  1.00  0.00    -0.550 OA
ATOM     20  O   UNL     1       7.783 130.678 113.401  1.00  0.00    -0.550 OA
ENDBRANCH  17  18
ENDBRANCH  16  17
ENDBRANCH  15  16
ENDBRANCH  14  15
ENDBRANCH  13  14
ENDBRANCH  12  13
ENDBRANCH  11  12
ENDBRANCH   1  11
TORSDOF 15
ENDMDL
MODEL 5
REMARK VINA RESULT:    -3.865      1.703      6.025
REMARK INTER + INTRA:          -9.472
REMARK INTER:                  -7.585
REMARK INTRA:                  -1.887
REMARK UNBOUND:                -2.218
REMARK SMILES O=C([O-])CCCCCCCCCCCCCCC(=O)[O-]
REMARK SMILES IDX 10 1 9 2 8 3 7 4 6 5 5 6 4 7 2 8 1 9 3 10 11 11 12 12 13 13
REMARK SMILES IDX 14 14 15 15 16 16 17 17 18 18 19 19 20 20
REMARK H PARENT
REMARK Flexibility Score: inf
ROOT
ATOM      1  C   UNL     1       4.075 126.376 115.621  1.00  0.00     0.000 C 
ENDROOT
BRANCH   1   2
ATOM      2  C   UNL     1       3.100 127.046 114.642  1.00  0.00     0.000 C 
BRANCH   2   3
ATOM      3  C   UNL     1       3.601 127.009 113.190  1.00  0.00     0.000 C 
BRANCH   3   4
ATOM      4  C   UNL     1       4.716 128.038 112.968  1.00  0.00     0.000 C 
BRANCH   4   5
ATOM      5  C   UNL     1       4.169 129.470 113.051  1.00  0.00     0.000 C 
BRANCH   5   6
ATOM      6  C   UNL     1       5.215 130.481 113.554  1.00  0.00     0.006 C 
BRANCH   6   7
ATOM      7  C   UNL     1       5.967 130.037 114.820  1.00  0.00     0.053 C 
BRANCH   7   8
ATOM      8  C   UNL     1       7.295 130.718 114.952  1.00  0.00     0.041 C 
ATOM      9  O   UNL     1       7.555 131.409 115.972  1.00  0.00    -0.550 OA
ATOM     10  O   UNL     1       8.234 130.616 113.932  1.00  0.00    -0.550 OA
ENDBRANCH   7   8
ENDBRANCH   6   7
ENDBRANCH   5   6
ENDBRANCH   4   5
ENDBRANCH   3   4
ENDBRANCH   2   3
ENDBRANCH   1   2
BRANCH   1  11
ATOM     11  C   UNL     1       4.296 124.885 115.311  1.00  0.00     0.000 C 
BRANCH  11  12
ATOM     12  C   UNL     1       2.998 124.168 114.910  1.00  0.00     0.000 C 
BRANCH  12  13
ATOM     13  C   UNL     1       3.160 123.326 113.632  1.00  0.00     0.000 C 
BRANCH  13  14
ATOM     14  C   UNL     1       4.633 123.071 113.275  1.00  0.00     0.000 C 
BRANCH  14  15
ATOM     15  C   UNL     1       4.928 123.305 111.786  1.00  0.00     0.000 C 
BRANCH  15  16
ATOM     16  C   UNL     1       5.769 124.576 111.587  1.00  0.00     0.006 C 
BRANCH  16  17
ATOM     17  C   UNL     1       6.827 124.750 112.686  1.00  0.00     0.053 C 
BRANCH  17  18
ATOM     18  C   UNL     1       8.115 124.072 112.332  1.00  0.00     0.041 C 
ATOM     19  O   UNL     1       8.828 124.519 111.395  1.00  0.00    -0.550 OA
ATOM     20  O   UNL     1       8.544 122.969 113.059  1.00  0.00    -0.550 OA
ENDBRANCH  17  18
ENDBRANCH  16  17
ENDBRANCH  15  16
ENDBRANCH  14  15
ENDBRANCH  13  14
ENDBRANCH  12  13
ENDBRANCH  11  12
ENDBRANCH   1  11
TORSDOF 15
ENDMDL
MODEL 6
REMARK VINA RESULT:    -3.799      2.242      3.211
REMARK INTER + INTRA:          -9.349
REMARK INTER:                  -7.061
REMARK INTRA:                  -2.288
REMARK UNBOUND:                -2.218
REMARK SMILES O=C([O-])CCCCCCCCCCCCCCC(=O)[O-]
REMARK SMILES IDX 10 1 9 2 8 3 7 4 6 5 5 6 4 7 2 8 1 9 3 10 11 11 12 12 13 13
REMARK SMILES IDX 14 14 15 15 16 16 17 17 18 18 19 19 20 20
REMARK H PARENT
REMARK Flexibility Score: inf
ROOT
ATOM      1  C   UNL     1       2.436 124.096 114.035  1.00  0.00     0.000 C 
ENDROOT
BRANCH   1   2
ATOM      2  C   UNL     1       2.822 122.694 113.538  1.00  0.00     0.000 C 
BRANCH   2   3
ATOM      3  C   UNL     1       4.240 122.286 113.965  1.00  0.00     0.000 C 
BRANCH   3   4
ATOM      4  C   UNL     1       5.277 123.299 113.465  1.00  0.00     0.000 C 
BRANCH   4   5
ATOM      5  C   UNL     1       5.434 123.219 111.939  1.00  0.00     0.000 C 
BRANCH   5   6
ATOM      6  C   UNL     1       6.760 123.823 111.442  1.00  0.00     0.006 C 
BRANCH   6   7
ATOM      7  C   UNL     1       6.617 124.744 110.219  1.00  0.00     0.053 C 
BRANCH   7   8
ATOM      8  C   UNL     1       7.843 124.730 109.359  1.00  0.00     0.041 C 
ATOM      9  O   UNL     1       7.750 124.491 108.126  1.00  0.00    -0.550 OA
ATOM     10  O   UNL     1       9.094 124.947 109.926  1.00  0.00    -0.550 OA
ENDBRANCH   7   8
ENDBRANCH   6   7
ENDBRANCH   5   6
ENDBRANCH   4   5
ENDBRANCH   3   4
ENDBRANCH   2   3
ENDBRANCH   1   2
BRANCH   1  11
ATOM     11  C   UNL     1       1.187 124.651 113.328  1.00  0.00     0.000 C 
BRANCH  11  12
ATOM     12  C   UNL     1       1.516 125.809 112.373  1.00  0.00     0.000 C 
BRANCH  12  13
ATOM     13  C   UNL     1       2.478 125.388 111.247  1.00  0.00     0.000 C 
BRANCH  13  14
ATOM     14  C   UNL     1       3.535 126.461 110.941  1.00  0.00     0.000 C 
BRANCH  14  15
ATOM     15  C   UNL     1       3.709 127.463 112.092  1.00  0.00     0.000 C 
BRANCH  15  16
ATOM     16  C   UNL     1       5.038 127.228 112.827  1.00  0.00     0.006 C 
BRANCH  16  17
ATOM     17  C   UNL     1       4.827 126.799 114.286  1.00  0.00     0.053 C 
BRANCH  17  18
ATOM     18  C   UNL     1       6.073 126.961 115.101  1.00  0.00     0.041 C 
ATOM     19  O   UNL     1       6.782 125.959 115.377  1.00  0.00    -0.550 OA
ATOM     20  O   UNL     1       6.469 128.223 115.525  1.00  0.00    -0.550 OA
ENDBRANCH  17  18
ENDBRANCH  16  17
ENDBRANCH  15  16
ENDBRANCH  14  15
ENDBRANCH  13  14
ENDBRANCH  12  13
ENDBRANCH  11  12
ENDBRANCH   1  11
TORSDOF 15
ENDMDL
MODEL 7
REMARK VINA RESULT:    -3.793      1.611      2.626
REMARK INTER + INTRA:          -9.336
REMARK INTER:                  -7.211
REMARK INTRA:                  -2.125
REMARK UNBOUND:                -2.218
REMARK SMILES O=C([O-])CCCCCCCCCCCCCCC(=O)[O-]
REMARK SMILES IDX 10 1 9 2 8 3 7 4 6 5 5 6 4 7 2 8 1 9 3 10 11 11 12 12 13 13
REMARK SMILES IDX 14 14 15 15 16 16 17 17 18 18 19 19 20 20
REMARK H PARENT
REMARK Flexibility Score: inf
ROOT
ATOM      1  C   UNL     1       2.995 125.561 114.621  1.00  0.00     0.000 C 
ENDROOT
BRANCH   1   2
ATOM      2  C   UNL     1       1.704 126.158 114.042  1.00  0.00     0.000 C 
BRANCH   2   3
ATOM      3  C   UNL     1       1.415 125.669 112.614  1.00  0.00     0.000 C 
BRANCH   3   4
ATOM      4  C   UNL     1       2.478 124.666 112.151  1.00  0.00     0.000 C 
BRANCH   4   5
ATOM      5  C   UNL     1       3.249 125.203 110.936  1.00  0.00     0.000 C 
BRANCH   5   6
ATOM      6  C   UNL     1       4.708 124.715 110.890  1.00  0.00     0.006 C 
BRANCH   6   7
ATOM      7  C   UNL     1       4.981 123.455 111.729  1.00  0.00     0.053 C 
BRANCH   7   8
ATOM      8  C   UNL     1       6.418 123.355 112.141  1.00  0.00     0.041 C 
ATOM      9  O   UNL     1       6.729 123.365 113.361  1.00  0.00    -0.550 OA
ATOM     10  O   UNL     1       7.415 123.287 111.176  1.00  0.00    -0.550 OA
ENDBRANCH   7   8
ENDBRANCH   6   7
ENDBRANCH   5   6
ENDBRANCH   4   5
ENDBRANCH   3   4
ENDBRANCH   2   3
ENDBRANCH   1   2
BRANCH   1  11
ATOM     11  C   UNL     1       4.053 126.633 114.937  1.00  0.00     0.000 C 
BRANCH  11  12
ATOM     12  C   UNL     1       5.299 126.511 114.048  1.00  0.00     0.000 C 
BRANCH  12  13
ATOM     13  C   UNL     1       5.519 127.756 113.168  1.00  0.00     0.000 C 
BRANCH  13  14
ATOM     14  C   UNL     1       4.200 128.417 112.740  1.00  0.00     0.000 C 
BRANCH  14  15
ATOM     15  C   UNL     1       4.187 129.931 113.000  1.00  0.00     0.000 C 
BRANCH  15  16
ATOM     16  C   UNL     1       5.505 130.388 113.644  1.00  0.00     0.006 C 
BRANCH  16  17
ATOM     17  C   UNL     1       5.273 131.242 114.898  1.00  0.00     0.053 C 
BRANCH  17  18
ATOM     18  C   UNL     1       6.294 130.964 115.959  1.00  0.00     0.041 C 
ATOM     19  O   UNL     1       6.015 130.202 116.921  1.00  0.00    -0.550 OA
ATOM     20  O   UNL     1       7.564 131.521 115.866  1.00  0.00    -0.550 OA
ENDBRANCH  17  18
ENDBRANCH  16  17
ENDBRANCH  15  16
ENDBRANCH  14  15
ENDBRANCH  13  14
ENDBRANCH  12  13
ENDBRANCH  11  12
ENDBRANCH   1  11
TORSDOF 15
ENDMDL
MODEL 8
REMARK VINA RESULT:    -3.776      2.756      4.692
REMARK INTER + INTRA:          -9.306
REMARK INTER:                  -6.999
REMARK INTRA:                  -2.307
REMARK UNBOUND:                -2.218
REMARK SMILES O=C([O-])CCCCCCCCCCCCCCC(=O)[O-]
REMARK SMILES IDX 10 1 9 2 8 3 7 4 6 5 5 6 4 7 2 8 1 9 3 10 11 11 12 12 13 13
REMARK SMILES IDX 14 14 15 15 16 16 17 17 18 18 19 19 20 20
REMARK H PARENT
REMARK Flexibility Score: inf
ROOT
ATOM      1  C   UNL     1       1.034 124.544 114.144  1.00  0.00     0.000 C 
ENDROOT
BRANCH   1   2
ATOM      2  C   UNL     1       1.292 123.150 113.553  1.00  0.00     0.000 C 
BRANCH   2   3
ATOM      3  C   UNL     1       2.272 122.322 114.398  1.00  0.00     0.000 C 
BRANCH   3   4
ATOM      4  C   UNL     1       3.557 122.026 113.617  1.00  0.00     0.000 C 
BRANCH   4   5
ATOM      5  C   UNL     1       4.582 123.156 113.794  1.00  0.00     0.000 C 
BRANCH   5   6
ATOM      6  C   UNL     1       4.568 123.759 115.210  1.00  0.00     0.006 C 
BRANCH   6   7
ATOM      7  C   UNL     1       4.907 125.258 115.264  1.00  0.00     0.053 C 
BRANCH   7   8
ATOM      8  C   UNL     1       6.363 125.497 115.518  1.00  0.00     0.041 C 
ATOM      9  O   UNL     1       6.827 126.668 115.498  1.00  0.00    -0.550 OA
ATOM     10  O   UNL     1       7.216 124.422 115.742  1.00  0.00    -0.550 OA
ENDBRANCH   7   8
ENDBRANCH   6   7
ENDBRANCH   5   6
ENDBRANCH   4   5
ENDBRANCH   3   4
ENDBRANCH   2   3
ENDBRANCH   1   2
BRANCH   1  11
ATOM     11  C   UNL     1       1.352 125.677 113.152  1.00  0.00     0.000 C 
BRANCH  11  12
ATOM     12  C   UNL     1       2.046 125.168 111.880  1.00  0.00     0.000 C 
BRANCH  12  13
ATOM     13  C   UNL     1       2.656 126.308 111.045  1.00  0.00     0.000 C 
BRANCH  13  14
ATOM     14  C   UNL     1       4.063 126.703 111.520  1.00  0.00     0.000 C 
BRANCH  14  15
ATOM     15  C   UNL     1       5.095 125.586 111.301  1.00  0.00     0.000 C 
BRANCH  15  16
ATOM     16  C   UNL     1       6.449 125.960 111.925  1.00  0.00     0.006 C 
BRANCH  16  17
ATOM     17  C   UNL     1       7.619 125.226 111.255  1.00  0.00     0.053 C 
BRANCH  17  18
ATOM     18  C   UNL     1       7.602 123.759 111.555  1.00  0.00     0.041 C 
ATOM     19  O   UNL     1       7.970 123.340 112.684  1.00  0.00    -0.550 OA
ATOM     20  O   UNL     1       7.148 122.858 110.600  1.00  0.00    -0.550 OA
ENDBRANCH  17  18
ENDBRANCH  16  17
ENDBRANCH  15  16
ENDBRANCH  14  15
ENDBRANCH  13  14
ENDBRANCH  12  13
ENDBRANCH  11  12
ENDBRANCH   1  11
TORSDOF 15
ENDMDL
MODEL 9
REMARK VINA RESULT:    -3.668      1.946      5.244
REMARK INTER + INTRA:          -9.103
REMARK INTER:                  -6.962
REMARK INTRA:                  -2.141
REMARK UNBOUND:                -2.218
REMARK SMILES O=C([O-])CCCCCCCCCCCCCCC(=O)[O-]
REMARK SMILES IDX 10 1 9 2 8 3 7 4 6 5 5 6 4 7 2 8 1 9 3 10 11 11 12 12 13 13
REMARK SMILES IDX 14 14 15 15 16 16 17 17 18 18 19 19 20 20
REMARK H PARENT
REMARK Flexibility Score: inf
ROOT
ATOM      1  C   UNL     1       3.133 126.753 110.235  1.00  0.00     0.000 C 
ENDROOT
BRANCH   1   2
ATOM      2  C   UNL     1       2.120 127.909 110.224  1.00  0.00     0.000 C 
BRANCH   2   3
ATOM      3  C   UNL     1       2.627 129.146 110.981  1.00  0.00     0.000 C 
BRANCH   3   4
ATOM      4  C   UNL     1       2.006 129.227 112.380  1.00  0.00     0.000 C 
BRANCH   4   5
ATOM      5  C   UNL     1       3.089 129.172 113.468  1.00  0.00     0.000 C 
BRANCH   5   6
ATOM      6  C   UNL     1       3.550 127.737 113.780  1.00  0.00     0.006 C 
BRANCH   6   7
ATOM      7  C   UNL     1       4.994 127.429 113.352  1.00  0.00     0.053 C 
BRANCH   7   8
ATOM      8  C   UNL     1       5.941 127.453 114.513  1.00  0.00     0.041 C 
ATOM      9  O   UNL     1       6.374 126.376 115.000  1.00  0.00    -0.550 OA
ATOM     10  O   UNL     1       6.319 128.665 115.078  1.00  0.00    -0.550 OA
ENDBRANCH   7   8
ENDBRANCH   6   7
ENDBRANCH   5   6
ENDBRANCH   4   5
ENDBRANCH   3   4
ENDBRANCH   2   3
ENDBRANCH   1   2
BRANCH   1  11
ATOM     11  C   UNL     1       2.622 125.526 111.011  1.00  0.00     0.000 C 
BRANCH  11  12
ATOM     12  C   UNL     1       3.702 124.447 111.183  1.00  0.00     0.000 C 
BRANCH  12  13
ATOM     13  C   UNL     1       3.872 124.012 112.650  1.00  0.00     0.000 C 
BRANCH  13  14
ATOM     14  C   UNL     1       5.162 123.210 112.883  1.00  0.00     0.000 C 
BRANCH  14  15
ATOM     15  C   UNL     1       6.183 123.392 111.750  1.00  0.00     0.000 C 
BRANCH  15  16
ATOM     16  C   UNL     1       7.254 124.423 112.137  1.00  0.00     0.006 C 
BRANCH  16  17
ATOM     17  C   UNL     1       7.274 125.625 111.183  1.00  0.00     0.053 C 
BRANCH  17  18
ATOM     18  C   UNL     1       7.665 125.228 109.793  1.00  0.00     0.041 C 
ATOM     19  O   UNL     1       6.812 125.242 108.867  1.00  0.00    -0.550 OA
ATOM     20  O   UNL     1       8.979 124.874 109.514  1.00  0.00    -0.550 OA
ENDBRANCH  17  18
ENDBRANCH  16  17
ENDBRANCH  15  16
ENDBRANCH  14  15
ENDBRANCH  13  14
ENDBRANCH  12  13
ENDBRANCH  11  12
ENDBRANCH   1  11
TORSDOF 15
ENDMDL
