MODEL 1
REMARK VINA RESULT:    -2.962      0.000      0.000
REMARK INTER + INTRA:          -3.781
REMARK INTER:                  -3.655
REMARK INTRA:                  -0.126
REMARK UNBOUND:                -0.126
REMARK SMILES CCCCCC(=O)[O-]
REMARK SMILES IDX 4 1 5 2 6 3 7 4 8 5 3 6 2 7 1 8
REMARK H PARENT
REMARK Flexibility Score: inf
ROOT
ATOM      1  C   UNL     1     124.667  55.880  43.353  1.00  0.00     0.006 C 
ENDROOT
BRANCH   1   2
ATOM      2  C   UNL     1     126.024  55.246  43.020  1.00  0.00     0.053 C 
BRANCH   2   3
ATOM      3  C   UNL     1     126.108  53.864  43.589  1.00  0.00     0.041 C 
ATOM      4  O   UNL     1     126.735  53.659  44.662  1.00  0.00    -0.550 OA
ATOM      5  O   UNL     1     125.536  52.796  42.910  1.00  0.00    -0.550 OA
ENDBRANCH   2   3
ENDBRANCH   1   2
BRANCH   1   6
ATOM      6  C   UNL     1     124.695  56.679  44.665  1.00  0.00     0.000 C 
BRANCH   6   7
ATOM      7  C   UNL     1     124.339  58.160  44.463  1.00  0.00    -0.003 C 
ATOM      8  C   UNL     1     125.594  59.026  44.421  1.00  0.00     0.004 C 
ENDBRANCH   6   7
ENDBRANCH   1   6
TORSDOF 4
ENDMDL
MODEL 2
REMARK VINA RESULT:    -2.962      2.979      4.602
REMARK INTER + INTRA:          -3.780
REMARK INTER:                  -3.649
REMARK INTRA:                  -0.131
REMARK UNBOUND:                -0.126
REMARK SMILES CCCCCC(=O)[O-]
REMARK SMILES IDX 4 1 5 2 6 3 7 4 8 5 3 6 2 7 1 8
REMARK H PARENT
REMARK Flexibility Score: inf
ROOT
ATOM      1  C   UNL     1     124.538  55.878  43.577  1.00  0.00     0.006 C 
ENDROOT
BRANCH   1   2
ATOM      2  C   UNL     1     124.580  56.800  44.802  1.00  0.00     0.053 C 
BRANCH   2   3
ATOM      3  C   UNL     1     124.560  58.235  44.375  1.00  0.00     0.041 C 
ATOM      4  O   UNL     1     123.469  58.794  44.084  1.00  0.00    -0.550 OA
ATOM      5  O   UNL     1     125.750  58.941  44.251  1.00  0.00    -0.550 OA
ENDBRANCH   2   3
ENDBRANCH   1   2
BRANCH   1   6
ATOM      6  C   UNL     1     125.934  55.604  42.996  1.00  0.00     0.000 C 
BRANCH   6   7
ATOM      7  C   UNL     1     126.515  54.260  43.462  1.00  0.00    -0.003 C 
ATOM      8  C   UNL     1     125.514  53.127  43.252  1.00  0.00     0.004 C 
ENDBRANCH   6   7
ENDBRANCH   1   6
TORSDOF 4
ENDMDL
MODEL 3
REMARK VINA RESULT:    -2.954      2.999      4.525
REMARK INTER + INTRA:          -3.770
REMARK INTER:                  -3.640
REMARK INTRA:                  -0.130
REMARK UNBOUND:                -0.126
REMARK SMILES CCCCCC(=O)[O-]
REMARK SMILES IDX 4 1 5 2 6 3 7 4 8 5 3 6 2 7 1 8
REMARK H PARENT
REMARK Flexibility Score: inf
ROOT
ATOM      1  C   UNL     1     124.500  55.913  43.681  1.00  0.00     0.006 C 
ENDROOT
BRANCH   1   2
ATOM      2  C   UNL     1     124.581  56.850  44.894  1.00  0.00     0.053 C 
BRANCH   2   3
ATOM      3  C   UNL     1     124.595  58.279  44.449  1.00  0.00     0.041 C 
ATOM      4  O   UNL     1     125.664  58.945  44.492  1.00  0.00    -0.550 OA
ATOM      5  O   UNL     1     123.420  58.890  44.033  1.00  0.00    -0.550 OA
ENDBRANCH   2   3
ENDBRANCH   1   2
BRANCH   1   6
ATOM      6  C   UNL     1     125.870  55.676  43.026  1.00  0.00     0.000 C 
BRANCH   6   7
ATOM      7  C   UNL     1     126.509  54.346  43.458  1.00  0.00    -0.003 C 
ATOM      8  C   UNL     1     125.558  53.177  43.219  1.00  0.00     0.004 C 
ENDBRANCH   6   7
ENDBRANCH   1   6
TORSDOF 4
ENDMDL
MODEL 4
REMARK VINA RESULT:    -2.939      0.232      1.163
REMARK INTER + INTRA:          -3.753
REMARK INTER:                  -3.619
REMARK INTRA:                  -0.134
REMARK UNBOUND:                -0.126
REMARK SMILES CCCCCC(=O)[O-]
REMARK SMILES IDX 4 1 5 2 6 3 7 4 8 5 3 6 2 7 1 8
REMARK H PARENT
REMARK Flexibility Score: inf
ROOT
ATOM      1  C   UNL     1     124.753  55.803  43.329  1.00  0.00     0.006 C 
ENDROOT
BRANCH   1   2
ATOM      2  C   UNL     1     126.100  55.099  43.119  1.00  0.00     0.053 C 
BRANCH   2   3
ATOM      3  C   UNL     1     126.046  53.700  43.649  1.00  0.00     0.041 C 
ATOM      4  O   UNL     1     125.501  52.787  42.972  1.00  0.00    -0.550 OA
ATOM      5  O   UNL     1     126.551  53.414  44.910  1.00  0.00    -0.550 OA
ENDBRANCH   2   3
ENDBRANCH   1   2
BRANCH   1   6
ATOM      6  C   UNL     1     124.650  56.481  44.703  1.00  0.00     0.000 C 
BRANCH   6   7
ATOM      7  C   UNL     1     124.214  57.952  44.605  1.00  0.00    -0.003 C 
ATOM      8  C   UNL     1     125.414  58.864  44.368  1.00  0.00     0.004 C 
ENDBRANCH   6   7
ENDBRANCH   1   6
TORSDOF 4
ENDMDL
MODEL 5
REMARK VINA RESULT:    -2.887     13.181     13.860
REMARK INTER + INTRA:          -3.688
REMARK INTER:                  -3.565
REMARK INTRA:                  -0.123
REMARK UNBOUND:                -0.126
REMARK SMILES CCCCCC(=O)[O-]
REMARK SMILES IDX 4 1 5 2 6 3 7 4 8 5 3 6 2 7 1 8
REMARK H PARENT
REMARK Flexibility Score: inf
ROOT
ATOM      1  C   UNL     1     117.293  53.148  54.949  1.00  0.00     0.006 C 
ENDROOT
BRANCH   1   2
ATOM      2  C   UNL     1     116.346  51.995  54.590  1.00  0.00     0.053 C 
BRANCH   2   3
ATOM      3  C   UNL     1     115.562  52.329  53.360  1.00  0.00     0.041 C 
ATOM      4  O   UNL     1     115.138  53.501  53.178  1.00  0.00    -0.550 OA
ATOM      5  O   UNL     1     115.257  51.336  52.438  1.00  0.00    -0.550 OA
ENDBRANCH   2   3
ENDBRANCH   1   2
BRANCH   1   6
ATOM      6  C   UNL     1     118.619  53.086  54.176  1.00  0.00     0.000 C 
BRANCH   6   7
ATOM      7  C   UNL     1     119.791  53.692  54.964  1.00  0.00    -0.003 C 
ATOM      8  C   UNL     1     119.289  54.554  56.118  1.00  0.00     0.004 C 
ENDBRANCH   6   7
ENDBRANCH   1   6
TORSDOF 4
ENDMDL
MODEL 6
REMARK VINA RESULT:    -2.838      2.270      4.177
REMARK INTER + INTRA:          -3.628
REMARK INTER:                  -3.395
REMARK INTRA:                  -0.233
REMARK UNBOUND:                -0.126
REMARK SMILES CCCCCC(=O)[O-]
REMARK SMILES IDX 4 1 5 2 6 3 7 4 8 5 3 6 2 7 1 8
REMARK H PARENT
REMARK Flexibility Score: inf
ROOT
ATOM      1  C   UNL     1     126.057  55.448  42.906  1.00  0.00     0.006 C 
ENDROOT
BRANCH   1   2
ATOM      2  C   UNL     1     124.618  55.663  43.394  1.00  0.00     0.053 C 
BRANCH   2   3
ATOM      3  C   UNL     1     124.607  56.522  44.620  1.00  0.00     0.041 C 
ATOM      4  O   UNL     1     124.589  55.993  45.763  1.00  0.00    -0.550 OA
ATOM      5  O   UNL     1     124.566  57.905  44.501  1.00  0.00    -0.550 OA
ENDBRANCH   2   3
ENDBRANCH   1   2
BRANCH   1   6
ATOM      6  C   UNL     1     126.710  54.203  43.525  1.00  0.00     0.000 C 
BRANCH   6   7
ATOM      7  C   UNL     1     125.721  53.041  43.700  1.00  0.00    -0.003 C 
ATOM      8  C   UNL     1     125.795  52.465  45.111  1.00  0.00     0.004 C 
ENDBRANCH   6   7
ENDBRANCH   1   6
TORSDOF 4
ENDMDL
MODEL 7
REMARK VINA RESULT:    -2.805     12.507     13.313
REMARK INTER + INTRA:          -3.587
REMARK INTER:                  -3.325
REMARK INTRA:                  -0.263
REMARK UNBOUND:                -0.126
REMARK SMILES CCCCCC(=O)[O-]
REMARK SMILES IDX 4 1 5 2 6 3 7 4 8 5 3 6 2 7 1 8
REMARK H PARENT
REMARK Flexibility Score: inf
ROOT
ATOM      1  C   UNL     1     117.611  51.979  53.453  1.00  0.00     0.006 C 
ENDROOT
BRANCH   1   2
ATOM      2  C   UNL     1     118.902  52.326  54.205  1.00  0.00     0.053 C 
BRANCH   2   3
ATOM      3  C   UNL     1     119.006  53.805  54.409  1.00  0.00     0.041 C 
ATOM      4  O   UNL     1     119.041  54.580  53.416  1.00  0.00    -0.550 OA
ATOM      5  O   UNL     1     119.113  54.325  55.692  1.00  0.00    -0.550 OA
ENDBRANCH   2   3
ENDBRANCH   1   2
BRANCH   1   6
ATOM      6  C   UNL     1     116.349  52.283  54.275  1.00  0.00     0.000 C 
BRANCH   6   7
ATOM      7  C   UNL     1     115.268  53.003  53.453  1.00  0.00    -0.003 C 
ATOM      8  C   UNL     1     115.857  53.613  52.185  1.00  0.00     0.004 C 
ENDBRANCH   6   7
ENDBRANCH   1   6
TORSDOF 4
ENDMDL
MODEL 8
REMARK VINA RESULT:    -2.792      1.420      2.144
REMARK INTER + INTRA:          -3.572
REMARK INTER:                  -3.395
REMARK INTRA:                  -0.176
REMARK UNBOUND:                -0.126
REMARK SMILES CCCCCC(=O)[O-]
REMARK SMILES IDX 4 1 5 2 6 3 7 4 8 5 3 6 2 7 1 8
REMARK H PARENT
REMARK Flexibility Score: inf
ROOT
ATOM      1  C   UNL     1     125.841  54.403  43.036  1.00  0.00     0.006 C 
ENDROOT
BRANCH   1   2
ATOM      2  C   UNL     1     126.874  53.840  44.022  1.00  0.00     0.053 C 
BRANCH   2   3
ATOM      3  C   UNL     1     126.188  53.258  45.218  1.00  0.00     0.041 C 
ATOM      4  O   UNL     1     126.053  52.010  45.327  1.00  0.00    -0.550 OA
ATOM      5  O   UNL     1     125.655  54.095  46.191  1.00  0.00    -0.550 OA
ENDBRANCH   2   3
ENDBRANCH   1   2
BRANCH   1   6
ATOM      6  C   UNL     1     125.732  55.934  43.106  1.00  0.00     0.000 C 
BRANCH   6   7
ATOM      7  C   UNL     1     124.457  56.404  43.823  1.00  0.00    -0.003 C 
ATOM      8  C   UNL     1     124.727  57.646  44.666  1.00  0.00     0.004 C 
ENDBRANCH   6   7
ENDBRANCH   1   6
TORSDOF 4
ENDMDL
MODEL 9
REMARK VINA RESULT:    -2.784     13.189     13.701
REMARK INTER + INTRA:          -3.561
REMARK INTER:                  -3.496
REMARK INTRA:                  -0.065
REMARK UNBOUND:                -0.126
REMARK SMILES CCCCCC(=O)[O-]
REMARK SMILES IDX 4 1 5 2 6 3 7 4 8 5 3 6 2 7 1 8
REMARK H PARENT
REMARK Flexibility Score: inf
ROOT
ATOM      1  C   UNL     1     118.544  53.459  54.751  1.00  0.00     0.006 C 
ENDROOT
BRANCH   1   2
ATOM      2  C   UNL     1     119.281  54.205  55.871  1.00  0.00     0.053 C 
BRANCH   2   3
ATOM      3  C   UNL     1     120.706  53.754  55.948  1.00  0.00     0.041 C 
ATOM      4  O   UNL     1     121.628  54.594  56.125  1.00  0.00    -0.550 OA
ATOM      5  O   UNL     1     121.022  52.412  55.774  1.00  0.00    -0.550 OA
ENDBRANCH   2   3
ENDBRANCH   1   2
BRANCH   1   6
ATOM      6  C   UNL     1     117.112  53.067  55.146  1.00  0.00     0.000 C 
BRANCH   6   7
ATOM      7  C   UNL     1     116.405  52.240  54.061  1.00  0.00    -0.003 C 
ATOM      8  C   UNL     1     115.350  53.071  53.337  1.00  0.00     0.004 C 
ENDBRANCH   6   7
ENDBRANCH   1   6
TORSDOF 4
ENDMDL
