MODEL 1
REMARK VINA RESULT:    -8.759      0.000      0.000
REMARK INTER + INTRA:         -16.375
REMARK INTER:                 -14.392
REMARK INTRA:                  -1.983
REMARK UNBOUND:                -1.983
REMARK SMILES C[C@@H]1O[C@@H](OC[C@H]2O[C@H](Oc3c(-c4ccc(O)c(O)c4)oc4cc(O)cc(O)c4c3=O)[C@@H](O)[C@H](O)[C@H]2O)[C@H](O)[C@@H](O)[C@H]1O
REMARK SMILES IDX 7 1 36 2 34 3 32 4 9 5 8 6 6 7 5 8 4 9 1 10 2 11 42 12 3 13
REMARK SMILES IDX 40 14 38 15 43 16 41 18 39 20 37 22 35 24 10 26 11 27 12 28
REMARK SMILES IDX 30 29 21 30 29 31 31 32 22 33 27 34 23 35 26 36 24 37 13 38
REMARK SMILES IDX 20 39 14 40 18 41 15 42 16 43 19 44 17 46 28 48 25 50 33 52
REMARK H PARENT 43 17 41 19 39 21 37 23 35 25 19 45 17 47 28 49 25 51 33 53
REMARK Flexibility Score: inf
ROOT
ATOM      1  C   UNL     1      18.667  57.807 160.972  1.00  0.00     0.180 C 
ATOM      2  C   UNL     1      19.224  59.233 160.855  1.00  0.00     0.177 C 
ATOM      3  C   UNL     1      20.410  59.128 159.899  1.00  0.00     0.180 C 
ATOM      4  C   UNL     1      19.982  58.526 158.518  1.00  0.00     0.214 C 
ATOM      5  C   UNL     1      18.668  57.626 158.571  1.00  0.00     0.339 C 
ATOM      6  O   UNL     1      17.959  57.461 159.809  1.00  0.00    -0.332 OA
ENDROOT
BRANCH   1   7
ATOM      7  C   UNL     1      17.742  57.711 162.214  1.00  0.00     0.198 C 
BRANCH   7   8
ATOM      8  O   UNL     1      18.548  57.331 163.336  1.00  0.00    -0.347 OA
BRANCH   8   9
ATOM      9  C   UNL     1      18.147  57.820 164.629  1.00  0.00     0.281 C 
ATOM     10  C   UNL     1      21.073  59.861 165.486  1.00  0.00     0.041 C 
ATOM     11  C   UNL     1      20.084  58.693 165.571  1.00  0.00     0.150 C 
ATOM     12  C   UNL     1      19.770  58.376 167.034  1.00  0.00     0.174 C 
ATOM     13  O   UNL     1      18.866  59.013 164.920  1.00  0.00    -0.344 OA
ATOM     14  C   UNL     1      18.389  57.660 167.167  1.00  0.00     0.179 C 
ATOM     15  C   UNL     1      18.056  56.861 165.889  1.00  0.00     0.202 C 
BRANCH  12  16
ATOM     16  O   UNL     1      20.798  57.616 167.638  1.00  0.00    -0.388 OA
ATOM     17  H   UNL     1      20.502  56.660 167.577  1.00  0.00     0.211 HD
ENDBRANCH  12  16
BRANCH  14  18
ATOM     18  O   UNL     1      18.312  56.887 168.345  1.00  0.00    -0.387 OA
ATOM     19  H   UNL     1      18.753  56.006 168.214  1.00  0.00     0.211 HD
ENDBRANCH  14  18
BRANCH  15  20
ATOM     20  O   UNL     1      16.752  56.308 166.018  1.00  0.00    -0.385 OA
ATOM     21  H   UNL     1      16.820  55.317 165.978  1.00  0.00     0.211 HD
ENDBRANCH  15  20
ENDBRANCH   8   9
ENDBRANCH   7   8
ENDBRANCH   1   7
BRANCH   2  22
ATOM     22  O   UNL     1      18.259  60.104 160.324  1.00  0.00    -0.387 OA
ATOM     23  H   UNL     1      18.288  60.928 160.895  1.00  0.00     0.211 HD
ENDBRANCH   2  22
BRANCH   3  24
ATOM     24  O   UNL     1      21.495  58.445 160.513  1.00  0.00    -0.387 OA
ATOM     25  H   UNL     1      21.986  59.054 161.119  1.00  0.00     0.211 HD
ENDBRANCH   3  24
BRANCH   5  26
ATOM     26  O   UNL     1      18.930  56.327 158.007  1.00  0.00    -0.454 OA
BRANCH  26  27
ATOM     27  C   UNL     1      18.311  55.153 158.478  1.00  0.00     0.214 A 
ATOM     28  C   UNL     1      18.879  54.340 159.501  1.00  0.00     0.180 A 
ATOM     29  C   UNL     1      17.103  54.717 157.907  1.00  0.00     0.239 A 
ATOM     30  O   UNL     1      18.148  53.344 160.020  1.00  0.00    -0.452 OA
ATOM     31  C   UNL     1      16.345  53.703 158.512  1.00  0.00     0.111 A 
ATOM     32  O   UNL     1      16.759  55.173 156.788  1.00  0.00    -0.285 OA
ATOM     33  C   UNL     1      16.927  53.031 159.603  1.00  0.00     0.146 A 
ATOM     34  C   UNL     1      15.055  53.320 158.057  1.00  0.00     0.134 A 
ATOM     35  C   UNL     1      16.265  51.953 160.210  1.00  0.00     0.094 A 
ATOM     36  C   UNL     1      14.441  52.206 158.626  1.00  0.00     0.093 A 
ATOM     37  C   UNL     1      15.012  51.549 159.717  1.00  0.00     0.123 A 
BRANCH  28  38
ATOM     38  C   UNL     1      20.314  54.417 159.994  1.00  0.00     0.025 A 
ATOM     39  C   UNL     1      20.584  55.186 161.150  1.00  0.00     0.062 A 
ATOM     40  C   UNL     1      21.386  53.682 159.435  1.00  0.00     0.016 A 
ATOM     41  C   UNL     1      21.833  55.178 161.772  1.00  0.00     0.158 A 
ATOM     42  C   UNL     1      22.653  53.709 160.027  1.00  0.00     0.051 A 
ATOM     43  C   UNL     1      22.891  54.449 161.183  1.00  0.00     0.157 A 
BRANCH  41  44
ATOM     44  O   UNL     1      21.996  55.894 162.956  1.00  0.00    -0.504 OA
ATOM     45  H   UNL     1      22.400  55.516 163.795  1.00  0.00     0.293 HD
ENDBRANCH  41  44
BRANCH  43  46
ATOM     46  O   UNL     1      24.195  54.464 161.696  1.00  0.00    -0.504 OA
ATOM     47  H   UNL     1      24.759  55.299 161.789  1.00  0.00     0.293 HD
ENDBRANCH  43  46
ENDBRANCH  28  38
BRANCH  34  48
ATOM     48  O   UNL     1      14.346  54.027 157.075  1.00  0.00    -0.507 OA
ATOM     49  H   UNL     1      14.540  54.997 156.880  1.00  0.00     0.293 HD
ENDBRANCH  34  48
BRANCH  37  50
ATOM     50  O   UNL     1      14.358  50.474 160.314  1.00  0.00    -0.508 OA
ATOM     51  H   UNL     1      14.072  50.502 161.295  1.00  0.00     0.293 HD
ENDBRANCH  37  50
ENDBRANCH  26  27
ENDBRANCH   5  26
BRANCH   4  52
ATOM     52  O   UNL     1      19.773  59.646 157.678  1.00  0.00    -0.384 OA
ATOM     53  H   UNL     1      19.176  59.383 156.936  1.00  0.00     0.211 HD
ENDBRANCH   4  52
TORSDOF 16
ENDMDL
MODEL 2
REMARK VINA RESULT:    -8.749      2.492      6.251
REMARK INTER + INTRA:         -16.359
REMARK INTER:                 -14.054
REMARK INTRA:                  -2.305
REMARK UNBOUND:                -1.983
REMARK SMILES C[C@@H]1O[C@@H](OC[C@H]2O[C@H](Oc3c(-c4ccc(O)c(O)c4)oc4cc(O)cc(O)c4c3=O)[C@@H](O)[C@H](O)[C@H]2O)[C@H](O)[C@@H](O)[C@H]1O
REMARK SMILES IDX 7 1 36 2 34 3 32 4 9 5 8 6 6 7 5 8 4 9 1 10 2 11 42 12 3 13
REMARK SMILES IDX 40 14 38 15 43 16 41 18 39 20 37 22 35 24 10 26 11 27 12 28
REMARK SMILES IDX 30 29 21 30 29 31 31 32 22 33 27 34 23 35 26 36 24 37 13 38
REMARK SMILES IDX 20 39 14 40 18 41 15 42 16 43 19 44 17 46 28 48 25 50 33 52
REMARK H PARENT 43 17 41 19 39 21 37 23 35 25 19 45 17 47 28 49 25 51 33 53
REMARK Flexibility Score: inf
ROOT
ATOM      1  C   UNL     1      21.722  59.606 161.827  1.00  0.00     0.180 C 
ATOM      2  C   UNL     1      21.144  60.922 161.285  1.00  0.00     0.177 C 
ATOM      3  C   UNL     1      21.820  61.137 159.934  1.00  0.00     0.180 C 
ATOM      4  C   UNL     1      21.580  59.925 158.972  1.00  0.00     0.214 C 
ATOM      5  C   UNL     1      21.259  58.550 159.713  1.00  0.00     0.339 C 
ATOM      6  O   UNL     1      21.167  58.511 161.145  1.00  0.00    -0.332 OA
ENDROOT
BRANCH   1   7
ATOM      7  C   UNL     1      21.433  59.498 163.347  1.00  0.00     0.198 C 
BRANCH   7   8
ATOM      8  O   UNL     1      20.597  58.353 163.556  1.00  0.00    -0.347 OA
BRANCH   8   9
ATOM      9  C   UNL     1      19.277  58.590 164.080  1.00  0.00     0.281 C 
ATOM     10  C   UNL     1      20.084  59.228 167.601  1.00  0.00     0.041 C 
ATOM     11  C   UNL     1      19.517  58.482 166.389  1.00  0.00     0.150 C 
ATOM     12  C   UNL     1      18.135  57.916 166.720  1.00  0.00     0.174 C 
ATOM     13  O   UNL     1      19.381  59.351 165.278  1.00  0.00    -0.344 OA
ATOM     14  C   UNL     1      17.295  57.697 165.422  1.00  0.00     0.179 C 
ATOM     15  C   UNL     1      18.212  57.422 164.211  1.00  0.00     0.202 C 
BRANCH  12  16
ATOM     16  O   UNL     1      18.224  56.724 167.475  1.00  0.00    -0.388 OA
ATOM     17  H   UNL     1      17.660  56.875 168.290  1.00  0.00     0.211 HD
ENDBRANCH  12  16
BRANCH  14  18
ATOM     18  O   UNL     1      16.299  56.714 165.602  1.00  0.00    -0.387 OA
ATOM     19  H   UNL     1      16.073  56.283 164.736  1.00  0.00     0.211 HD
ENDBRANCH  14  18
BRANCH  15  20
ATOM     20  O   UNL     1      17.412  57.325 163.039  1.00  0.00    -0.385 OA
ATOM     21  H   UNL     1      16.676  57.990 163.099  1.00  0.00     0.211 HD
ENDBRANCH  15  20
ENDBRANCH   8   9
ENDBRANCH   7   8
ENDBRANCH   1   7
BRANCH   2  22
ATOM     22  O   UNL     1      19.754  60.821 161.112  1.00  0.00    -0.387 OA
ATOM     23  H   UNL     1      19.588  60.956 160.132  1.00  0.00     0.211 HD
ENDBRANCH   2  22
BRANCH   3  24
ATOM     24  O   UNL     1      23.190  61.474 160.103  1.00  0.00    -0.387 OA
ATOM     25  H   UNL     1      23.283  62.431 160.334  1.00  0.00     0.211 HD
ENDBRANCH   3  24
BRANCH   5  26
ATOM     26  O   UNL     1      22.168  57.523 159.274  1.00  0.00    -0.454 OA
BRANCH  26  27
ATOM     27  C   UNL     1      23.024  56.836 160.156  1.00  0.00     0.214 A 
ATOM     28  C   UNL     1      22.685  55.581 160.738  1.00  0.00     0.180 A 
ATOM     29  C   UNL     1      24.253  57.407 160.531  1.00  0.00     0.239 A 
ATOM     30  O   UNL     1      23.620  54.907 161.420  1.00  0.00    -0.452 OA
ATOM     31  C   UNL     1      25.224  56.650 161.202  1.00  0.00     0.111 A 
ATOM     32  O   UNL     1      24.432  58.637 160.351  1.00  0.00    -0.285 OA
ATOM     33  C   UNL     1      24.849  55.363 161.634  1.00  0.00     0.146 A 
ATOM     34  C   UNL     1      26.530  57.131 161.482  1.00  0.00     0.134 A 
ATOM     35  C   UNL     1      25.738  54.575 162.381  1.00  0.00     0.094 A 
ATOM     36  C   UNL     1      27.376  56.366 162.282  1.00  0.00     0.093 A 
ATOM     37  C   UNL     1      27.009  55.084 162.697  1.00  0.00     0.123 A 
BRANCH  28  38
ATOM     38  C   UNL     1      21.295  54.967 160.761  1.00  0.00     0.025 A 
ATOM     39  C   UNL     1      20.641  54.837 162.009  1.00  0.00     0.062 A 
ATOM     40  C   UNL     1      20.564  54.613 159.602  1.00  0.00     0.016 A 
ATOM     41  C   UNL     1      19.305  54.446 162.110  1.00  0.00     0.158 A 
ATOM     42  C   UNL     1      19.240  54.173 159.702  1.00  0.00     0.051 A 
ATOM     43  C   UNL     1      18.604  54.082 160.938  1.00  0.00     0.157 A 
BRANCH  41  44
ATOM     44  O   UNL     1      18.708  54.426 163.368  1.00  0.00    -0.504 OA
ATOM     45  H   UNL     1      18.245  55.214 163.788  1.00  0.00     0.293 HD
ENDBRANCH  41  44
BRANCH  43  46
ATOM     46  O   UNL     1      17.292  53.592 160.967  1.00  0.00    -0.504 OA
ATOM     47  H   UNL     1      16.476  54.135 160.715  1.00  0.00     0.293 HD
ENDBRANCH  43  46
ENDBRANCH  28  38
BRANCH  34  48
ATOM     48  O   UNL     1      27.031  58.336 160.967  1.00  0.00    -0.507 OA
ATOM     49  H   UNL     1      27.586  58.961 161.532  1.00  0.00     0.293 HD
ENDBRANCH  34  48
BRANCH  37  50
ATOM     50  O   UNL     1      27.889  54.306 163.446  1.00  0.00    -0.508 OA
ATOM     51  H   UNL     1      28.433  53.554 163.017  1.00  0.00     0.293 HD
ENDBRANCH  37  50
ENDBRANCH  26  27
ENDBRANCH   5  26
BRANCH   4  52
ATOM     52  O   UNL     1      20.485  60.310 158.161  1.00  0.00    -0.384 OA
ATOM     53  H   UNL     1      20.733  60.195 157.212  1.00  0.00     0.211 HD
ENDBRANCH   4  52
TORSDOF 16
ENDMDL
MODEL 3
REMARK VINA RESULT:    -8.701      1.198      2.058
REMARK INTER + INTRA:         -16.280
REMARK INTER:                 -14.196
REMARK INTRA:                  -2.083
REMARK UNBOUND:                -1.983
REMARK SMILES C[C@@H]1O[C@@H](OC[C@H]2O[C@H](Oc3c(-c4ccc(O)c(O)c4)oc4cc(O)cc(O)c4c3=O)[C@@H](O)[C@H](O)[C@H]2O)[C@H](O)[C@@H](O)[C@H]1O
REMARK SMILES IDX 7 1 36 2 34 3 32 4 9 5 8 6 6 7 5 8 4 9 1 10 2 11 42 12 3 13
REMARK SMILES IDX 40 14 38 15 43 16 41 18 39 20 37 22 35 24 10 26 11 27 12 28
REMARK SMILES IDX 30 29 21 30 29 31 31 32 22 33 27 34 23 35 26 36 24 37 13 38
REMARK SMILES IDX 20 39 14 40 18 41 15 42 16 43 19 44 17 46 28 48 25 50 33 52
REMARK H PARENT 43 17 41 19 39 21 37 23 35 25 19 45 17 47 28 49 25 51 33 53
REMARK Flexibility Score: inf
ROOT
ATOM      1  C   UNL     1      19.516  58.370 161.089  1.00  0.00     0.180 C 
ATOM      2  C   UNL     1      19.894  59.827 160.786  1.00  0.00     0.177 C 
ATOM      3  C   UNL     1      20.962  59.751 159.698  1.00  0.00     0.180 C 
ATOM      4  C   UNL     1      20.444  58.982 158.437  1.00  0.00     0.214 C 
ATOM      5  C   UNL     1      19.253  57.964 158.730  1.00  0.00     0.339 C 
ATOM      6  O   UNL     1      18.719  57.847 160.058  1.00  0.00    -0.332 OA
ENDROOT
BRANCH   1   7
ATOM      7  C   UNL     1      18.760  58.299 162.442  1.00  0.00     0.198 C 
BRANCH   7   8
ATOM      8  O   UNL     1      19.632  57.688 163.402  1.00  0.00    -0.347 OA
BRANCH   8   9
ATOM      9  C   UNL     1      20.143  58.529 164.454  1.00  0.00     0.281 C 
ATOM     10  C   UNL     1      17.756  57.746 167.127  1.00  0.00     0.041 C 
ATOM     11  C   UNL     1      18.459  58.584 166.053  1.00  0.00     0.150 C 
ATOM     12  C   UNL     1      18.705  60.002 166.572  1.00  0.00     0.174 C 
ATOM     13  O   UNL     1      19.712  58.019 165.710  1.00  0.00    -0.344 OA
ATOM     14  C   UNL     1      19.892  60.676 165.814  1.00  0.00     0.179 C 
ATOM     15  C   UNL     1      20.027  60.108 164.385  1.00  0.00     0.202 C 
BRANCH  12  16
ATOM     16  O   UNL     1      17.539  60.797 166.501  1.00  0.00    -0.388 OA
ATOM     17  H   UNL     1      17.821  61.720 166.769  1.00  0.00     0.211 HD
ENDBRANCH  12  16
BRANCH  14  18
ATOM     18  O   UNL     1      19.804  62.084 165.850  1.00  0.00    -0.387 OA
ATOM     19  H   UNL     1      18.860  62.377 165.741  1.00  0.00     0.211 HD
ENDBRANCH  14  18
BRANCH  15  20
ATOM     20  O   UNL     1      21.175  60.679 163.768  1.00  0.00    -0.385 OA
ATOM     21  H   UNL     1      21.809  60.967 164.477  1.00  0.00     0.211 HD
ENDBRANCH  15  20
ENDBRANCH   8   9
ENDBRANCH   7   8
ENDBRANCH   1   7
BRANCH   2  22
ATOM     22  O   UNL     1      18.782  60.543 160.313  1.00  0.00    -0.387 OA
ATOM     23  H   UNL     1      18.713  60.330 159.335  1.00  0.00     0.211 HD
ENDBRANCH   2  22
BRANCH   3  24
ATOM     24  O   UNL     1      22.181  59.241 160.223  1.00  0.00    -0.387 OA
ATOM     25  H   UNL     1      22.877  59.222 159.520  1.00  0.00     0.211 HD
ENDBRANCH   3  24
BRANCH   5  26
ATOM     26  O   UNL     1      19.589  56.650 158.244  1.00  0.00    -0.454 OA
BRANCH  26  27
ATOM     27  C   UNL     1      18.926  55.486 158.677  1.00  0.00     0.214 A 
ATOM     28  C   UNL     1      19.425  54.657 159.722  1.00  0.00     0.180 A 
ATOM     29  C   UNL     1      17.739  55.076 158.043  1.00  0.00     0.239 A 
ATOM     30  O   UNL     1      18.651  53.673 160.198  1.00  0.00    -0.452 OA
ATOM     31  C   UNL     1      16.933  54.074 158.603  1.00  0.00     0.111 A 
ATOM     32  O   UNL     1      17.461  55.543 156.911  1.00  0.00    -0.285 OA
ATOM     33  C   UNL     1      17.447  53.384 159.718  1.00  0.00     0.146 A 
ATOM     34  C   UNL     1      15.661  53.717 158.081  1.00  0.00     0.134 A 
ATOM     35  C   UNL     1      16.735  52.317 160.285  1.00  0.00     0.094 A 
ATOM     36  C   UNL     1      14.999  52.612 158.612  1.00  0.00     0.093 A 
ATOM     37  C   UNL     1      15.501  51.939 159.727  1.00  0.00     0.123 A 
BRANCH  28  38
ATOM     38  C   UNL     1      20.835  54.705 160.287  1.00  0.00     0.025 A 
ATOM     39  C   UNL     1      21.071  55.502 161.431  1.00  0.00     0.062 A 
ATOM     40  C   UNL     1      21.909  53.917 159.808  1.00  0.00     0.016 A 
ATOM     41  C   UNL     1      22.286  55.474 162.118  1.00  0.00     0.158 A 
ATOM     42  C   UNL     1      23.144  53.924 160.464  1.00  0.00     0.051 A 
ATOM     43  C   UNL     1      23.347  54.692 161.609  1.00  0.00     0.157 A 
BRANCH  41  44
ATOM     44  O   UNL     1      22.411  56.223 163.286  1.00  0.00    -0.504 OA
ATOM     45  H   UNL     1      21.733  56.230 164.029  1.00  0.00     0.293 HD
ENDBRANCH  41  44
BRANCH  43  46
ATOM     46  O   UNL     1      24.623  54.683 162.188  1.00  0.00    -0.504 OA
ATOM     47  H   UNL     1      25.249  53.888 162.173  1.00  0.00     0.293 HD
ENDBRANCH  43  46
ENDBRANCH  28  38
BRANCH  34  48
ATOM     48  O   UNL     1      15.015  54.442 157.069  1.00  0.00    -0.507 OA
ATOM     49  H   UNL     1      15.079  54.168 156.101  1.00  0.00     0.293 HD
ENDBRANCH  34  48
BRANCH  37  50
ATOM     50  O   UNL     1      14.798  50.873 160.284  1.00  0.00    -0.508 OA
ATOM     51  H   UNL     1      13.836  50.666 160.007  1.00  0.00     0.293 HD
ENDBRANCH  37  50
ENDBRANCH  26  27
ENDBRANCH   5  26
BRANCH   4  52
ATOM     52  O   UNL     1      20.014  59.991 157.541  1.00  0.00    -0.384 OA
ATOM     53  H   UNL     1      19.373  60.581 158.007  1.00  0.00     0.211 HD
ENDBRANCH   4  52
TORSDOF 16
ENDMDL
MODEL 4
REMARK VINA RESULT:    -8.683      3.391      8.241
REMARK INTER + INTRA:         -16.250
REMARK INTER:                 -13.982
REMARK INTRA:                  -2.268
REMARK UNBOUND:                -1.983
REMARK SMILES C[C@@H]1O[C@@H](OC[C@H]2O[C@H](Oc3c(-c4ccc(O)c(O)c4)oc4cc(O)cc(O)c4c3=O)[C@@H](O)[C@H](O)[C@H]2O)[C@H](O)[C@@H](O)[C@H]1O
REMARK SMILES IDX 7 1 36 2 34 3 32 4 9 5 8 6 6 7 5 8 4 9 1 10 2 11 42 12 3 13
REMARK SMILES IDX 40 14 38 15 43 16 41 18 39 20 37 22 35 24 10 26 11 27 12 28
REMARK SMILES IDX 30 29 21 30 29 31 31 32 22 33 27 34 23 35 26 36 24 37 13 38
REMARK SMILES IDX 20 39 14 40 18 41 15 42 16 43 19 44 17 46 28 48 25 50 33 52
REMARK H PARENT 43 17 41 19 39 21 37 23 35 25 19 45 17 47 28 49 25 51 33 53
REMARK Flexibility Score: inf
ROOT
ATOM      1  C   UNL     1      20.187  56.311 161.740  1.00  0.00     0.180 C 
ATOM      2  C   UNL     1      19.902  54.816 161.537  1.00  0.00     0.177 C 
ATOM      3  C   UNL     1      20.658  54.426 160.270  1.00  0.00     0.180 C 
ATOM      4  C   UNL     1      22.187  54.743 160.393  1.00  0.00     0.214 C 
ATOM      5  C   UNL     1      22.539  55.886 161.447  1.00  0.00     0.339 C 
ATOM      6  O   UNL     1      21.494  56.499 162.218  1.00  0.00    -0.332 OA
ENDROOT
BRANCH   1   7
ATOM      7  C   UNL     1      19.159  56.907 162.736  1.00  0.00     0.198 C 
BRANCH   7   8
ATOM      8  O   UNL     1      19.422  58.310 162.857  1.00  0.00    -0.347 OA
BRANCH   8   9
ATOM      9  C   UNL     1      19.956  58.773 164.112  1.00  0.00     0.281 C 
ATOM     10  C   UNL     1      17.288  57.695 166.387  1.00  0.00     0.041 C 
ATOM     11  C   UNL     1      18.174  58.667 165.600  1.00  0.00     0.150 C 
ATOM     12  C   UNL     1      18.562  59.855 166.481  1.00  0.00     0.174 C 
ATOM     13  O   UNL     1      19.366  58.030 165.172  1.00  0.00    -0.344 OA
ATOM     14  C   UNL     1      19.882  60.519 165.974  1.00  0.00     0.179 C 
ATOM     15  C   UNL     1      20.052  60.318 164.453  1.00  0.00     0.202 C 
BRANCH  12  16
ATOM     16  O   UNL     1      17.518  60.803 166.572  1.00  0.00    -0.388 OA
ATOM     17  H   UNL     1      17.216  60.969 165.631  1.00  0.00     0.211 HD
ENDBRANCH  12  16
BRANCH  14  18
ATOM     18  O   UNL     1      19.975  61.869 166.374  1.00  0.00    -0.387 OA
ATOM     19  H   UNL     1      20.897  62.212 166.233  1.00  0.00     0.211 HD
ENDBRANCH  14  18
BRANCH  15  20
ATOM     20  O   UNL     1      21.308  60.854 164.056  1.00  0.00    -0.385 OA
ATOM     21  H   UNL     1      21.149  61.627 163.452  1.00  0.00     0.211 HD
ENDBRANCH  15  20
ENDBRANCH   8   9
ENDBRANCH   7   8
ENDBRANCH   1   7
BRANCH   2  22
ATOM     22  O   UNL     1      20.376  54.066 162.626  1.00  0.00    -0.387 OA
ATOM     23  H   UNL     1      21.377  54.068 162.546  1.00  0.00     0.211 HD
ENDBRANCH   2  22
BRANCH   3  24
ATOM     24  O   UNL     1      20.044  54.994 159.121  1.00  0.00    -0.387 OA
ATOM     25  H   UNL     1      19.065  54.857 159.151  1.00  0.00     0.211 HD
ENDBRANCH   3  24
BRANCH   5  26
ATOM     26  O   UNL     1      23.324  56.918 160.819  1.00  0.00    -0.454 OA
BRANCH  26  27
ATOM     27  C   UNL     1      24.193  57.758 161.542  1.00  0.00     0.214 A 
ATOM     28  C   UNL     1      24.005  59.167 161.631  1.00  0.00     0.180 A 
ATOM     29  C   UNL     1      25.325  57.220 162.178  1.00  0.00     0.239 A 
ATOM     30  O   UNL     1      24.764  59.872 162.480  1.00  0.00    -0.452 OA
ATOM     31  C   UNL     1      26.064  57.978 163.097  1.00  0.00     0.111 A 
ATOM     32  O   UNL     1      25.733  56.083 161.834  1.00  0.00    -0.285 OA
ATOM     33  C   UNL     1      25.730  59.341 163.221  1.00  0.00     0.146 A 
ATOM     34  C   UNL     1      27.130  57.444 163.869  1.00  0.00     0.134 A 
ATOM     35  C   UNL     1      26.473  60.182 164.061  1.00  0.00     0.094 A 
ATOM     36  C   UNL     1      27.900  58.306 164.646  1.00  0.00     0.093 A 
ATOM     37  C   UNL     1      27.559  59.653 164.780  1.00  0.00     0.123 A 
BRANCH  28  38
ATOM     38  C   UNL     1      23.082  59.991 160.748  1.00  0.00     0.025 A 
ATOM     39  C   UNL     1      21.686  59.815 160.891  1.00  0.00     0.062 A 
ATOM     40  C   UNL     1      23.524  61.005 159.865  1.00  0.00     0.016 A 
ATOM     41  C   UNL     1      20.764  60.644 160.250  1.00  0.00     0.158 A 
ATOM     42  C   UNL     1      22.603  61.806 159.183  1.00  0.00     0.051 A 
ATOM     43  C   UNL     1      21.232  61.637 159.361  1.00  0.00     0.157 A 
BRANCH  41  44
ATOM     44  O   UNL     1      19.407  60.461 160.510  1.00  0.00    -0.504 OA
ATOM     45  H   UNL     1      18.841  59.745 160.086  1.00  0.00     0.293 HD
ENDBRANCH  41  44
BRANCH  43  46
ATOM     46  O   UNL     1      20.368  62.446 158.612  1.00  0.00    -0.504 OA
ATOM     47  H   UNL     1      19.815  62.118 157.831  1.00  0.00     0.293 HD
ENDBRANCH  43  46
ENDBRANCH  28  38
BRANCH  34  48
ATOM     48  O   UNL     1      27.433  56.075 163.914  1.00  0.00    -0.507 OA
ATOM     49  H   UNL     1      27.484  55.518 163.075  1.00  0.00     0.293 HD
ENDBRANCH  34  48
BRANCH  37  50
ATOM     50  O   UNL     1      28.303  60.491 165.608  1.00  0.00    -0.508 OA
ATOM     51  H   UNL     1      28.846  60.121 166.391  1.00  0.00     0.293 HD
ENDBRANCH  37  50
ENDBRANCH  26  27
ENDBRANCH   5  26
BRANCH   4  52
ATOM     52  O   UNL     1      22.786  53.520 160.781  1.00  0.00    -0.384 OA
ATOM     53  H   UNL     1      22.936  53.532 161.757  1.00  0.00     0.211 HD
ENDBRANCH   4  52
TORSDOF 16
ENDMDL
MODEL 5
REMARK VINA RESULT:    -8.670      2.665      7.292
REMARK INTER + INTRA:         -16.229
REMARK INTER:                 -14.102
REMARK INTRA:                  -2.127
REMARK UNBOUND:                -1.983
REMARK SMILES C[C@@H]1O[C@@H](OC[C@H]2O[C@H](Oc3c(-c4ccc(O)c(O)c4)oc4cc(O)cc(O)c4c3=O)[C@@H](O)[C@H](O)[C@H]2O)[C@H](O)[C@@H](O)[C@H]1O
REMARK SMILES IDX 7 1 36 2 34 3 32 4 9 5 8 6 6 7 5 8 4 9 1 10 2 11 42 12 3 13
REMARK SMILES IDX 40 14 38 15 43 16 41 18 39 20 37 22 35 24 10 26 11 27 12 28
REMARK SMILES IDX 30 29 21 30 29 31 31 32 22 33 27 34 23 35 26 36 24 37 13 38
REMARK SMILES IDX 20 39 14 40 18 41 15 42 16 43 19 44 17 46 28 48 25 50 33 52
REMARK H PARENT 43 17 41 19 39 21 37 23 35 25 19 45 17 47 28 49 25 51 33 53
REMARK Flexibility Score: inf
ROOT
ATOM      1  C   UNL     1      19.485  56.066 161.762  1.00  0.00     0.180 C 
ATOM      2  C   UNL     1      19.361  54.563 162.057  1.00  0.00     0.177 C 
ATOM      3  C   UNL     1      19.604  53.866 160.721  1.00  0.00     0.180 C 
ATOM      4  C   UNL     1      20.995  54.255 160.115  1.00  0.00     0.214 C 
ATOM      5  C   UNL     1      21.566  55.654 160.623  1.00  0.00     0.339 C 
ATOM      6  O   UNL     1      20.833  56.421 161.591  1.00  0.00    -0.332 OA
ENDROOT
BRANCH   1   7
ATOM      7  C   UNL     1      18.859  56.877 162.926  1.00  0.00     0.198 C 
BRANCH   7   8
ATOM      8  O   UNL     1      19.371  58.214 162.858  1.00  0.00    -0.347 OA
BRANCH   8   9
ATOM      9  C   UNL     1      19.973  58.749 164.052  1.00  0.00     0.281 C 
ATOM     10  C   UNL     1      17.529  57.651 166.557  1.00  0.00     0.041 C 
ATOM     11  C   UNL     1      18.311  58.626 165.671  1.00  0.00     0.150 C 
ATOM     12  C   UNL     1      18.708  59.864 166.477  1.00  0.00     0.174 C 
ATOM     13  O   UNL     1      19.496  58.024 165.179  1.00  0.00    -0.344 OA
ATOM     14  C   UNL     1      19.956  60.562 165.850  1.00  0.00     0.179 C 
ATOM     15  C   UNL     1      20.024  60.309 164.329  1.00  0.00     0.202 C 
BRANCH  12  16
ATOM     16  O   UNL     1      17.632  60.770 166.611  1.00  0.00    -0.388 OA
ATOM     17  H   UNL     1      16.944  60.299 167.167  1.00  0.00     0.211 HD
ENDBRANCH  12  16
BRANCH  14  18
ATOM     18  O   UNL     1      20.017  61.930 166.192  1.00  0.00    -0.387 OA
ATOM     19  H   UNL     1      19.501  62.476 165.540  1.00  0.00     0.211 HD
ENDBRANCH  14  18
BRANCH  15  20
ATOM     20  O   UNL     1      21.223  60.880 163.819  1.00  0.00    -0.385 OA
ATOM     21  H   UNL     1      21.021  61.332 162.958  1.00  0.00     0.211 HD
ENDBRANCH  15  20
ENDBRANCH   8   9
ENDBRANCH   7   8
ENDBRANCH   1   7
BRANCH   2  22
ATOM     22  O   UNL     1      20.328  54.157 162.990  1.00  0.00    -0.387 OA
ATOM     23  H   UNL     1      20.475  53.178 162.826  1.00  0.00     0.211 HD
ENDBRANCH   2  22
BRANCH   3  24
ATOM     24  O   UNL     1      18.512  54.077 159.836  1.00  0.00    -0.387 OA
ATOM     25  H   UNL     1      18.790  54.644 159.074  1.00  0.00     0.211 HD
ENDBRANCH   3  24
BRANCH   5  26
ATOM     26  O   UNL     1      21.883  56.500 159.501  1.00  0.00    -0.454 OA
BRANCH  26  27
ATOM     27  C   UNL     1      21.940  57.903 159.597  1.00  0.00     0.214 A 
ATOM     28  C   UNL     1      20.794  58.734 159.438  1.00  0.00     0.180 A 
ATOM     29  C   UNL     1      23.171  58.544 159.819  1.00  0.00     0.239 A 
ATOM     30  O   UNL     1      20.892  60.039 159.722  1.00  0.00    -0.452 OA
ATOM     31  C   UNL     1      23.225  59.903 160.162  1.00  0.00     0.111 A 
ATOM     32  O   UNL     1      24.234  57.911 159.602  1.00  0.00    -0.285 OA
ATOM     33  C   UNL     1      22.019  60.628 160.103  1.00  0.00     0.146 A 
ATOM     34  C   UNL     1      24.426  60.566 160.529  1.00  0.00     0.134 A 
ATOM     35  C   UNL     1      22.006  62.008 160.355  1.00  0.00     0.094 A 
ATOM     36  C   UNL     1      24.408  61.948 160.710  1.00  0.00     0.093 A 
ATOM     37  C   UNL     1      23.210  62.663 160.666  1.00  0.00     0.123 A 
BRANCH  28  38
ATOM     38  C   UNL     1      19.463  58.296 158.849  1.00  0.00     0.025 A 
ATOM     39  C   UNL     1      18.279  58.863 159.376  1.00  0.00     0.062 A 
ATOM     40  C   UNL     1      19.334  57.436 157.733  1.00  0.00     0.016 A 
ATOM     41  C   UNL     1      17.030  58.653 158.788  1.00  0.00     0.158 A 
ATOM     42  C   UNL     1      18.078  57.183 157.171  1.00  0.00     0.051 A 
ATOM     43  C   UNL     1      16.927  57.776 157.685  1.00  0.00     0.157 A 
BRANCH  41  44
ATOM     44  O   UNL     1      15.924  59.317 159.314  1.00  0.00    -0.504 OA
ATOM     45  H   UNL     1      15.079  59.501 158.802  1.00  0.00     0.293 HD
ENDBRANCH  41  44
BRANCH  43  46
ATOM     46  O   UNL     1      15.699  57.443 157.099  1.00  0.00    -0.504 OA
ATOM     47  H   UNL     1      14.812  57.462 157.586  1.00  0.00     0.293 HD
ENDBRANCH  43  46
ENDBRANCH  28  38
BRANCH  34  48
ATOM     48  O   UNL     1      25.637  59.894 160.751  1.00  0.00    -0.507 OA
ATOM     49  H   UNL     1      25.670  58.894 160.873  1.00  0.00     0.293 HD
ENDBRANCH  34  48
BRANCH  37  50
ATOM     50  O   UNL     1      23.198  64.035 160.908  1.00  0.00    -0.508 OA
ATOM     51  H   UNL     1      23.435  64.416 161.826  1.00  0.00     0.293 HD
ENDBRANCH  37  50
ENDBRANCH  26  27
ENDBRANCH   5  26
BRANCH   4  52
ATOM     52  O   UNL     1      21.867  53.206 160.494  1.00  0.00    -0.384 OA
ATOM     53  H   UNL     1      22.782  53.567 160.584  1.00  0.00     0.211 HD
ENDBRANCH   4  52
TORSDOF 16
ENDMDL
MODEL 6
REMARK VINA RESULT:    -8.597      3.062      6.907
REMARK INTER + INTRA:         -16.108
REMARK INTER:                 -13.711
REMARK INTRA:                  -2.398
REMARK UNBOUND:                -1.983
REMARK SMILES C[C@@H]1O[C@@H](OC[C@H]2O[C@H](Oc3c(-c4ccc(O)c(O)c4)oc4cc(O)cc(O)c4c3=O)[C@@H](O)[C@H](O)[C@H]2O)[C@H](O)[C@@H](O)[C@H]1O
REMARK SMILES IDX 7 1 36 2 34 3 32 4 9 5 8 6 6 7 5 8 4 9 1 10 2 11 42 12 3 13
REMARK SMILES IDX 40 14 38 15 43 16 41 18 39 20 37 22 35 24 10 26 11 27 12 28
REMARK SMILES IDX 30 29 21 30 29 31 31 32 22 33 27 34 23 35 26 36 24 37 13 38
REMARK SMILES IDX 20 39 14 40 18 41 15 42 16 43 19 44 17 46 28 48 25 50 33 52
REMARK H PARENT 43 17 41 19 39 21 37 23 35 25 19 45 17 47 28 49 25 51 33 53
REMARK Flexibility Score: inf
ROOT
ATOM      1  C   UNL     1      19.490  58.130 162.869  1.00  0.00     0.180 C 
ATOM      2  C   UNL     1      18.104  57.502 163.076  1.00  0.00     0.177 C 
ATOM      3  C   UNL     1      17.702  56.947 161.712  1.00  0.00     0.180 C 
ATOM      4  C   UNL     1      18.759  55.924 161.174  1.00  0.00     0.214 C 
ATOM      5  C   UNL     1      20.223  56.114 161.777  1.00  0.00     0.339 C 
ATOM      6  O   UNL     1      20.469  57.129 162.761  1.00  0.00    -0.332 OA
ENDROOT
BRANCH   1   7
ATOM      7  C   UNL     1      19.815  59.076 164.055  1.00  0.00     0.198 C 
BRANCH   7   8
ATOM      8  O   UNL     1      20.163  58.265 165.183  1.00  0.00    -0.347 OA
BRANCH   8   9
ATOM      9  C   UNL     1      19.537  58.584 166.440  1.00  0.00     0.281 C 
ATOM     10  C   UNL     1      22.505  59.011 168.553  1.00  0.00     0.041 C 
ATOM     11  C   UNL     1      21.221  58.362 168.026  1.00  0.00     0.150 C 
ATOM     12  C   UNL     1      20.352  57.894 169.194  1.00  0.00     0.174 C 
ATOM     13  O   UNL     1      20.465  59.285 167.259  1.00  0.00    -0.344 OA
ATOM     14  C   UNL     1      18.852  57.796 168.771  1.00  0.00     0.179 C 
ATOM     15  C   UNL     1      18.723  57.500 167.262  1.00  0.00     0.202 C 
BRANCH  12  16
ATOM     16  O   UNL     1      20.810  56.670 169.731  1.00  0.00    -0.388 OA
ATOM     17  H   UNL     1      21.803  56.663 169.590  1.00  0.00     0.211 HD
ENDBRANCH  12  16
BRANCH  14  18
ATOM     18  O   UNL     1      18.138  56.888 169.582  1.00  0.00    -0.387 OA
ATOM     19  H   UNL     1      17.956  57.287 170.474  1.00  0.00     0.211 HD
ENDBRANCH  14  18
BRANCH  15  20
ATOM     20  O   UNL     1      17.346  57.515 166.906  1.00  0.00    -0.385 OA
ATOM     21  H   UNL     1      16.812  57.768 167.704  1.00  0.00     0.211 HD
ENDBRANCH  15  20
ENDBRANCH   8   9
ENDBRANCH   7   8
ENDBRANCH   1   7
BRANCH   2  22
ATOM     22  O   UNL     1      18.163  56.461 164.016  1.00  0.00    -0.387 OA
ATOM     23  H   UNL     1      18.504  56.875 164.865  1.00  0.00     0.211 HD
ENDBRANCH   2  22
BRANCH   3  24
ATOM     24  O   UNL     1      17.407  58.001 160.805  1.00  0.00    -0.387 OA
ATOM     25  H   UNL     1      18.242  58.430 160.494  1.00  0.00     0.211 HD
ENDBRANCH   3  24
BRANCH   5  26
ATOM     26  O   UNL     1      21.186  56.250 160.714  1.00  0.00    -0.454 OA
BRANCH  26  27
ATOM     27  C   UNL     1      22.535  56.581 160.946  1.00  0.00     0.214 A 
ATOM     28  C   UNL     1      23.026  57.915 160.866  1.00  0.00     0.180 A 
ATOM     29  C   UNL     1      23.468  55.569 161.232  1.00  0.00     0.239 A 
ATOM     30  O   UNL     1      24.274  58.175 161.275  1.00  0.00    -0.452 OA
ATOM     31  C   UNL     1      24.750  55.884 161.705  1.00  0.00     0.111 A 
ATOM     32  O   UNL     1      23.177  54.378 160.958  1.00  0.00    -0.285 OA
ATOM     33  C   UNL     1      25.115  57.244 161.714  1.00  0.00     0.146 A 
ATOM     34  C   UNL     1      25.682  54.904 162.139  1.00  0.00     0.134 A 
ATOM     35  C   UNL     1      26.407  57.632 162.099  1.00  0.00     0.094 A 
ATOM     36  C   UNL     1      26.981  55.299 162.453  1.00  0.00     0.093 A 
ATOM     37  C   UNL     1      27.337  56.648 162.475  1.00  0.00     0.123 A 
BRANCH  28  38
ATOM     38  C   UNL     1      22.294  59.087 160.234  1.00  0.00     0.025 A 
ATOM     39  C   UNL     1      21.888  60.153 161.071  1.00  0.00     0.062 A 
ATOM     40  C   UNL     1      22.085  59.236 158.842  1.00  0.00     0.016 A 
ATOM     41  C   UNL     1      21.365  61.341 160.559  1.00  0.00     0.158 A 
ATOM     42  C   UNL     1      21.516  60.406 158.328  1.00  0.00     0.051 A 
ATOM     43  C   UNL     1      21.151  61.457 159.167  1.00  0.00     0.157 A 
BRANCH  41  44
ATOM     44  O   UNL     1      21.069  62.377 161.443  1.00  0.00    -0.504 OA
ATOM     45  H   UNL     1      21.420  63.315 161.353  1.00  0.00     0.293 HD
ENDBRANCH  41  44
BRANCH  43  46
ATOM     46  O   UNL     1      20.547  62.580 158.587  1.00  0.00    -0.504 OA
ATOM     47  H   UNL     1      19.753  62.539 157.961  1.00  0.00     0.293 HD
ENDBRANCH  43  46
ENDBRANCH  28  38
BRANCH  34  48
ATOM     48  O   UNL     1      25.354  53.550 162.298  1.00  0.00    -0.507 OA
ATOM     49  H   UNL     1      24.545  53.147 161.850  1.00  0.00     0.293 HD
ENDBRANCH  34  48
BRANCH  37  50
ATOM     50  O   UNL     1      28.623  57.032 162.849  1.00  0.00    -0.508 OA
ATOM     51  H   UNL     1      28.826  57.367 163.793  1.00  0.00     0.293 HD
ENDBRANCH  37  50
ENDBRANCH  26  27
ENDBRANCH   5  26
BRANCH   4  52
ATOM     52  O   UNL     1      18.249  54.650 161.523  1.00  0.00    -0.384 OA
ATOM     53  H   UNL     1      17.290  54.737 161.741  1.00  0.00     0.211 HD
ENDBRANCH   4  52
TORSDOF 16
ENDMDL
MODEL 7
REMARK VINA RESULT:    -8.564      2.408      6.563
REMARK INTER + INTRA:         -16.054
REMARK INTER:                 -13.095
REMARK INTRA:                  -2.958
REMARK UNBOUND:                -1.983
REMARK SMILES C[C@@H]1O[C@@H](OC[C@H]2O[C@H](Oc3c(-c4ccc(O)c(O)c4)oc4cc(O)cc(O)c4c3=O)[C@@H](O)[C@H](O)[C@H]2O)[C@H](O)[C@@H](O)[C@H]1O
REMARK SMILES IDX 7 1 36 2 34 3 32 4 9 5 8 6 6 7 5 8 4 9 1 10 2 11 42 12 3 13
REMARK SMILES IDX 40 14 38 15 43 16 41 18 39 20 37 22 35 24 10 26 11 27 12 28
REMARK SMILES IDX 30 29 21 30 29 31 31 32 22 33 27 34 23 35 26 36 24 37 13 38
REMARK SMILES IDX 20 39 14 40 18 41 15 42 16 43 19 44 17 46 28 48 25 50 33 52
REMARK H PARENT 43 17 41 19 39 21 37 23 35 25 19 45 17 47 28 49 25 51 33 53
REMARK Flexibility Score: inf
ROOT
ATOM      1  C   UNL     1      22.755  59.035 159.601  1.00  0.00     0.180 C 
ATOM      2  C   UNL     1      23.843  60.118 159.638  1.00  0.00     0.177 C 
ATOM      3  C   UNL     1      23.929  60.559 161.097  1.00  0.00     0.180 C 
ATOM      4  C   UNL     1      24.240  59.351 162.044  1.00  0.00     0.214 C 
ATOM      5  C   UNL     1      23.814  57.930 161.459  1.00  0.00     0.339 C 
ATOM      6  O   UNL     1      23.240  57.836 160.147  1.00  0.00    -0.332 OA
ENDROOT
BRANCH   1   7
ATOM      7  C   UNL     1      22.291  58.813 158.137  1.00  0.00     0.198 C 
BRANCH   7   8
ATOM      8  O   UNL     1      20.989  59.394 157.994  1.00  0.00    -0.347 OA
BRANCH   8   9
ATOM      9  C   UNL     1      19.946  58.886 158.847  1.00  0.00     0.281 C 
ATOM     10  C   UNL     1      18.678  56.148 156.759  1.00  0.00     0.041 C 
ATOM     11  C   UNL     1      18.674  57.499 157.483  1.00  0.00     0.150 C 
ATOM     12  C   UNL     1      17.317  57.735 158.147  1.00  0.00     0.174 C 
ATOM     13  O   UNL     1      19.669  57.536 158.492  1.00  0.00    -0.344 OA
ATOM     14  C   UNL     1      17.444  58.735 159.340  1.00  0.00     0.179 C 
ATOM     15  C   UNL     1      18.619  59.711 159.118  1.00  0.00     0.202 C 
BRANCH  12  16
ATOM     16  O   UNL     1      16.347  58.173 157.217  1.00  0.00    -0.388 OA
ATOM     17  H   UNL     1      16.491  59.160 157.115  1.00  0.00     0.211 HD
ENDBRANCH  12  16
BRANCH  14  18
ATOM     18  O   UNL     1      16.221  59.385 159.610  1.00  0.00    -0.387 OA
ATOM     19  H   UNL     1      16.381  60.249 160.076  1.00  0.00     0.211 HD
ENDBRANCH  14  18
BRANCH  15  20
ATOM     20  O   UNL     1      18.756  60.536 160.268  1.00  0.00    -0.385 OA
ATOM     21  H   UNL     1      18.151  60.196 160.980  1.00  0.00     0.211 HD
ENDBRANCH  15  20
ENDBRANCH   8   9
ENDBRANCH   7   8
ENDBRANCH   1   7
BRANCH   2  22
ATOM     22  O   UNL     1      25.079  59.597 159.223  1.00  0.00    -0.387 OA
ATOM     23  H   UNL     1      25.346  58.930 159.924  1.00  0.00     0.211 HD
ENDBRANCH   2  22
BRANCH   3  24
ATOM     24  O   UNL     1      22.774  61.299 161.469  1.00  0.00    -0.387 OA
ATOM     25  H   UNL     1      22.870  61.646 162.390  1.00  0.00     0.211 HD
ENDBRANCH   3  24
BRANCH   5  26
ATOM     26  O   UNL     1      22.960  57.242 162.393  1.00  0.00    -0.454 OA
BRANCH  26  27
ATOM     27  C   UNL     1      21.759  56.616 162.008  1.00  0.00     0.214 A 
ATOM     28  C   UNL     1      20.477  57.111 162.381  1.00  0.00     0.180 A 
ATOM     29  C   UNL     1      21.795  55.427 161.258  1.00  0.00     0.239 A 
ATOM     30  O   UNL     1      19.384  56.568 161.828  1.00  0.00    -0.452 OA
ATOM     31  C   UNL     1      20.635  54.920 160.656  1.00  0.00     0.111 A 
ATOM     32  O   UNL     1      22.861  54.764 161.220  1.00  0.00    -0.285 OA
ATOM     33  C   UNL     1      19.417  55.549 160.977  1.00  0.00     0.146 A 
ATOM     34  C   UNL     1      20.638  53.804 159.777  1.00  0.00     0.134 A 
ATOM     35  C   UNL     1      18.204  55.051 160.478  1.00  0.00     0.094 A 
ATOM     36  C   UNL     1      19.421  53.280 159.345  1.00  0.00     0.093 A 
ATOM     37  C   UNL     1      18.216  53.913 159.652  1.00  0.00     0.123 A 
BRANCH  28  38
ATOM     38  C   UNL     1      20.212  58.145 163.462  1.00  0.00     0.025 A 
ATOM     39  C   UNL     1      20.624  59.478 163.229  1.00  0.00     0.062 A 
ATOM     40  C   UNL     1      19.481  57.886 164.646  1.00  0.00     0.016 A 
ATOM     41  C   UNL     1      20.273  60.524 164.084  1.00  0.00     0.158 A 
ATOM     42  C   UNL     1      19.170  58.923 165.531  1.00  0.00     0.051 A 
ATOM     43  C   UNL     1      19.558  60.235 165.268  1.00  0.00     0.157 A 
BRANCH  41  44
ATOM     44  O   UNL     1      20.644  61.822 163.740  1.00  0.00    -0.504 OA
ATOM     45  H   UNL     1      19.994  62.566 163.553  1.00  0.00     0.293 HD
ENDBRANCH  41  44
BRANCH  43  46
ATOM     46  O   UNL     1      19.249  61.215 166.221  1.00  0.00    -0.504 OA
ATOM     47  H   UNL     1      19.617  62.158 166.207  1.00  0.00     0.293 HD
ENDBRANCH  43  46
ENDBRANCH  28  38
BRANCH  34  48
ATOM     48  O   UNL     1      21.814  53.211 159.293  1.00  0.00    -0.507 OA
ATOM     49  H   UNL     1      22.523  52.859 159.918  1.00  0.00     0.293 HD
ENDBRANCH  34  48
BRANCH  37  50
ATOM     50  O   UNL     1      17.011  53.413 159.162  1.00  0.00    -0.508 OA
ATOM     51  H   UNL     1      16.165  53.407 159.735  1.00  0.00     0.293 HD
ENDBRANCH  37  50
ENDBRANCH  26  27
ENDBRANCH   5  26
BRANCH   4  52
ATOM     52  O   UNL     1      25.640  59.394 162.248  1.00  0.00    -0.384 OA
ATOM     53  H   UNL     1      25.962  60.311 162.069  1.00  0.00     0.211 HD
ENDBRANCH   4  52
TORSDOF 16
ENDMDL
MODEL 8
REMARK VINA RESULT:    -8.450      2.368      5.179
REMARK INTER + INTRA:         -15.866
REMARK INTER:                 -13.891
REMARK INTRA:                  -1.975
REMARK UNBOUND:                -1.983
REMARK SMILES C[C@@H]1O[C@@H](OC[C@H]2O[C@H](Oc3c(-c4ccc(O)c(O)c4)oc4cc(O)cc(O)c4c3=O)[C@@H](O)[C@H](O)[C@H]2O)[C@H](O)[C@@H](O)[C@H]1O
REMARK SMILES IDX 7 1 36 2 34 3 32 4 9 5 8 6 6 7 5 8 4 9 1 10 2 11 42 12 3 13
REMARK SMILES IDX 40 14 38 15 43 16 41 18 39 20 37 22 35 24 10 26 11 27 12 28
REMARK SMILES IDX 30 29 21 30 29 31 31 32 22 33 27 34 23 35 26 36 24 37 13 38
REMARK SMILES IDX 20 39 14 40 18 41 15 42 16 43 19 44 17 46 28 48 25 50 33 52
REMARK H PARENT 43 17 41 19 39 21 37 23 35 25 19 45 17 47 28 49 25 51 33 53
REMARK Flexibility Score: inf
ROOT
ATOM      1  C   UNL     1      19.842  58.311 161.721  1.00  0.00     0.180 C 
ATOM      2  C   UNL     1      19.208  57.943 163.071  1.00  0.00     0.177 C 
ATOM      3  C   UNL     1      18.088  56.960 162.739  1.00  0.00     0.180 C 
ATOM      4  C   UNL     1      18.629  55.714 161.960  1.00  0.00     0.214 C 
ATOM      5  C   UNL     1      19.990  55.971 161.171  1.00  0.00     0.339 C 
ATOM      6  O   UNL     1      20.635  57.252 161.249  1.00  0.00    -0.332 OA
ENDROOT
BRANCH   1   7
ATOM      7  C   UNL     1      20.698  59.594 161.882  1.00  0.00     0.198 C 
BRANCH   7   8
ATOM      8  O   UNL     1      22.024  59.300 161.425  1.00  0.00    -0.347 OA
BRANCH   8   9
ATOM      9  C   UNL     1      23.093  59.434 162.381  1.00  0.00     0.281 C 
ATOM     10  C   UNL     1      25.911  58.211 160.375  1.00  0.00     0.041 C 
ATOM     11  C   UNL     1      24.857  58.212 161.487  1.00  0.00     0.150 C 
ATOM     12  C   UNL     1      25.481  57.747 162.803  1.00  0.00     0.174 C 
ATOM     13  O   UNL     1      24.332  59.514 161.686  1.00  0.00    -0.344 OA
ATOM     14  C   UNL     1      24.672  58.285 164.026  1.00  0.00     0.179 C 
ATOM     15  C   UNL     1      23.189  58.498 163.656  1.00  0.00     0.202 C 
BRANCH  12  16
ATOM     16  O   UNL     1      25.607  56.340 162.856  1.00  0.00    -0.388 OA
ATOM     17  H   UNL     1      25.807  56.048 161.918  1.00  0.00     0.211 HD
ENDBRANCH  12  16
BRANCH  14  18
ATOM     18  O   UNL     1      24.853  57.476 165.169  1.00  0.00    -0.387 OA
ATOM     19  H   UNL     1      25.771  57.096 165.186  1.00  0.00     0.211 HD
ENDBRANCH  14  18
BRANCH  15  20
ATOM     20  O   UNL     1      22.515  59.076 164.767  1.00  0.00    -0.385 OA
ATOM     21  H   UNL     1      23.052  58.912 165.588  1.00  0.00     0.211 HD
ENDBRANCH  15  20
ENDBRANCH   8   9
ENDBRANCH   7   8
ENDBRANCH   1   7
BRANCH   2  22
ATOM     22  O   UNL     1      20.148  57.327 163.912  1.00  0.00    -0.387 OA
ATOM     23  H   UNL     1      20.889  57.010 163.313  1.00  0.00     0.211 HD
ENDBRANCH   2  22
BRANCH   3  24
ATOM     24  O   UNL     1      17.012  57.623 162.087  1.00  0.00    -0.387 OA
ATOM     25  H   UNL     1      16.329  56.968 161.799  1.00  0.00     0.211 HD
ENDBRANCH   3  24
BRANCH   5  26
ATOM     26  O   UNL     1      19.839  55.608 159.785  1.00  0.00    -0.454 OA
BRANCH  26  27
ATOM     27  C   UNL     1      18.583  55.522 159.153  1.00  0.00     0.214 A 
ATOM     28  C   UNL     1      18.015  56.602 158.419  1.00  0.00     0.180 A 
ATOM     29  C   UNL     1      17.817  54.350 159.269  1.00  0.00     0.239 A 
ATOM     30  O   UNL     1      16.907  56.387 157.699  1.00  0.00    -0.452 OA
ATOM     31  C   UNL     1      16.690  54.144 158.459  1.00  0.00     0.111 A 
ATOM     32  O   UNL     1      18.089  53.531 160.181  1.00  0.00    -0.285 OA
ATOM     33  C   UNL     1      16.265  55.224 157.662  1.00  0.00     0.146 A 
ATOM     34  C   UNL     1      15.960  52.925 158.436  1.00  0.00     0.134 A 
ATOM     35  C   UNL     1      15.102  55.122 156.886  1.00  0.00     0.094 A 
ATOM     36  C   UNL     1      14.771  52.863 157.713  1.00  0.00     0.093 A 
ATOM     37  C   UNL     1      14.359  53.929 156.912  1.00  0.00     0.123 A 
BRANCH  28  38
ATOM     38  C   UNL     1      18.488  58.045 158.466  1.00  0.00     0.025 A 
ATOM     39  C   UNL     1      17.616  59.018 159.008  1.00  0.00     0.062 A 
ATOM     40  C   UNL     1      19.789  58.467 158.102  1.00  0.00     0.016 A 
ATOM     41  C   UNL     1      18.026  60.331 159.248  1.00  0.00     0.158 A 
ATOM     42  C   UNL     1      20.188  59.793 158.295  1.00  0.00     0.051 A 
ATOM     43  C   UNL     1      19.324  60.729 158.859  1.00  0.00     0.157 A 
BRANCH  41  44
ATOM     44  O   UNL     1      17.134  61.208 159.864  1.00  0.00    -0.504 OA
ATOM     45  H   UNL     1      17.400  62.082 160.283  1.00  0.00     0.293 HD
ENDBRANCH  41  44
BRANCH  43  46
ATOM     46  O   UNL     1      19.777  62.049 158.983  1.00  0.00    -0.504 OA
ATOM     47  H   UNL     1      19.781  62.571 159.850  1.00  0.00     0.293 HD
ENDBRANCH  43  46
ENDBRANCH  28  38
BRANCH  34  48
ATOM     48  O   UNL     1      16.394  51.759 159.085  1.00  0.00    -0.507 OA
ATOM     49  H   UNL     1      16.017  50.854 158.849  1.00  0.00     0.293 HD
ENDBRANCH  34  48
BRANCH  37  50
ATOM     50  O   UNL     1      13.199  53.830 156.148  1.00  0.00    -0.508 OA
ATOM     51  H   UNL     1      13.195  53.352 155.244  1.00  0.00     0.293 HD
ENDBRANCH  37  50
ENDBRANCH  26  27
ENDBRANCH   5  26
BRANCH   4  52
ATOM     52  O   UNL     1      18.820  54.717 162.948  1.00  0.00    -0.384 OA
ATOM     53  H   UNL     1      19.788  54.550 163.053  1.00  0.00     0.211 HD
ENDBRANCH   4  52
TORSDOF 16
ENDMDL
MODEL 9
REMARK VINA RESULT:    -8.358      2.830      6.017
REMARK INTER + INTRA:         -15.716
REMARK INTER:                 -13.185
REMARK INTRA:                  -2.531
REMARK UNBOUND:                -1.983
REMARK SMILES C[C@@H]1O[C@@H](OC[C@H]2O[C@H](Oc3c(-c4ccc(O)c(O)c4)oc4cc(O)cc(O)c4c3=O)[C@@H](O)[C@H](O)[C@H]2O)[C@H](O)[C@@H](O)[C@H]1O
REMARK SMILES IDX 7 1 36 2 34 3 32 4 9 5 8 6 6 7 5 8 4 9 1 10 2 11 42 12 3 13
REMARK SMILES IDX 40 14 38 15 43 16 41 18 39 20 37 22 35 24 10 26 11 27 12 28
REMARK SMILES IDX 30 29 21 30 29 31 31 32 22 33 27 34 23 35 26 36 24 37 13 38
REMARK SMILES IDX 20 39 14 40 18 41 15 42 16 43 19 44 17 46 28 48 25 50 33 52
REMARK H PARENT 43 17 41 19 39 21 37 23 35 25 19 45 17 47 28 49 25 51 33 53
REMARK Flexibility Score: inf
ROOT
ATOM      1  C   UNL     1      22.074  56.914 160.981  1.00  0.00     0.180 C 
ATOM      2  C   UNL     1      21.414  56.926 162.367  1.00  0.00     0.177 C 
ATOM      3  C   UNL     1      19.936  57.212 162.111  1.00  0.00     0.180 C 
ATOM      4  C   UNL     1      19.305  56.153 161.145  1.00  0.00     0.214 C 
ATOM      5  C   UNL     1      20.355  55.425 160.192  1.00  0.00     0.339 C 
ATOM      6  O   UNL     1      21.754  55.730 160.296  1.00  0.00    -0.332 OA
ENDROOT
BRANCH   1   7
ATOM      7  C   UNL     1      23.611  57.048 161.136  1.00  0.00     0.198 C 
BRANCH   7   8
ATOM      8  O   UNL     1      24.053  58.099 160.268  1.00  0.00    -0.347 OA
BRANCH   8   9
ATOM      9  C   UNL     1      23.128  59.173 160.014  1.00  0.00     0.281 C 
ATOM     10  C   UNL     1      24.493  60.474 156.867  1.00  0.00     0.041 C 
ATOM     11  C   UNL     1      24.133  60.455 158.357  1.00  0.00     0.150 C 
ATOM     12  C   UNL     1      23.586  61.819 158.782  1.00  0.00     0.174 C 
ATOM     13  O   UNL     1      23.139  59.481 158.625  1.00  0.00    -0.344 OA
ATOM     14  C   UNL     1      22.680  61.688 160.047  1.00  0.00     0.179 C 
ATOM     15  C   UNL     1      23.108  60.481 160.910  1.00  0.00     0.202 C 
BRANCH  12  16
ATOM     16  O   UNL     1      24.621  62.757 158.993  1.00  0.00    -0.388 OA
ATOM     17  H   UNL     1      25.328  62.273 159.513  1.00  0.00     0.211 HD
ENDBRANCH  12  16
BRANCH  14  18
ATOM     18  O   UNL     1      22.614  62.897 160.771  1.00  0.00    -0.387 OA
ATOM     19  H   UNL     1      22.570  62.717 161.748  1.00  0.00     0.211 HD
ENDBRANCH  14  18
BRANCH  15  20
ATOM     20  O   UNL     1      22.199  60.345 161.995  1.00  0.00    -0.385 OA
ATOM     21  H   UNL     1      21.629  59.547 161.836  1.00  0.00     0.211 HD
ENDBRANCH  15  20
ENDBRANCH   8   9
ENDBRANCH   7   8
ENDBRANCH   1   7
BRANCH   2  22
ATOM     22  O   UNL     1      21.556  55.679 162.998  1.00  0.00    -0.387 OA
ATOM     23  H   UNL     1      20.644  55.259 162.985  1.00  0.00     0.211 HD
ENDBRANCH   2  22
BRANCH   3  24
ATOM     24  O   UNL     1      19.748  58.557 161.692  1.00  0.00    -0.387 OA
ATOM     25  H   UNL     1      18.868  58.661 161.253  1.00  0.00     0.211 HD
ENDBRANCH   3  24
BRANCH   5  26
ATOM     26  O   UNL     1      19.950  55.552 158.815  1.00  0.00    -0.454 OA
BRANCH  26  27
ATOM     27  C   UNL     1      18.605  55.463 158.406  1.00  0.00     0.214 A 
ATOM     28  C   UNL     1      17.833  56.603 158.042  1.00  0.00     0.180 A 
ATOM     29  C   UNL     1      17.958  54.215 158.385  1.00  0.00     0.239 A 
ATOM     30  O   UNL     1      16.625  56.422 157.493  1.00  0.00    -0.452 OA
ATOM     31  C   UNL     1      16.714  54.060 157.756  1.00  0.00     0.111 A 
ATOM     32  O   UNL     1      18.457  53.260 159.029  1.00  0.00    -0.285 OA
ATOM     33  C   UNL     1      16.071  55.229 157.308  1.00  0.00     0.146 A 
ATOM     34  C   UNL     1      16.080  52.800 157.585  1.00  0.00     0.134 A 
ATOM     35  C   UNL     1      14.790  55.164 156.740  1.00  0.00     0.094 A 
ATOM     36  C   UNL     1      14.781  52.759 157.082  1.00  0.00     0.093 A 
ATOM     37  C   UNL     1      14.151  53.917 156.624  1.00  0.00     0.123 A 
BRANCH  28  38
ATOM     38  C   UNL     1      18.205  58.048 158.330  1.00  0.00     0.025 A 
ATOM     39  C   UNL     1      17.242  58.875 158.955  1.00  0.00     0.062 A 
ATOM     40  C   UNL     1      19.492  58.595 158.113  1.00  0.00     0.016 A 
ATOM     41  C   UNL     1      17.550  60.158 159.411  1.00  0.00     0.158 A 
ATOM     42  C   UNL     1      19.790  59.898 158.524  1.00  0.00     0.051 A 
ATOM     43  C   UNL     1      18.837  60.686 159.166  1.00  0.00     0.157 A 
BRANCH  41  44
ATOM     44  O   UNL     1      16.571  60.878 160.094  1.00  0.00    -0.504 OA
ATOM     45  H   UNL     1      15.583  60.710 160.009  1.00  0.00     0.293 HD
ENDBRANCH  41  44
BRANCH  43  46
ATOM     46  O   UNL     1      19.193  61.997 159.510  1.00  0.00    -0.504 OA
ATOM     47  H   UNL     1      19.831  62.572 158.975  1.00  0.00     0.293 HD
ENDBRANCH  43  46
ENDBRANCH  28  38
BRANCH  34  48
ATOM     48  O   UNL     1      16.710  51.579 157.870  1.00  0.00    -0.507 OA
ATOM     49  H   UNL     1      16.258  50.871 158.428  1.00  0.00     0.293 HD
ENDBRANCH  34  48
BRANCH  37  50
ATOM     50  O   UNL     1      12.875  53.853 156.069  1.00  0.00    -0.508 OA
ATOM     51  H   UNL     1      12.726  53.949 155.062  1.00  0.00     0.293 HD
ENDBRANCH  37  50
ENDBRANCH  26  27
ENDBRANCH   5  26
BRANCH   4  52
ATOM     52  O   UNL     1      18.679  55.208 161.994  1.00  0.00    -0.384 OA
ATOM     53  H   UNL     1      17.882  55.624 162.403  1.00  0.00     0.211 HD
ENDBRANCH   4  52
TORSDOF 16
ENDMDL
