MODEL 1
REMARK VINA RESULT:    -4.714      0.000      0.000
REMARK INTER + INTRA:         -10.139
REMARK INTER:                  -8.848
REMARK INTRA:                  -1.291
REMARK UNBOUND:                -1.291
REMARK SMILES CCCCCCCCC=CCCCCCCCC(=O)[O-]
REMARK SMILES IDX 10 1 9 2 11 3 12 4 13 5 14 6 15 7 16 8 17 9 18 10 19 11
REMARK SMILES IDX 20 12 8 13 7 14 6 15 5 16 4 17 3 18 2 19 1 20
REMARK H PARENT
REMARK Flexibility Score: inf
ROOT
ATOM      1  C   UNL     1      43.748  27.069   2.217  1.00  0.00    -0.031 C 
ATOM      2  C   UNL     1      45.022  26.918   1.823  1.00  0.00    -0.031 C 
ENDROOT
BRANCH   1   3
ATOM      3  C   UNL     1      42.769  27.893   1.426  1.00  0.00     0.027 C 
BRANCH   3   4
ATOM      4  C   UNL     1      42.584  27.376  -0.012  1.00  0.00     0.004 C 
BRANCH   4   5
ATOM      5  C   UNL     1      42.901  28.412  -1.107  1.00  0.00     0.000 C 
BRANCH   5   6
ATOM      6  C   UNL     1      44.380  28.405  -1.523  1.00  0.00     0.000 C 
BRANCH   6   7
ATOM      7  C   UNL     1      44.720  27.130  -2.309  1.00  0.00     0.000 C 
BRANCH   7   8
ATOM      8  C   UNL     1      44.678  27.343  -3.830  1.00  0.00     0.006 C 
BRANCH   8   9
ATOM      9  C   UNL     1      43.532  26.574  -4.503  1.00  0.00     0.053 C 
BRANCH   9  10
ATOM     10  C   UNL     1      42.843  27.439  -5.509  1.00  0.00     0.041 C 
ATOM     11  O   UNL     1      41.731  27.962  -5.239  1.00  0.00    -0.550 OA
ATOM     12  O   UNL     1      43.407  27.631  -6.765  1.00  0.00    -0.550 OA
ENDBRANCH   9  10
ENDBRANCH   8   9
ENDBRANCH   7   8
ENDBRANCH   6   7
ENDBRANCH   5   6
ENDBRANCH   4   5
ENDBRANCH   3   4
ENDBRANCH   1   3
BRANCH   2  13
ATOM     13  C   UNL     1      46.003  26.116   2.632  1.00  0.00     0.027 C 
BRANCH  13  14
ATOM     14  C   UNL     1      45.346  25.575   3.911  1.00  0.00     0.004 C 
BRANCH  14  15
ATOM     15  C   UNL     1      46.015  26.102   5.189  1.00  0.00     0.000 C 
BRANCH  15  16
ATOM     16  C   UNL     1      45.979  27.637   5.287  1.00  0.00     0.000 C 
BRANCH  16  17
ATOM     17  C   UNL     1      46.461  28.143   6.663  1.00  0.00    -0.000 C 
BRANCH  17  18
ATOM     18  C   UNL     1      45.367  28.855   7.474  1.00  0.00    -0.000 C 
BRANCH  18  19
ATOM     19  C   UNL     1      45.147  28.230   8.858  1.00  0.00    -0.003 C 
ATOM     20  C   UNL     1      45.235  26.708   8.796  1.00  0.00     0.004 C 
ENDBRANCH  18  19
ENDBRANCH  17  18
ENDBRANCH  16  17
ENDBRANCH  15  16
ENDBRANCH  14  15
ENDBRANCH  13  14
ENDBRANCH   2  13
TORSDOF 15
ENDMDL
MODEL 2
REMARK VINA RESULT:    -4.646      1.801      2.786
REMARK INTER + INTRA:         -10.011
REMARK INTER:                  -8.598
REMARK INTRA:                  -1.412
REMARK UNBOUND:                -1.291
REMARK SMILES CCCCCCCCC=CCCCCCCCC(=O)[O-]
REMARK SMILES IDX 10 1 9 2 11 3 12 4 13 5 14 6 15 7 16 8 17 9 18 10 19 11
REMARK SMILES IDX 20 12 8 13 7 14 6 15 5 16 4 17 3 18 2 19 1 20
REMARK H PARENT
REMARK Flexibility Score: inf
ROOT
ATOM      1  C   UNL     1      44.814  27.027   2.585  1.00  0.00    -0.031 C 
ATOM      2  C   UNL     1      44.906  25.840   3.204  1.00  0.00    -0.031 C 
ENDROOT
BRANCH   1   3
ATOM      3  C   UNL     1      43.886  27.239   1.419  1.00  0.00     0.027 C 
BRANCH   3   4
ATOM      4  C   UNL     1      42.450  27.579   1.859  1.00  0.00     0.004 C 
BRANCH   4   5
ATOM      5  C   UNL     1      41.944  28.950   1.373  1.00  0.00     0.000 C 
BRANCH   5   6
ATOM      6  C   UNL     1      42.984  29.706   0.533  1.00  0.00     0.000 C 
BRANCH   6   7
ATOM      7  C   UNL     1      42.475  29.923  -0.900  1.00  0.00     0.000 C 
BRANCH   7   8
ATOM      8  C   UNL     1      42.797  28.742  -1.829  1.00  0.00     0.006 C 
BRANCH   8   9
ATOM      9  C   UNL     1      44.304  28.551  -2.044  1.00  0.00     0.053 C 
BRANCH   9  10
ATOM     10  C   UNL     1      44.597  27.152  -2.481  1.00  0.00     0.041 C 
ATOM     11  O   UNL     1      45.263  26.942  -3.529  1.00  0.00    -0.550 OA
ATOM     12  O   UNL     1      44.094  26.077  -1.759  1.00  0.00    -0.550 OA
ENDBRANCH   9  10
ENDBRANCH   8   9
ENDBRANCH   7   8
ENDBRANCH   6   7
ENDBRANCH   5   6
ENDBRANCH   4   5
ENDBRANCH   3   4
ENDBRANCH   1   3
BRANCH   2  13
ATOM     13  C   UNL     1      45.856  25.627   4.350  1.00  0.00     0.027 C 
BRANCH  13  14
ATOM     14  C   UNL     1      46.448  26.962   4.828  1.00  0.00     0.004 C 
BRANCH  14  15
ATOM     15  C   UNL     1      46.749  26.971   6.334  1.00  0.00     0.000 C 
BRANCH  15  16
ATOM     16  C   UNL     1      45.699  26.199   7.153  1.00  0.00     0.000 C 
BRANCH  16  17
ATOM     17  C   UNL     1      45.710  26.605   8.642  1.00  0.00    -0.000 C 
BRANCH  17  18
ATOM     18  C   UNL     1      46.104  28.073   8.875  1.00  0.00    -0.000 C 
BRANCH  18  19
ATOM     19  C   UNL     1      44.922  29.040   8.728  1.00  0.00    -0.003 C 
ATOM     20  C   UNL     1      45.195  30.082   7.647  1.00  0.00     0.004 C 
ENDBRANCH  18  19
ENDBRANCH  17  18
ENDBRANCH  16  17
ENDBRANCH  15  16
ENDBRANCH  14  15
ENDBRANCH  13  14
ENDBRANCH   2  13
TORSDOF 15
ENDMDL
MODEL 3
REMARK VINA RESULT:    -4.531      2.647      4.013
REMARK INTER + INTRA:          -9.795
REMARK INTER:                  -7.694
REMARK INTRA:                  -2.100
REMARK UNBOUND:                -1.291
REMARK SMILES CCCCCCCCC=CCCCCCCCC(=O)[O-]
REMARK SMILES IDX 10 1 9 2 11 3 12 4 13 5 14 6 15 7 16 8 17 9 18 10 19 11
REMARK SMILES IDX 20 12 8 13 7 14 6 15 5 16 4 17 3 18 2 19 1 20
REMARK H PARENT
REMARK Flexibility Score: inf
ROOT
ATOM      1  C   UNL     1      43.457  26.780  -0.781  1.00  0.00    -0.031 C 
ATOM      2  C   UNL     1      42.897  27.885  -0.265  1.00  0.00    -0.031 C 
ENDROOT
BRANCH   1   3
ATOM      3  C   UNL     1      44.168  26.800  -2.106  1.00  0.00     0.027 C 
BRANCH   3   4
ATOM      4  C   UNL     1      45.238  27.904  -2.188  1.00  0.00     0.004 C 
BRANCH   4   5
ATOM      5  C   UNL     1      46.280  27.700  -3.304  1.00  0.00     0.000 C 
BRANCH   5   6
ATOM      6  C   UNL     1      45.738  26.873  -4.480  1.00  0.00     0.000 C 
BRANCH   6   7
ATOM      7  C   UNL     1      45.704  27.711  -5.767  1.00  0.00     0.000 C 
BRANCH   7   8
ATOM      8  C   UNL     1      44.389  27.549  -6.545  1.00  0.00     0.006 C 
BRANCH   8   9
ATOM      9  C   UNL     1      43.232  27.069  -5.658  1.00  0.00     0.053 C 
BRANCH   9  10
ATOM     10  C   UNL     1      42.270  28.186  -5.406  1.00  0.00     0.041 C 
ATOM     11  O   UNL     1      41.507  28.584  -6.325  1.00  0.00    -0.550 OA
ATOM     12  O   UNL     1      42.248  28.820  -4.170  1.00  0.00    -0.550 OA
ENDBRANCH   9  10
ENDBRANCH   8   9
ENDBRANCH   7   8
ENDBRANCH   6   7
ENDBRANCH   5   6
ENDBRANCH   4   5
ENDBRANCH   3   4
ENDBRANCH   1   3
BRANCH   2  13
ATOM     13  C   UNL     1      42.163  27.852   1.046  1.00  0.00     0.027 C 
BRANCH  13  14
ATOM     14  C   UNL     1      42.400  29.146   1.840  1.00  0.00     0.004 C 
BRANCH  14  15
ATOM     15  C   UNL     1      43.846  29.652   1.730  1.00  0.00     0.000 C 
BRANCH  15  16
ATOM     16  C   UNL     1      44.766  29.060   2.813  1.00  0.00     0.000 C 
BRANCH  16  17
ATOM     17  C   UNL     1      46.005  28.368   2.208  1.00  0.00    -0.000 C 
BRANCH  17  18
ATOM     18  C   UNL     1      45.773  26.889   1.855  1.00  0.00    -0.000 C 
BRANCH  18  19
ATOM     19  C   UNL     1      44.839  26.179   2.844  1.00  0.00    -0.003 C 
ATOM     20  C   UNL     1      45.561  25.044   3.565  1.00  0.00     0.004 C 
ENDBRANCH  18  19
ENDBRANCH  17  18
ENDBRANCH  16  17
ENDBRANCH  15  16
ENDBRANCH  14  15
ENDBRANCH  13  14
ENDBRANCH   2  13
TORSDOF 15
ENDMDL
MODEL 4
REMARK VINA RESULT:    -4.431      1.720      2.406
REMARK INTER + INTRA:          -9.608
REMARK INTER:                  -8.306
REMARK INTRA:                  -1.302
REMARK UNBOUND:                -1.291
REMARK SMILES CCCCCCCCC=CCCCCCCCC(=O)[O-]
REMARK SMILES IDX 10 1 9 2 11 3 12 4 13 5 14 6 15 7 16 8 17 9 18 10 19 11
REMARK SMILES IDX 20 12 8 13 7 14 6 15 5 16 4 17 3 18 2 19 1 20
REMARK H PARENT
REMARK Flexibility Score: inf
ROOT
ATOM      1  C   UNL     1      43.746  26.767   1.400  1.00  0.00    -0.031 C 
ATOM      2  C   UNL     1      44.290  26.750   2.626  1.00  0.00    -0.031 C 
ENDROOT
BRANCH   1   3
ATOM      3  C   UNL     1      42.489  27.539   1.105  1.00  0.00     0.027 C 
BRANCH   3   4
ATOM      4  C   UNL     1      42.431  28.885   1.850  1.00  0.00     0.004 C 
BRANCH   4   5
ATOM      5  C   UNL     1      42.235  30.110   0.938  1.00  0.00     0.000 C 
BRANCH   5   6
ATOM      6  C   UNL     1      43.073  30.035  -0.348  1.00  0.00     0.000 C 
BRANCH   6   7
ATOM      7  C   UNL     1      42.170  29.852  -1.577  1.00  0.00     0.000 C 
BRANCH   7   8
ATOM      8  C   UNL     1      42.835  29.014  -2.680  1.00  0.00     0.006 C 
BRANCH   8   9
ATOM      9  C   UNL     1      44.132  28.341  -2.212  1.00  0.00     0.053 C 
BRANCH   9  10
ATOM     10  C   UNL     1      44.189  26.926  -2.692  1.00  0.00     0.041 C 
ATOM     11  O   UNL     1      43.992  25.976  -1.890  1.00  0.00    -0.550 OA
ATOM     12  O   UNL     1      44.507  26.653  -4.017  1.00  0.00    -0.550 OA
ENDBRANCH   9  10
ENDBRANCH   8   9
ENDBRANCH   7   8
ENDBRANCH   6   7
ENDBRANCH   5   6
ENDBRANCH   4   5
ENDBRANCH   3   4
ENDBRANCH   1   3
BRANCH   2  13
ATOM     13  C   UNL     1      45.531  25.954   2.921  1.00  0.00     0.027 C 
BRANCH  13  14
ATOM     14  C   UNL     1      45.995  26.178   4.369  1.00  0.00     0.004 C 
BRANCH  14  15
ATOM     15  C   UNL     1      45.915  27.651   4.796  1.00  0.00     0.000 C 
BRANCH  15  16
ATOM     16  C   UNL     1      46.284  27.861   6.275  1.00  0.00     0.000 C 
BRANCH  16  17
ATOM     17  C   UNL     1      46.543  26.525   7.004  1.00  0.00    -0.000 C 
BRANCH  17  18
ATOM     18  C   UNL     1      45.424  26.132   7.982  1.00  0.00    -0.000 C 
BRANCH  18  19
ATOM     19  C   UNL     1      45.705  26.580   9.422  1.00  0.00    -0.003 C 
ATOM     20  C   UNL     1      46.713  25.657  10.101  1.00  0.00     0.004 C 
ENDBRANCH  18  19
ENDBRANCH  17  18
ENDBRANCH  16  17
ENDBRANCH  15  16
ENDBRANCH  14  15
ENDBRANCH  13  14
ENDBRANCH   2  13
TORSDOF 15
ENDMDL
MODEL 5
REMARK VINA RESULT:    -4.403      4.919     10.089
REMARK INTER + INTRA:          -9.556
REMARK INTER:                  -8.303
REMARK INTRA:                  -1.253
REMARK UNBOUND:                -1.291
REMARK SMILES CCCCCCCCC=CCCCCCCCC(=O)[O-]
REMARK SMILES IDX 10 1 9 2 11 3 12 4 13 5 14 6 15 7 16 8 17 9 18 10 19 11
REMARK SMILES IDX 20 12 8 13 7 14 6 15 5 16 4 17 3 18 2 19 1 20
REMARK H PARENT
REMARK Flexibility Score: inf
ROOT
ATOM      1  C   UNL     1      44.206  26.486   1.995  1.00  0.00    -0.031 C 
ATOM      2  C   UNL     1      43.520  27.629   2.154  1.00  0.00    -0.031 C 
ENDROOT
BRANCH   1   3
ATOM      3  C   UNL     1      45.462  26.205   2.774  1.00  0.00     0.027 C 
BRANCH   3   4
ATOM      4  C   UNL     1      45.175  25.652   4.182  1.00  0.00     0.004 C 
BRANCH   4   5
ATOM      5  C   UNL     1      46.061  26.245   5.292  1.00  0.00     0.000 C 
BRANCH   5   6
ATOM      6  C   UNL     1      46.108  27.781   5.260  1.00  0.00     0.000 C 
BRANCH   6   7
ATOM      7  C   UNL     1      46.512  28.343   6.631  1.00  0.00     0.000 C 
BRANCH   7   8
ATOM      8  C   UNL     1      45.349  28.348   7.635  1.00  0.00     0.006 C 
BRANCH   8   9
ATOM      9  C   UNL     1      45.800  28.021   9.066  1.00  0.00     0.053 C 
BRANCH   9  10
ATOM     10  C   UNL     1      45.719  26.549   9.315  1.00  0.00     0.041 C 
ATOM     11  O   UNL     1      44.882  25.846   8.691  1.00  0.00    -0.550 OA
ATOM     12  O   UNL     1      46.535  25.959  10.273  1.00  0.00    -0.550 OA
ENDBRANCH   9  10
ENDBRANCH   8   9
ENDBRANCH   7   8
ENDBRANCH   6   7
ENDBRANCH   5   6
ENDBRANCH   4   5
ENDBRANCH   3   4
ENDBRANCH   1   3
BRANCH   2  13
ATOM     13  C   UNL     1      42.282  27.916   1.352  1.00  0.00     0.027 C 
BRANCH  13  14
ATOM     14  C   UNL     1      42.397  29.268   0.630  1.00  0.00     0.004 C 
BRANCH  14  15
ATOM     15  C   UNL     1      43.267  29.193  -0.634  1.00  0.00     0.000 C 
BRANCH  15  16
ATOM     16  C   UNL     1      43.076  27.875  -1.406  1.00  0.00     0.000 C 
BRANCH  16  17
ATOM     17  C   UNL     1      44.412  27.318  -1.943  1.00  0.00    -0.000 C 
BRANCH  17  18
ATOM     18  C   UNL     1      44.604  27.529  -3.453  1.00  0.00    -0.000 C 
BRANCH  18  19
ATOM     19  C   UNL     1      43.658  26.670  -4.302  1.00  0.00    -0.003 C 
ATOM     20  C   UNL     1      42.858  27.530  -5.277  1.00  0.00     0.004 C 
ENDBRANCH  18  19
ENDBRANCH  17  18
ENDBRANCH  16  17
ENDBRANCH  15  16
ENDBRANCH  14  15
ENDBRANCH  13  14
ENDBRANCH   2  13
TORSDOF 15
ENDMDL
MODEL 6
REMARK VINA RESULT:    -4.210      4.954     10.385
REMARK INTER + INTRA:          -9.193
REMARK INTER:                  -8.118
REMARK INTRA:                  -1.075
REMARK UNBOUND:                -1.291
REMARK SMILES CCCCCCCCC=CCCCCCCCC(=O)[O-]
REMARK SMILES IDX 10 1 9 2 11 3 12 4 13 5 14 6 15 7 16 8 17 9 18 10 19 11
REMARK SMILES IDX 20 12 8 13 7 14 6 15 5 16 4 17 3 18 2 19 1 20
REMARK H PARENT
REMARK Flexibility Score: inf
ROOT
ATOM      1  C   UNL     1      43.090  27.128   0.351  1.00  0.00    -0.031 C 
ATOM      2  C   UNL     1      44.188  27.078  -0.418  1.00  0.00    -0.031 C 
ENDROOT
BRANCH   1   3
ATOM      3  C   UNL     1      43.180  27.217   1.850  1.00  0.00     0.027 C 
BRANCH   3   4
ATOM      4  C   UNL     1      44.626  27.099   2.366  1.00  0.00     0.004 C 
BRANCH   4   5
ATOM      5  C   UNL     1      44.855  25.944   3.358  1.00  0.00     0.000 C 
BRANCH   5   6
ATOM      6  C   UNL     1      46.302  25.428   3.347  1.00  0.00     0.000 C 
BRANCH   6   7
ATOM      7  C   UNL     1      47.016  25.778   4.661  1.00  0.00     0.000 C 
BRANCH   7   8
ATOM      8  C   UNL     1      46.037  26.038   5.817  1.00  0.00     0.006 C 
BRANCH   8   9
ATOM      9  C   UNL     1      46.734  26.580   7.072  1.00  0.00     0.053 C 
BRANCH   9  10
ATOM     10  C   UNL     1      46.281  25.831   8.285  1.00  0.00     0.041 C 
ATOM     11  O   UNL     1      47.084  25.085   8.904  1.00  0.00    -0.550 OA
ATOM     12  O   UNL     1      44.960  25.919   8.705  1.00  0.00    -0.550 OA
ENDBRANCH   9  10
ENDBRANCH   8   9
ENDBRANCH   7   8
ENDBRANCH   6   7
ENDBRANCH   5   6
ENDBRANCH   4   5
ENDBRANCH   3   4
ENDBRANCH   1   3
BRANCH   2  13
ATOM     13  C   UNL     1      44.092  26.960  -1.914  1.00  0.00     0.027 C 
BRANCH  13  14
ATOM     14  C   UNL     1      44.272  28.331  -2.585  1.00  0.00     0.004 C 
BRANCH  14  15
ATOM     15  C   UNL     1      42.938  28.959  -3.017  1.00  0.00     0.000 C 
BRANCH  15  16
ATOM     16  C   UNL     1      42.864  29.207  -4.534  1.00  0.00     0.000 C 
BRANCH  16  17
ATOM     17  C   UNL     1      42.276  27.998  -5.293  1.00  0.00    -0.000 C 
BRANCH  17  18
ATOM     18  C   UNL     1      43.336  26.982  -5.747  1.00  0.00    -0.000 C 
BRANCH  18  19
ATOM     19  C   UNL     1      44.324  27.565  -6.766  1.00  0.00    -0.003 C 
ATOM     20  C   UNL     1      45.768  27.292  -6.352  1.00  0.00     0.004 C 
ENDBRANCH  18  19
ENDBRANCH  17  18
ENDBRANCH  16  17
ENDBRANCH  15  16
ENDBRANCH  14  15
ENDBRANCH  13  14
ENDBRANCH   2  13
TORSDOF 15
ENDMDL
MODEL 7
REMARK VINA RESULT:    -4.171      1.413      3.276
REMARK INTER + INTRA:          -9.119
REMARK INTER:                  -7.890
REMARK INTRA:                  -1.229
REMARK UNBOUND:                -1.291
REMARK SMILES CCCCCCCCC=CCCCCCCCC(=O)[O-]
REMARK SMILES IDX 10 1 9 2 11 3 12 4 13 5 14 6 15 7 16 8 17 9 18 10 19 11
REMARK SMILES IDX 20 12 8 13 7 14 6 15 5 16 4 17 3 18 2 19 1 20
REMARK H PARENT
REMARK Flexibility Score: inf
ROOT
ATOM      1  C   UNL     1      44.083  27.108  -0.853  1.00  0.00    -0.031 C 
ATOM      2  C   UNL     1      42.952  27.395  -0.190  1.00  0.00    -0.031 C 
ENDROOT
BRANCH   1   3
ATOM      3  C   UNL     1      44.151  27.158  -2.355  1.00  0.00     0.027 C 
BRANCH   3   4
ATOM      4  C   UNL     1      45.327  28.009  -2.867  1.00  0.00     0.004 C 
BRANCH   4   5
ATOM      5  C   UNL     1      46.402  27.216  -3.632  1.00  0.00     0.000 C 
BRANCH   5   6
ATOM      6  C   UNL     1      46.482  27.600  -5.117  1.00  0.00     0.000 C 
BRANCH   6   7
ATOM      7  C   UNL     1      45.305  26.998  -5.900  1.00  0.00     0.000 C 
BRANCH   7   8
ATOM      8  C   UNL     1      44.615  28.024  -6.813  1.00  0.00     0.006 C 
BRANCH   8   9
ATOM      9  C   UNL     1      43.733  29.011  -6.035  1.00  0.00     0.053 C 
BRANCH   9  10
ATOM     10  C   UNL     1      42.307  28.562  -6.051  1.00  0.00     0.041 C 
ATOM     11  O   UNL     1      41.869  27.810  -5.141  1.00  0.00    -0.550 OA
ATOM     12  O   UNL     1      41.472  28.935  -7.097  1.00  0.00    -0.550 OA
ENDBRANCH   9  10
ENDBRANCH   8   9
ENDBRANCH   7   8
ENDBRANCH   6   7
ENDBRANCH   5   6
ENDBRANCH   4   5
ENDBRANCH   3   4
ENDBRANCH   1   3
BRANCH   2  13
ATOM     13  C   UNL     1      42.882  27.316   1.310  1.00  0.00     0.027 C 
BRANCH  13  14
ATOM     14  C   UNL     1      43.879  28.289   1.958  1.00  0.00     0.004 C 
BRANCH  14  15
ATOM     15  C   UNL     1      44.997  27.569   2.726  1.00  0.00     0.000 C 
BRANCH  15  16
ATOM     16  C   UNL     1      44.675  26.087   2.988  1.00  0.00     0.000 C 
BRANCH  16  17
ATOM     17  C   UNL     1      45.592  25.476   4.069  1.00  0.00    -0.000 C 
BRANCH  17  18
ATOM     18  C   UNL     1      46.349  26.525   4.898  1.00  0.00    -0.000 C 
BRANCH  18  19
ATOM     19  C   UNL     1      46.236  26.289   6.409  1.00  0.00    -0.003 C 
ATOM     20  C   UNL     1      45.753  27.545   7.129  1.00  0.00     0.004 C 
ENDBRANCH  18  19
ENDBRANCH  17  18
ENDBRANCH  16  17
ENDBRANCH  15  16
ENDBRANCH  14  15
ENDBRANCH  13  14
ENDBRANCH   2  13
TORSDOF 15
ENDMDL
MODEL 8
REMARK VINA RESULT:    -4.144      4.124      8.687
REMARK INTER + INTRA:          -9.069
REMARK INTER:                  -6.527
REMARK INTRA:                  -2.542
REMARK UNBOUND:                -1.291
REMARK SMILES CCCCCCCCC=CCCCCCCCC(=O)[O-]
REMARK SMILES IDX 10 1 9 2 11 3 12 4 13 5 14 6 15 7 16 8 17 9 18 10 19 11
REMARK SMILES IDX 20 12 8 13 7 14 6 15 5 16 4 17 3 18 2 19 1 20
REMARK H PARENT
REMARK Flexibility Score: inf
ROOT
ATOM      1  C   UNL     1      44.627  27.440  -1.551  1.00  0.00    -0.031 C 
ATOM      2  C   UNL     1      45.534  28.341  -1.958  1.00  0.00    -0.031 C 
ENDROOT
BRANCH   1   3
ATOM      3  C   UNL     1      43.228  27.843  -1.174  1.00  0.00     0.027 C 
BRANCH   3   4
ATOM      4  C   UNL     1      42.693  27.063   0.041  1.00  0.00     0.004 C 
BRANCH   4   5
ATOM      5  C   UNL     1      42.312  27.945   1.244  1.00  0.00     0.000 C 
BRANCH   5   6
ATOM      6  C   UNL     1      43.350  29.040   1.533  1.00  0.00     0.000 C 
BRANCH   6   7
ATOM      7  C   UNL     1      44.397  28.547   2.543  1.00  0.00     0.000 C 
BRANCH   7   8
ATOM      8  C   UNL     1      45.771  28.301   1.900  1.00  0.00     0.006 C 
BRANCH   8   9
ATOM      9  C   UNL     1      46.072  26.809   1.700  1.00  0.00     0.053 C 
BRANCH   9  10
ATOM     10  C   UNL     1      45.971  26.077   3.000  1.00  0.00     0.041 C 
ATOM     11  O   UNL     1      45.256  25.045   3.091  1.00  0.00    -0.550 OA
ATOM     12  O   UNL     1      46.628  26.561   4.124  1.00  0.00    -0.550 OA
ENDBRANCH   9  10
ENDBRANCH   8   9
ENDBRANCH   7   8
ENDBRANCH   6   7
ENDBRANCH   5   6
ENDBRANCH   4   5
ENDBRANCH   3   4
ENDBRANCH   1   3
BRANCH   2  13
ATOM     13  C   UNL     1      46.939  27.936  -2.307  1.00  0.00     0.027 C 
BRANCH  13  14
ATOM     14  C   UNL     1      46.964  27.091  -3.590  1.00  0.00     0.004 C 
BRANCH  14  15
ATOM     15  C   UNL     1      46.640  27.912  -4.846  1.00  0.00     0.000 C 
BRANCH  15  16
ATOM     16  C   UNL     1      45.914  27.086  -5.923  1.00  0.00     0.000 C 
BRANCH  16  17
ATOM     17  C   UNL     1      44.483  27.601  -6.184  1.00  0.00    -0.000 C 
BRANCH  17  18
ATOM     18  C   UNL     1      43.442  27.055  -5.193  1.00  0.00    -0.000 C 
BRANCH  18  19
ATOM     19  C   UNL     1      42.375  28.090  -4.817  1.00  0.00    -0.003 C 
ATOM     20  C   UNL     1      42.994  29.469  -4.604  1.00  0.00     0.004 C 
ENDBRANCH  18  19
ENDBRANCH  17  18
ENDBRANCH  16  17
ENDBRANCH  15  16
ENDBRANCH  14  15
ENDBRANCH  13  14
ENDBRANCH   2  13
TORSDOF 15
ENDMDL
