MODEL 1
REMARK VINA RESULT:    -4.810      0.000      0.000
REMARK INTER + INTRA:          -5.968
REMARK INTER:                  -5.934
REMARK INTRA:                  -0.034
REMARK UNBOUND:                -0.034
REMARK SMILES CCCCCC=O
REMARK SMILES IDX 4 1 3 2 2 3 1 4 5 5 6 6 7 7
REMARK H PARENT
REMARK Flexibility Score: inf
ROOT
ATOM      1  C   UNL     1      23.332  49.517  -4.945  1.00  0.00     0.008 C 
ENDROOT
BRANCH   1   2
ATOM      2  C   UNL     1      23.605  51.003  -4.682  1.00  0.00     0.000 C 
BRANCH   2   3
ATOM      3  C   UNL     1      22.312  51.748  -4.332  1.00  0.00    -0.003 C 
ATOM      4  C   UNL     1      22.523  53.259  -4.354  1.00  0.00     0.004 C 
ENDBRANCH   2   3
ENDBRANCH   1   2
BRANCH   1   5
ATOM      5  C   UNL     1      24.608  48.686  -4.782  1.00  0.00     0.072 C 
BRANCH   5   6
ATOM      6  C   UNL     1      24.619  47.974  -3.463  1.00  0.00     0.224 C 
ATOM      7  O   UNL     1      25.581  47.300  -3.131  1.00  0.00    -0.303 OA
ENDBRANCH   5   6
ENDBRANCH   1   5
TORSDOF 4
ENDMDL
MODEL 2
REMARK VINA RESULT:    -4.810      2.971      4.833
REMARK INTER + INTRA:          -5.968
REMARK INTER:                  -5.906
REMARK INTRA:                  -0.063
REMARK UNBOUND:                -0.034
REMARK SMILES CCCCCC=O
REMARK SMILES IDX 4 1 3 2 2 3 1 4 5 5 6 6 7 7
REMARK H PARENT
REMARK Flexibility Score: inf
ROOT
ATOM      1  C   UNL     1      22.452  51.395  -4.996  1.00  0.00     0.008 C 
ENDROOT
BRANCH   1   2
ATOM      2  C   UNL     1      23.710  50.602  -4.624  1.00  0.00     0.000 C 
BRANCH   2   3
ATOM      3  C   UNL     1      23.570  49.128  -5.022  1.00  0.00    -0.003 C 
ATOM      4  C   UNL     1      24.561  48.255  -4.258  1.00  0.00     0.004 C 
ENDBRANCH   2   3
ENDBRANCH   1   2
BRANCH   1   5
ATOM      5  C   UNL     1      22.505  52.814  -4.420  1.00  0.00     0.072 C 
BRANCH   5   6
ATOM      6  C   UNL     1      22.924  53.802  -5.466  1.00  0.00     0.224 C 
ATOM      7  O   UNL     1      22.859  53.515  -6.651  1.00  0.00    -0.303 OA
ENDBRANCH   5   6
ENDBRANCH   1   5
TORSDOF 4
ENDMDL
MODEL 3
REMARK VINA RESULT:    -4.789      1.333      1.962
REMARK INTER + INTRA:          -5.943
REMARK INTER:                  -5.877
REMARK INTRA:                  -0.066
REMARK UNBOUND:                -0.034
REMARK SMILES CCCCCC=O
REMARK SMILES IDX 4 1 3 2 2 3 1 4 5 5 6 6 7 7
REMARK H PARENT
REMARK Flexibility Score: inf
ROOT
ATOM      1  C   UNL     1      23.298  51.211  -4.850  1.00  0.00     0.008 C 
ENDROOT
BRANCH   1   2
ATOM      2  C   UNL     1      22.225  52.098  -4.208  1.00  0.00     0.000 C 
BRANCH   2   3
ATOM      3  C   UNL     1      22.466  53.577  -4.532  1.00  0.00    -0.003 C 
ATOM      4  C   UNL     1      23.071  53.745  -5.922  1.00  0.00     0.004 C 
ENDBRANCH   2   3
ENDBRANCH   1   2
BRANCH   1   5
ATOM      5  C   UNL     1      23.332  49.826  -4.194  1.00  0.00     0.072 C 
BRANCH   5   6
ATOM      6  C   UNL     1      24.402  48.971  -4.803  1.00  0.00     0.224 C 
ATOM      7  O   UNL     1      24.107  48.002  -5.485  1.00  0.00    -0.303 OA
ENDBRANCH   5   6
ENDBRANCH   1   5
TORSDOF 4
ENDMDL
MODEL 4
REMARK VINA RESULT:    -4.731      3.721      5.394
REMARK INTER + INTRA:          -5.871
REMARK INTER:                  -5.758
REMARK INTRA:                  -0.113
REMARK UNBOUND:                -0.034
REMARK SMILES CCCCCC=O
REMARK SMILES IDX 4 1 3 2 2 3 1 4 5 5 6 6 7 7
REMARK H PARENT
REMARK Flexibility Score: inf
ROOT
ATOM      1  C   UNL     1      22.656  53.913  -5.066  1.00  0.00     0.008 C 
ENDROOT
BRANCH   1   2
ATOM      2  C   UNL     1      22.917  52.675  -4.200  1.00  0.00     0.000 C 
BRANCH   2   3
ATOM      3  C   UNL     1      22.554  51.389  -4.951  1.00  0.00    -0.003 C 
ATOM      4  C   UNL     1      23.506  50.253  -4.590  1.00  0.00     0.004 C 
ENDBRANCH   2   3
ENDBRANCH   1   2
BRANCH   1   5
ATOM      5  C   UNL     1      22.903  53.610  -6.548  1.00  0.00     0.072 C 
BRANCH   5   6
ATOM      6  C   UNL     1      23.519  54.788  -7.240  1.00  0.00     0.224 C 
ATOM      7  O   UNL     1      24.620  55.196  -6.908  1.00  0.00    -0.303 OA
ENDBRANCH   5   6
ENDBRANCH   1   5
TORSDOF 4
ENDMDL
MODEL 5
REMARK VINA RESULT:    -4.484      2.636      3.937
REMARK INTER + INTRA:          -5.567
REMARK INTER:                  -5.494
REMARK INTRA:                  -0.073
REMARK UNBOUND:                -0.034
REMARK SMILES CCCCCC=O
REMARK SMILES IDX 4 1 3 2 2 3 1 4 5 5 6 6 7 7
REMARK H PARENT
REMARK Flexibility Score: inf
ROOT
ATOM      1  C   UNL     1      22.550  53.521  -4.772  1.00  0.00     0.008 C 
ENDROOT
BRANCH   1   2
ATOM      2  C   UNL     1      22.970  53.552  -6.246  1.00  0.00     0.000 C 
BRANCH   2   3
ATOM      3  C   UNL     1      23.696  54.859  -6.585  1.00  0.00    -0.003 C 
ATOM      4  C   UNL     1      24.198  54.854  -8.026  1.00  0.00     0.004 C 
ENDBRANCH   2   3
ENDBRANCH   1   2
BRANCH   1   5
ATOM      5  C   UNL     1      22.197  52.097  -4.331  1.00  0.00     0.072 C 
BRANCH   5   6
ATOM      6  C   UNL     1      23.383  51.188  -4.452  1.00  0.00     0.224 C 
ATOM      7  O   UNL     1      23.271  50.088  -4.969  1.00  0.00    -0.303 OA
ENDBRANCH   5   6
ENDBRANCH   1   5
TORSDOF 4
ENDMDL
MODEL 6
REMARK VINA RESULT:    -4.383      4.806      6.325
REMARK INTER + INTRA:          -5.442
REMARK INTER:                  -5.407
REMARK INTRA:                  -0.035
REMARK UNBOUND:                -0.034
REMARK SMILES CCCCCC=O
REMARK SMILES IDX 4 1 3 2 2 3 1 4 5 5 6 6 7 7
REMARK H PARENT
REMARK Flexibility Score: inf
ROOT
ATOM      1  C   UNL     1      23.178  54.174  -6.886  1.00  0.00     0.008 C 
ENDROOT
BRANCH   1   2
ATOM      2  C   UNL     1      22.813  53.933  -5.417  1.00  0.00     0.000 C 
BRANCH   2   3
ATOM      3  C   UNL     1      23.173  52.507  -4.986  1.00  0.00    -0.003 C 
ATOM      4  C   UNL     1      22.018  51.849  -4.237  1.00  0.00     0.004 C 
ENDBRANCH   2   3
ENDBRANCH   1   2
BRANCH   1   5
ATOM      5  C   UNL     1      24.344  55.162  -7.009  1.00  0.00     0.072 C 
BRANCH   5   6
ATOM      6  C   UNL     1      24.507  55.624  -8.425  1.00  0.00     0.224 C 
ATOM      7  O   UNL     1      25.536  56.175  -8.782  1.00  0.00    -0.303 OA
ENDBRANCH   5   6
ENDBRANCH   1   5
TORSDOF 4
ENDMDL
MODEL 7
REMARK VINA RESULT:    -4.182      5.463      6.895
REMARK INTER + INTRA:          -5.194
REMARK INTER:                  -5.143
REMARK INTRA:                  -0.051
REMARK UNBOUND:                -0.034
REMARK SMILES CCCCCC=O
REMARK SMILES IDX 4 1 3 2 2 3 1 4 5 5 6 6 7 7
REMARK H PARENT
REMARK Flexibility Score: inf
ROOT
ATOM      1  C   UNL     1      24.195  54.728  -6.867  1.00  0.00     0.008 C 
ENDROOT
BRANCH   1   2
ATOM      2  C   UNL     1      22.906  53.901  -6.928  1.00  0.00     0.000 C 
BRANCH   2   3
ATOM      3  C   UNL     1      22.834  52.906  -5.764  1.00  0.00    -0.003 C 
ATOM      4  C   UNL     1      22.500  53.613  -4.454  1.00  0.00     0.004 C 
ENDBRANCH   2   3
ENDBRANCH   1   2
BRANCH   1   5
ATOM      5  C   UNL     1      24.296  55.679  -8.065  1.00  0.00     0.072 C 
BRANCH   5   6
ATOM      6  C   UNL     1      25.676  56.252  -8.180  1.00  0.00     0.224 C 
ATOM      7  O   UNL     1      25.847  57.367  -8.644  1.00  0.00    -0.303 OA
ENDBRANCH   5   6
ENDBRANCH   1   5
TORSDOF 4
ENDMDL
MODEL 8
REMARK VINA RESULT:    -4.007      5.564      6.912
REMARK INTER + INTRA:          -4.978
REMARK INTER:                  -4.944
REMARK INTRA:                  -0.034
REMARK UNBOUND:                -0.034
REMARK SMILES CCCCCC=O
REMARK SMILES IDX 4 1 3 2 2 3 1 4 5 5 6 6 7 7
REMARK H PARENT
REMARK Flexibility Score: inf
ROOT
ATOM      1  C   UNL     1      24.610  55.149  -7.330  1.00  0.00     0.008 C 
ENDROOT
BRANCH   1   2
ATOM      2  C   UNL     1      24.737  55.880  -8.672  1.00  0.00     0.000 C 
BRANCH   2   3
ATOM      3  C   UNL     1      24.939  57.384  -8.463  1.00  0.00    -0.003 C 
ATOM      4  C   UNL     1      26.220  57.867  -9.137  1.00  0.00     0.004 C 
ENDBRANCH   2   3
ENDBRANCH   1   2
BRANCH   1   5
ATOM      5  C   UNL     1      23.237  54.482  -7.194  1.00  0.00     0.072 C 
BRANCH   5   6
ATOM      6  C   UNL     1      23.155  53.675  -5.934  1.00  0.00     0.224 C 
ATOM      7  O   UNL     1      22.482  54.062  -4.993  1.00  0.00    -0.303 OA
ENDBRANCH   5   6
ENDBRANCH   1   5
TORSDOF 4
ENDMDL
