MODEL 1
REMARK VINA RESULT:    -4.304      0.000      0.000
REMARK INTER + INTRA:          -4.572
REMARK INTER:                  -4.556
REMARK INTRA:                  -0.016
REMARK UNBOUND:                -0.016
REMARK SMILES O=C([O-])c1cccnc1
REMARK SMILES IDX 4 1 5 2 9 3 6 4 8 5 7 6 2 7 1 8 3 9
REMARK H PARENT
REMARK Flexibility Score: inf
ROOT
ATOM      1  C   UNL     1       2.986  -3.429  27.275  1.00  0.00     0.016 A 
ATOM      2  C   UNL     1       1.737  -2.905  26.903  1.00  0.00     0.013 A 
ATOM      3  C   UNL     1       3.970  -3.580  26.282  1.00  0.00     0.120 A 
ATOM      4  C   UNL     1       1.495  -2.546  25.575  1.00  0.00     0.021 A 
ATOM      5  N   UNL     1       3.708  -3.223  24.996  1.00  0.00    -0.264 NA
ATOM      6  C   UNL     1       2.503  -2.715  24.626  1.00  0.00     0.111 A 
ENDROOT
BRANCH   1   7
ATOM      7  C   UNL     1       3.255  -3.812  28.677  1.00  0.00     0.073 C 
ATOM      8  O   UNL     1       3.708  -2.969  29.496  1.00  0.00    -0.545 OA
ATOM      9  O   UNL     1       3.012  -5.109  29.112  1.00  0.00    -0.545 OA
ENDBRANCH   1   7
TORSDOF 1
ENDMDL
MODEL 2
REMARK VINA RESULT:    -4.294      0.056      1.076
REMARK INTER + INTRA:          -4.561
REMARK INTER:                  -4.545
REMARK INTRA:                  -0.016
REMARK UNBOUND:                -0.016
REMARK SMILES O=C([O-])c1cccnc1
REMARK SMILES IDX 4 1 5 2 9 3 6 4 8 5 7 6 2 7 1 8 3 9
REMARK H PARENT
REMARK Flexibility Score: inf
ROOT
ATOM      1  C   UNL     1       2.957  -3.449  27.273  1.00  0.00     0.016 A 
ATOM      2  C   UNL     1       1.714  -2.912  26.898  1.00  0.00     0.013 A 
ATOM      3  C   UNL     1       3.948  -3.591  26.286  1.00  0.00     0.120 A 
ATOM      4  C   UNL     1       1.485  -2.533  25.574  1.00  0.00     0.021 A 
ATOM      5  N   UNL     1       3.698  -3.215  25.003  1.00  0.00    -0.264 NA
ATOM      6  C   UNL     1       2.500  -2.694  24.631  1.00  0.00     0.111 A 
ENDROOT
BRANCH   1   7
ATOM      7  C   UNL     1       3.212  -3.853  28.672  1.00  0.00     0.073 C 
ATOM      8  O   UNL     1       2.964  -5.026  29.056  1.00  0.00    -0.545 OA
ATOM      9  O   UNL     1       3.731  -2.941  29.584  1.00  0.00    -0.545 OA
ENDBRANCH   1   7
TORSDOF 1
ENDMDL
MODEL 3
REMARK VINA RESULT:    -4.180      2.519      3.020
REMARK INTER + INTRA:          -4.440
REMARK INTER:                  -4.416
REMARK INTRA:                  -0.024
REMARK UNBOUND:                -0.016
REMARK SMILES O=C([O-])c1cccnc1
REMARK SMILES IDX 4 1 5 2 9 3 6 4 8 5 7 6 2 7 1 8 3 9
REMARK H PARENT
REMARK Flexibility Score: inf
ROOT
ATOM      1  C   UNL     1       4.102  -3.472  26.037  1.00  0.00     0.016 A 
ATOM      2  C   UNL     1       3.327  -3.052  24.944  1.00  0.00     0.013 A 
ATOM      3  C   UNL     1       3.503  -3.502  27.308  1.00  0.00     0.120 A 
ATOM      4  C   UNL     1       1.995  -2.678  25.131  1.00  0.00     0.021 A 
ATOM      5  N   UNL     1       2.203  -3.131  27.464  1.00  0.00    -0.264 NA
ATOM      6  C   UNL     1       1.445  -2.725  26.412  1.00  0.00     0.111 A 
ENDROOT
BRANCH   1   7
ATOM      7  C   UNL     1       5.514  -3.871  25.851  1.00  0.00     0.073 C 
ATOM      8  O   UNL     1       6.031  -3.881  24.703  1.00  0.00    -0.545 OA
ATOM      9  O   UNL     1       6.289  -4.243  26.943  1.00  0.00    -0.545 OA
ENDBRANCH   1   7
TORSDOF 1
ENDMDL
MODEL 4
REMARK VINA RESULT:    -4.105     20.334     20.934
REMARK INTER + INTRA:          -4.361
REMARK INTER:                  -4.342
REMARK INTRA:                  -0.019
REMARK UNBOUND:                -0.016
REMARK SMILES O=C([O-])c1cccnc1
REMARK SMILES IDX 4 1 5 2 9 3 6 4 8 5 7 6 2 7 1 8 3 9
REMARK H PARENT
REMARK Flexibility Score: inf
ROOT
ATOM      1  C   UNL     1       9.916  14.418  18.608  1.00  0.00     0.016 A 
ATOM      2  C   UNL     1       9.193  13.665  17.668  1.00  0.00     0.013 A 
ATOM      3  C   UNL     1       9.201  15.125  19.591  1.00  0.00     0.120 A 
ATOM      4  C   UNL     1       7.799  13.630  17.722  1.00  0.00     0.021 A 
ATOM      5  N   UNL     1       7.842  15.074  19.620  1.00  0.00    -0.264 NA
ATOM      6  C   UNL     1       7.134  14.348  18.715  1.00  0.00     0.111 A 
ENDROOT
BRANCH   1   7
ATOM      7  C   UNL     1      11.393  14.463  18.562  1.00  0.00     0.073 C 
ATOM      8  O   UNL     1      11.993  14.729  17.487  1.00  0.00    -0.545 OA
ATOM      9  O   UNL     1      12.141  14.212  19.707  1.00  0.00    -0.545 OA
ENDBRANCH   1   7
TORSDOF 1
ENDMDL
MODEL 5
REMARK VINA RESULT:    -4.015     20.244     20.862
REMARK INTER + INTRA:          -4.266
REMARK INTER:                  -4.245
REMARK INTRA:                  -0.021
REMARK UNBOUND:                -0.016
REMARK SMILES O=C([O-])c1cccnc1
REMARK SMILES IDX 4 1 5 2 9 3 6 4 8 5 7 6 2 7 1 8 3 9
REMARK H PARENT
REMARK Flexibility Score: inf
ROOT
ATOM      1  C   UNL     1       9.300  14.384  18.956  1.00  0.00     0.016 A 
ATOM      2  C   UNL     1      10.270  14.196  17.959  1.00  0.00     0.013 A 
ATOM      3  C   UNL     1       9.731  14.672  20.263  1.00  0.00     0.120 A 
ATOM      4  C   UNL     1      11.627  14.296  18.274  1.00  0.00     0.021 A 
ATOM      5  N   UNL     1      11.059  14.764  20.543  1.00  0.00    -0.264 NA
ATOM      6  C   UNL     1      12.006  14.584  19.585  1.00  0.00     0.111 A 
ENDROOT
BRANCH   1   7
ATOM      7  C   UNL     1       7.860  14.280  18.636  1.00  0.00     0.073 C 
ATOM      8  O   UNL     1       7.448  13.427  17.806  1.00  0.00    -0.545 OA
ATOM      9  O   UNL     1       6.941  15.124  19.247  1.00  0.00    -0.545 OA
ENDBRANCH   1   7
TORSDOF 1
ENDMDL
MODEL 6
REMARK VINA RESULT:    -4.009      2.397      3.218
REMARK INTER + INTRA:          -4.260
REMARK INTER:                  -4.241
REMARK INTRA:                  -0.019
REMARK UNBOUND:                -0.016
REMARK SMILES O=C([O-])c1cccnc1
REMARK SMILES IDX 4 1 5 2 9 3 6 4 8 5 7 6 2 7 1 8 3 9
REMARK H PARENT
REMARK Flexibility Score: inf
ROOT
ATOM      1  C   UNL     1       3.521  -3.548  25.991  1.00  0.00     0.016 A 
ATOM      2  C   UNL     1       3.770  -4.099  24.723  1.00  0.00     0.013 A 
ATOM      3  C   UNL     1       4.599  -3.409  26.882  1.00  0.00     0.120 A 
ATOM      4  C   UNL     1       5.062  -4.494  24.372  1.00  0.00     0.021 A 
ATOM      5  N   UNL     1       5.849  -3.803  26.515  1.00  0.00    -0.264 NA
ATOM      6  C   UNL     1       6.099  -4.337  25.291  1.00  0.00     0.111 A 
ENDROOT
BRANCH   1   7
ATOM      7  C   UNL     1       2.157  -3.125  26.374  1.00  0.00     0.073 C 
ATOM      8  O   UNL     1       1.640  -3.528  27.450  1.00  0.00    -0.545 OA
ATOM      9  O   UNL     1       1.426  -2.276  25.552  1.00  0.00    -0.545 OA
ENDBRANCH   1   7
TORSDOF 1
ENDMDL
MODEL 7
REMARK VINA RESULT:    -3.897      2.486      3.041
REMARK INTER + INTRA:          -4.141
REMARK INTER:                  -4.117
REMARK INTRA:                  -0.024
REMARK UNBOUND:                -0.016
REMARK SMILES O=C([O-])c1cccnc1
REMARK SMILES IDX 4 1 5 2 9 3 6 4 8 5 7 6 2 7 1 8 3 9
REMARK H PARENT
REMARK Flexibility Score: inf
ROOT
ATOM      1  C   UNL     1       4.234  -3.607  26.116  1.00  0.00     0.016 A 
ATOM      2  C   UNL     1       3.678  -3.653  27.405  1.00  0.00     0.013 A 
ATOM      3  C   UNL     1       3.427  -3.159  25.056  1.00  0.00     0.120 A 
ATOM      4  C   UNL     1       2.355  -3.259  27.612  1.00  0.00     0.021 A 
ATOM      5  N   UNL     1       2.141  -2.781  25.284  1.00  0.00    -0.264 NA
ATOM      6  C   UNL     1       1.594  -2.821  26.528  1.00  0.00     0.111 A 
ENDROOT
BRANCH   1   7
ATOM      7  C   UNL     1       5.634  -4.021  25.885  1.00  0.00     0.073 C 
ATOM      8  O   UNL     1       6.359  -4.396  26.844  1.00  0.00    -0.545 OA
ATOM      9  O   UNL     1       6.171  -4.002  24.603  1.00  0.00    -0.545 OA
ENDBRANCH   1   7
TORSDOF 1
ENDMDL
MODEL 8
REMARK VINA RESULT:    -3.882      2.799      3.761
REMARK INTER + INTRA:          -4.125
REMARK INTER:                  -4.105
REMARK INTRA:                  -0.020
REMARK UNBOUND:                -0.016
REMARK SMILES O=C([O-])c1cccnc1
REMARK SMILES IDX 4 1 5 2 9 3 6 4 8 5 7 6 2 7 1 8 3 9
REMARK H PARENT
REMARK Flexibility Score: inf
ROOT
ATOM      1  C   UNL     1       3.900  -3.568  25.405  1.00  0.00     0.016 A 
ATOM      2  C   UNL     1       4.662  -3.373  26.569  1.00  0.00     0.013 A 
ATOM      3  C   UNL     1       4.406  -4.424  24.411  1.00  0.00     0.120 A 
ATOM      4  C   UNL     1       5.889  -4.022  26.720  1.00  0.00     0.021 A 
ATOM      5  N   UNL     1       5.605  -5.043  24.583  1.00  0.00    -0.264 NA
ATOM      6  C   UNL     1       6.349  -4.861  25.705  1.00  0.00     0.111 A 
ENDROOT
BRANCH   1   7
ATOM      7  C   UNL     1       2.599  -2.888  25.233  1.00  0.00     0.073 C 
ATOM      8  O   UNL     1       2.296  -2.351  24.135  1.00  0.00    -0.545 OA
ATOM      9  O   UNL     1       1.690  -2.832  26.284  1.00  0.00    -0.545 OA
ENDBRANCH   1   7
TORSDOF 1
ENDMDL
MODEL 9
REMARK VINA RESULT:    -3.867      2.678      3.580
REMARK INTER + INTRA:          -4.110
REMARK INTER:                  -4.089
REMARK INTRA:                  -0.020
REMARK UNBOUND:                -0.016
REMARK SMILES O=C([O-])c1cccnc1
REMARK SMILES IDX 4 1 5 2 9 3 6 4 8 5 7 6 2 7 1 8 3 9
REMARK H PARENT
REMARK Flexibility Score: inf
ROOT
ATOM      1  C   UNL     1       2.848  -3.583  26.741  1.00  0.00     0.016 A 
ATOM      2  C   UNL     1       2.104  -4.195  27.763  1.00  0.00     0.013 A 
ATOM      3  C   UNL     1       4.250  -3.655  26.802  1.00  0.00     0.120 A 
ATOM      4  C   UNL     1       2.756  -4.856  28.806  1.00  0.00     0.021 A 
ATOM      5  N   UNL     1       4.861  -4.304  27.829  1.00  0.00    -0.264 NA
ATOM      6  C   UNL     1       4.150  -4.900  28.821  1.00  0.00     0.111 A 
ENDROOT
BRANCH   1   7
ATOM      7  C   UNL     1       2.169  -2.880  25.632  1.00  0.00     0.073 C 
ATOM      8  O   UNL     1       1.169  -2.147  25.854  1.00  0.00    -0.545 OA
ATOM      9  O   UNL     1       2.625  -3.020  24.327  1.00  0.00    -0.545 OA
ENDBRANCH   1   7
TORSDOF 1
ENDMDL
