MODEL 1
REMARK VINA RESULT:    -2.876      0.000      0.000
REMARK INTER + INTRA:          -3.426
REMARK INTER:                  -3.381
REMARK INTRA:                  -0.045
REMARK UNBOUND:                -0.045
REMARK SMILES O=C([O-])CCC(=O)[O-]
REMARK SMILES IDX 4 1 2 2 1 3 3 4 5 5 6 6 7 7 8 8
REMARK H PARENT
REMARK Flexibility Score: inf
ROOT
ATOM      1  C   UNL     1      28.160  22.177  -3.075  1.00  0.00     0.059 C 
ENDROOT
BRANCH   1   2
ATOM      2  C   UNL     1      27.687  23.313  -2.225  1.00  0.00     0.042 C 
ATOM      3  O   UNL     1      26.468  23.628  -2.209  1.00  0.00    -0.550 OA
ATOM      4  O   UNL     1      28.599  24.057  -1.487  1.00  0.00    -0.550 OA
ENDBRANCH   1   2
BRANCH   1   5
ATOM      5  C   UNL     1      28.730  21.056  -2.203  1.00  0.00     0.059 C 
BRANCH   5   6
ATOM      6  C   UNL     1      28.086  19.750  -2.543  1.00  0.00     0.042 C 
ATOM      7  O   UNL     1      27.662  19.538  -3.710  1.00  0.00    -0.550 OA
ATOM      8  O   UNL     1      27.909  18.784  -1.560  1.00  0.00    -0.550 OA
ENDBRANCH   5   6
ENDBRANCH   1   5
TORSDOF 3
ENDMDL
MODEL 2
REMARK VINA RESULT:    -2.871      0.053      4.002
REMARK INTER + INTRA:          -3.419
REMARK INTER:                  -3.376
REMARK INTRA:                  -0.043
REMARK UNBOUND:                -0.045
REMARK SMILES O=C([O-])CCC(=O)[O-]
REMARK SMILES IDX 4 1 2 2 1 3 3 4 5 5 6 6 7 7 8 8
REMARK H PARENT
REMARK Flexibility Score: inf
ROOT
ATOM      1  C   UNL     1      28.732  21.035  -2.200  1.00  0.00     0.059 C 
ENDROOT
BRANCH   1   2
ATOM      2  C   UNL     1      28.096  19.716  -2.507  1.00  0.00     0.042 C 
ATOM      3  O   UNL     1      27.670  19.471  -3.666  1.00  0.00    -0.550 OA
ATOM      4  O   UNL     1      27.927  18.775  -1.499  1.00  0.00    -0.550 OA
ENDBRANCH   1   2
BRANCH   1   5
ATOM      5  C   UNL     1      28.146  22.132  -3.090  1.00  0.00     0.059 C 
BRANCH   5   6
ATOM      6  C   UNL     1      27.691  23.290  -2.261  1.00  0.00     0.042 C 
ATOM      7  O   UNL     1      26.477  23.627  -2.254  1.00  0.00    -0.550 OA
ATOM      8  O   UNL     1      28.614  24.031  -1.533  1.00  0.00    -0.550 OA
ENDBRANCH   5   6
ENDBRANCH   1   5
TORSDOF 3
ENDMDL
MODEL 3
REMARK VINA RESULT:    -2.860     17.698     18.993
REMARK INTER + INTRA:          -3.406
REMARK INTER:                  -3.364
REMARK INTRA:                  -0.042
REMARK UNBOUND:                -0.045
REMARK SMILES O=C([O-])CCC(=O)[O-]
REMARK SMILES IDX 4 1 2 2 1 3 3 4 5 5 6 6 7 7 8 8
REMARK H PARENT
REMARK Flexibility Score: inf
ROOT
ATOM      1  C   UNL     1      14.102  31.927  -9.126  1.00  0.00     0.059 C 
ENDROOT
BRANCH   1   2
ATOM      2  C   UNL     1      13.025  31.211  -9.878  1.00  0.00     0.042 C 
ATOM      3  O   UNL     1      12.801  31.491 -11.085  1.00  0.00    -0.550 OA
ATOM      4  O   UNL     1      12.235  30.269  -9.231  1.00  0.00    -0.550 OA
ENDBRANCH   1   2
BRANCH   1   5
ATOM      5  C   UNL     1      14.901  32.832 -10.066  1.00  0.00     0.059 C 
BRANCH   5   6
ATOM      6  C   UNL     1      16.122  33.353  -9.378  1.00  0.00     0.042 C 
ATOM      7  O   UNL     1      16.596  32.746  -8.381  1.00  0.00    -0.550 OA
ATOM      8  O   UNL     1      16.710  34.537  -9.806  1.00  0.00    -0.550 OA
ENDBRANCH   5   6
ENDBRANCH   1   5
TORSDOF 3
ENDMDL
MODEL 4
REMARK VINA RESULT:    -2.857     13.612     14.388
REMARK INTER + INTRA:          -3.403
REMARK INTER:                  -3.323
REMARK INTRA:                  -0.080
REMARK UNBOUND:                -0.045
REMARK SMILES O=C([O-])CCC(=O)[O-]
REMARK SMILES IDX 4 1 2 2 1 3 3 4 5 5 6 6 7 7 8 8
REMARK H PARENT
REMARK Flexibility Score: inf
ROOT
ATOM      1  C   UNL     1      16.240  18.794  -9.251  1.00  0.00     0.059 C 
ENDROOT
BRANCH   1   2
ATOM      2  C   UNL     1      14.816  19.129  -9.563  1.00  0.00     0.042 C 
ATOM      3  O   UNL     1      14.539  19.874 -10.540  1.00  0.00    -0.550 OA
ATOM      4  O   UNL     1      13.796  18.658  -8.746  1.00  0.00    -0.550 OA
ENDBRANCH   1   2
BRANCH   1   5
ATOM      5  C   UNL     1      16.772  17.746 -10.230  1.00  0.00     0.059 C 
BRANCH   5   6
ATOM      6  C   UNL     1      18.102  18.162 -10.770  1.00  0.00     0.042 C 
ATOM      7  O   UNL     1      18.942  17.293 -11.125  1.00  0.00    -0.550 OA
ATOM      8  O   UNL     1      18.436  19.509 -10.837  1.00  0.00    -0.550 OA
ENDBRANCH   5   6
ENDBRANCH   1   5
TORSDOF 3
ENDMDL
MODEL 5
REMARK VINA RESULT:    -2.838     17.305     18.475
REMARK INTER + INTRA:          -3.381
REMARK INTER:                  -3.337
REMARK INTRA:                  -0.044
REMARK UNBOUND:                -0.045
REMARK SMILES O=C([O-])CCC(=O)[O-]
REMARK SMILES IDX 4 1 2 2 1 3 3 4 5 5 6 6 7 7 8 8
REMARK H PARENT
REMARK Flexibility Score: inf
ROOT
ATOM      1  C   UNL     1      14.655  31.914  -8.608  1.00  0.00     0.059 C 
ENDROOT
BRANCH   1   2
ATOM      2  C   UNL     1      15.969  32.400  -9.132  1.00  0.00     0.042 C 
ATOM      3  O   UNL     1      16.362  33.569  -8.876  1.00  0.00    -0.550 OA
ATOM      4  O   UNL     1      16.739  31.578  -9.946  1.00  0.00    -0.550 OA
ENDBRANCH   1   2
BRANCH   1   5
ATOM      5  C   UNL     1      13.572  32.038  -9.681  1.00  0.00     0.059 C 
BRANCH   5   6
ATOM      6  C   UNL     1      12.698  30.825  -9.683  1.00  0.00     0.042 C 
ATOM      7  O   UNL     1      11.965  30.574 -10.676  1.00  0.00    -0.550 OA
ATOM      8  O   UNL     1      12.654  29.996  -8.569  1.00  0.00    -0.550 OA
ENDBRANCH   5   6
ENDBRANCH   1   5
TORSDOF 3
ENDMDL
MODEL 6
REMARK VINA RESULT:    -2.772     13.691     14.643
REMARK INTER + INTRA:          -3.302
REMARK INTER:                  -3.232
REMARK INTRA:                  -0.071
REMARK UNBOUND:                -0.045
REMARK SMILES O=C([O-])CCC(=O)[O-]
REMARK SMILES IDX 4 1 2 2 1 3 3 4 5 5 6 6 7 7 8 8
REMARK H PARENT
REMARK Flexibility Score: inf
ROOT
ATOM      1  C   UNL     1      17.081  19.094 -10.123  1.00  0.00     0.059 C 
ENDROOT
BRANCH   1   2
ATOM      2  C   UNL     1      17.974  18.117 -10.819  1.00  0.00     0.042 C 
ATOM      3  O   UNL     1      17.558  16.959 -11.091  1.00  0.00    -0.550 OA
ATOM      4  O   UNL     1      19.283  18.467 -11.125  1.00  0.00    -0.550 OA
ENDBRANCH   1   2
BRANCH   1   5
ATOM      5  C   UNL     1      16.065  18.360  -9.245  1.00  0.00     0.059 C 
BRANCH   5   6
ATOM      6  C   UNL     1      14.700  18.941  -9.428  1.00  0.00     0.042 C 
ATOM      7  O   UNL     1      13.747  18.562  -8.697  1.00  0.00    -0.550 OA
ATOM      8  O   UNL     1      14.466  19.865 -10.439  1.00  0.00    -0.550 OA
ENDBRANCH   5   6
ENDBRANCH   1   5
TORSDOF 3
ENDMDL
MODEL 7
REMARK VINA RESULT:    -2.661      9.420     10.065
REMARK INTER + INTRA:          -3.172
REMARK INTER:                  -3.051
REMARK INTRA:                  -0.121
REMARK UNBOUND:                -0.045
REMARK SMILES O=C([O-])CCC(=O)[O-]
REMARK SMILES IDX 4 1 2 2 1 3 3 4 5 5 6 6 7 7 8 8
REMARK H PARENT
REMARK Flexibility Score: inf
ROOT
ATOM      1  C   UNL     1      22.719  20.953  -9.583  1.00  0.00     0.059 C 
ENDROOT
BRANCH   1   2
ATOM      2  C   UNL     1      22.582  22.408  -9.901  1.00  0.00     0.042 C 
ATOM      3  O   UNL     1      23.450  23.229  -9.505  1.00  0.00    -0.550 OA
ATOM      4  O   UNL     1      21.468  22.866 -10.594  1.00  0.00    -0.550 OA
ENDBRANCH   1   2
BRANCH   1   5
ATOM      5  C   UNL     1      22.749  20.124 -10.868  1.00  0.00     0.059 C 
BRANCH   5   6
ATOM      6  C   UNL     1      21.585  19.185 -10.911  1.00  0.00     0.042 C 
ATOM      7  O   UNL     1      20.418  19.629 -11.073  1.00  0.00    -0.550 OA
ATOM      8  O   UNL     1      21.783  17.823 -10.723  1.00  0.00    -0.550 OA
ENDBRANCH   5   6
ENDBRANCH   1   5
TORSDOF 3
ENDMDL
MODEL 8
REMARK VINA RESULT:    -2.605      1.481      2.195
REMARK INTER + INTRA:          -3.107
REMARK INTER:                  -3.056
REMARK INTRA:                  -0.051
REMARK UNBOUND:                -0.045
REMARK SMILES O=C([O-])CCC(=O)[O-]
REMARK SMILES IDX 4 1 2 2 1 3 3 4 5 5 6 6 7 7 8 8
REMARK H PARENT
REMARK Flexibility Score: inf
ROOT
ATOM      1  C   UNL     1      27.257  23.193  -2.293  1.00  0.00     0.059 C 
ENDROOT
BRANCH   1   2
ATOM      2  C   UNL     1      27.638  24.321  -1.387  1.00  0.00     0.042 C 
ATOM      3  O   UNL     1      28.660  25.014  -1.633  1.00  0.00    -0.550 OA
ATOM      4  O   UNL     1      26.893  24.577  -0.243  1.00  0.00    -0.550 OA
ENDBRANCH   1   2
BRANCH   1   5
ATOM      5  C   UNL     1      28.459  22.744  -3.125  1.00  0.00     0.059 C 
BRANCH   5   6
ATOM      6  C   UNL     1      28.393  21.274  -3.389  1.00  0.00     0.042 C 
ATOM      7  O   UNL     1      27.729  20.523  -2.627  1.00  0.00    -0.550 OA
ATOM      8  O   UNL     1      29.105  20.724  -4.448  1.00  0.00    -0.550 OA
ENDBRANCH   5   6
ENDBRANCH   1   5
TORSDOF 3
ENDMDL
MODEL 9
REMARK VINA RESULT:    -2.585     12.557     13.425
REMARK INTER + INTRA:          -3.084
REMARK INTER:                  -3.035
REMARK INTRA:                  -0.049
REMARK UNBOUND:                -0.045
REMARK SMILES O=C([O-])CCC(=O)[O-]
REMARK SMILES IDX 4 1 2 2 1 3 3 4 5 5 6 6 7 7 8 8
REMARK H PARENT
REMARK Flexibility Score: inf
ROOT
ATOM      1  C   UNL     1      18.469  19.493 -10.890  1.00  0.00     0.059 C 
ENDROOT
BRANCH   1   2
ATOM      2  C   UNL     1      19.877  19.014 -11.049  1.00  0.00     0.042 C 
ATOM      3  O   UNL     1      20.123  17.781 -11.125  1.00  0.00    -0.550 OA
ATOM      4  O   UNL     1      20.925  19.927 -11.064  1.00  0.00    -0.550 OA
ENDBRANCH   1   2
BRANCH   1   5
ATOM      5  C   UNL     1      17.483  18.348 -11.124  1.00  0.00     0.059 C 
BRANCH   5   6
ATOM      6  C   UNL     1      16.313  18.468 -10.202  1.00  0.00     0.042 C 
ATOM      7  O   UNL     1      15.298  19.127 -10.548  1.00  0.00    -0.550 OA
ATOM      8  O   UNL     1      16.361  17.892  -8.938  1.00  0.00    -0.550 OA
ENDBRANCH   5   6
ENDBRANCH   1   5
TORSDOF 3
ENDMDL
