MODEL 1
REMARK VINA RESULT:    -4.838      0.000      0.000
REMARK INTER + INTRA:          -5.821
REMARK INTER:                  -5.686
REMARK INTRA:                  -0.135
REMARK UNBOUND:                -0.135
REMARK SMILES O=C([O-])C=Cc1ccc(O)c(O)c1
REMARK SMILES IDX 6 1 13 2 7 3 11 4 8 5 9 6 5 7 4 8 2 9 1 10 3 11 12 12 10 14
REMARK H PARENT 12 13 10 15
REMARK Flexibility Score: inf
ROOT
ATOM      1  C   UNL     1      42.572   9.998  10.990  1.00  0.00    -0.022 A 
ATOM      2  C   UNL     1      43.095  11.094  11.690  1.00  0.00     0.058 A 
ATOM      3  C   UNL     1      41.477  10.188  10.132  1.00  0.00     0.012 A 
ATOM      4  C   UNL     1      42.568  12.378  11.499  1.00  0.00     0.157 A 
ATOM      5  C   UNL     1      40.948  11.467   9.938  1.00  0.00     0.051 A 
ATOM      6  C   UNL     1      41.491  12.567  10.615  1.00  0.00     0.157 A 
ENDROOT
BRANCH   1   7
ATOM      7  C   UNL     1      43.113   8.648  11.251  1.00  0.00     0.010 C 
ATOM      8  C   UNL     1      42.722   7.832  12.242  1.00  0.00     0.025 C 
BRANCH   8   9
ATOM      9  C   UNL     1      41.560   8.053  13.123  1.00  0.00     0.064 C 
ATOM     10  O   UNL     1      40.584   7.260  13.064  1.00  0.00    -0.545 OA
ATOM     11  O   UNL     1      41.487   9.155  13.967  1.00  0.00    -0.545 OA
ENDBRANCH   8   9
ENDBRANCH   1   7
BRANCH   4  12
ATOM     12  O   UNL     1      43.125  13.449  12.197  1.00  0.00    -0.504 OA
ATOM     13  H   UNL     1      42.813  14.403  12.057  1.00  0.00     0.293 HD
ENDBRANCH   4  12
BRANCH   6  14
ATOM     14  O   UNL     1      40.965  13.842  10.419  1.00  0.00    -0.504 OA
ATOM     15  H   UNL     1      41.486  14.675  10.664  1.00  0.00     0.293 HD
ENDBRANCH   6  14
TORSDOF 4
ENDMDL
MODEL 2
REMARK VINA RESULT:    -4.779      2.133      2.464
REMARK INTER + INTRA:          -5.752
REMARK INTER:                  -5.486
REMARK INTRA:                  -0.266
REMARK UNBOUND:                -0.135
REMARK SMILES O=C([O-])C=Cc1ccc(O)c(O)c1
REMARK SMILES IDX 6 1 13 2 7 3 11 4 8 5 9 6 5 7 4 8 2 9 1 10 3 11 12 12 10 14
REMARK H PARENT 12 13 10 15
REMARK Flexibility Score: inf
ROOT
ATOM      1  C   UNL     1      42.384  10.878  11.231  1.00  0.00    -0.022 A 
ATOM      2  C   UNL     1      43.073  11.941  10.631  1.00  0.00     0.058 A 
ATOM      3  C   UNL     1      41.026  11.034  11.556  1.00  0.00     0.012 A 
ATOM      4  C   UNL     1      42.406  13.130  10.309  1.00  0.00     0.157 A 
ATOM      5  C   UNL     1      40.357  12.218  11.236  1.00  0.00     0.051 A 
ATOM      6  C   UNL     1      41.040  13.269  10.610  1.00  0.00     0.157 A 
ENDROOT
BRANCH   1   7
ATOM      7  C   UNL     1      43.125   9.656  11.607  1.00  0.00     0.010 C 
ATOM      8  C   UNL     1      43.051   8.476  10.973  1.00  0.00     0.025 C 
BRANCH   8   9
ATOM      9  C   UNL     1      42.373   8.239   9.686  1.00  0.00     0.064 C 
ATOM     10  O   UNL     1      41.266   7.639   9.674  1.00  0.00    -0.545 OA
ATOM     11  O   UNL     1      42.960   8.599   8.478  1.00  0.00    -0.545 OA
ENDBRANCH   8   9
ENDBRANCH   1   7
BRANCH   4  12
ATOM     12  O   UNL     1      43.118  14.161   9.696  1.00  0.00    -0.504 OA
ATOM     13  H   UNL     1      43.352  14.140   8.710  1.00  0.00     0.293 HD
ENDBRANCH   4  12
BRANCH   6  14
ATOM     14  O   UNL     1      40.370  14.448  10.289  1.00  0.00    -0.504 OA
ATOM     15  H   UNL     1      39.609  14.798  10.859  1.00  0.00     0.293 HD
ENDBRANCH   6  14
TORSDOF 4
ENDMDL
MODEL 3
REMARK VINA RESULT:    -4.760      1.787      2.502
REMARK INTER + INTRA:          -5.730
REMARK INTER:                  -5.454
REMARK INTRA:                  -0.276
REMARK UNBOUND:                -0.135
REMARK SMILES O=C([O-])C=Cc1ccc(O)c(O)c1
REMARK SMILES IDX 6 1 13 2 7 3 11 4 8 5 9 6 5 7 4 8 2 9 1 10 3 11 12 12 10 14
REMARK H PARENT 12 13 10 15
REMARK Flexibility Score: inf
ROOT
ATOM      1  C   UNL     1      41.582  10.978  12.497  1.00  0.00    -0.022 A 
ATOM      2  C   UNL     1      40.556  11.461  11.672  1.00  0.00     0.058 A 
ATOM      3  C   UNL     1      42.872  11.521  12.380  1.00  0.00     0.012 A 
ATOM      4  C   UNL     1      40.798  12.509  10.776  1.00  0.00     0.157 A 
ATOM      5  C   UNL     1      43.118  12.567  11.487  1.00  0.00     0.051 A 
ATOM      6  C   UNL     1      42.085  13.069  10.685  1.00  0.00     0.157 A 
ENDROOT
BRANCH   1   7
ATOM      7  C   UNL     1      41.311   9.837  13.395  1.00  0.00     0.010 C 
ATOM      8  C   UNL     1      41.318   8.545  13.034  1.00  0.00     0.025 C 
BRANCH   8   9
ATOM      9  C   UNL     1      41.780   8.023  11.735  1.00  0.00     0.064 C 
ATOM     10  O   UNL     1      40.933   7.746  10.846  1.00  0.00    -0.545 OA
ATOM     11  O   UNL     1      43.125   7.762  11.493  1.00  0.00    -0.545 OA
ENDBRANCH   8   9
ENDBRANCH   1   7
BRANCH   4  12
ATOM     12  O   UNL     1      39.750  12.978   9.984  1.00  0.00    -0.504 OA
ATOM     13  H   UNL     1      38.796  13.018  10.323  1.00  0.00     0.293 HD
ENDBRANCH   4  12
BRANCH   6  14
ATOM     14  O   UNL     1      42.331  14.114   9.797  1.00  0.00    -0.504 OA
ATOM     15  H   UNL     1      43.097  14.079   9.135  1.00  0.00     0.293 HD
ENDBRANCH   6  14
TORSDOF 4
ENDMDL
MODEL 4
REMARK VINA RESULT:    -4.598      1.494      4.966
REMARK INTER + INTRA:          -5.539
REMARK INTER:                  -5.286
REMARK INTRA:                  -0.253
REMARK UNBOUND:                -0.135
REMARK SMILES O=C([O-])C=Cc1ccc(O)c(O)c1
REMARK SMILES IDX 6 1 13 2 7 3 11 4 8 5 9 6 5 7 4 8 2 9 1 10 3 11 12 12 10 14
REMARK H PARENT 12 13 10 15
REMARK Flexibility Score: inf
ROOT
ATOM      1  C   UNL     1      42.391   9.979  12.427  1.00  0.00    -0.022 A 
ATOM      2  C   UNL     1      42.373   8.818  11.641  1.00  0.00     0.058 A 
ATOM      3  C   UNL     1      41.628  10.024  13.605  1.00  0.00     0.012 A 
ATOM      4  C   UNL     1      41.645   7.694  12.050  1.00  0.00     0.157 A 
ATOM      5  C   UNL     1      40.900   8.905  14.017  1.00  0.00     0.051 A 
ATOM      6  C   UNL     1      40.907   7.735  13.246  1.00  0.00     0.157 A 
ENDROOT
BRANCH   1   7
ATOM      7  C   UNL     1      43.125  11.167  11.945  1.00  0.00     0.010 C 
ATOM      8  C   UNL     1      42.677  12.039  11.028  1.00  0.00     0.025 C 
BRANCH   8   9
ATOM      9  C   UNL     1      41.308  12.077  10.483  1.00  0.00     0.064 C 
ATOM     10  O   UNL     1      40.475  12.886  10.968  1.00  0.00    -0.545 OA
ATOM     11  O   UNL     1      40.895  11.193   9.492  1.00  0.00    -0.545 OA
ENDBRANCH   8   9
ENDBRANCH   1   7
BRANCH   4  12
ATOM     12  O   UNL     1      41.664   6.548  11.253  1.00  0.00    -0.504 OA
ATOM     13  H   UNL     1      41.313   5.657  11.584  1.00  0.00     0.293 HD
ENDBRANCH   4  12
BRANCH   6  14
ATOM     14  O   UNL     1      40.183   6.618  13.659  1.00  0.00    -0.504 OA
ATOM     15  H   UNL     1      40.285   6.235  14.591  1.00  0.00     0.293 HD
ENDBRANCH   6  14
TORSDOF 4
ENDMDL
MODEL 5
REMARK VINA RESULT:    -4.346      2.586      4.194
REMARK INTER + INTRA:          -5.243
REMARK INTER:                  -4.967
REMARK INTRA:                  -0.276
REMARK UNBOUND:                -0.135
REMARK SMILES O=C([O-])C=Cc1ccc(O)c(O)c1
REMARK SMILES IDX 6 1 13 2 7 3 11 4 8 5 9 6 5 7 4 8 2 9 1 10 3 11 12 12 10 14
REMARK H PARENT 12 13 10 15
REMARK Flexibility Score: inf
ROOT
ATOM      1  C   UNL     1      42.680  10.513   9.917  1.00  0.00    -0.022 A 
ATOM      2  C   UNL     1      43.042   9.458  10.766  1.00  0.00     0.058 A 
ATOM      3  C   UNL     1      41.817  11.515  10.392  1.00  0.00     0.012 A 
ATOM      4  C   UNL     1      42.594   9.426  12.092  1.00  0.00     0.157 A 
ATOM      5  C   UNL     1      41.368  11.486  11.715  1.00  0.00     0.051 A 
ATOM      6  C   UNL     1      41.755  10.447  12.571  1.00  0.00     0.157 A 
ENDROOT
BRANCH   1   7
ATOM      7  C   UNL     1      43.125  10.493   8.508  1.00  0.00     0.010 C 
ATOM      8  C   UNL     1      42.454   9.935   7.489  1.00  0.00     0.025 C 
BRANCH   8   9
ATOM      9  C   UNL     1      41.076   9.415   7.555  1.00  0.00     0.064 C 
ATOM     10  O   UNL     1      40.113  10.192   7.322  1.00  0.00    -0.545 OA
ATOM     11  O   UNL     1      40.811   8.105   7.937  1.00  0.00    -0.545 OA
ENDBRANCH   8   9
ENDBRANCH   1   7
BRANCH   4  12
ATOM     12  O   UNL     1      42.989   8.372  12.915  1.00  0.00    -0.504 OA
ATOM     13  H   UNL     1      43.381   7.515  12.541  1.00  0.00     0.293 HD
ENDBRANCH   4  12
BRANCH   6  14
ATOM     14  O   UNL     1      41.308  10.423  13.891  1.00  0.00    -0.504 OA
ATOM     15  H   UNL     1      40.564  11.032  14.211  1.00  0.00     0.293 HD
ENDBRANCH   6  14
TORSDOF 4
ENDMDL
MODEL 6
REMARK VINA RESULT:    -3.867      2.733      3.239
REMARK INTER + INTRA:          -4.680
REMARK INTER:                  -4.485
REMARK INTRA:                  -0.196
REMARK UNBOUND:                -0.135
REMARK SMILES O=C([O-])C=Cc1ccc(O)c(O)c1
REMARK SMILES IDX 6 1 13 2 7 3 11 4 8 5 9 6 5 7 4 8 2 9 1 10 3 11 12 12 10 14
REMARK H PARENT 12 13 10 15
REMARK Flexibility Score: inf
ROOT
ATOM      1  C   UNL     1      41.561  10.794  10.744  1.00  0.00    -0.022 A 
ATOM      2  C   UNL     1      40.564  11.778  10.784  1.00  0.00     0.058 A 
ATOM      3  C   UNL     1      42.838  11.127  10.263  1.00  0.00     0.012 A 
ATOM      4  C   UNL     1      40.847  13.094  10.399  1.00  0.00     0.157 A 
ATOM      5  C   UNL     1      43.125  12.439   9.878  1.00  0.00     0.051 A 
ATOM      6  C   UNL     1      42.135  13.429   9.947  1.00  0.00     0.157 A 
ENDROOT
BRANCH   1   7
ATOM      7  C   UNL     1      41.220   9.402  11.106  1.00  0.00     0.010 C 
ATOM      8  C   UNL     1      40.892   8.432  10.239  1.00  0.00     0.025 C 
BRANCH   8   9
ATOM      9  C   UNL     1      40.999   8.524   8.772  1.00  0.00     0.064 C 
ATOM     10  O   UNL     1      41.911   7.889   8.180  1.00  0.00    -0.545 OA
ATOM     11  O   UNL     1      40.161   9.351   8.032  1.00  0.00    -0.545 OA
ENDBRANCH   8   9
ENDBRANCH   1   7
BRANCH   4  12
ATOM     12  O   UNL     1      39.836  14.052  10.470  1.00  0.00    -0.504 OA
ATOM     13  H   UNL     1      39.924  14.960  10.029  1.00  0.00     0.293 HD
ENDBRANCH   4  12
BRANCH   6  14
ATOM     14  O   UNL     1      42.424  14.737   9.565  1.00  0.00    -0.504 OA
ATOM     15  H   UNL     1      42.687  15.442  10.244  1.00  0.00     0.293 HD
ENDBRANCH   6  14
TORSDOF 4
ENDMDL
MODEL 7
REMARK VINA RESULT:    -3.860      1.521      4.899
REMARK INTER + INTRA:          -4.672
REMARK INTER:                  -4.688
REMARK INTRA:                   0.017
REMARK UNBOUND:                -0.135
REMARK SMILES O=C([O-])C=Cc1ccc(O)c(O)c1
REMARK SMILES IDX 6 1 13 2 7 3 11 4 8 5 9 6 5 7 4 8 2 9 1 10 3 11 12 12 10 14
REMARK H PARENT 12 13 10 15
REMARK Flexibility Score: inf
ROOT
ATOM      1  C   UNL     1      42.699  10.419  10.176  1.00  0.00    -0.022 A 
ATOM      2  C   UNL     1      41.824   9.467   9.634  1.00  0.00     0.058 A 
ATOM      3  C   UNL     1      43.075  10.320  11.526  1.00  0.00     0.012 A 
ATOM      4  C   UNL     1      41.367   8.396  10.413  1.00  0.00     0.157 A 
ATOM      5  C   UNL     1      42.622   9.253  12.306  1.00  0.00     0.051 A 
ATOM      6  C   UNL     1      41.770   8.286  11.755  1.00  0.00     0.157 A 
ENDROOT
BRANCH   1   7
ATOM      7  C   UNL     1      43.123  11.566   9.347  1.00  0.00     0.010 C 
ATOM      8  C   UNL     1      42.874  12.856   9.619  1.00  0.00     0.025 C 
BRANCH   8   9
ATOM      9  C   UNL     1      42.305  13.369  10.879  1.00  0.00     0.064 C 
ATOM     10  O   UNL     1      41.059  13.521  10.975  1.00  0.00    -0.545 OA
ATOM     11  O   UNL     1      43.118  13.756  11.939  1.00  0.00    -0.545 OA
ENDBRANCH   8   9
ENDBRANCH   1   7
BRANCH   4  12
ATOM     12  O   UNL     1      40.512   7.457   9.837  1.00  0.00    -0.504 OA
ATOM     13  H   UNL     1      39.770   7.724   9.200  1.00  0.00     0.293 HD
ENDBRANCH   4  12
BRANCH   6  14
ATOM     14  O   UNL     1      41.322   7.221  12.534  1.00  0.00    -0.504 OA
ATOM     15  H   UNL     1      41.505   7.178  13.530  1.00  0.00     0.293 HD
ENDBRANCH   6  14
TORSDOF 4
ENDMDL
MODEL 8
REMARK VINA RESULT:    -3.811      2.723      4.910
REMARK INTER + INTRA:          -4.615
REMARK INTER:                  -4.350
REMARK INTRA:                  -0.265
REMARK UNBOUND:                -0.135
REMARK SMILES O=C([O-])C=Cc1ccc(O)c(O)c1
REMARK SMILES IDX 6 1 13 2 7 3 11 4 8 5 9 6 5 7 4 8 2 9 1 10 3 11 12 12 10 14
REMARK H PARENT 12 13 10 15
REMARK Flexibility Score: inf
ROOT
ATOM      1  C   UNL     1      41.978   9.566  10.476  1.00  0.00    -0.022 A 
ATOM      2  C   UNL     1      40.698   9.210  10.028  1.00  0.00     0.058 A 
ATOM      3  C   UNL     1      43.104   9.156   9.742  1.00  0.00     0.012 A 
ATOM      4  C   UNL     1      40.536   8.498   8.833  1.00  0.00     0.157 A 
ATOM      5  C   UNL     1      42.946   8.446   8.550  1.00  0.00     0.051 A 
ATOM      6  C   UNL     1      41.664   8.116   8.087  1.00  0.00     0.157 A 
ENDROOT
BRANCH   1   7
ATOM      7  C   UNL     1      42.123  10.271  11.767  1.00  0.00     0.010 C 
ATOM      8  C   UNL     1      42.164  11.603  11.924  1.00  0.00     0.025 C 
BRANCH   8   9
ATOM      9  C   UNL     1      41.882  12.597  10.872  1.00  0.00     0.064 C 
ATOM     10  O   UNL     1      42.806  12.947  10.093  1.00  0.00    -0.545 OA
ATOM     11  O   UNL     1      40.638  13.210  10.766  1.00  0.00    -0.545 OA
ENDBRANCH   8   9
ENDBRANCH   1   7
BRANCH   4  12
ATOM     12  O   UNL     1      39.247   8.176   8.407  1.00  0.00    -0.504 OA
ATOM     13  H   UNL     1      38.847   8.567   7.562  1.00  0.00     0.293 HD
ENDBRANCH   4  12
BRANCH   6  14
ATOM     14  O   UNL     1      41.509   7.410   6.896  1.00  0.00    -0.504 OA
ATOM     15  H   UNL     1      42.288   6.935   6.455  1.00  0.00     0.293 HD
ENDBRANCH   6  14
TORSDOF 4
ENDMDL
