MODEL 1
REMARK VINA RESULT:    -3.285      0.000      0.000
REMARK INTER + INTRA:          -3.285
REMARK INTER:                  -3.285
REMARK INTRA:                   0.000
REMARK UNBOUND:                 0.000
REMARK SMILES CC(=O)[O-]
REMARK SMILES IDX 1 1 2 2 3 3 4 4
REMARK H PARENT
REMARK Flexibility Score: inf
ROOT
ATOM      1  C   UNL     1      -8.250  32.331 -15.561  1.00  0.00     0.063 C 
ATOM      2  C   UNL     1      -7.774  33.380 -16.507  1.00  0.00     0.038 C 
ATOM      3  O   UNL     1      -8.308  33.496 -17.641  1.00  0.00    -0.550 OA
ATOM      4  O   UNL     1      -6.705  34.196 -16.162  1.00  0.00    -0.550 OA
ENDROOT
TORSDOF 0
ENDMDL
MODEL 2
REMARK VINA RESULT:    -3.147      1.438      1.775
REMARK INTER + INTRA:          -3.147
REMARK INTER:                  -3.147
REMARK INTRA:                   0.000
REMARK UNBOUND:                 0.000
REMARK SMILES CC(=O)[O-]
REMARK SMILES IDX 1 1 2 2 3 3 4 4
REMARK H PARENT
REMARK Flexibility Score: inf
ROOT
ATOM      1  C   UNL     1      -6.978  34.084 -16.021  1.00  0.00     0.063 C 
ATOM      2  C   UNL     1      -7.900  33.061 -16.591  1.00  0.00     0.038 C 
ATOM      3  O   UNL     1      -8.509  33.290 -17.669  1.00  0.00    -0.550 OA
ATOM      4  O   UNL     1      -8.130  31.874 -15.909  1.00  0.00    -0.550 OA
ENDROOT
TORSDOF 0
ENDMDL
MODEL 3
REMARK VINA RESULT:    -3.084      1.323      2.350
REMARK INTER + INTRA:          -3.084
REMARK INTER:                  -3.084
REMARK INTRA:                   0.000
REMARK UNBOUND:                 0.000
REMARK SMILES CC(=O)[O-]
REMARK SMILES IDX 1 1 2 2 3 3 4 4
REMARK H PARENT
REMARK Flexibility Score: inf
ROOT
ATOM      1  C   UNL     1      -6.274  34.817 -16.643  1.00  0.00     0.063 C 
ATOM      2  C   UNL     1      -7.397  33.856 -16.451  1.00  0.00     0.038 C 
ATOM      3  O   UNL     1      -7.643  33.392 -15.307  1.00  0.00    -0.550 OA
ATOM      4  O   UNL     1      -8.142  33.428 -17.542  1.00  0.00    -0.550 OA
ENDROOT
TORSDOF 0
ENDMDL
MODEL 4
REMARK VINA RESULT:    -2.108     13.636     14.111
REMARK INTER + INTRA:          -2.108
REMARK INTER:                  -2.108
REMARK INTRA:                   0.000
REMARK UNBOUND:                 0.000
REMARK SMILES CC(=O)[O-]
REMARK SMILES IDX 1 1 2 2 3 3 4 4
REMARK H PARENT
REMARK Flexibility Score: inf
ROOT
ATOM      1  C   UNL     1     -20.610  28.852 -11.209  1.00  0.00     0.063 C 
ATOM      2  C   UNL     1     -19.408  28.279 -10.538  1.00  0.00     0.038 C 
ATOM      3  O   UNL     1     -19.428  27.096 -10.109  1.00  0.00    -0.550 OA
ATOM      4  O   UNL     1     -18.282  29.066 -10.335  1.00  0.00    -0.550 OA
ENDROOT
TORSDOF 0
ENDMDL
MODEL 5
REMARK VINA RESULT:    -1.941      1.913      2.102
REMARK INTER + INTRA:          -1.941
REMARK INTER:                  -1.941
REMARK INTRA:                   0.000
REMARK UNBOUND:                 0.000
REMARK SMILES CC(=O)[O-]
REMARK SMILES IDX 1 1 2 2 3 3 4 4
REMARK H PARENT
REMARK Flexibility Score: inf
ROOT
ATOM      1  C   UNL     1      -8.094  32.711 -17.218  1.00  0.00     0.063 C 
ATOM      2  C   UNL     1      -8.115  32.618 -15.731  1.00  0.00     0.038 C 
ATOM      3  O   UNL     1      -8.266  31.501 -15.170  1.00  0.00    -0.550 OA
ATOM      4  O   UNL     1      -8.024  33.769 -14.959  1.00  0.00    -0.550 OA
ENDROOT
TORSDOF 0
ENDMDL
MODEL 6
REMARK VINA RESULT:    -1.538     12.068     12.280
REMARK INTER + INTRA:          -1.538
REMARK INTER:                  -1.538
REMARK INTRA:                   0.000
REMARK UNBOUND:                 0.000
REMARK SMILES CC(=O)[O-]
REMARK SMILES IDX 1 1 2 2 3 3 4 4
REMARK H PARENT
REMARK Flexibility Score: inf
ROOT
ATOM      1  C   UNL     1     -17.110  26.919 -19.016  1.00  0.00     0.063 C 
ATOM      2  C   UNL     1     -16.864  25.596 -18.374  1.00  0.00     0.038 C 
ATOM      3  O   UNL     1     -17.088  25.439 -17.145  1.00  0.00    -0.550 OA
ATOM      4  O   UNL     1     -16.336  24.549 -19.117  1.00  0.00    -0.550 OA
ENDROOT
TORSDOF 0
ENDMDL
MODEL 7
REMARK VINA RESULT:    -1.529     11.843     12.216
REMARK INTER + INTRA:          -1.529
REMARK INTER:                  -1.529
REMARK INTRA:                   0.000
REMARK UNBOUND:                 0.000
REMARK SMILES CC(=O)[O-]
REMARK SMILES IDX 1 1 2 2 3 3 4 4
REMARK H PARENT
REMARK Flexibility Score: inf
ROOT
ATOM      1  C   UNL     1     -16.263  24.380 -19.062  1.00  0.00     0.063 C 
ATOM      2  C   UNL     1     -16.791  25.543 -18.293  1.00  0.00     0.038 C 
ATOM      3  O   UNL     1     -17.147  25.399 -17.094  1.00  0.00    -0.550 OA
ATOM      4  O   UNL     1     -16.941  26.777 -18.912  1.00  0.00    -0.550 OA
ENDROOT
TORSDOF 0
ENDMDL
MODEL 8
REMARK VINA RESULT:    -1.210     22.593     22.705
REMARK INTER + INTRA:          -1.210
REMARK INTER:                  -1.210
REMARK INTRA:                   0.000
REMARK UNBOUND:                 0.000
REMARK SMILES CC(=O)[O-]
REMARK SMILES IDX 1 1 2 2 3 3 4 4
REMARK H PARENT
REMARK Flexibility Score: inf
ROOT
ATOM      1  C   UNL     1     -22.667  43.125  -3.386  1.00  0.00     0.063 C 
ATOM      2  C   UNL     1     -23.868  42.248  -3.267  1.00  0.00     0.038 C 
ATOM      3  O   UNL     1     -25.018  42.723  -3.459  1.00  0.00    -0.550 OA
ATOM      4  O   UNL     1     -23.725  40.919  -2.892  1.00  0.00    -0.550 OA
ENDROOT
TORSDOF 0
ENDMDL
