MODEL 1
REMARK VINA RESULT:    -4.482      0.000      0.000
REMARK INTER + INTRA:          -5.787
REMARK INTER:                  -5.399
REMARK INTRA:                  -0.388
REMARK UNBOUND:                -0.388
REMARK SMILES NC(=O)C[C@H]([NH3+])C(=O)[O-]
REMARK SMILES IDX 4 1 5 2 6 3 7 7 8 8 9 9 2 10 3 11 1 12
REMARK H PARENT 6 4 6 5 6 6 1 13 1 14
REMARK Flexibility Score: inf
ROOT
ATOM      1  C   UNL     1      62.043   0.079   8.351  1.00  0.00     0.171 C 
ENDROOT
BRANCH   1   2
ATOM      2  C   UNL     1      61.947   1.236   7.336  1.00  0.00     0.237 C 
BRANCH   2   3
ATOM      3  N   UNL     1      60.746   2.051   7.559  1.00  0.00    -0.350 N 
ATOM      4  H   UNL     1      60.518   2.618   6.709  1.00  0.00     0.345 HD
ATOM      5  H   UNL     1      60.899   2.695   8.369  1.00  0.00     0.345 HD
ATOM      6  H   UNL     1      59.932   1.436   7.790  1.00  0.00     0.345 HD
ENDBRANCH   2   3
BRANCH   2   7
ATOM      7  C   UNL     1      61.950   0.686   5.933  1.00  0.00     0.100 C 
ATOM      8  O   UNL     1      61.862   1.460   4.944  1.00  0.00    -0.544 OA
ATOM      9  O   UNL     1      62.031  -0.685   5.726  1.00  0.00    -0.544 OA
ENDBRANCH   2   7
ENDBRANCH   1   2
BRANCH   1  10
ATOM     10  C   UNL     1      60.697  -0.518   8.642  1.00  0.00     0.223 C 
ATOM     11  O   UNL     1      59.893   0.089   9.398  1.00  0.00    -0.275 OA
ATOM     12  N   UNL     1      60.306  -1.752   8.039  1.00  0.00    -0.369 N 
ATOM     13  H   UNL     1      60.950  -2.257   7.390  1.00  0.00     0.159 HD
ATOM     14  H   UNL     1      59.364  -2.158   8.235  1.00  0.00     0.159 HD
ENDBRANCH   1  10
TORSDOF 4
ENDMDL
MODEL 2
REMARK VINA RESULT:    -4.453      1.353      1.797
REMARK INTER + INTRA:          -5.752
REMARK INTER:                  -5.483
REMARK INTRA:                  -0.269
REMARK UNBOUND:                -0.388
REMARK SMILES NC(=O)C[C@H]([NH3+])C(=O)[O-]
REMARK SMILES IDX 4 1 5 2 6 3 7 7 8 8 9 9 2 10 3 11 1 12
REMARK H PARENT 6 4 6 5 6 6 1 13 1 14
REMARK Flexibility Score: inf
ROOT
ATOM      1  C   UNL     1      61.873  -0.471   6.407  1.00  0.00     0.171 C 
ENDROOT
BRANCH   1   2
ATOM      2  C   UNL     1      62.343   0.995   6.321  1.00  0.00     0.237 C 
BRANCH   2   3
ATOM      3  N   UNL     1      61.270   1.928   6.692  1.00  0.00    -0.350 N 
ATOM      4  H   UNL     1      60.388   1.410   6.910  1.00  0.00     0.345 HD
ATOM      5  H   UNL     1      61.091   2.595   5.906  1.00  0.00     0.345 HD
ATOM      6  H   UNL     1      61.555   2.488   7.528  1.00  0.00     0.345 HD
ENDBRANCH   2   3
BRANCH   2   7
ATOM      7  C   UNL     1      62.834   1.294   4.928  1.00  0.00     0.100 C 
ATOM      8  O   UNL     1      62.570   0.513   3.977  1.00  0.00    -0.544 OA
ATOM      9  O   UNL     1      63.600   2.429   4.691  1.00  0.00    -0.544 OA
ENDBRANCH   2   7
ENDBRANCH   1   2
BRANCH   1  10
ATOM     10  C   UNL     1      61.334  -0.803   7.767  1.00  0.00     0.223 C 
ATOM     11  O   UNL     1      61.684  -0.116   8.763  1.00  0.00    -0.275 OA
ATOM     12  N   UNL     1      60.399  -1.869   7.937  1.00  0.00    -0.369 N 
ATOM     13  H   UNL     1      60.080  -2.434   7.119  1.00  0.00     0.159 HD
ATOM     14  H   UNL     1      60.019  -2.089   8.884  1.00  0.00     0.159 HD
ENDBRANCH   1  10
TORSDOF 4
ENDMDL
MODEL 3
REMARK VINA RESULT:    -4.442     11.516     12.386
REMARK INTER + INTRA:          -5.739
REMARK INTER:                  -5.477
REMARK INTRA:                  -0.262
REMARK UNBOUND:                -0.388
REMARK SMILES NC(=O)C[C@H]([NH3+])C(=O)[O-]
REMARK SMILES IDX 4 1 5 2 6 3 7 7 8 8 9 9 2 10 3 11 1 12
REMARK H PARENT 6 4 6 5 6 6 1 13 1 14
REMARK Flexibility Score: inf
ROOT
ATOM      1  C   UNL     1      52.631   8.227   5.029  1.00  0.00     0.171 C 
ENDROOT
BRANCH   1   2
ATOM      2  C   UNL     1      51.947   7.003   4.384  1.00  0.00     0.237 C 
BRANCH   2   3
ATOM      3  N   UNL     1      51.585   7.264   2.985  1.00  0.00    -0.350 N 
ATOM      4  H   UNL     1      50.885   6.564   2.646  1.00  0.00     0.345 HD
ATOM      5  H   UNL     1      52.439   7.215   2.381  1.00  0.00     0.345 HD
ATOM      6  H   UNL     1      51.184   8.225   2.891  1.00  0.00     0.345 HD
ENDBRANCH   2   3
BRANCH   2   7
ATOM      7  C   UNL     1      50.724   6.625   5.177  1.00  0.00     0.100 C 
ATOM      8  O   UNL     1      50.582   7.024   6.363  1.00  0.00    -0.544 OA
ATOM      9  O   UNL     1      49.751   5.813   4.606  1.00  0.00    -0.544 OA
ENDBRANCH   2   7
ENDBRANCH   1   2
BRANCH   1  10
ATOM     10  C   UNL     1      54.000   8.461   4.462  1.00  0.00     0.223 C 
ATOM     11  O   UNL     1      54.124   8.988   3.324  1.00  0.00    -0.275 OA
ATOM     12  N   UNL     1      55.165   8.125   5.216  1.00  0.00    -0.369 N 
ATOM     13  H   UNL     1      55.081   7.710   6.170  1.00  0.00     0.159 HD
ATOM     14  H   UNL     1      56.115   8.300   4.821  1.00  0.00     0.159 HD
ENDBRANCH   1  10
TORSDOF 4
ENDMDL
MODEL 4
REMARK VINA RESULT:    -4.410      1.413      3.620
REMARK INTER + INTRA:          -5.700
REMARK INTER:                  -5.283
REMARK INTRA:                  -0.418
REMARK UNBOUND:                -0.388
REMARK SMILES NC(=O)C[C@H]([NH3+])C(=O)[O-]
REMARK SMILES IDX 4 1 5 2 6 3 7 7 8 8 9 9 2 10 3 11 1 12
REMARK H PARENT 6 4 6 5 6 6 1 13 1 14
REMARK Flexibility Score: inf
ROOT
ATOM      1  C   UNL     1      62.307  -0.396   7.886  1.00  0.00     0.171 C 
ENDROOT
BRANCH   1   2
ATOM      2  C   UNL     1      61.071  -0.820   8.707  1.00  0.00     0.237 C 
BRANCH   2   3
ATOM      3  N   UNL     1      60.259  -1.809   7.986  1.00  0.00    -0.350 N 
ATOM      4  H   UNL     1      60.765  -2.159   7.139  1.00  0.00     0.345 HD
ATOM      5  H   UNL     1      59.353  -1.376   7.689  1.00  0.00     0.345 HD
ATOM      6  H   UNL     1      60.037  -2.616   8.611  1.00  0.00     0.345 HD
ENDBRANCH   2   3
BRANCH   2   7
ATOM      7  C   UNL     1      60.241   0.391   9.042  1.00  0.00     0.100 C 
ATOM      8  O   UNL     1      60.739   1.546   8.974  1.00  0.00    -0.544 OA
ATOM      9  O   UNL     1      58.922   0.237   9.449  1.00  0.00    -0.544 OA
ENDBRANCH   2   7
ENDBRANCH   1   2
BRANCH   1  10
ATOM     10  C   UNL     1      61.969  -0.194   6.438  1.00  0.00     0.223 C 
ATOM     11  O   UNL     1      61.857  -1.191   5.677  1.00  0.00    -0.275 OA
ATOM     12  N   UNL     1      61.739   1.118   5.924  1.00  0.00    -0.369 N 
ATOM     13  H   UNL     1      61.805   1.955   6.546  1.00  0.00     0.159 HD
ATOM     14  H   UNL     1      61.494   1.254   4.918  1.00  0.00     0.159 HD
ENDBRANCH   1  10
TORSDOF 4
ENDMDL
MODEL 5
REMARK VINA RESULT:    -4.395     13.525     14.968
REMARK INTER + INTRA:          -5.682
REMARK INTER:                  -5.374
REMARK INTRA:                  -0.309
REMARK UNBOUND:                -0.388
REMARK SMILES NC(=O)C[C@H]([NH3+])C(=O)[O-]
REMARK SMILES IDX 4 1 5 2 6 3 7 7 8 8 9 9 2 10 3 11 1 12
REMARK H PARENT 6 4 6 5 6 6 1 13 1 14
REMARK Flexibility Score: inf
ROOT
ATOM      1  C   UNL     1      63.977   8.384  -6.041  1.00  0.00     0.171 C 
ENDROOT
BRANCH   1   2
ATOM      2  C   UNL     1      64.272   7.941  -4.593  1.00  0.00     0.237 C 
BRANCH   2   3
ATOM      3  N   UNL     1      65.245   6.841  -4.554  1.00  0.00    -0.350 N 
ATOM      4  H   UNL     1      64.942   6.056  -5.178  1.00  0.00     0.345 HD
ATOM      5  H   UNL     1      65.338   6.483  -3.575  1.00  0.00     0.345 HD
ATOM      6  H   UNL     1      66.184   7.181  -4.861  1.00  0.00     0.345 HD
ENDBRANCH   2   3
BRANCH   2   7
ATOM      7  C   UNL     1      62.993   7.530  -3.914  1.00  0.00     0.100 C 
ATOM      8  O   UNL     1      62.186   8.399  -3.490  1.00  0.00    -0.544 OA
ATOM      9  O   UNL     1      62.705   6.183  -3.733  1.00  0.00    -0.544 OA
ENDBRANCH   2   7
ENDBRANCH   1   2
BRANCH   1  10
ATOM     10  C   UNL     1      63.263   7.315  -6.814  1.00  0.00     0.223 C 
ATOM     11  O   UNL     1      63.881   6.273  -7.158  1.00  0.00    -0.275 OA
ATOM     12  N   UNL     1      61.878   7.453  -7.133  1.00  0.00    -0.369 N 
ATOM     13  H   UNL     1      61.343   8.299  -6.836  1.00  0.00     0.159 HD
ATOM     14  H   UNL     1      61.382   6.702  -7.662  1.00  0.00     0.159 HD
ENDBRANCH   1  10
TORSDOF 4
ENDMDL
MODEL 6
REMARK VINA RESULT:    -4.323     11.791     12.414
REMARK INTER + INTRA:          -5.596
REMARK INTER:                  -5.510
REMARK INTRA:                  -0.086
REMARK UNBOUND:                -0.388
REMARK SMILES NC(=O)C[C@H]([NH3+])C(=O)[O-]
REMARK SMILES IDX 4 1 5 2 6 3 7 7 8 8 9 9 2 10 3 11 1 12
REMARK H PARENT 6 4 6 5 6 6 1 13 1 14
REMARK Flexibility Score: inf
ROOT
ATOM      1  C   UNL     1      52.176   8.099   4.829  1.00  0.00     0.171 C 
ENDROOT
BRANCH   1   2
ATOM      2  C   UNL     1      53.532   8.154   4.096  1.00  0.00     0.237 C 
BRANCH   2   3
ATOM      3  N   UNL     1      54.651   7.908   5.015  1.00  0.00    -0.350 N 
ATOM      4  H   UNL     1      55.186   7.055   4.729  1.00  0.00     0.345 HD
ATOM      5  H   UNL     1      54.290   7.775   5.988  1.00  0.00     0.345 HD
ATOM      6  H   UNL     1      55.296   8.731   5.024  1.00  0.00     0.345 HD
ENDBRANCH   2   3
BRANCH   2   7
ATOM      7  C   UNL     1      53.695   9.492   3.424  1.00  0.00     0.100 C 
ATOM      8  O   UNL     1      54.841   9.984   3.250  1.00  0.00    -0.544 OA
ATOM      9  O   UNL     1      52.575  10.201   3.008  1.00  0.00    -0.544 OA
ENDBRANCH   2   7
ENDBRANCH   1   2
BRANCH   1  10
ATOM     10  C   UNL     1      51.184   7.241   4.099  1.00  0.00     0.223 C 
ATOM     11  O   UNL     1      50.482   7.740   3.180  1.00  0.00    -0.275 OA
ATOM     12  N   UNL     1      51.056   5.854   4.413  1.00  0.00    -0.369 N 
ATOM     13  H   UNL     1      51.647   5.417   5.155  1.00  0.00     0.159 HD
ATOM     14  H   UNL     1      50.373   5.258   3.895  1.00  0.00     0.159 HD
ENDBRANCH   1  10
TORSDOF 4
ENDMDL
MODEL 7
REMARK VINA RESULT:    -4.321      1.824      2.747
REMARK INTER + INTRA:          -5.593
REMARK INTER:                  -5.316
REMARK INTRA:                  -0.278
REMARK UNBOUND:                -0.388
REMARK SMILES NC(=O)C[C@H]([NH3+])C(=O)[O-]
REMARK SMILES IDX 4 1 5 2 6 3 7 7 8 8 9 9 2 10 3 11 1 12
REMARK H PARENT 6 4 6 5 6 6 1 13 1 14
REMARK Flexibility Score: inf
ROOT
ATOM      1  C   UNL     1      62.023  -0.120   7.936  1.00  0.00     0.171 C 
ENDROOT
BRANCH   1   2
ATOM      2  C   UNL     1      61.268  -1.133   7.052  1.00  0.00     0.237 C 
BRANCH   2   3
ATOM      3  N   UNL     1      60.416  -2.020   7.855  1.00  0.00    -0.350 N 
ATOM      4  H   UNL     1      59.404  -1.832   7.669  1.00  0.00     0.345 HD
ATOM      5  H   UNL     1      60.610  -1.873   8.873  1.00  0.00     0.345 HD
ATOM      6  H   UNL     1      60.627  -3.019   7.632  1.00  0.00     0.345 HD
ENDBRANCH   2   3
BRANCH   2   7
ATOM      7  C   UNL     1      62.251  -1.942   6.248  1.00  0.00     0.100 C 
ATOM      8  O   UNL     1      63.394  -2.200   6.709  1.00  0.00    -0.544 OA
ATOM      9  O   UNL     1      61.906  -2.392   4.980  1.00  0.00    -0.544 OA
ENDBRANCH   2   7
ENDBRANCH   1   2
BRANCH   1  10
ATOM     10  C   UNL     1      61.109   0.545   8.924  1.00  0.00     0.223 C 
ATOM     11  O   UNL     1      61.031   0.103  10.101  1.00  0.00    -0.275 OA
ATOM     12  N   UNL     1      60.353   1.698   8.550  1.00  0.00    -0.369 N 
ATOM     13  H   UNL     1      60.423   2.092   7.586  1.00  0.00     0.159 HD
ATOM     14  H   UNL     1      59.727   2.163   9.243  1.00  0.00     0.159 HD
ENDBRANCH   1  10
TORSDOF 4
ENDMDL
MODEL 8
REMARK VINA RESULT:    -4.111     13.481     14.429
REMARK INTER + INTRA:          -5.340
REMARK INTER:                  -5.028
REMARK INTRA:                  -0.312
REMARK UNBOUND:                -0.388
REMARK SMILES NC(=O)C[C@H]([NH3+])C(=O)[O-]
REMARK SMILES IDX 4 1 5 2 6 3 7 7 8 8 9 9 2 10 3 11 1 12
REMARK H PARENT 6 4 6 5 6 6 1 13 1 14
REMARK Flexibility Score: inf
ROOT
ATOM      1  C   UNL     1      63.318   9.483  -4.684  1.00  0.00     0.171 C 
ENDROOT
BRANCH   1   2
ATOM      2  C   UNL     1      63.259   8.157  -5.469  1.00  0.00     0.237 C 
BRANCH   2   3
ATOM      3  N   UNL     1      61.938   7.950  -6.079  1.00  0.00    -0.350 N 
ATOM      4  H   UNL     1      61.198   8.461  -5.543  1.00  0.00     0.345 HD
ATOM      5  H   UNL     1      61.708   6.929  -6.092  1.00  0.00     0.345 HD
ATOM      6  H   UNL     1      61.942   8.289  -7.068  1.00  0.00     0.345 HD
ENDBRANCH   2   3
BRANCH   2   7
ATOM      7  C   UNL     1      63.597   7.007  -4.557  1.00  0.00     0.100 C 
ATOM      8  O   UNL     1      64.790   6.628  -4.422  1.00  0.00    -0.544 OA
ATOM      9  O   UNL     1      62.586   6.345  -3.872  1.00  0.00    -0.544 OA
ENDBRANCH   2   7
ENDBRANCH   1   2
BRANCH   1  10
ATOM     10  C   UNL     1      62.260   9.547  -3.621  1.00  0.00     0.223 C 
ATOM     11  O   UNL     1      61.082   9.871  -3.930  1.00  0.00    -0.275 OA
ATOM     12  N   UNL     1      62.570   9.210  -2.269  1.00  0.00    -0.369 N 
ATOM     13  H   UNL     1      63.535   8.917  -1.999  1.00  0.00     0.159 HD
ATOM     14  H   UNL     1      61.829   9.246  -1.535  1.00  0.00     0.159 HD
ENDBRANCH   1  10
TORSDOF 4
ENDMDL
MODEL 9
REMARK VINA RESULT:    -4.102     14.028     15.915
REMARK INTER + INTRA:          -5.330
REMARK INTER:                  -5.051
REMARK INTRA:                  -0.279
REMARK UNBOUND:                -0.388
REMARK SMILES NC(=O)C[C@H]([NH3+])C(=O)[O-]
REMARK SMILES IDX 4 1 5 2 6 3 7 7 8 8 9 9 2 10 3 11 1 12
REMARK H PARENT 6 4 6 5 6 6 1 13 1 14
REMARK Flexibility Score: inf
ROOT
ATOM      1  C   UNL     1      62.207   8.884  -6.077  1.00  0.00     0.171 C 
ENDROOT
BRANCH   1   2
ATOM      2  C   UNL     1      63.164   7.816  -5.509  1.00  0.00     0.237 C 
BRANCH   2   3
ATOM      3  N   UNL     1      63.225   6.632  -6.377  1.00  0.00    -0.350 N 
ATOM      4  H   UNL     1      62.644   6.771  -7.236  1.00  0.00     0.345 HD
ATOM      5  H   UNL     1      62.875   5.793  -5.859  1.00  0.00     0.345 HD
ATOM      6  H   UNL     1      64.214   6.444  -6.658  1.00  0.00     0.345 HD
ENDBRANCH   2   3
BRANCH   2   7
ATOM      7  C   UNL     1      62.727   7.423  -4.122  1.00  0.00     0.100 C 
ATOM      8  O   UNL     1      62.693   6.211  -3.783  1.00  0.00    -0.544 OA
ATOM      9  O   UNL     1      62.339   8.401  -3.215  1.00  0.00    -0.544 OA
ENDBRANCH   2   7
ENDBRANCH   1   2
BRANCH   1  10
ATOM     10  C   UNL     1      62.510   9.196  -7.513  1.00  0.00     0.223 C 
ATOM     11  O   UNL     1      63.708   9.296  -7.891  1.00  0.00    -0.275 OA
ATOM     12  N   UNL     1      61.454   9.343  -8.462  1.00  0.00    -0.369 N 
ATOM     13  H   UNL     1      60.456   9.240  -8.171  1.00  0.00     0.159 HD
ATOM     14  H   UNL     1      61.670   9.550  -9.462  1.00  0.00     0.159 HD
ENDBRANCH   1  10
TORSDOF 4
ENDMDL
