MODEL 1
REMARK VINA RESULT:    -3.115      0.000      0.000
REMARK INTER + INTRA:          -5.310
REMARK INTER:                  -4.571
REMARK INTRA:                  -0.739
REMARK UNBOUND:                -0.739
REMARK SMILES O=C([O-])CCCCCCCC(=O)[O-]
REMARK SMILES IDX 7 1 6 2 5 3 4 4 2 5 1 6 3 7 8 8 9 9 10 10 11 11 12 12 13 13
REMARK H PARENT
REMARK Flexibility Score: inf
ROOT
ATOM      1  C   UNL     1      -2.529   9.125  38.437  1.00  0.00     0.000 C 
ENDROOT
BRANCH   1   2
ATOM      2  C   UNL     1      -2.038   9.004  36.987  1.00  0.00     0.000 C 
BRANCH   2   3
ATOM      3  C   UNL     1      -1.092   7.809  36.826  1.00  0.00     0.006 C 
BRANCH   3   4
ATOM      4  C   UNL     1      -1.870   6.529  36.510  1.00  0.00     0.053 C 
BRANCH   4   5
ATOM      5  C   UNL     1      -1.870   5.610  37.690  1.00  0.00     0.041 C 
ATOM      6  O   UNL     1      -2.916   4.984  38.005  1.00  0.00    -0.550 OA
ATOM      7  O   UNL     1      -0.702   5.408  38.415  1.00  0.00    -0.550 OA
ENDBRANCH   4   5
ENDBRANCH   3   4
ENDBRANCH   2   3
ENDBRANCH   1   2
BRANCH   1   8
ATOM      8  C   UNL     1      -1.407   8.896  39.464  1.00  0.00     0.000 C 
BRANCH   8   9
ATOM      9  C   UNL     1      -1.851   8.003  40.636  1.00  0.00     0.006 C 
BRANCH   9  10
ATOM     10  C   UNL     1      -3.341   7.647  40.559  1.00  0.00     0.053 C 
BRANCH  10  11
ATOM     11  C   UNL     1      -3.861   7.140  41.869  1.00  0.00     0.041 C 
ATOM     12  O   UNL     1      -4.259   7.947  42.750  1.00  0.00    -0.550 OA
ATOM     13  O   UNL     1      -3.935   5.772  42.107  1.00  0.00    -0.550 OA
ENDBRANCH  10  11
ENDBRANCH   9  10
ENDBRANCH   8   9
ENDBRANCH   1   8
TORSDOF 8
ENDMDL
MODEL 2
REMARK VINA RESULT:    -3.088      1.588      4.617
REMARK INTER + INTRA:          -5.271
REMARK INTER:                  -4.662
REMARK INTRA:                  -0.609
REMARK UNBOUND:                -0.739
REMARK SMILES O=C([O-])CCCCCCCC(=O)[O-]
REMARK SMILES IDX 7 1 6 2 5 3 4 4 2 5 1 6 3 7 8 8 9 9 10 10 11 11 12 12 13 13
REMARK H PARENT
REMARK Flexibility Score: inf
ROOT
ATOM      1  C   UNL     1      -2.675   9.075  38.862  1.00  0.00     0.000 C 
ENDROOT
BRANCH   1   2
ATOM      2  C   UNL     1      -1.625   8.623  39.888  1.00  0.00     0.000 C 
BRANCH   2   3
ATOM      3  C   UNL     1      -2.267   7.781  40.996  1.00  0.00     0.006 C 
BRANCH   3   4
ATOM      4  C   UNL     1      -3.683   7.345  40.606  1.00  0.00     0.053 C 
BRANCH   4   5
ATOM      5  C   UNL     1      -3.712   5.883  40.289  1.00  0.00     0.041 C 
ATOM      6  O   UNL     1      -4.366   5.091  41.017  1.00  0.00    -0.550 OA
ATOM      7  O   UNL     1      -3.056   5.402  39.163  1.00  0.00    -0.550 OA
ENDBRANCH   4   5
ENDBRANCH   3   4
ENDBRANCH   2   3
ENDBRANCH   1   2
BRANCH   1   8
ATOM      8  C   UNL     1      -2.121   9.123  37.428  1.00  0.00     0.000 C 
BRANCH   8   9
ATOM      9  C   UNL     1      -1.590   7.759  36.953  1.00  0.00     0.006 C 
BRANCH   9  10
ATOM     10  C   UNL     1      -0.233   7.881  36.248  1.00  0.00     0.053 C 
BRANCH  10  11
ATOM     11  C   UNL     1       0.894   7.427  37.125  1.00  0.00     0.041 C 
ATOM     12  O   UNL     1       1.293   8.153  38.073  1.00  0.00    -0.550 OA
ATOM     13  O   UNL     1       1.485   6.187  36.912  1.00  0.00    -0.550 OA
ENDBRANCH  10  11
ENDBRANCH   9  10
ENDBRANCH   8   9
ENDBRANCH   1   8
TORSDOF 8
ENDMDL
MODEL 3
REMARK VINA RESULT:    -3.073      2.008      2.434
REMARK INTER + INTRA:          -5.249
REMARK INTER:                  -4.597
REMARK INTRA:                  -0.652
REMARK UNBOUND:                -0.739
REMARK SMILES O=C([O-])CCCCCCCC(=O)[O-]
REMARK SMILES IDX 7 1 6 2 5 3 4 4 2 5 1 6 3 7 8 8 9 9 10 10 11 11 12 12 13 13
REMARK H PARENT
REMARK Flexibility Score: inf
ROOT
ATOM      1  C   UNL     1      -1.734   8.417  37.583  1.00  0.00     0.000 C 
ENDROOT
BRANCH   1   2
ATOM      2  C   UNL     1      -0.978   7.132  37.954  1.00  0.00     0.000 C 
BRANCH   2   3
ATOM      3  C   UNL     1      -1.642   5.903  37.323  1.00  0.00     0.006 C 
BRANCH   3   4
ATOM      4  C   UNL     1      -2.124   6.206  35.901  1.00  0.00     0.053 C 
BRANCH   4   5
ATOM      5  C   UNL     1      -1.109   5.756  34.898  1.00  0.00     0.041 C 
ATOM      6  O   UNL     1      -1.273   4.676  34.273  1.00  0.00    -0.550 OA
ATOM      7  O   UNL     1      -0.007   6.553  34.617  1.00  0.00    -0.550 OA
ENDBRANCH   4   5
ENDBRANCH   3   4
ENDBRANCH   2   3
ENDBRANCH   1   2
BRANCH   1   8
ATOM      8  C   UNL     1      -2.422   9.071  38.792  1.00  0.00     0.000 C 
BRANCH   8   9
ATOM      9  C   UNL     1      -2.345   8.201  40.059  1.00  0.00     0.006 C 
BRANCH   9  10
ATOM     10  C   UNL     1      -3.697   7.565  40.407  1.00  0.00     0.053 C 
BRANCH  10  11
ATOM     11  C   UNL     1      -3.626   6.069  40.409  1.00  0.00     0.041 C 
ATOM     12  O   UNL     1      -2.584   5.484  40.805  1.00  0.00    -0.550 OA
ATOM     13  O   UNL     1      -4.723   5.319  40.001  1.00  0.00    -0.550 OA
ENDBRANCH  10  11
ENDBRANCH   9  10
ENDBRANCH   8   9
ENDBRANCH   1   8
TORSDOF 8
ENDMDL
MODEL 4
REMARK VINA RESULT:    -3.059      2.653      4.441
REMARK INTER + INTRA:          -5.228
REMARK INTER:                  -4.468
REMARK INTRA:                  -0.760
REMARK UNBOUND:                -0.739
REMARK SMILES O=C([O-])CCCCCCCC(=O)[O-]
REMARK SMILES IDX 7 1 6 2 5 3 4 4 2 5 1 6 3 7 8 8 9 9 10 10 11 11 12 12 13 13
REMARK H PARENT
REMARK Flexibility Score: inf
ROOT
ATOM      1  C   UNL     1      -3.875   7.242  40.504  1.00  0.00     0.000 C 
ENDROOT
BRANCH   1   2
ATOM      2  C   UNL     1      -2.545   7.996  40.368  1.00  0.00     0.000 C 
BRANCH   2   3
ATOM      3  C   UNL     1      -2.559   8.916  39.142  1.00  0.00     0.006 C 
BRANCH   3   4
ATOM      4  C   UNL     1      -1.145   9.120  38.590  1.00  0.00     0.053 C 
BRANCH   4   5
ATOM      5  C   UNL     1      -1.152   9.063  37.095  1.00  0.00     0.041 C 
ATOM      6  O   UNL     1      -0.071   9.125  36.454  1.00  0.00    -0.550 OA
ATOM      7  O   UNL     1      -2.349   8.893  36.411  1.00  0.00    -0.550 OA
ENDBRANCH   4   5
ENDBRANCH   3   4
ENDBRANCH   2   3
ENDBRANCH   1   2
BRANCH   1   8
ATOM      8  C   UNL     1      -3.745   5.744  40.179  1.00  0.00     0.000 C 
BRANCH   8   9
ATOM      9  C   UNL     1      -2.346   5.372  39.657  1.00  0.00     0.006 C 
BRANCH   9  10
ATOM     10  C   UNL     1      -2.342   5.116  38.145  1.00  0.00     0.053 C 
BRANCH  10  11
ATOM     11  C   UNL     1      -1.046   5.521  37.513  1.00  0.00     0.041 C 
ATOM     12  O   UNL     1      -0.048   5.791  38.231  1.00  0.00    -0.550 OA
ATOM     13  O   UNL     1      -0.931   5.571  36.129  1.00  0.00    -0.550 OA
ENDBRANCH  10  11
ENDBRANCH   9  10
ENDBRANCH   8   9
ENDBRANCH   1   8
TORSDOF 8
ENDMDL
MODEL 5
REMARK VINA RESULT:    -3.048      1.948      4.903
REMARK INTER + INTRA:          -5.212
REMARK INTER:                  -4.547
REMARK INTRA:                  -0.665
REMARK UNBOUND:                -0.739
REMARK SMILES O=C([O-])CCCCCCCC(=O)[O-]
REMARK SMILES IDX 7 1 6 2 5 3 4 4 2 5 1 6 3 7 8 8 9 9 10 10 11 11 12 12 13 13
REMARK H PARENT
REMARK Flexibility Score: inf
ROOT
ATOM      1  C   UNL     1      -1.697   8.179  40.396  1.00  0.00     0.000 C 
ENDROOT
BRANCH   1   2
ATOM      2  C   UNL     1      -2.784   7.810  41.416  1.00  0.00     0.000 C 
BRANCH   2   3
ATOM      3  C   UNL     1      -4.010   7.209  40.717  1.00  0.00     0.006 C 
BRANCH   3   4
ATOM      4  C   UNL     1      -3.798   5.722  40.417  1.00  0.00     0.053 C 
BRANCH   4   5
ATOM      5  C   UNL     1      -3.421   4.984  41.662  1.00  0.00     0.041 C 
ATOM      6  O   UNL     1      -4.249   4.863  42.602  1.00  0.00    -0.550 OA
ATOM      7  O   UNL     1      -2.170   4.389  41.766  1.00  0.00    -0.550 OA
ENDBRANCH   4   5
ENDBRANCH   3   4
ENDBRANCH   2   3
ENDBRANCH   1   2
BRANCH   1   8
ATOM      8  C   UNL     1      -2.261   8.904  39.163  1.00  0.00     0.000 C 
BRANCH   8   9
ATOM      9  C   UNL     1      -1.762   8.297  37.840  1.00  0.00     0.006 C 
BRANCH   9  10
ATOM     10  C   UNL     1      -0.676   7.237  38.063  1.00  0.00     0.053 C 
BRANCH  10  11
ATOM     11  C   UNL     1       0.629   7.636  37.445  1.00  0.00     0.041 C 
ATOM     12  O   UNL     1       1.441   6.757  37.054  1.00  0.00    -0.550 OA
ATOM     13  O   UNL     1       0.936   8.981  37.273  1.00  0.00    -0.550 OA
ENDBRANCH  10  11
ENDBRANCH   9  10
ENDBRANCH   8   9
ENDBRANCH   1   8
TORSDOF 8
ENDMDL
MODEL 6
REMARK VINA RESULT:    -2.980      2.230      2.893
REMARK INTER + INTRA:          -5.112
REMARK INTER:                  -4.509
REMARK INTRA:                  -0.603
REMARK UNBOUND:                -0.739
REMARK SMILES O=C([O-])CCCCCCCC(=O)[O-]
REMARK SMILES IDX 7 1 6 2 5 3 4 4 2 5 1 6 3 7 8 8 9 9 10 10 11 11 12 12 13 13
REMARK H PARENT
REMARK Flexibility Score: inf
ROOT
ATOM      1  C   UNL     1      -1.689   8.208  37.847  1.00  0.00     0.000 C 
ENDROOT
BRANCH   1   2
ATOM      2  C   UNL     1      -0.547   9.006  37.200  1.00  0.00     0.000 C 
BRANCH   2   3
ATOM      3  C   UNL     1       0.815   8.535  37.723  1.00  0.00     0.006 C 
BRANCH   3   4
ATOM      4  C   UNL     1       0.772   7.057  38.119  1.00  0.00     0.053 C 
BRANCH   4   5
ATOM      5  C   UNL     1       1.529   6.832  39.390  1.00  0.00     0.041 C 
ATOM      6  O   UNL     1       2.704   6.383  39.356  1.00  0.00    -0.550 OA
ATOM      7  O   UNL     1       0.953   7.165  40.610  1.00  0.00    -0.550 OA
ENDBRANCH   4   5
ENDBRANCH   3   4
ENDBRANCH   2   3
ENDBRANCH   1   2
BRANCH   1   8
ATOM      8  C   UNL     1      -2.368   8.971  38.997  1.00  0.00     0.000 C 
BRANCH   8   9
ATOM      9  C   UNL     1      -2.399   8.162  40.306  1.00  0.00     0.006 C 
BRANCH   9  10
ATOM     10  C   UNL     1      -3.728   7.418  40.495  1.00  0.00     0.053 C 
BRANCH  10  11
ATOM     11  C   UNL     1      -3.599   5.959  40.183  1.00  0.00     0.041 C 
ATOM     12  O   UNL     1      -4.628   5.248  40.040  1.00  0.00    -0.550 OA
ATOM     13  O   UNL     1      -2.342   5.389  40.022  1.00  0.00    -0.550 OA
ENDBRANCH  10  11
ENDBRANCH   9  10
ENDBRANCH   8   9
ENDBRANCH   1   8
TORSDOF 8
ENDMDL
MODEL 7
REMARK VINA RESULT:    -2.967      1.893      4.729
REMARK INTER + INTRA:          -5.094
REMARK INTER:                  -4.532
REMARK INTRA:                  -0.562
REMARK UNBOUND:                -0.739
REMARK SMILES O=C([O-])CCCCCCCC(=O)[O-]
REMARK SMILES IDX 7 1 6 2 5 3 4 4 2 5 1 6 3 7 8 8 9 9 10 10 11 11 12 12 13 13
REMARK H PARENT
REMARK Flexibility Score: inf
ROOT
ATOM      1  C   UNL     1      -1.510   8.707  37.777  1.00  0.00     0.000 C 
ENDROOT
BRANCH   1   2
ATOM      2  C   UNL     1      -2.382   8.979  39.012  1.00  0.00     0.000 C 
BRANCH   2   3
ATOM      3  C   UNL     1      -2.481   7.733  39.899  1.00  0.00     0.006 C 
BRANCH   3   4
ATOM      4  C   UNL     1      -3.882   7.596  40.502  1.00  0.00     0.053 C 
BRANCH   4   5
ATOM      5  C   UNL     1      -3.797   7.162  41.931  1.00  0.00     0.041 C 
ATOM      6  O   UNL     1      -3.856   8.013  42.856  1.00  0.00    -0.550 OA
ATOM      7  O   UNL     1      -3.702   5.811  42.243  1.00  0.00    -0.550 OA
ENDBRANCH   4   5
ENDBRANCH   3   4
ENDBRANCH   2   3
ENDBRANCH   1   2
BRANCH   1   8
ATOM      8  C   UNL     1      -1.540   7.232  37.343  1.00  0.00     0.000 C 
BRANCH   8   9
ATOM      9  C   UNL     1      -0.148   6.577  37.375  1.00  0.00     0.006 C 
BRANCH   9  10
ATOM     10  C   UNL     1       0.933   7.541  37.881  1.00  0.00     0.053 C 
BRANCH  10  11
ATOM     11  C   UNL     1       1.522   7.085  39.180  1.00  0.00     0.041 C 
ATOM     12  O   UNL     1       0.953   7.365  40.268  1.00  0.00    -0.550 OA
ATOM     13  O   UNL     1       2.686   6.326  39.189  1.00  0.00    -0.550 OA
ENDBRANCH  10  11
ENDBRANCH   9  10
ENDBRANCH   8   9
ENDBRANCH   1   8
TORSDOF 8
ENDMDL
MODEL 8
REMARK VINA RESULT:    -2.931      3.127      4.614
REMARK INTER + INTRA:          -5.040
REMARK INTER:                  -4.238
REMARK INTRA:                  -0.802
REMARK UNBOUND:                -0.739
REMARK SMILES O=C([O-])CCCCCCCC(=O)[O-]
REMARK SMILES IDX 7 1 6 2 5 3 4 4 2 5 1 6 3 7 8 8 9 9 10 10 11 11 12 12 13 13
REMARK H PARENT
REMARK Flexibility Score: inf
ROOT
ATOM      1  C   UNL     1      -2.137   7.021  40.181  1.00  0.00     0.000 C 
ENDROOT
BRANCH   1   2
ATOM      2  C   UNL     1      -2.473   8.316  39.427  1.00  0.00     0.000 C 
BRANCH   2   3
ATOM      3  C   UNL     1      -1.197   9.081  39.056  1.00  0.00     0.006 C 
BRANCH   3   4
ATOM      4  C   UNL     1       0.045   8.204  39.241  1.00  0.00     0.053 C 
BRANCH   4   5
ATOM      5  C   UNL     1       0.772   8.048  37.943  1.00  0.00     0.041 C 
ATOM      6  O   UNL     1       1.249   6.929  37.615  1.00  0.00    -0.550 OA
ATOM      7  O   UNL     1       0.884   9.125  37.073  1.00  0.00    -0.550 OA
ENDBRANCH   4   5
ENDBRANCH   3   4
ENDBRANCH   2   3
ENDBRANCH   1   2
BRANCH   1   8
ATOM      8  C   UNL     1      -2.782   5.779  39.543  1.00  0.00     0.000 C 
BRANCH   8   9
ATOM      9  C   UNL     1      -1.913   5.165  38.431  1.00  0.00     0.006 C 
BRANCH   9  10
ATOM     10  C   UNL     1      -2.684   5.008  37.115  1.00  0.00     0.053 C 
BRANCH  10  11
ATOM     11  C   UNL     1      -2.111   5.862  36.026  1.00  0.00     0.041 C 
ATOM     12  O   UNL     1      -2.027   7.109  36.176  1.00  0.00    -0.550 OA
ATOM     13  O   UNL     1      -1.641   5.277  34.856  1.00  0.00    -0.550 OA
ENDBRANCH  10  11
ENDBRANCH   9  10
ENDBRANCH   8   9
ENDBRANCH   1   8
TORSDOF 8
ENDMDL
MODEL 9
REMARK VINA RESULT:    -2.882      1.584      2.290
REMARK INTER + INTRA:          -4.969
REMARK INTER:                  -4.479
REMARK INTRA:                  -0.490
REMARK UNBOUND:                -0.739
REMARK SMILES O=C([O-])CCCCCCCC(=O)[O-]
REMARK SMILES IDX 7 1 6 2 5 3 4 4 2 5 1 6 3 7 8 8 9 9 10 10 11 11 12 12 13 13
REMARK H PARENT
REMARK Flexibility Score: inf
ROOT
ATOM      1  C   UNL     1      -1.998   8.429  37.438  1.00  0.00     0.000 C 
ENDROOT
BRANCH   1   2
ATOM      2  C   UNL     1      -0.859   9.112  36.666  1.00  0.00     0.000 C 
BRANCH   2   3
ATOM      3  C   UNL     1       0.486   8.895  37.368  1.00  0.00     0.006 C 
BRANCH   3   4
ATOM      4  C   UNL     1       0.979   7.458  37.182  1.00  0.00     0.053 C 
BRANCH   4   5
ATOM      5  C   UNL     1       0.981   6.731  38.489  1.00  0.00     0.041 C 
ATOM      6  O   UNL     1       1.736   7.110  39.423  1.00  0.00    -0.550 OA
ATOM      7  O   UNL     1       0.116   5.664  38.694  1.00  0.00    -0.550 OA
ENDBRANCH   4   5
ENDBRANCH   3   4
ENDBRANCH   2   3
ENDBRANCH   1   2
BRANCH   1   8
ATOM      8  C   UNL     1      -2.312   9.124  38.772  1.00  0.00     0.000 C 
BRANCH   8   9
ATOM      9  C   UNL     1      -2.185   8.176  39.978  1.00  0.00     0.006 C 
BRANCH   9  10
ATOM     10  C   UNL     1      -3.553   7.709  40.492  1.00  0.00     0.053 C 
BRANCH  10  11
ATOM     11  C   UNL     1      -3.515   7.371  41.951  1.00  0.00     0.041 C 
ATOM     12  O   UNL     1      -2.692   6.522  42.384  1.00  0.00    -0.550 OA
ATOM     13  O   UNL     1      -4.369   8.016  42.838  1.00  0.00    -0.550 OA
ENDBRANCH  10  11
ENDBRANCH   9  10
ENDBRANCH   8   9
ENDBRANCH   1   8
TORSDOF 8
ENDMDL
