MODEL 1
REMARK VINA RESULT:    -6.731      0.000      0.000
REMARK INTER + INTRA:          -8.627
REMARK INTER:                  -8.305
REMARK INTRA:                  -0.322
REMARK UNBOUND:                -0.322
REMARK SMILES Oc1cc(O)c2cc(O)c(-c3cc(O)c(O)c(O)c3)[o+]c2c1
REMARK SMILES IDX 10 1 20 2 21 3 22 4 2 5 3 6 4 7 6 8 7 9 8 10 11 11 12 12
REMARK SMILES IDX 13 13 19 14 15 15 17 16 14 17 16 19 18 21 9 23 1 25 5 27
REMARK H PARENT 14 18 16 20 18 22 9 24 1 26 5 28
REMARK Flexibility Score: inf
ROOT
ATOM      1  C   UNL     1     -23.984  19.164 -19.187  1.00  0.00     0.402 A 
ATOM      2  O   UNL     1     -23.323  19.937 -18.327  1.00  0.00    -0.202 OA
ATOM      3  C   UNL     1     -23.335  21.265 -18.385  1.00  0.00     0.368 A 
ATOM      4  C   UNL     1     -22.618  22.006 -17.441  1.00  0.00     0.162 A 
ATOM      5  C   UNL     1     -22.626  23.403 -17.487  1.00  0.00     0.128 A 
ATOM      6  C   UNL     1     -23.353  24.065 -18.486  1.00  0.00     0.093 A 
ATOM      7  C   UNL     1     -24.075  23.336 -19.442  1.00  0.00     0.136 A 
ATOM      8  C   UNL     1     -24.068  21.928 -19.393  1.00  0.00     0.125 A 
ATOM      9  C   UNL     1     -24.764  21.149 -20.324  1.00  0.00     0.078 A 
ATOM     10  C   UNL     1     -24.719  19.755 -20.235  1.00  0.00     0.223 A 
ENDROOT
BRANCH   1  11
ATOM     11  C   UNL     1     -23.901  17.695 -19.015  1.00  0.00     0.091 A 
ATOM     12  C   UNL     1     -24.600  17.039 -17.990  1.00  0.00     0.068 A 
ATOM     13  C   UNL     1     -24.491  15.652 -17.831  1.00  0.00     0.162 A 
ATOM     14  C   UNL     1     -23.064  16.948 -19.856  1.00  0.00     0.068 A 
ATOM     15  C   UNL     1     -23.672  14.902 -18.688  1.00  0.00     0.200 A 
ATOM     16  C   UNL     1     -22.946  15.561 -19.709  1.00  0.00     0.162 A 
BRANCH  13  17
ATOM     17  O   UNL     1     -25.194  15.007 -16.814  1.00  0.00    -0.504 OA
ATOM     18  H   UNL     1     -24.736  14.374 -16.169  1.00  0.00     0.293 HD
ENDBRANCH  13  17
BRANCH  15  19
ATOM     19  O   UNL     1     -23.604  13.522 -18.490  1.00  0.00    -0.502 OA
ATOM     20  H   UNL     1     -22.802  13.043 -18.106  1.00  0.00     0.293 HD
ENDBRANCH  15  19
BRANCH  16  21
ATOM     21  O   UNL     1     -22.102  14.883 -20.592  1.00  0.00    -0.504 OA
ATOM     22  H   UNL     1     -22.118  15.005 -21.595  1.00  0.00     0.293 HD
ENDBRANCH  16  21
ENDBRANCH   1  11
BRANCH  10  23
ATOM     23  O   UNL     1     -25.369  18.971 -21.189  1.00  0.00    -0.500 OA
ATOM     24  H   UNL     1     -26.165  19.320 -21.710  1.00  0.00     0.294 HD
ENDBRANCH  10  23
BRANCH   5  25
ATOM     25  O   UNL     1     -21.905  24.124 -16.538  1.00  0.00    -0.507 OA
ATOM     26  H   UNL     1     -21.141  23.704 -16.021  1.00  0.00     0.293 HD
ENDBRANCH   5  25
BRANCH   7  27
ATOM     27  O   UNL     1     -24.795  24.005 -20.432  1.00  0.00    -0.507 OA
ATOM     28  H   UNL     1     -25.157  23.520 -21.245  1.00  0.00     0.293 HD
ENDBRANCH   7  27
TORSDOF 7
ENDMDL
MODEL 2
REMARK VINA RESULT:    -6.703      1.848      6.867
REMARK INTER + INTRA:          -8.593
REMARK INTER:                  -8.215
REMARK INTRA:                  -0.378
REMARK UNBOUND:                -0.322
REMARK SMILES Oc1cc(O)c2cc(O)c(-c3cc(O)c(O)c(O)c3)[o+]c2c1
REMARK SMILES IDX 10 1 20 2 21 3 22 4 2 5 3 6 4 7 6 8 7 9 8 10 11 11 12 12
REMARK SMILES IDX 13 13 19 14 15 15 17 16 14 17 16 19 18 21 9 23 1 25 5 27
REMARK H PARENT 14 18 16 20 18 22 9 24 1 26 5 28
REMARK Flexibility Score: inf
ROOT
ATOM      1  C   UNL     1     -23.879  20.942 -19.699  1.00  0.00     0.402 A 
ATOM      2  O   UNL     1     -23.623  19.797 -19.066  1.00  0.00    -0.202 OA
ATOM      3  C   UNL     1     -24.238  18.655 -19.353  1.00  0.00     0.368 A 
ATOM      4  C   UNL     1     -23.908  17.495 -18.646  1.00  0.00     0.162 A 
ATOM      5  C   UNL     1     -24.544  16.285 -18.940  1.00  0.00     0.128 A 
ATOM      6  C   UNL     1     -25.519  16.234 -19.946  1.00  0.00     0.093 A 
ATOM      7  C   UNL     1     -25.862  17.390 -20.662  1.00  0.00     0.136 A 
ATOM      8  C   UNL     1     -25.220  18.608 -20.366  1.00  0.00     0.125 A 
ATOM      9  C   UNL     1     -25.526  19.793 -21.044  1.00  0.00     0.078 A 
ATOM     10  C   UNL     1     -24.864  20.977 -20.707  1.00  0.00     0.223 A 
ENDROOT
BRANCH   1  11
ATOM     11  C   UNL     1     -23.121  22.149 -19.297  1.00  0.00     0.091 A 
ATOM     12  C   UNL     1     -23.561  22.974 -18.250  1.00  0.00     0.068 A 
ATOM     13  C   UNL     1     -22.842  24.123 -17.900  1.00  0.00     0.162 A 
ATOM     14  C   UNL     1     -21.970  22.511 -20.011  1.00  0.00     0.068 A 
ATOM     15  C   UNL     1     -21.677  24.471 -18.601  1.00  0.00     0.200 A 
ATOM     16  C   UNL     1     -21.241  23.657 -19.672  1.00  0.00     0.162 A 
BRANCH  13  17
ATOM     17  O   UNL     1     -23.281  24.933 -16.854  1.00  0.00    -0.504 OA
ATOM     18  H   UNL     1     -23.129  25.934 -16.857  1.00  0.00     0.293 HD
ENDBRANCH  13  17
BRANCH  15  19
ATOM     19  O   UNL     1     -20.994  25.623 -18.207  1.00  0.00    -0.502 OA
ATOM     20  H   UNL     1     -21.250  26.558 -18.489  1.00  0.00     0.293 HD
ENDBRANCH  15  19
BRANCH  16  21
ATOM     21  O   UNL     1     -20.099  23.945 -20.423  1.00  0.00    -0.504 OA
ATOM     22  H   UNL     1     -19.393  23.264 -20.664  1.00  0.00     0.293 HD
ENDBRANCH  16  21
ENDBRANCH   1  11
BRANCH  10  23
ATOM     23  O   UNL     1     -25.201  22.173 -21.342  1.00  0.00    -0.500 OA
ATOM     24  H   UNL     1     -24.644  22.545 -22.103  1.00  0.00     0.294 HD
ENDBRANCH  10  23
BRANCH   5  25
ATOM     25  O   UNL     1     -24.203  15.140 -18.224  1.00  0.00    -0.507 OA
ATOM     26  H   UNL     1     -24.882  14.650 -17.653  1.00  0.00     0.293 HD
ENDBRANCH   5  25
BRANCH   7  27
ATOM     27  O   UNL     1     -26.834  17.328 -21.662  1.00  0.00    -0.507 OA
ATOM     28  H   UNL     1     -27.052  16.460 -22.137  1.00  0.00     0.293 HD
ENDBRANCH   7  27
TORSDOF 7
ENDMDL
MODEL 3
REMARK VINA RESULT:    -6.671      1.849      7.071
REMARK INTER + INTRA:          -8.554
REMARK INTER:                  -8.171
REMARK INTRA:                  -0.383
REMARK UNBOUND:                -0.322
REMARK SMILES Oc1cc(O)c2cc(O)c(-c3cc(O)c(O)c(O)c3)[o+]c2c1
REMARK SMILES IDX 10 1 20 2 21 3 22 4 2 5 3 6 4 7 6 8 7 9 8 10 11 11 12 12
REMARK SMILES IDX 13 13 19 14 15 15 17 16 14 17 16 19 18 21 9 23 1 25 5 27
REMARK H PARENT 14 18 16 20 18 22 9 24 1 26 5 28
REMARK Flexibility Score: inf
ROOT
ATOM      1  C   UNL     1     -23.939  20.887 -19.764  1.00  0.00     0.402 A 
ATOM      2  O   UNL     1     -23.698  19.753 -19.107  1.00  0.00    -0.202 OA
ATOM      3  C   UNL     1     -24.313  18.608 -19.385  1.00  0.00     0.368 A 
ATOM      4  C   UNL     1     -24.000  17.459 -18.652  1.00  0.00     0.162 A 
ATOM      5  C   UNL     1     -24.636  16.247 -18.935  1.00  0.00     0.128 A 
ATOM      6  C   UNL     1     -25.594  16.183 -19.956  1.00  0.00     0.093 A 
ATOM      7  C   UNL     1     -25.920  17.327 -20.699  1.00  0.00     0.136 A 
ATOM      8  C   UNL     1     -25.278  18.547 -20.413  1.00  0.00     0.125 A 
ATOM      9  C   UNL     1     -25.568  19.722 -21.116  1.00  0.00     0.078 A 
ATOM     10  C   UNL     1     -24.906  20.909 -20.789  1.00  0.00     0.223 A 
ENDROOT
BRANCH   1  11
ATOM     11  C   UNL     1     -23.183  22.098 -19.370  1.00  0.00     0.091 A 
ATOM     12  C   UNL     1     -22.001  22.470 -20.030  1.00  0.00     0.068 A 
ATOM     13  C   UNL     1     -21.289  23.606 -19.628  1.00  0.00     0.162 A 
ATOM     14  C   UNL     1     -23.622  22.862 -18.279  1.00  0.00     0.068 A 
ATOM     15  C   UNL     1     -21.743  24.382 -18.551  1.00  0.00     0.200 A 
ATOM     16  C   UNL     1     -22.921  24.001 -17.866  1.00  0.00     0.162 A 
BRANCH  13  17
ATOM     17  O   UNL     1     -20.120  23.972 -20.293  1.00  0.00    -0.504 OA
ATOM     18  H   UNL     1     -19.267  23.434 -20.204  1.00  0.00     0.293 HD
ENDBRANCH  13  17
BRANCH  15  19
ATOM     19  O   UNL     1     -21.000  25.510 -18.196  1.00  0.00    -0.502 OA
ATOM     20  H   UNL     1     -20.103  25.474 -17.735  1.00  0.00     0.293 HD
ENDBRANCH  15  19
BRANCH  16  21
ATOM     21  O   UNL     1     -23.428  24.717 -16.779  1.00  0.00    -0.504 OA
ATOM     22  H   UNL     1     -24.364  25.094 -16.737  1.00  0.00     0.293 HD
ENDBRANCH  16  21
ENDBRANCH   1  11
BRANCH  10  23
ATOM     23  O   UNL     1     -25.227  22.094 -21.451  1.00  0.00    -0.500 OA
ATOM     24  H   UNL     1     -24.510  22.728 -21.784  1.00  0.00     0.294 HD
ENDBRANCH  10  23
BRANCH   5  25
ATOM     25  O   UNL     1     -24.311  15.113 -18.194  1.00  0.00    -0.507 OA
ATOM     26  H   UNL     1     -23.762  15.175 -17.344  1.00  0.00     0.293 HD
ENDBRANCH   5  25
BRANCH   7  27
ATOM     27  O   UNL     1     -26.876  17.251 -21.713  1.00  0.00    -0.507 OA
ATOM     28  H   UNL     1     -27.459  18.045 -21.953  1.00  0.00     0.293 HD
ENDBRANCH   7  27
TORSDOF 7
ENDMDL
MODEL 4
REMARK VINA RESULT:    -6.524      1.620      7.071
REMARK INTER + INTRA:          -8.372
REMARK INTER:                  -8.000
REMARK INTRA:                  -0.372
REMARK UNBOUND:                -0.322
REMARK SMILES Oc1cc(O)c2cc(O)c(-c3cc(O)c(O)c(O)c3)[o+]c2c1
REMARK SMILES IDX 10 1 20 2 21 3 22 4 2 5 3 6 4 7 6 8 7 9 8 10 11 11 12 12
REMARK SMILES IDX 13 13 19 14 15 15 17 16 14 17 16 19 18 21 9 23 1 25 5 27
REMARK H PARENT 14 18 16 20 18 22 9 24 1 26 5 28
REMARK Flexibility Score: inf
ROOT
ATOM      1  C   UNL     1     -23.970  19.818 -19.758  1.00  0.00     0.402 A 
ATOM      2  O   UNL     1     -24.100  18.889 -18.812  1.00  0.00    -0.202 OA
ATOM      3  C   UNL     1     -24.317  17.606 -19.078  1.00  0.00     0.368 A 
ATOM      4  C   UNL     1     -24.438  16.692 -18.026  1.00  0.00     0.162 A 
ATOM      5  C   UNL     1     -24.663  15.338 -18.291  1.00  0.00     0.128 A 
ATOM      6  C   UNL     1     -24.770  14.894 -19.615  1.00  0.00     0.093 A 
ATOM      7  C   UNL     1     -24.653  15.798 -20.681  1.00  0.00     0.136 A 
ATOM      8  C   UNL     1     -24.426  17.162 -20.413  1.00  0.00     0.125 A 
ATOM      9  C   UNL     1     -24.308  18.110 -21.435  1.00  0.00     0.078 A 
ATOM     10  C   UNL     1     -24.089  19.453 -21.115  1.00  0.00     0.223 A 
ENDROOT
BRANCH   1  11
ATOM     11  C   UNL     1     -23.720  21.216 -19.339  1.00  0.00     0.091 A 
ATOM     12  C   UNL     1     -22.430  21.768 -19.363  1.00  0.00     0.068 A 
ATOM     13  C   UNL     1     -22.212  23.085 -18.941  1.00  0.00     0.162 A 
ATOM     14  C   UNL     1     -24.783  21.991 -18.853  1.00  0.00     0.068 A 
ATOM     15  C   UNL     1     -23.281  23.867 -18.477  1.00  0.00     0.200 A 
ATOM     16  C   UNL     1     -24.580  23.309 -18.429  1.00  0.00     0.162 A 
BRANCH  13  17
ATOM     17  O   UNL     1     -20.928  23.628 -18.975  1.00  0.00    -0.504 OA
ATOM     18  H   UNL     1     -20.645  24.362 -18.338  1.00  0.00     0.293 HD
ENDBRANCH  13  17
BRANCH  15  19
ATOM     19  O   UNL     1     -23.010  25.176 -18.076  1.00  0.00    -0.502 OA
ATOM     20  H   UNL     1     -22.478  25.417 -17.252  1.00  0.00     0.293 HD
ENDBRANCH  15  19
BRANCH  16  21
ATOM     21  O   UNL     1     -25.690  24.021 -17.968  1.00  0.00    -0.504 OA
ATOM     22  H   UNL     1     -25.992  24.907 -18.350  1.00  0.00     0.293 HD
ENDBRANCH  16  21
ENDBRANCH   1  11
BRANCH  10  23
ATOM     23  O   UNL     1     -24.022  20.412 -22.127  1.00  0.00    -0.500 OA
ATOM     24  H   UNL     1     -24.840  20.676 -22.664  1.00  0.00     0.294 HD
ENDBRANCH  10  23
BRANCH   5  25
ATOM     25  O   UNL     1     -24.780  14.443 -17.230  1.00  0.00    -0.507 OA
ATOM     26  H   UNL     1     -25.665  14.002 -17.004  1.00  0.00     0.293 HD
ENDBRANCH   5  25
BRANCH   7  27
ATOM     27  O   UNL     1     -24.763  15.345 -21.996  1.00  0.00    -0.507 OA
ATOM     28  H   UNL     1     -24.269  14.519 -22.316  1.00  0.00     0.293 HD
ENDBRANCH   7  27
TORSDOF 7
ENDMDL
MODEL 5
REMARK VINA RESULT:    -6.376      4.567      7.235
REMARK INTER + INTRA:          -8.189
REMARK INTER:                  -7.808
REMARK INTRA:                  -0.381
REMARK UNBOUND:                -0.322
REMARK SMILES Oc1cc(O)c2cc(O)c(-c3cc(O)c(O)c(O)c3)[o+]c2c1
REMARK SMILES IDX 10 1 20 2 21 3 22 4 2 5 3 6 4 7 6 8 7 9 8 10 11 11 12 12
REMARK SMILES IDX 13 13 19 14 15 15 17 16 14 17 16 19 18 21 9 23 1 25 5 27
REMARK H PARENT 14 18 16 20 18 22 9 24 1 26 5 28
REMARK Flexibility Score: inf
ROOT
ATOM      1  C   UNL     1     -26.270  16.099 -21.010  1.00  0.00     0.402 A 
ATOM      2  O   UNL     1     -27.132  15.166 -21.413  1.00  0.00    -0.202 OA
ATOM      3  C   UNL     1     -28.232  15.443 -22.105  1.00  0.00     0.368 A 
ATOM      4  C   UNL     1     -29.083  14.404 -22.495  1.00  0.00     0.162 A 
ATOM      5  C   UNL     1     -30.242  14.680 -23.227  1.00  0.00     0.128 A 
ATOM      6  C   UNL     1     -30.554  16.003 -23.569  1.00  0.00     0.093 A 
ATOM      7  C   UNL     1     -29.711  17.055 -23.184  1.00  0.00     0.136 A 
ATOM      8  C   UNL     1     -28.544  16.776 -22.448  1.00  0.00     0.125 A 
ATOM      9  C   UNL     1     -27.670  17.786 -22.030  1.00  0.00     0.078 A 
ATOM     10  C   UNL     1     -26.527  17.456 -21.295  1.00  0.00     0.223 A 
ENDROOT
BRANCH   1  11
ATOM     11  C   UNL     1     -25.073  15.667 -20.253  1.00  0.00     0.091 A 
ATOM     12  C   UNL     1     -23.835  15.481 -20.886  1.00  0.00     0.068 A 
ATOM     13  C   UNL     1     -22.720  15.051 -20.156  1.00  0.00     0.162 A 
ATOM     14  C   UNL     1     -25.188  15.383 -18.885  1.00  0.00     0.068 A 
ATOM     15  C   UNL     1     -22.831  14.789 -18.782  1.00  0.00     0.200 A 
ATOM     16  C   UNL     1     -24.082  14.953 -18.142  1.00  0.00     0.162 A 
BRANCH  13  17
ATOM     17  O   UNL     1     -21.492  14.875 -20.792  1.00  0.00    -0.504 OA
ATOM     18  H   UNL     1     -20.906  14.071 -20.602  1.00  0.00     0.293 HD
ENDBRANCH  13  17
BRANCH  15  19
ATOM     19  O   UNL     1     -21.687  14.370 -18.100  1.00  0.00    -0.502 OA
ATOM     20  H   UNL     1     -21.089  13.617 -18.407  1.00  0.00     0.293 HD
ENDBRANCH  15  19
BRANCH  16  21
ATOM     21  O   UNL     1     -24.272  14.701 -16.781  1.00  0.00    -0.504 OA
ATOM     22  H   UNL     1     -23.605  14.945 -16.062  1.00  0.00     0.293 HD
ENDBRANCH  16  21
ENDBRANCH   1  11
BRANCH  10  23
ATOM     23  O   UNL     1     -25.678  18.462 -20.832  1.00  0.00    -0.500 OA
ATOM     24  H   UNL     1     -24.935  18.837 -21.409  1.00  0.00     0.294 HD
ENDBRANCH  10  23
BRANCH   5  25
ATOM     25  O   UNL     1     -31.079  13.633 -23.606  1.00  0.00    -0.507 OA
ATOM     26  H   UNL     1     -31.474  12.996 -22.924  1.00  0.00     0.293 HD
ENDBRANCH   5  25
BRANCH   7  27
ATOM     27  O   UNL     1     -30.032  18.369 -23.530  1.00  0.00    -0.507 OA
ATOM     28  H   UNL     1     -29.905  19.135 -22.879  1.00  0.00     0.293 HD
ENDBRANCH   7  27
TORSDOF 7
ENDMDL
MODEL 6
REMARK VINA RESULT:    -6.325      4.642      7.089
REMARK INTER + INTRA:          -8.126
REMARK INTER:                  -7.753
REMARK INTRA:                  -0.373
REMARK UNBOUND:                -0.322
REMARK SMILES Oc1cc(O)c2cc(O)c(-c3cc(O)c(O)c(O)c3)[o+]c2c1
REMARK SMILES IDX 10 1 20 2 21 3 22 4 2 5 3 6 4 7 6 8 7 9 8 10 11 11 12 12
REMARK SMILES IDX 13 13 19 14 15 15 17 16 14 17 16 19 18 21 9 23 1 25 5 27
REMARK H PARENT 14 18 16 20 18 22 9 24 1 26 5 28
REMARK Flexibility Score: inf
ROOT
ATOM      1  C   UNL     1     -26.315  16.004 -21.073  1.00  0.00     0.402 A 
ATOM      2  O   UNL     1     -27.160  15.076 -21.521  1.00  0.00    -0.202 OA
ATOM      3  C   UNL     1     -28.250  15.364 -22.225  1.00  0.00     0.368 A 
ATOM      4  C   UNL     1     -29.084  14.331 -22.663  1.00  0.00     0.162 A 
ATOM      5  C   UNL     1     -30.231  14.618 -23.408  1.00  0.00     0.128 A 
ATOM      6  C   UNL     1     -30.548  15.948 -23.717  1.00  0.00     0.093 A 
ATOM      7  C   UNL     1     -29.722  16.996 -23.284  1.00  0.00     0.136 A 
ATOM      8  C   UNL     1     -28.567  16.704 -22.534  1.00  0.00     0.125 A 
ATOM      9  C   UNL     1     -27.710  17.708 -22.069  1.00  0.00     0.078 A 
ATOM     10  C   UNL     1     -26.578  17.367 -21.323  1.00  0.00     0.223 A 
ENDROOT
BRANCH   1  11
ATOM     11  C   UNL     1     -25.129  15.560 -20.307  1.00  0.00     0.091 A 
ATOM     12  C   UNL     1     -25.195  15.331 -18.923  1.00  0.00     0.068 A 
ATOM     13  C   UNL     1     -24.056  14.933 -18.213  1.00  0.00     0.162 A 
ATOM     14  C   UNL     1     -23.897  15.417 -20.962  1.00  0.00     0.068 A 
ATOM     15  C   UNL     1     -22.830  14.768 -18.874  1.00  0.00     0.200 A 
ATOM     16  C   UNL     1     -22.751  15.019 -20.265  1.00  0.00     0.162 A 
BRANCH  13  17
ATOM     17  O   UNL     1     -24.133  14.702 -16.840  1.00  0.00    -0.504 OA
ATOM     18  H   UNL     1     -23.435  15.063 -16.201  1.00  0.00     0.293 HD
ENDBRANCH  13  17
BRANCH  15  19
ATOM     19  O   UNL     1     -21.727  14.363 -18.120  1.00  0.00    -0.502 OA
ATOM     20  H   UNL     1     -21.660  13.472 -17.649  1.00  0.00     0.293 HD
ENDBRANCH  15  19
BRANCH  16  21
ATOM     21  O   UNL     1     -21.563  14.888 -20.988  1.00  0.00    -0.504 OA
ATOM     22  H   UNL     1     -21.246  14.023 -21.403  1.00  0.00     0.293 HD
ENDBRANCH  16  21
ENDBRANCH   1  11
BRANCH  10  23
ATOM     23  O   UNL     1     -25.748  18.365 -20.813  1.00  0.00    -0.500 OA
ATOM     24  H   UNL     1     -24.850  18.148 -20.396  1.00  0.00     0.294 HD
ENDBRANCH  10  23
BRANCH   5  25
ATOM     25  O   UNL     1     -31.050  13.576 -23.835  1.00  0.00    -0.507 OA
ATOM     26  H   UNL     1     -31.892  13.322 -23.329  1.00  0.00     0.293 HD
ENDBRANCH   5  25
BRANCH   7  27
ATOM     27  O   UNL     1     -30.048  18.316 -23.596  1.00  0.00    -0.507 OA
ATOM     28  H   UNL     1     -29.767  18.739 -24.473  1.00  0.00     0.293 HD
ENDBRANCH   7  27
TORSDOF 7
ENDMDL
MODEL 7
REMARK VINA RESULT:    -5.950      5.303      8.157
REMARK INTER + INTRA:          -7.664
REMARK INTER:                  -7.287
REMARK INTRA:                  -0.377
REMARK UNBOUND:                -0.322
REMARK SMILES Oc1cc(O)c2cc(O)c(-c3cc(O)c(O)c(O)c3)[o+]c2c1
REMARK SMILES IDX 10 1 20 2 21 3 22 4 2 5 3 6 4 7 6 8 7 9 8 10 11 11 12 12
REMARK SMILES IDX 13 13 19 14 15 15 17 16 14 17 16 19 18 21 9 23 1 25 5 27
REMARK H PARENT 14 18 16 20 18 22 9 24 1 26 5 28
REMARK Flexibility Score: inf
ROOT
ATOM      1  C   UNL     1     -26.165  15.254 -21.859  1.00  0.00     0.402 A 
ATOM      2  O   UNL     1     -26.526  14.196 -22.586  1.00  0.00    -0.202 OA
ATOM      3  C   UNL     1     -27.486  14.238 -23.504  1.00  0.00     0.368 A 
ATOM      4  C   UNL     1     -27.802  13.084 -24.228  1.00  0.00     0.162 A 
ATOM      5  C   UNL     1     -28.807  13.115 -25.199  1.00  0.00     0.128 A 
ATOM      6  C   UNL     1     -29.503  14.305 -25.447  1.00  0.00     0.093 A 
ATOM      7  C   UNL     1     -29.199  15.470 -24.728  1.00  0.00     0.136 A 
ATOM      8  C   UNL     1     -28.186  15.439 -23.750  1.00  0.00     0.125 A 
ATOM      9  C   UNL     1     -27.845  16.568 -22.997  1.00  0.00     0.078 A 
ATOM     10  C   UNL     1     -26.835  16.482 -22.034  1.00  0.00     0.223 A 
ENDROOT
BRANCH   1  11
ATOM     11  C   UNL     1     -25.074  15.086 -20.873  1.00  0.00     0.091 A 
ATOM     12  C   UNL     1     -23.726  15.211 -21.244  1.00  0.00     0.068 A 
ATOM     13  C   UNL     1     -22.708  15.027 -20.301  1.00  0.00     0.162 A 
ATOM     14  C   UNL     1     -25.386  14.741 -19.550  1.00  0.00     0.068 A 
ATOM     15  C   UNL     1     -23.024  14.704 -18.972  1.00  0.00     0.200 A 
ATOM     16  C   UNL     1     -24.379  14.555 -18.596  1.00  0.00     0.162 A 
BRANCH  13  17
ATOM     17  O   UNL     1     -21.373  15.159 -20.677  1.00  0.00    -0.504 OA
ATOM     18  H   UNL     1     -20.753  14.360 -20.727  1.00  0.00     0.293 HD
ENDBRANCH  13  17
BRANCH  15  19
ATOM     19  O   UNL     1     -21.971  14.539 -18.070  1.00  0.00    -0.502 OA
ATOM     20  H   UNL     1     -21.210  15.193 -17.962  1.00  0.00     0.293 HD
ENDBRANCH  15  19
BRANCH  16  21
ATOM     21  O   UNL     1     -24.769  14.223 -17.296  1.00  0.00    -0.504 OA
ATOM     22  H   UNL     1     -24.253  14.482 -16.467  1.00  0.00     0.293 HD
ENDBRANCH  16  21
ENDBRANCH   1  11
BRANCH  10  23
ATOM     23  O   UNL     1     -26.525  17.589 -21.244  1.00  0.00    -0.500 OA
ATOM     24  H   UNL     1     -25.662  18.105 -21.368  1.00  0.00     0.294 HD
ENDBRANCH  10  23
BRANCH   5  25
ATOM     25  O   UNL     1     -29.107  11.956 -25.910  1.00  0.00    -0.507 OA
ATOM     26  H   UNL     1     -29.568  11.168 -25.469  1.00  0.00     0.293 HD
ENDBRANCH   5  25
BRANCH   7  27
ATOM     27  O   UNL     1     -29.899  16.650 -24.983  1.00  0.00    -0.507 OA
ATOM     28  H   UNL     1     -29.690  17.509 -24.487  1.00  0.00     0.293 HD
ENDBRANCH   7  27
TORSDOF 7
ENDMDL
MODEL 8
REMARK VINA RESULT:    -5.858      5.399      7.468
REMARK INTER + INTRA:          -7.550
REMARK INTER:                  -7.210
REMARK INTRA:                  -0.339
REMARK UNBOUND:                -0.322
REMARK SMILES Oc1cc(O)c2cc(O)c(-c3cc(O)c(O)c(O)c3)[o+]c2c1
REMARK SMILES IDX 10 1 20 2 21 3 22 4 2 5 3 6 4 7 6 8 7 9 8 10 11 11 12 12
REMARK SMILES IDX 13 13 19 14 15 15 17 16 14 17 16 19 18 21 9 23 1 25 5 27
REMARK H PARENT 14 18 16 20 18 22 9 24 1 26 5 28
REMARK Flexibility Score: inf
ROOT
ATOM      1  C   UNL     1     -26.351  14.795 -22.576  1.00  0.00     0.402 A 
ATOM      2  O   UNL     1     -25.974  14.325 -21.388  1.00  0.00    -0.202 OA
ATOM      3  C   UNL     1     -25.362  15.069 -20.473  1.00  0.00     0.368 A 
ATOM      4  C   UNL     1     -25.003  14.501 -19.247  1.00  0.00     0.162 A 
ATOM      5  C   UNL     1     -24.362  15.272 -18.273  1.00  0.00     0.128 A 
ATOM      6  C   UNL     1     -24.076  16.621 -18.526  1.00  0.00     0.093 A 
ATOM      7  C   UNL     1     -24.428  17.204 -19.752  1.00  0.00     0.136 A 
ATOM      8  C   UNL     1     -25.075  16.426 -20.732  1.00  0.00     0.125 A 
ATOM      9  C   UNL     1     -25.443  16.953 -21.975  1.00  0.00     0.078 A 
ATOM     10  C   UNL     1     -26.077  16.136 -22.916  1.00  0.00     0.223 A 
ENDROOT
BRANCH   1  11
ATOM     11  C   UNL     1     -27.035  13.871 -23.510  1.00  0.00     0.091 A 
ATOM     12  C   UNL     1     -26.317  12.931 -24.266  1.00  0.00     0.068 A 
ATOM     13  C   UNL     1     -26.980  12.082 -25.160  1.00  0.00     0.162 A 
ATOM     14  C   UNL     1     -28.422  13.973 -23.690  1.00  0.00     0.068 A 
ATOM     15  C   UNL     1     -28.371  12.169 -25.321  1.00  0.00     0.200 A 
ATOM     16  C   UNL     1     -29.098  13.130 -24.579  1.00  0.00     0.162 A 
BRANCH  13  17
ATOM     17  O   UNL     1     -26.260  11.146 -25.901  1.00  0.00    -0.504 OA
ATOM     18  H   UNL     1     -25.508  11.424 -26.521  1.00  0.00     0.293 HD
ENDBRANCH  13  17
BRANCH  15  19
ATOM     19  O   UNL     1     -28.983  11.294 -26.220  1.00  0.00    -0.502 OA
ATOM     20  H   UNL     1     -28.906  10.288 -26.173  1.00  0.00     0.293 HD
ENDBRANCH  15  19
BRANCH  16  21
ATOM     21  O   UNL     1     -30.482  13.283 -24.695  1.00  0.00    -0.504 OA
ATOM     22  H   UNL     1     -31.065  13.706 -23.986  1.00  0.00     0.293 HD
ENDBRANCH  16  21
ENDBRANCH   1  11
BRANCH  10  23
ATOM     23  O   UNL     1     -26.401  16.640 -24.175  1.00  0.00    -0.500 OA
ATOM     24  H   UNL     1     -27.249  17.172 -24.333  1.00  0.00     0.294 HD
ENDBRANCH  10  23
BRANCH   5  25
ATOM     25  O   UNL     1     -24.012  14.689 -17.057  1.00  0.00    -0.507 OA
ATOM     26  H   UNL     1     -23.902  13.686 -16.963  1.00  0.00     0.293 HD
ENDBRANCH   5  25
BRANCH   7  27
ATOM     27  O   UNL     1     -24.138  18.548 -19.994  1.00  0.00    -0.507 OA
ATOM     28  H   UNL     1     -23.354  18.825 -20.574  1.00  0.00     0.293 HD
ENDBRANCH   7  27
TORSDOF 7
ENDMDL
MODEL 9
REMARK VINA RESULT:    -5.853      4.644      6.236
REMARK INTER + INTRA:          -7.544
REMARK INTER:                  -7.162
REMARK INTRA:                  -0.383
REMARK UNBOUND:                -0.322
REMARK SMILES Oc1cc(O)c2cc(O)c(-c3cc(O)c(O)c(O)c3)[o+]c2c1
REMARK SMILES IDX 10 1 20 2 21 3 22 4 2 5 3 6 4 7 6 8 7 9 8 10 11 11 12 12
REMARK SMILES IDX 13 13 19 14 15 15 17 16 14 17 16 19 18 21 9 23 1 25 5 27
REMARK H PARENT 14 18 16 20 18 22 9 24 1 26 5 28
REMARK Flexibility Score: inf
ROOT
ATOM      1  C   UNL     1     -23.456  22.811 -21.003  1.00  0.00     0.402 A 
ATOM      2  O   UNL     1     -22.509  23.584 -20.473  1.00  0.00    -0.202 OA
ATOM      3  C   UNL     1     -22.472  23.910 -19.185  1.00  0.00     0.368 A 
ATOM      4  C   UNL     1     -21.441  24.723 -18.706  1.00  0.00     0.162 A 
ATOM      5  C   UNL     1     -21.387  25.070 -17.353  1.00  0.00     0.128 A 
ATOM      6  C   UNL     1     -22.372  24.603 -16.472  1.00  0.00     0.093 A 
ATOM      7  C   UNL     1     -23.414  23.787 -16.938  1.00  0.00     0.136 A 
ATOM      8  C   UNL     1     -23.466  23.438 -18.301  1.00  0.00     0.125 A 
ATOM      9  C   UNL     1     -24.485  22.634 -18.823  1.00  0.00     0.078 A 
ATOM     10  C   UNL     1     -24.496  22.321 -20.186  1.00  0.00     0.223 A 
ENDROOT
BRANCH   1  11
ATOM     11  C   UNL     1     -23.386  22.510 -22.451  1.00  0.00     0.091 A 
ATOM     12  C   UNL     1     -22.657  21.413 -22.936  1.00  0.00     0.068 A 
ATOM     13  C   UNL     1     -22.585  21.159 -24.311  1.00  0.00     0.162 A 
ATOM     14  C   UNL     1     -24.012  23.369 -23.365  1.00  0.00     0.068 A 
ATOM     15  C   UNL     1     -23.232  22.006 -25.223  1.00  0.00     0.200 A 
ATOM     16  C   UNL     1     -23.949  23.127 -24.743  1.00  0.00     0.162 A 
BRANCH  13  17
ATOM     17  O   UNL     1     -21.864  20.063 -24.783  1.00  0.00    -0.504 OA
ATOM     18  H   UNL     1     -21.532  20.017 -25.739  1.00  0.00     0.293 HD
ENDBRANCH  13  17
BRANCH  15  19
ATOM     19  O   UNL     1     -23.134  21.703 -26.582  1.00  0.00    -0.502 OA
ATOM     20  H   UNL     1     -23.556  22.252 -27.317  1.00  0.00     0.293 HD
ENDBRANCH  15  19
BRANCH  16  21
ATOM     21  O   UNL     1     -24.609  24.020 -25.590  1.00  0.00    -0.504 OA
ATOM     22  H   UNL     1     -25.471  23.810 -26.073  1.00  0.00     0.293 HD
ENDBRANCH  16  21
ENDBRANCH   1  11
BRANCH  10  23
ATOM     23  O   UNL     1     -25.536  21.563 -20.722  1.00  0.00    -0.500 OA
ATOM     24  H   UNL     1     -25.973  20.814 -20.198  1.00  0.00     0.294 HD
ENDBRANCH  10  23
BRANCH   5  25
ATOM     25  O   UNL     1     -20.352  25.882 -16.894  1.00  0.00    -0.507 OA
ATOM     26  H   UNL     1     -20.485  26.520 -16.117  1.00  0.00     0.293 HD
ENDBRANCH   5  25
BRANCH   7  27
ATOM     27  O   UNL     1     -24.390  23.328 -16.052  1.00  0.00    -0.507 OA
ATOM     28  H   UNL     1     -25.378  23.403 -16.266  1.00  0.00     0.293 HD
ENDBRANCH   7  27
TORSDOF 7
ENDMDL
