MODEL 1
REMARK VINA RESULT:    -5.398      0.000      0.000
REMARK INTER + INTRA:          -5.810
REMARK INTER:                  -5.714
REMARK INTRA:                  -0.096
REMARK UNBOUND:                -0.096
REMARK SMILES C=C(C)[C@@H]1CC=C(C)C(=O)C1
REMARK SMILES IDX 8 1 7 2 6 3 5 4 4 5 11 6 9 7 10 8 2 9 1 10 3 11
REMARK H PARENT
REMARK Flexibility Score: inf
ROOT
ATOM      1  C   UNL     1      13.693 -37.270 -28.471  1.00  0.00     0.048 C 
ATOM      2  C   UNL     1      13.291 -36.204 -29.452  1.00  0.00    -0.012 C 
ATOM      3  C   UNL     1      13.374 -36.443 -30.772  1.00  0.00    -0.019 C 
ATOM      4  C   UNL     1      12.966 -35.418 -31.797  1.00  0.00     0.036 C 
ATOM      5  C   UNL     1      13.242 -33.990 -31.291  1.00  0.00     0.025 C 
ATOM      6  C   UNL     1      12.554 -33.760 -29.933  1.00  0.00     0.089 C 
ATOM      7  C   UNL     1      12.922 -34.851 -28.964  1.00  0.00     0.158 C 
ATOM      8  O   UNL     1      12.878 -34.613 -27.727  1.00  0.00    -0.295 OA
ENDROOT
BRANCH   5   9
ATOM      9  C   UNL     1      12.815 -32.945 -32.313  1.00  0.00    -0.077 C 
ATOM     10  C   UNL     1      11.515 -32.786 -32.613  1.00  0.00     0.008 C 
ATOM     11  C   UNL     1      13.826 -32.069 -33.011  1.00  0.00     0.039 C 
ENDBRANCH   5   9
TORSDOF 1
ENDMDL
MODEL 2
REMARK VINA RESULT:    -5.352      2.291      4.695
REMARK INTER + INTRA:          -5.761
REMARK INTER:                  -5.663
REMARK INTRA:                  -0.098
REMARK UNBOUND:                -0.096
REMARK SMILES C=C(C)[C@@H]1CC=C(C)C(=O)C1
REMARK SMILES IDX 8 1 7 2 6 3 5 4 4 5 11 6 9 7 10 8 2 9 1 10 3 11
REMARK H PARENT
REMARK Flexibility Score: inf
ROOT
ATOM      1  C   UNL     1      11.288 -33.160 -32.640  1.00  0.00     0.048 C 
ATOM      2  C   UNL     1      11.500 -33.396 -31.170  1.00  0.00    -0.012 C 
ATOM      3  C   UNL     1      10.740 -32.746 -30.272  1.00  0.00    -0.019 C 
ATOM      4  C   UNL     1      10.896 -32.960 -28.790  1.00  0.00     0.036 C 
ATOM      5  C   UNL     1      12.361 -33.267 -28.426  1.00  0.00     0.025 C 
ATOM      6  C   UNL     1      12.876 -34.465 -29.244  1.00  0.00     0.089 C 
ATOM      7  C   UNL     1      12.625 -34.249 -30.712  1.00  0.00     0.158 C 
ATOM      8  O   UNL     1      13.363 -34.831 -31.552  1.00  0.00    -0.295 OA
ENDROOT
BRANCH   5   9
ATOM      9  C   UNL     1      12.526 -33.503 -26.931  1.00  0.00    -0.077 C 
ATOM     10  C   UNL     1      11.514 -34.018 -26.214  1.00  0.00     0.008 C 
ATOM     11  C   UNL     1      13.815 -33.170 -26.220  1.00  0.00     0.039 C 
ENDBRANCH   5   9
TORSDOF 1
ENDMDL
MODEL 3
REMARK VINA RESULT:    -5.289      2.392      4.434
REMARK INTER + INTRA:          -5.695
REMARK INTER:                  -5.605
REMARK INTRA:                  -0.090
REMARK UNBOUND:                -0.096
REMARK SMILES C=C(C)[C@@H]1CC=C(C)C(=O)C1
REMARK SMILES IDX 8 1 7 2 6 3 5 4 4 5 11 6 9 7 10 8 2 9 1 10 3 11
REMARK H PARENT
REMARK Flexibility Score: inf
ROOT
ATOM      1  C   UNL     1      11.702 -35.725 -32.134  1.00  0.00     0.048 C 
ATOM      2  C   UNL     1      11.843 -35.325 -30.691  1.00  0.00    -0.012 C 
ATOM      3  C   UNL     1      11.063 -34.353 -30.188  1.00  0.00    -0.019 C 
ATOM      4  C   UNL     1      11.148 -33.927 -28.746  1.00  0.00     0.036 C 
ATOM      5  C   UNL     1      12.586 -34.064 -28.213  1.00  0.00     0.025 C 
ATOM      6  C   UNL     1      13.103 -35.498 -28.427  1.00  0.00     0.089 C 
ATOM      7  C   UNL     1      12.922 -35.916 -29.861  1.00  0.00     0.158 C 
ATOM      8  O   UNL     1      13.679 -36.802 -30.342  1.00  0.00    -0.295 OA
ENDROOT
BRANCH   5   9
ATOM      9  C   UNL     1      12.680 -33.653 -26.749  1.00  0.00    -0.077 C 
ATOM     10  C   UNL     1      13.807 -33.097 -26.277  1.00  0.00     0.008 C 
ATOM     11  C   UNL     1      11.525 -33.857 -25.800  1.00  0.00     0.039 C 
ENDBRANCH   5   9
TORSDOF 1
ENDMDL
MODEL 4
REMARK VINA RESULT:    -5.126      2.169      4.061
REMARK INTER + INTRA:          -5.522
REMARK INTER:                  -5.435
REMARK INTRA:                  -0.087
REMARK UNBOUND:                -0.096
REMARK SMILES C=C(C)[C@@H]1CC=C(C)C(=O)C1
REMARK SMILES IDX 8 1 7 2 6 3 5 4 4 5 11 6 9 7 10 8 2 9 1 10 3 11
REMARK H PARENT
REMARK Flexibility Score: inf
ROOT
ATOM      1  C   UNL     1      12.495 -36.584 -32.054  1.00  0.00     0.048 C 
ATOM      2  C   UNL     1      12.651 -35.816 -30.771  1.00  0.00    -0.012 C 
ATOM      3  C   UNL     1      13.141 -36.430 -29.680  1.00  0.00    -0.019 C 
ATOM      4  C   UNL     1      13.336 -35.703 -28.375  1.00  0.00     0.036 C 
ATOM      5  C   UNL     1      12.269 -34.610 -28.186  1.00  0.00     0.025 C 
ATOM      6  C   UNL     1      12.264 -33.651 -29.390  1.00  0.00     0.089 C 
ATOM      7  C   UNL     1      12.152 -34.421 -30.677  1.00  0.00     0.158 C 
ATOM      8  O   UNL     1      11.658 -33.855 -31.690  1.00  0.00    -0.295 OA
ENDROOT
BRANCH   5   9
ATOM      9  C   UNL     1      12.468 -33.857 -26.877  1.00  0.00    -0.077 C 
ATOM     10  C   UNL     1      11.494 -33.843 -25.953  1.00  0.00     0.008 C 
ATOM     11  C   UNL     1      13.749 -33.114 -26.585  1.00  0.00     0.039 C 
ENDBRANCH   5   9
TORSDOF 1
ENDMDL
MODEL 5
REMARK VINA RESULT:    -4.885      2.242      2.721
REMARK INTER + INTRA:          -5.267
REMARK INTER:                  -5.168
REMARK INTRA:                  -0.098
REMARK UNBOUND:                -0.096
REMARK SMILES C=C(C)[C@@H]1CC=C(C)C(=O)C1
REMARK SMILES IDX 8 1 7 2 6 3 5 4 4 5 11 6 9 7 10 8 2 9 1 10 3 11
REMARK H PARENT
REMARK Flexibility Score: inf
ROOT
ATOM      1  C   UNL     1      11.330 -34.101 -26.032  1.00  0.00     0.048 C 
ATOM      2  C   UNL     1      11.566 -33.662 -27.450  1.00  0.00    -0.012 C 
ATOM      3  C   UNL     1      10.666 -33.963 -28.402  1.00  0.00    -0.019 C 
ATOM      4  C   UNL     1      10.844 -33.532 -29.834  1.00  0.00     0.036 C 
ATOM      5  C   UNL     1      12.334 -33.491 -30.219  1.00  0.00     0.025 C 
ATOM      6  C   UNL     1      13.116 -32.596 -29.241  1.00  0.00     0.089 C 
ATOM      7  C   UNL     1      12.846 -33.007 -27.819  1.00  0.00     0.158 C 
ATOM      8  O   UNL     1      13.708 -32.756 -26.934  1.00  0.00    -0.295 OA
ENDROOT
BRANCH   5   9
ATOM      9  C   UNL     1      12.525 -33.037 -31.660  1.00  0.00    -0.077 C 
ATOM     10  C   UNL     1      11.477 -32.999 -32.499  1.00  0.00     0.008 C 
ATOM     11  C   UNL     1      13.880 -32.624 -32.181  1.00  0.00     0.039 C 
ENDBRANCH   5   9
TORSDOF 1
ENDMDL
MODEL 6
REMARK VINA RESULT:    -4.860      2.138      4.724
REMARK INTER + INTRA:          -5.241
REMARK INTER:                  -5.144
REMARK INTRA:                  -0.097
REMARK UNBOUND:                -0.096
REMARK SMILES C=C(C)[C@@H]1CC=C(C)C(=O)C1
REMARK SMILES IDX 8 1 7 2 6 3 5 4 4 5 11 6 9 7 10 8 2 9 1 10 3 11
REMARK H PARENT
REMARK Flexibility Score: inf
ROOT
ATOM      1  C   UNL     1      10.527 -32.354 -33.634  1.00  0.00     0.048 C 
ATOM      2  C   UNL     1      11.062 -33.047 -32.412  1.00  0.00    -0.012 C 
ATOM      3  C   UNL     1      10.212 -33.611 -31.536  1.00  0.00    -0.019 C 
ATOM      4  C   UNL     1      10.695 -34.334 -30.306  1.00  0.00     0.036 C 
ATOM      5  C   UNL     1      11.992 -33.704 -29.768  1.00  0.00     0.025 C 
ATOM      6  C   UNL     1      13.063 -33.655 -30.872  1.00  0.00     0.089 C 
ATOM      7  C   UNL     1      12.515 -33.001 -32.111  1.00  0.00     0.158 C 
ATOM      8  O   UNL     1      13.311 -32.441 -32.912  1.00  0.00    -0.295 OA
ENDROOT
BRANCH   5   9
ATOM      9  C   UNL     1      12.499 -34.439 -28.535  1.00  0.00    -0.077 C 
ATOM     10  C   UNL     1      13.239 -35.552 -28.671  1.00  0.00     0.008 C 
ATOM     11  C   UNL     1      12.189 -33.947 -27.142  1.00  0.00     0.039 C 
ENDBRANCH   5   9
TORSDOF 1
ENDMDL
MODEL 7
REMARK VINA RESULT:    -4.771      2.027      2.776
REMARK INTER + INTRA:          -5.146
REMARK INTER:                  -5.048
REMARK INTRA:                  -0.098
REMARK UNBOUND:                -0.096
REMARK SMILES C=C(C)[C@@H]1CC=C(C)C(=O)C1
REMARK SMILES IDX 8 1 7 2 6 3 5 4 4 5 11 6 9 7 10 8 2 9 1 10 3 11
REMARK H PARENT
REMARK Flexibility Score: inf
ROOT
ATOM      1  C   UNL     1      12.528 -37.962 -31.704  1.00  0.00     0.048 C 
ATOM      2  C   UNL     1      12.256 -36.662 -30.998  1.00  0.00    -0.012 C 
ATOM      3  C   UNL     1      11.607 -35.676 -31.639  1.00  0.00    -0.019 C 
ATOM      4  C   UNL     1      11.292 -34.362 -30.973  1.00  0.00     0.036 C 
ATOM      5  C   UNL     1      12.383 -33.982 -29.956  1.00  0.00     0.025 C 
ATOM      6  C   UNL     1      12.584 -35.118 -28.936  1.00  0.00     0.089 C 
ATOM      7  C   UNL     1      12.812 -36.427 -29.642  1.00  0.00     0.158 C 
ATOM      8  O   UNL     1      13.453 -37.338 -29.052  1.00  0.00    -0.295 OA
ENDROOT
BRANCH   5   9
ATOM      9  C   UNL     1      12.065 -32.664 -29.263  1.00  0.00    -0.077 C 
ATOM     10  C   UNL     1      10.791 -32.250 -29.155  1.00  0.00     0.008 C 
ATOM     11  C   UNL     1      13.155 -31.795 -28.686  1.00  0.00     0.039 C 
ENDBRANCH   5   9
TORSDOF 1
ENDMDL
MODEL 8
REMARK VINA RESULT:    -2.804      2.094      2.798
REMARK INTER + INTRA:          -3.064
REMARK INTER:                  -2.970
REMARK INTRA:                  -0.094
REMARK UNBOUND:                -0.096
REMARK SMILES C=C(C)[C@@H]1CC=C(C)C(=O)C1
REMARK SMILES IDX 8 1 7 2 6 3 5 4 4 5 11 6 9 7 10 8 2 9 1 10 3 11
REMARK H PARENT
REMARK Flexibility Score: inf
ROOT
ATOM      1  C   UNL     1      14.000 -37.161 -28.513  1.00  0.00     0.048 C 
ATOM      2  C   UNL     1      13.230 -36.018 -29.115  1.00  0.00    -0.012 C 
ATOM      3  C   UNL     1      12.966 -34.927 -28.376  1.00  0.00    -0.019 C 
ATOM      4  C   UNL     1      12.215 -33.747 -28.935  1.00  0.00     0.036 C 
ATOM      5  C   UNL     1      11.177 -34.195 -29.979  1.00  0.00     0.025 C 
ATOM      6  C   UNL     1      11.852 -35.030 -31.082  1.00  0.00     0.089 C 
ATOM      7  C   UNL     1      12.658 -36.148 -30.479  1.00  0.00     0.158 C 
ATOM      8  O   UNL     1      12.874 -37.186 -31.161  1.00  0.00    -0.295 OA
ENDROOT
BRANCH   5   9
ATOM      9  C   UNL     1      10.425 -33.007 -30.564  1.00  0.00    -0.077 C 
ATOM     10  C   UNL     1       9.875 -32.091 -29.750  1.00  0.00     0.008 C 
ATOM     11  C   UNL     1      10.278 -32.826 -32.055  1.00  0.00     0.039 C 
ENDBRANCH   5   9
TORSDOF 1
ENDMDL
