MODEL 1
REMARK VINA RESULT:    -6.685      0.000      0.000
REMARK INTER + INTRA:         -10.312
REMARK INTER:                 -10.006
REMARK INTRA:                  -0.305
REMARK UNBOUND:                -0.305
REMARK SMILES O=c1c(O[C@H]2O[C@@H](CO)[C@H](O)[C@@H](O)[C@@H]2O)c(-c2cc(O)c(O)c(O)c2)oc2cc(O)cc(O)c12
REMARK SMILES IDX 4 1 3 2 16 3 26 4 2 5 27 6 1 7 34 8 28 9 32 10 29 11 31 12
REMARK SMILES IDX 17 13 18 14 19 15 25 16 21 17 23 18 20 19 22 21 24 23 33 25
REMARK SMILES IDX 30 27 5 29 14 30 6 31 12 32 7 33 10 34 15 35 13 37 8 39 9 40
REMARK SMILES IDX 11 42
REMARK H PARENT 20 20 22 22 24 24 33 26 30 28 15 36 13 38 9 41 11 43
REMARK Flexibility Score: inf
ROOT
ATOM      1  O   UNL     1      17.867  43.856  76.382  1.00  0.00    -0.454 OA
ENDROOT
BRANCH   1   2
ATOM      2  C   UNL     1      18.261  42.578  76.806  1.00  0.00     0.214 A 
ATOM      3  C   UNL     1      18.676  42.339  78.129  1.00  0.00     0.181 A 
ATOM      4  O   UNL     1      19.082  41.124  78.489  1.00  0.00    -0.452 OA
ATOM      5  C   UNL     1      18.192  41.498  75.916  1.00  0.00     0.239 A 
ATOM      6  C   UNL     1      19.061  40.079  77.669  1.00  0.00     0.146 A 
ATOM      7  O   UNL     1      17.739  41.685  74.751  1.00  0.00    -0.285 OA
ATOM      8  C   UNL     1      18.617  40.220  76.334  1.00  0.00     0.111 A 
ATOM      9  C   UNL     1      19.440  38.825  78.156  1.00  0.00     0.094 A 
ATOM     10  C   UNL     1      18.583  39.083  75.493  1.00  0.00     0.134 A 
ATOM     11  C   UNL     1      19.366  37.696  77.334  1.00  0.00     0.123 A 
ATOM     12  C   UNL     1      18.976  37.834  75.998  1.00  0.00     0.093 A 
BRANCH   3  13
ATOM     13  C   UNL     1      18.596  43.379  79.169  1.00  0.00     0.029 A 
ATOM     14  C   UNL     1      19.420  44.514  79.094  1.00  0.00     0.062 A 
ATOM     15  C   UNL     1      19.286  45.552  80.024  1.00  0.00     0.162 A 
ATOM     16  C   UNL     1      17.614  43.302  80.168  1.00  0.00     0.062 A 
ATOM     17  C   UNL     1      18.329  45.451  81.053  1.00  0.00     0.200 A 
ATOM     18  C   UNL     1      17.485  44.327  81.115  1.00  0.00     0.162 A 
BRANCH  15  19
ATOM     19  O   UNL     1      20.087  46.691  79.919  1.00  0.00    -0.504 OA
ATOM     20  H   UNL     1      20.601  47.055  80.716  1.00  0.00     0.293 HD
ENDBRANCH  15  19
BRANCH  17  21
ATOM     21  O   UNL     1      18.203  46.462  82.007  1.00  0.00    -0.502 OA
ATOM     22  H   UNL     1      17.446  46.465  82.687  1.00  0.00     0.293 HD
ENDBRANCH  17  21
BRANCH  18  23
ATOM     23  O   UNL     1      16.526  44.202  82.122  1.00  0.00    -0.504 OA
ATOM     24  H   UNL     1      16.220  44.991  82.679  1.00  0.00     0.293 HD
ENDBRANCH  18  23
ENDBRANCH   3  13
BRANCH  10  25
ATOM     25  O   UNL     1      18.141  39.177  74.173  1.00  0.00    -0.507 OA
ATOM     26  H   UNL     1      18.779  39.137  73.389  1.00  0.00     0.293 HD
ENDBRANCH  10  25
BRANCH  11  27
ATOM     27  O   UNL     1      19.659  36.429  77.844  1.00  0.00    -0.508 OA
ATOM     28  H   UNL     1      19.063  35.637  77.638  1.00  0.00     0.293 HD
ENDBRANCH  11  27
ENDBRANCH   1   2
BRANCH   1  29
ATOM     29  C   UNL     1      17.030  44.125  75.247  1.00  0.00     0.339 C 
ATOM     30  C   UNL     1      17.581  45.318  74.397  1.00  0.00     0.214 C 
ATOM     31  O   UNL     1      15.679  44.320  75.657  1.00  0.00    -0.332 OA
ATOM     32  C   UNL     1      16.653  46.551  74.533  1.00  0.00     0.180 C 
ATOM     33  C   UNL     1      14.891  44.703  74.539  1.00  0.00     0.179 C 
ATOM     34  C   UNL     1      15.199  46.176  74.146  1.00  0.00     0.177 C 
BRANCH  30  35
ATOM     35  O   UNL     1      17.640  44.923  73.047  1.00  0.00    -0.384 OA
ATOM     36  H   UNL     1      18.595  44.964  72.771  1.00  0.00     0.211 HD
ENDBRANCH  30  35
BRANCH  32  37
ATOM     37  O   UNL     1      16.673  47.026  75.858  1.00  0.00    -0.387 OA
ATOM     38  H   UNL     1      16.393  46.270  76.439  1.00  0.00     0.211 HD
ENDBRANCH  32  37
BRANCH  33  39
ATOM     39  C   UNL     1      13.397  44.460  74.819  1.00  0.00     0.191 C 
BRANCH  39  40
ATOM     40  O   UNL     1      13.114  44.405  76.189  1.00  0.00    -0.394 OA
ATOM     41  H   UNL     1      12.127  44.412  76.278  1.00  0.00     0.210 HD
ENDBRANCH  39  40
ENDBRANCH  33  39
BRANCH  34  42
ATOM     42  O   UNL     1      14.997  46.342  72.762  1.00  0.00    -0.387 OA
ATOM     43  H   UNL     1      15.738  46.914  72.433  1.00  0.00     0.211 HD
ENDBRANCH  34  42
ENDBRANCH   1  29
TORSDOF 13
ENDMDL
MODEL 2
REMARK VINA RESULT:    -6.151      2.907      7.202
REMARK INTER + INTRA:          -9.512
REMARK INTER:                  -8.980
REMARK INTRA:                  -0.532
REMARK UNBOUND:                -0.305
REMARK SMILES O=c1c(O[C@H]2O[C@@H](CO)[C@H](O)[C@@H](O)[C@@H]2O)c(-c2cc(O)c(O)c(O)c2)oc2cc(O)cc(O)c12
REMARK SMILES IDX 4 1 3 2 16 3 26 4 2 5 27 6 1 7 34 8 28 9 32 10 29 11 31 12
REMARK SMILES IDX 17 13 18 14 19 15 25 16 21 17 23 18 20 19 22 21 24 23 33 25
REMARK SMILES IDX 30 27 5 29 14 30 6 31 12 32 7 33 10 34 15 35 13 37 8 39 9 40
REMARK SMILES IDX 11 42
REMARK H PARENT 20 20 22 22 24 24 33 26 30 28 15 36 13 38 9 41 11 43
REMARK Flexibility Score: inf
ROOT
ATOM      1  O   UNL     1      17.523  45.612  73.454  1.00  0.00    -0.454 OA
ENDROOT
BRANCH   1   2
ATOM      2  C   UNL     1      16.239  45.434  73.992  1.00  0.00     0.214 A 
ATOM      3  C   UNL     1      15.890  44.260  74.685  1.00  0.00     0.181 A 
ATOM      4  O   UNL     1      14.653  44.106  75.149  1.00  0.00    -0.452 OA
ATOM      5  C   UNL     1      15.295  46.463  73.891  1.00  0.00     0.239 A 
ATOM      6  C   UNL     1      13.718  45.044  75.048  1.00  0.00     0.146 A 
ATOM      7  O   UNL     1      15.625  47.555  73.347  1.00  0.00    -0.285 OA
ATOM      8  C   UNL     1      13.996  46.272  74.405  1.00  0.00     0.111 A 
ATOM      9  C   UNL     1      12.465  44.820  75.628  1.00  0.00     0.094 A 
ATOM     10  C   UNL     1      12.986  47.260  74.337  1.00  0.00     0.134 A 
ATOM     11  C   UNL     1      11.484  45.815  75.594  1.00  0.00     0.123 A 
ATOM     12  C   UNL     1      11.732  47.014  74.917  1.00  0.00     0.093 A 
BRANCH   3  13
ATOM     13  C   UNL     1      16.882  43.217  74.996  1.00  0.00     0.029 A 
ATOM     14  C   UNL     1      17.502  43.188  76.256  1.00  0.00     0.062 A 
ATOM     15  C   UNL     1      18.375  42.146  76.595  1.00  0.00     0.162 A 
ATOM     16  C   UNL     1      17.122  42.178  74.083  1.00  0.00     0.062 A 
ATOM     17  C   UNL     1      18.647  41.129  75.660  1.00  0.00     0.200 A 
ATOM     18  C   UNL     1      18.009  41.143  74.406  1.00  0.00     0.162 A 
BRANCH  15  19
ATOM     19  O   UNL     1      18.958  42.109  77.863  1.00  0.00    -0.504 OA
ATOM     20  H   UNL     1      18.576  42.641  78.640  1.00  0.00     0.293 HD
ENDBRANCH  15  19
BRANCH  17  21
ATOM     21  O   UNL     1      19.540  40.101  75.968  1.00  0.00    -0.502 OA
ATOM     22  H   UNL     1      19.237  39.255  76.446  1.00  0.00     0.293 HD
ENDBRANCH  17  21
BRANCH  18  23
ATOM     23  O   UNL     1      18.259  40.146  73.460  1.00  0.00    -0.504 OA
ATOM     24  H   UNL     1      19.198  39.903  73.165  1.00  0.00     0.293 HD
ENDBRANCH  18  23
ENDBRANCH   3  13
BRANCH  10  25
ATOM     25  O   UNL     1      13.223  48.490  73.722  1.00  0.00    -0.507 OA
ATOM     26  H   UNL     1      14.143  48.910  73.697  1.00  0.00     0.293 HD
ENDBRANCH  10  25
BRANCH  11  27
ATOM     27  O   UNL     1      10.264  45.629  76.249  1.00  0.00    -0.508 OA
ATOM     28  H   UNL     1      10.042  46.147  77.090  1.00  0.00     0.293 HD
ENDBRANCH  11  27
ENDBRANCH   1   2
BRANCH   1  29
ATOM     29  C   UNL     1      18.568  46.391  74.055  1.00  0.00     0.339 C 
ATOM     30  C   UNL     1      18.536  46.287  75.616  1.00  0.00     0.214 C 
ATOM     31  O   UNL     1      18.518  47.738  73.592  1.00  0.00    -0.332 OA
ATOM     32  C   UNL     1      18.089  47.634  76.236  1.00  0.00     0.180 C 
ATOM     33  C   UNL     1      19.480  48.519  74.287  1.00  0.00     0.179 C 
ATOM     34  C   UNL     1      19.003  48.786  75.743  1.00  0.00     0.177 C 
BRANCH  30  35
ATOM     35  O   UNL     1      19.828  45.966  76.075  1.00  0.00    -0.384 OA
ATOM     36  H   UNL     1      20.083  46.659  76.741  1.00  0.00     0.211 HD
ENDBRANCH  30  35
BRANCH  32  37
ATOM     37  O   UNL     1      16.756  47.913  75.875  1.00  0.00    -0.387 OA
ATOM     38  H   UNL     1      16.415  47.114  75.394  1.00  0.00     0.211 HD
ENDBRANCH  32  37
BRANCH  33  39
ATOM     39  C   UNL     1      19.790  49.812  73.513  1.00  0.00     0.191 C 
BRANCH  39  40
ATOM     40  O   UNL     1      19.648  49.653  72.130  1.00  0.00    -0.394 OA
ATOM     41  H   UNL     1      18.867  49.059  71.987  1.00  0.00     0.210 HD
ENDBRANCH  39  40
ENDBRANCH  33  39
BRANCH  34  42
ATOM     42  O   UNL     1      20.125  48.922  76.584  1.00  0.00    -0.387 OA
ATOM     43  H   UNL     1      19.776  49.106  77.495  1.00  0.00     0.211 HD
ENDBRANCH  34  42
ENDBRANCH   1  29
TORSDOF 13
ENDMDL
MODEL 3
REMARK VINA RESULT:    -6.092     15.506     18.942
REMARK INTER + INTRA:          -9.425
REMARK INTER:                  -8.417
REMARK INTRA:                  -1.008
REMARK UNBOUND:                -0.305
REMARK SMILES O=c1c(O[C@H]2O[C@@H](CO)[C@H](O)[C@@H](O)[C@@H]2O)c(-c2cc(O)c(O)c(O)c2)oc2cc(O)cc(O)c12
REMARK SMILES IDX 4 1 3 2 16 3 26 4 2 5 27 6 1 7 34 8 28 9 32 10 29 11 31 12
REMARK SMILES IDX 17 13 18 14 19 15 25 16 21 17 23 18 20 19 22 21 24 23 33 25
REMARK SMILES IDX 30 27 5 29 14 30 6 31 12 32 7 33 10 34 15 35 13 37 8 39 9 40
REMARK SMILES IDX 11 42
REMARK H PARENT 20 20 22 22 24 24 33 26 30 28 15 36 13 38 9 41 11 43
REMARK Flexibility Score: inf
ROOT
ATOM      1  O   UNL     1       6.327  34.006  70.929  1.00  0.00    -0.454 OA
ENDROOT
BRANCH   1   2
ATOM      2  C   UNL     1       5.282  34.299  70.038  1.00  0.00     0.214 A 
ATOM      3  C   UNL     1       5.360  33.956  68.676  1.00  0.00     0.181 A 
ATOM      4  O   UNL     1       4.369  34.283  67.851  1.00  0.00    -0.452 OA
ATOM      5  C   UNL     1       4.109  34.895  70.517  1.00  0.00     0.239 A 
ATOM      6  C   UNL     1       3.253  34.877  68.258  1.00  0.00     0.146 A 
ATOM      7  O   UNL     1       3.993  35.129  71.754  1.00  0.00    -0.285 OA
ATOM      8  C   UNL     1       3.072  35.217  69.618  1.00  0.00     0.111 A 
ATOM      9  C   UNL     1       2.235  35.119  67.330  1.00  0.00     0.094 A 
ATOM     10  C   UNL     1       1.860  35.825  70.023  1.00  0.00     0.134 A 
ATOM     11  C   UNL     1       1.023  35.682  67.741  1.00  0.00     0.123 A 
ATOM     12  C   UNL     1       0.854  36.068  69.076  1.00  0.00     0.093 A 
BRANCH   3  13
ATOM     13  C   UNL     1       6.477  33.161  68.138  1.00  0.00     0.029 A 
ATOM     14  C   UNL     1       6.224  31.933  67.502  1.00  0.00     0.062 A 
ATOM     15  C   UNL     1       7.267  31.215  66.904  1.00  0.00     0.162 A 
ATOM     16  C   UNL     1       7.781  33.679  68.147  1.00  0.00     0.062 A 
ATOM     17  C   UNL     1       8.582  31.718  66.954  1.00  0.00     0.200 A 
ATOM     18  C   UNL     1       8.833  32.959  67.568  1.00  0.00     0.162 A 
BRANCH  15  19
ATOM     19  O   UNL     1       6.999  30.014  66.245  1.00  0.00    -0.504 OA
ATOM     20  H   UNL     1       6.601  29.217  66.733  1.00  0.00     0.293 HD
ENDBRANCH  15  19
BRANCH  17  21
ATOM     21  O   UNL     1       9.639  31.000  66.391  1.00  0.00    -0.502 OA
ATOM     22  H   UNL     1      10.096  30.241  66.891  1.00  0.00     0.293 HD
ENDBRANCH  17  21
BRANCH  18  23
ATOM     23  O   UNL     1      10.127  33.482  67.630  1.00  0.00    -0.504 OA
ATOM     24  H   UNL     1      10.392  34.329  67.140  1.00  0.00     0.293 HD
ENDBRANCH  18  23
ENDBRANCH   3  13
BRANCH  10  25
ATOM     25  O   UNL     1       1.637  36.166  71.357  1.00  0.00    -0.507 OA
ATOM     26  H   UNL     1       1.761  35.502  72.110  1.00  0.00     0.293 HD
ENDBRANCH  10  25
BRANCH  11  27
ATOM     27  O   UNL     1      -0.027  35.843  66.835  1.00  0.00    -0.508 OA
ATOM     28  H   UNL     1       0.014  35.426  65.913  1.00  0.00     0.293 HD
ENDBRANCH  11  27
ENDBRANCH   1   2
BRANCH   1  29
ATOM     29  C   UNL     1       6.231  33.112  72.047  1.00  0.00     0.339 C 
ATOM     30  C   UNL     1       7.638  32.584  72.484  1.00  0.00     0.214 C 
ATOM     31  O   UNL     1       5.311  32.060  71.768  1.00  0.00    -0.332 OA
ATOM     32  C   UNL     1       7.777  31.079  72.147  1.00  0.00     0.180 C 
ATOM     33  C   UNL     1       5.319  31.122  72.836  1.00  0.00     0.179 C 
ATOM     34  C   UNL     1       6.620  30.272  72.792  1.00  0.00     0.177 C 
BRANCH  30  35
ATOM     35  O   UNL     1       7.778  32.768  73.873  1.00  0.00    -0.384 OA
ATOM     36  H   UNL     1       7.834  33.748  74.035  1.00  0.00     0.211 HD
ENDBRANCH  30  35
BRANCH  32  37
ATOM     37  O   UNL     1       7.750  30.893  70.751  1.00  0.00    -0.387 OA
ATOM     38  H   UNL     1       8.581  31.301  70.391  1.00  0.00     0.211 HD
ENDBRANCH  32  37
BRANCH  33  39
ATOM     39  C   UNL     1       4.043  30.262  72.813  1.00  0.00     0.191 C 
BRANCH  39  40
ATOM     40  O   UNL     1       3.352  30.366  71.600  1.00  0.00    -0.394 OA
ATOM     41  H   UNL     1       2.396  30.496  71.824  1.00  0.00     0.210 HD
ENDBRANCH  39  40
ENDBRANCH  33  39
BRANCH  34  42
ATOM     42  O   UNL     1       6.963  29.875  74.100  1.00  0.00    -0.387 OA
ATOM     43  H   UNL     1       7.493  29.041  74.014  1.00  0.00     0.211 HD
ENDBRANCH  34  42
ENDBRANCH   1  29
TORSDOF 13
ENDMDL
MODEL 4
REMARK VINA RESULT:    -6.044      3.141      6.054
REMARK INTER + INTRA:          -9.352
REMARK INTER:                  -8.417
REMARK INTRA:                  -0.935
REMARK UNBOUND:                -0.305
REMARK SMILES O=c1c(O[C@H]2O[C@@H](CO)[C@H](O)[C@@H](O)[C@@H]2O)c(-c2cc(O)c(O)c(O)c2)oc2cc(O)cc(O)c12
REMARK SMILES IDX 4 1 3 2 16 3 26 4 2 5 27 6 1 7 34 8 28 9 32 10 29 11 31 12
REMARK SMILES IDX 17 13 18 14 19 15 25 16 21 17 23 18 20 19 22 21 24 23 33 25
REMARK SMILES IDX 30 27 5 29 14 30 6 31 12 32 7 33 10 34 15 35 13 37 8 39 9 40
REMARK SMILES IDX 11 42
REMARK H PARENT 20 20 22 22 24 24 33 26 30 28 15 36 13 38 9 41 11 43
REMARK Flexibility Score: inf
ROOT
ATOM      1  O   UNL     1      16.984  46.251  74.487  1.00  0.00    -0.454 OA
ENDROOT
BRANCH   1   2
ATOM      2  C   UNL     1      16.720  44.874  74.431  1.00  0.00     0.214 A 
ATOM      3  C   UNL     1      15.411  44.372  74.541  1.00  0.00     0.181 A 
ATOM      4  O   UNL     1      15.199  43.059  74.523  1.00  0.00    -0.452 OA
ATOM      5  C   UNL     1      17.770  43.974  74.206  1.00  0.00     0.239 A 
ATOM      6  C   UNL     1      16.169  42.170  74.343  1.00  0.00     0.146 A 
ATOM      7  O   UNL     1      18.938  44.420  74.019  1.00  0.00    -0.285 OA
ATOM      8  C   UNL     1      17.509  42.589  74.180  1.00  0.00     0.111 A 
ATOM      9  C   UNL     1      15.842  40.812  74.268  1.00  0.00     0.094 A 
ATOM     10  C   UNL     1      18.516  41.619  73.964  1.00  0.00     0.134 A 
ATOM     11  C   UNL     1      16.833  39.860  74.014  1.00  0.00     0.123 A 
ATOM     12  C   UNL     1      18.169  40.260  73.901  1.00  0.00     0.093 A 
BRANCH   3  13
ATOM     13  C   UNL     1      14.238  45.263  74.589  1.00  0.00     0.029 A 
ATOM     14  C   UNL     1      14.204  46.425  73.800  1.00  0.00     0.062 A 
ATOM     15  C   UNL     1      13.058  47.228  73.767  1.00  0.00     0.162 A 
ATOM     16  C   UNL     1      13.103  44.894  75.326  1.00  0.00     0.062 A 
ATOM     17  C   UNL     1      11.935  46.878  74.543  1.00  0.00     0.200 A 
ATOM     18  C   UNL     1      11.958  45.701  75.314  1.00  0.00     0.162 A 
BRANCH  15  19
ATOM     19  O   UNL     1      13.023  48.361  72.952  1.00  0.00    -0.504 OA
ATOM     20  H   UNL     1      12.225  48.564  72.358  1.00  0.00     0.293 HD
ENDBRANCH  15  19
BRANCH  17  21
ATOM     21  O   UNL     1      10.795  47.684  74.547  1.00  0.00    -0.502 OA
ATOM     22  H   UNL     1      10.368  48.002  75.414  1.00  0.00     0.293 HD
ENDBRANCH  17  21
BRANCH  18  23
ATOM     23  O   UNL     1      10.859  45.329  76.091  1.00  0.00    -0.504 OA
ATOM     24  H   UNL     1      10.556  44.365  76.174  1.00  0.00     0.293 HD
ENDBRANCH  18  23
ENDBRANCH   3  13
BRANCH  10  25
ATOM     25  O   UNL     1      19.849  41.991  73.787  1.00  0.00    -0.507 OA
ATOM     26  H   UNL     1      20.425  41.593  73.058  1.00  0.00     0.293 HD
ENDBRANCH  10  25
BRANCH  11  27
ATOM     27  O   UNL     1      16.497  38.514  73.851  1.00  0.00    -0.508 OA
ATOM     28  H   UNL     1      16.209  37.952  74.641  1.00  0.00     0.293 HD
ENDBRANCH  11  27
ENDBRANCH   1   2
BRANCH   1  29
ATOM     29  C   UNL     1      17.132  47.014  75.694  1.00  0.00     0.339 C 
ATOM     30  C   UNL     1      16.834  48.532  75.455  1.00  0.00     0.214 C 
ATOM     31  O   UNL     1      18.414  46.790  76.273  1.00  0.00    -0.332 OA
ATOM     32  C   UNL     1      18.138  49.360  75.564  1.00  0.00     0.180 C 
ATOM     33  C   UNL     1      18.586  47.641  77.398  1.00  0.00     0.179 C 
ATOM     34  C   UNL     1      18.828  49.104  76.929  1.00  0.00     0.177 C 
BRANCH  30  35
ATOM     35  O   UNL     1      15.917  48.972  76.429  1.00  0.00    -0.384 OA
ATOM     36  H   UNL     1      16.150  48.513  77.280  1.00  0.00     0.211 HD
ENDBRANCH  30  35
BRANCH  32  37
ATOM     37  O   UNL     1      19.021  49.008  74.525  1.00  0.00    -0.387 OA
ATOM     38  H   UNL     1      19.474  49.843  74.236  1.00  0.00     0.211 HD
ENDBRANCH  32  37
BRANCH  33  39
ATOM     39  C   UNL     1      19.707  47.114  78.311  1.00  0.00     0.191 C 
BRANCH  39  40
ATOM     40  O   UNL     1      19.976  47.980  79.378  1.00  0.00    -0.394 OA
ATOM     41  H   UNL     1      20.709  47.568  79.904  1.00  0.00     0.210 HD
ENDBRANCH  39  40
ENDBRANCH  33  39
BRANCH  34  42
ATOM     42  O   UNL     1      18.338  49.994  77.905  1.00  0.00    -0.387 OA
ATOM     43  H   UNL     1      18.536  49.586  78.787  1.00  0.00     0.211 HD
ENDBRANCH  34  42
ENDBRANCH   1  29
TORSDOF 13
ENDMDL
MODEL 5
REMARK VINA RESULT:    -6.026      3.482      5.892
REMARK INTER + INTRA:          -9.326
REMARK INTER:                  -8.651
REMARK INTRA:                  -0.675
REMARK UNBOUND:                -0.305
REMARK SMILES O=c1c(O[C@H]2O[C@@H](CO)[C@H](O)[C@@H](O)[C@@H]2O)c(-c2cc(O)c(O)c(O)c2)oc2cc(O)cc(O)c12
REMARK SMILES IDX 4 1 3 2 16 3 26 4 2 5 27 6 1 7 34 8 28 9 32 10 29 11 31 12
REMARK SMILES IDX 17 13 18 14 19 15 25 16 21 17 23 18 20 19 22 21 24 23 33 25
REMARK SMILES IDX 30 27 5 29 14 30 6 31 12 32 7 33 10 34 15 35 13 37 8 39 9 40
REMARK SMILES IDX 11 42
REMARK H PARENT 20 20 22 22 24 24 33 26 30 28 15 36 13 38 9 41 11 43
REMARK Flexibility Score: inf
ROOT
ATOM      1  O   UNL     1      17.034  45.864  75.497  1.00  0.00    -0.454 OA
ENDROOT
BRANCH   1   2
ATOM      2  C   UNL     1      16.809  44.515  75.179  1.00  0.00     0.214 A 
ATOM      3  C   UNL     1      15.528  44.043  74.844  1.00  0.00     0.181 A 
ATOM      4  O   UNL     1      15.341  42.751  74.586  1.00  0.00    -0.452 OA
ATOM      5  C   UNL     1      17.888  43.623  75.138  1.00  0.00     0.239 A 
ATOM      6  C   UNL     1      16.331  41.866  74.567  1.00  0.00     0.146 A 
ATOM      7  O   UNL     1      19.057  44.054  75.353  1.00  0.00    -0.285 OA
ATOM      8  C   UNL     1      17.659  42.263  74.849  1.00  0.00     0.111 A 
ATOM      9  C   UNL     1      16.052  40.541  74.216  1.00  0.00     0.094 A 
ATOM     10  C   UNL     1      18.694  41.300  74.794  1.00  0.00     0.134 A 
ATOM     11  C   UNL     1      17.084  39.602  74.123  1.00  0.00     0.123 A 
ATOM     12  C   UNL     1      18.393  39.974  74.449  1.00  0.00     0.093 A 
BRANCH   3  13
ATOM     13  C   UNL     1      14.381  44.955  74.681  1.00  0.00     0.029 A 
ATOM     14  C   UNL     1      13.158  44.666  75.309  1.00  0.00     0.062 A 
ATOM     15  C   UNL     1      12.093  45.572  75.238  1.00  0.00     0.162 A 
ATOM     16  C   UNL     1      14.540  46.172  74.002  1.00  0.00     0.062 A 
ATOM     17  C   UNL     1      12.242  46.773  74.518  1.00  0.00     0.200 A 
ATOM     18  C   UNL     1      13.474  47.075  73.909  1.00  0.00     0.162 A 
BRANCH  15  19
ATOM     19  O   UNL     1      10.894  45.290  75.895  1.00  0.00    -0.504 OA
ATOM     20  H   UNL     1      10.848  44.614  76.652  1.00  0.00     0.293 HD
ENDBRANCH  15  19
BRANCH  17  21
ATOM     21  O   UNL     1      11.179  47.673  74.410  1.00  0.00    -0.502 OA
ATOM     22  H   UNL     1      11.014  48.205  73.559  1.00  0.00     0.293 HD
ENDBRANCH  17  21
BRANCH  18  23
ATOM     23  O   UNL     1      13.650  48.260  73.191  1.00  0.00    -0.504 OA
ATOM     24  H   UNL     1      14.384  48.370  72.500  1.00  0.00     0.293 HD
ENDBRANCH  18  23
ENDBRANCH   3  13
BRANCH  10  25
ATOM     25  O   UNL     1      20.019  41.652  75.055  1.00  0.00    -0.507 OA
ATOM     26  H   UNL     1      20.523  42.313  74.478  1.00  0.00     0.293 HD
ENDBRANCH  10  25
BRANCH  11  27
ATOM     27  O   UNL     1      16.820  38.302  73.688  1.00  0.00    -0.508 OA
ATOM     28  H   UNL     1      16.901  38.056  72.709  1.00  0.00     0.293 HD
ENDBRANCH  11  27
ENDBRANCH   1   2
BRANCH   1  29
ATOM     29  C   UNL     1      18.071  46.681  74.936  1.00  0.00     0.339 C 
ATOM     30  C   UNL     1      18.210  48.040  75.701  1.00  0.00     0.214 C 
ATOM     31  O   UNL     1      17.868  46.857  73.537  1.00  0.00    -0.332 OA
ATOM     32  C   UNL     1      17.726  49.211  74.811  1.00  0.00     0.180 C 
ATOM     33  C   UNL     1      18.834  47.764  73.023  1.00  0.00     0.179 C 
ATOM     34  C   UNL     1      18.491  49.216  73.462  1.00  0.00     0.177 C 
BRANCH  30  35
ATOM     35  O   UNL     1      19.564  48.234  76.036  1.00  0.00    -0.384 OA
ATOM     36  H   UNL     1      19.876  49.038  75.541  1.00  0.00     0.211 HD
ENDBRANCH  30  35
BRANCH  32  37
ATOM     37  O   UNL     1      16.345  49.088  74.561  1.00  0.00    -0.387 OA
ATOM     38  H   UNL     1      15.880  49.651  75.233  1.00  0.00     0.211 HD
ENDBRANCH  32  37
BRANCH  33  39
ATOM     39  C   UNL     1      18.959  47.616  71.497  1.00  0.00     0.191 C 
BRANCH  39  40
ATOM     40  O   UNL     1      17.879  48.188  70.814  1.00  0.00    -0.394 OA
ATOM     41  H   UNL     1      18.238  48.953  70.297  1.00  0.00     0.210 HD
ENDBRANCH  39  40
ENDBRANCH  33  39
BRANCH  34  42
ATOM     42  O   UNL     1      19.680  49.964  73.570  1.00  0.00    -0.387 OA
ATOM     43  H   UNL     1      19.533  50.806  73.066  1.00  0.00     0.211 HD
ENDBRANCH  34  42
ENDBRANCH   1  29
TORSDOF 13
ENDMDL
MODEL 6
REMARK VINA RESULT:    -5.955      2.166      3.181
REMARK INTER + INTRA:          -9.219
REMARK INTER:                  -9.398
REMARK INTRA:                   0.179
REMARK UNBOUND:                -0.305
REMARK SMILES O=c1c(O[C@H]2O[C@@H](CO)[C@H](O)[C@@H](O)[C@@H]2O)c(-c2cc(O)c(O)c(O)c2)oc2cc(O)cc(O)c12
REMARK SMILES IDX 4 1 3 2 16 3 26 4 2 5 27 6 1 7 34 8 28 9 32 10 29 11 31 12
REMARK SMILES IDX 17 13 18 14 19 15 25 16 21 17 23 18 20 19 22 21 24 23 33 25
REMARK SMILES IDX 30 27 5 29 14 30 6 31 12 32 7 33 10 34 15 35 13 37 8 39 9 40
REMARK SMILES IDX 11 42
REMARK H PARENT 20 20 22 22 24 24 33 26 30 28 15 36 13 38 9 41 11 43
REMARK Flexibility Score: inf
ROOT
ATOM      1  O   UNL     1      16.794  45.371  74.106  1.00  0.00    -0.454 OA
ENDROOT
BRANCH   1   2
ATOM      2  C   UNL     1      17.173  44.117  74.611  1.00  0.00     0.214 A 
ATOM      3  C   UNL     1      18.141  43.995  75.623  1.00  0.00     0.181 A 
ATOM      4  O   UNL     1      18.508  42.790  76.052  1.00  0.00    -0.452 OA
ATOM      5  C   UNL     1      16.540  42.959  74.141  1.00  0.00     0.239 A 
ATOM      6  C   UNL     1      17.955  41.665  75.612  1.00  0.00     0.146 A 
ATOM      7  O   UNL     1      15.609  43.063  73.293  1.00  0.00    -0.285 OA
ATOM      8  C   UNL     1      16.943  41.698  74.626  1.00  0.00     0.111 A 
ATOM      9  C   UNL     1      18.355  40.448  76.171  1.00  0.00     0.094 A 
ATOM     10  C   UNL     1      16.357  40.484  74.197  1.00  0.00     0.134 A 
ATOM     11  C   UNL     1      17.744  39.254  75.775  1.00  0.00     0.123 A 
ATOM     12  C   UNL     1      16.777  39.271  74.764  1.00  0.00     0.093 A 
BRANCH   3  13
ATOM     13  C   UNL     1      18.712  45.174  76.299  1.00  0.00     0.029 A 
ATOM     14  C   UNL     1      18.768  46.409  75.631  1.00  0.00     0.062 A 
ATOM     15  C   UNL     1      19.221  47.555  76.296  1.00  0.00     0.162 A 
ATOM     16  C   UNL     1      19.089  45.099  77.648  1.00  0.00     0.062 A 
ATOM     17  C   UNL     1      19.640  47.468  77.638  1.00  0.00     0.200 A 
ATOM     18  C   UNL     1      19.562  46.237  78.315  1.00  0.00     0.162 A 
BRANCH  15  19
ATOM     19  O   UNL     1      19.240  48.784  75.633  1.00  0.00    -0.504 OA
ATOM     20  H   UNL     1      18.884  48.883  74.687  1.00  0.00     0.293 HD
ENDBRANCH  15  19
BRANCH  17  21
ATOM     21  O   UNL     1      20.125  48.593  78.306  1.00  0.00    -0.502 OA
ATOM     22  H   UNL     1      19.916  49.537  77.986  1.00  0.00     0.293 HD
ENDBRANCH  17  21
BRANCH  18  23
ATOM     23  O   UNL     1      19.968  46.121  79.646  1.00  0.00    -0.504 OA
ATOM     24  H   UNL     1      19.503  45.504  80.303  1.00  0.00     0.293 HD
ENDBRANCH  18  23
ENDBRANCH   3  13
BRANCH  10  25
ATOM     25  O   UNL     1      15.347  40.472  73.234  1.00  0.00    -0.507 OA
ATOM     26  H   UNL     1      14.486  40.989  73.353  1.00  0.00     0.293 HD
ENDBRANCH  10  25
BRANCH  11  27
ATOM     27  O   UNL     1      18.078  38.048  76.395  1.00  0.00    -0.508 OA
ATOM     28  H   UNL     1      17.461  37.247  76.338  1.00  0.00     0.293 HD
ENDBRANCH  11  27
ENDBRANCH   1   2
BRANCH   1  29
ATOM     29  C   UNL     1      15.463  45.729  73.706  1.00  0.00     0.339 C 
ATOM     30  C   UNL     1      15.400  47.199  73.172  1.00  0.00     0.214 C 
ATOM     31  O   UNL     1      14.540  45.490  74.765  1.00  0.00    -0.332 OA
ATOM     32  C   UNL     1      14.627  48.101  74.165  1.00  0.00     0.180 C 
ATOM     33  C   UNL     1      13.252  45.962  74.394  1.00  0.00     0.179 C 
ATOM     34  C   UNL     1      13.217  47.516  74.442  1.00  0.00     0.177 C 
BRANCH  30  35
ATOM     35  O   UNL     1      14.740  47.200  71.927  1.00  0.00    -0.384 OA
ATOM     36  H   UNL     1      15.078  46.417  71.416  1.00  0.00     0.211 HD
ENDBRANCH  30  35
BRANCH  32  37
ATOM     37  O   UNL     1      15.335  48.199  75.379  1.00  0.00    -0.387 OA
ATOM     38  H   UNL     1      15.158  47.362  75.884  1.00  0.00     0.211 HD
ENDBRANCH  32  37
BRANCH  33  39
ATOM     39  C   UNL     1      12.164  45.313  75.268  1.00  0.00     0.191 C 
BRANCH  39  40
ATOM     40  O   UNL     1      12.701  44.495  76.269  1.00  0.00    -0.394 OA
ATOM     41  H   UNL     1      12.544  43.557  75.990  1.00  0.00     0.210 HD
ENDBRANCH  39  40
ENDBRANCH  33  39
BRANCH  34  42
ATOM     42  O   UNL     1      12.290  47.991  73.494  1.00  0.00    -0.387 OA
ATOM     43  H   UNL     1      11.975  47.200  72.983  1.00  0.00     0.211 HD
ENDBRANCH  34  42
ENDBRANCH   1  29
TORSDOF 13
ENDMDL
MODEL 7
REMARK VINA RESULT:    -5.911      2.827      4.353
REMARK INTER + INTRA:          -9.154
REMARK INTER:                  -7.742
REMARK INTRA:                  -1.412
REMARK UNBOUND:                -0.305
REMARK SMILES O=c1c(O[C@H]2O[C@@H](CO)[C@H](O)[C@@H](O)[C@@H]2O)c(-c2cc(O)c(O)c(O)c2)oc2cc(O)cc(O)c12
REMARK SMILES IDX 4 1 3 2 16 3 26 4 2 5 27 6 1 7 34 8 28 9 32 10 29 11 31 12
REMARK SMILES IDX 17 13 18 14 19 15 25 16 21 17 23 18 20 19 22 21 24 23 33 25
REMARK SMILES IDX 30 27 5 29 14 30 6 31 12 32 7 33 10 34 15 35 13 37 8 39 9 40
REMARK SMILES IDX 11 42
REMARK H PARENT 20 20 22 22 24 24 33 26 30 28 15 36 13 38 9 41 11 43
REMARK Flexibility Score: inf
ROOT
ATOM      1  O   UNL     1      16.146  45.148  73.668  1.00  0.00    -0.454 OA
ENDROOT
BRANCH   1   2
ATOM      2  C   UNL     1      16.869  44.027  74.105  1.00  0.00     0.214 A 
ATOM      3  C   UNL     1      18.131  44.157  74.711  1.00  0.00     0.181 A 
ATOM      4  O   UNL     1      18.808  43.071  75.078  1.00  0.00    -0.452 OA
ATOM      5  C   UNL     1      16.305  42.749  73.989  1.00  0.00     0.239 A 
ATOM      6  C   UNL     1      18.323  41.840  74.958  1.00  0.00     0.146 A 
ATOM      7  O   UNL     1      15.136  42.629  73.525  1.00  0.00    -0.285 OA
ATOM      8  C   UNL     1      17.043  41.621  74.400  1.00  0.00     0.111 A 
ATOM      9  C   UNL     1      19.077  40.764  75.436  1.00  0.00     0.094 A 
ATOM     10  C   UNL     1      16.546  40.299  74.310  1.00  0.00     0.134 A 
ATOM     11  C   UNL     1      18.565  39.464  75.383  1.00  0.00     0.123 A 
ATOM     12  C   UNL     1      17.321  39.231  74.787  1.00  0.00     0.093 A 
BRANCH   3  13
ATOM     13  C   UNL     1      18.704  45.474  75.039  1.00  0.00     0.029 A 
ATOM     14  C   UNL     1      19.203  46.298  74.016  1.00  0.00     0.062 A 
ATOM     15  C   UNL     1      19.663  47.589  74.305  1.00  0.00     0.162 A 
ATOM     16  C   UNL     1      18.643  45.962  76.353  1.00  0.00     0.062 A 
ATOM     17  C   UNL     1      19.641  48.059  75.633  1.00  0.00     0.200 A 
ATOM     18  C   UNL     1      19.118  47.245  76.654  1.00  0.00     0.162 A 
BRANCH  15  19
ATOM     19  O   UNL     1      20.125  48.411  73.276  1.00  0.00    -0.504 OA
ATOM     20  H   UNL     1      20.948  48.171  72.732  1.00  0.00     0.293 HD
ENDBRANCH  15  19
BRANCH  17  21
ATOM     21  O   UNL     1      20.125  49.331  75.944  1.00  0.00    -0.502 OA
ATOM     22  H   UNL     1      21.120  49.542  75.933  1.00  0.00     0.293 HD
ENDBRANCH  17  21
BRANCH  18  23
ATOM     23  O   UNL     1      19.082  47.687  77.978  1.00  0.00    -0.504 OA
ATOM     24  H   UNL     1      19.449  47.133  78.744  1.00  0.00     0.293 HD
ENDBRANCH  18  23
ENDBRANCH   3  13
BRANCH  10  25
ATOM     25  O   UNL     1      15.283  40.040  73.776  1.00  0.00    -0.507 OA
ATOM     26  H   UNL     1      15.048  40.268  72.819  1.00  0.00     0.293 HD
ENDBRANCH  10  25
BRANCH  11  27
ATOM     27  O   UNL     1      19.277  38.400  75.940  1.00  0.00    -0.508 OA
ATOM     28  H   UNL     1      20.052  37.978  75.444  1.00  0.00     0.293 HD
ENDBRANCH  11  27
ENDBRANCH   1   2
BRANCH   1  29
ATOM     29  C   UNL     1      15.414  46.040  74.521  1.00  0.00     0.339 C 
ATOM     30  C   UNL     1      13.925  46.185  74.059  1.00  0.00     0.214 C 
ATOM     31  O   UNL     1      16.082  47.295  74.624  1.00  0.00    -0.332 OA
ATOM     32  C   UNL     1      13.675  47.600  73.484  1.00  0.00     0.180 C 
ATOM     33  C   UNL     1      15.284  48.201  75.373  1.00  0.00     0.179 C 
ATOM     34  C   UNL     1      14.077  48.683  74.519  1.00  0.00     0.177 C 
BRANCH  30  35
ATOM     35  O   UNL     1      13.085  45.975  75.169  1.00  0.00    -0.384 OA
ATOM     36  H   UNL     1      13.180  45.021  75.434  1.00  0.00     0.211 HD
ENDBRANCH  30  35
BRANCH  32  37
ATOM     37  O   UNL     1      14.427  47.783  72.307  1.00  0.00    -0.387 OA
ATOM     38  H   UNL     1      14.557  46.883  71.906  1.00  0.00     0.211 HD
ENDBRANCH  32  37
BRANCH  33  39
ATOM     39  C   UNL     1      16.139  49.364  75.907  1.00  0.00     0.191 C 
BRANCH  39  40
ATOM     40  O   UNL     1      16.387  49.256  77.280  1.00  0.00    -0.394 OA
ATOM     41  H   UNL     1      15.510  49.126  77.722  1.00  0.00     0.210 HD
ENDBRANCH  39  40
ENDBRANCH  33  39
BRANCH  34  42
ATOM     42  O   UNL     1      12.993  48.981  75.368  1.00  0.00    -0.387 OA
ATOM     43  H   UNL     1      13.367  49.075  76.283  1.00  0.00     0.211 HD
ENDBRANCH  34  42
ENDBRANCH   1  29
TORSDOF 13
ENDMDL
MODEL 8
REMARK VINA RESULT:    -5.779     16.158     18.942
REMARK INTER + INTRA:          -8.957
REMARK INTER:                  -7.665
REMARK INTRA:                  -1.292
REMARK UNBOUND:                -0.305
REMARK SMILES O=c1c(O[C@H]2O[C@@H](CO)[C@H](O)[C@@H](O)[C@@H]2O)c(-c2cc(O)c(O)c(O)c2)oc2cc(O)cc(O)c12
REMARK SMILES IDX 4 1 3 2 16 3 26 4 2 5 27 6 1 7 34 8 28 9 32 10 29 11 31 12
REMARK SMILES IDX 17 13 18 14 19 15 25 16 21 17 23 18 20 19 22 21 24 23 33 25
REMARK SMILES IDX 30 27 5 29 14 30 6 31 12 32 7 33 10 34 15 35 13 37 8 39 9 40
REMARK SMILES IDX 11 42
REMARK H PARENT 20 20 22 22 24 24 33 26 30 28 15 36 13 38 9 41 11 43
REMARK Flexibility Score: inf
ROOT
ATOM      1  O   UNL     1       3.646  31.268  69.613  1.00  0.00    -0.454 OA
ENDROOT
BRANCH   1   2
ATOM      2  C   UNL     1       4.064  31.051  70.935  1.00  0.00     0.214 A 
ATOM      3  C   UNL     1       5.401  31.250  71.324  1.00  0.00     0.181 A 
ATOM      4  O   UNL     1       5.774  30.998  72.577  1.00  0.00    -0.452 OA
ATOM      5  C   UNL     1       3.127  30.682  71.908  1.00  0.00     0.239 A 
ATOM      6  C   UNL     1       4.923  30.616  73.523  1.00  0.00     0.146 A 
ATOM      7  O   UNL     1       1.908  30.585  71.588  1.00  0.00    -0.285 OA
ATOM      8  C   UNL     1       3.552  30.435  73.229  1.00  0.00     0.111 A 
ATOM      9  C   UNL     1       5.393  30.442  74.828  1.00  0.00     0.094 A 
ATOM     10  C   UNL     1       2.668  30.054  74.266  1.00  0.00     0.134 A 
ATOM     11  C   UNL     1       4.509  30.106  75.858  1.00  0.00     0.123 A 
ATOM     12  C   UNL     1       3.160  29.875  75.568  1.00  0.00     0.093 A 
BRANCH   3  13
ATOM     13  C   UNL     1       6.403  31.817  70.404  1.00  0.00     0.029 A 
ATOM     14  C   UNL     1       7.203  30.967  69.623  1.00  0.00     0.062 A 
ATOM     15  C   UNL     1       8.090  31.497  68.679  1.00  0.00     0.162 A 
ATOM     16  C   UNL     1       6.477  33.205  70.214  1.00  0.00     0.062 A 
ATOM     17  C   UNL     1       8.195  32.893  68.521  1.00  0.00     0.200 A 
ATOM     18  C   UNL     1       7.376  33.745  69.285  1.00  0.00     0.162 A 
BRANCH  15  19
ATOM     19  O   UNL     1       8.855  30.641  67.884  1.00  0.00    -0.504 OA
ATOM     20  H   UNL     1       9.864  30.739  67.815  1.00  0.00     0.293 HD
ENDBRANCH  15  19
BRANCH  17  21
ATOM     21  O   UNL     1       9.097  33.439  67.607  1.00  0.00    -0.502 OA
ATOM     22  H   UNL     1       9.611  32.857  66.949  1.00  0.00     0.293 HD
ENDBRANCH  17  21
BRANCH  18  23
ATOM     23  O   UNL     1       7.457  35.132  69.148  1.00  0.00    -0.504 OA
ATOM     24  H   UNL     1       8.223  35.671  69.536  1.00  0.00     0.293 HD
ENDBRANCH  18  23
ENDBRANCH   3  13
BRANCH  10  25
ATOM     25  O   UNL     1       1.306  29.875  74.021  1.00  0.00    -0.507 OA
ATOM     26  H   UNL     1       0.596  30.348  74.564  1.00  0.00     0.293 HD
ENDBRANCH  10  25
BRANCH  11  27
ATOM     27  O   UNL     1       4.959  30.018  77.177  1.00  0.00    -0.508 OA
ATOM     28  H   UNL     1       4.335  30.205  77.952  1.00  0.00     0.293 HD
ENDBRANCH  11  27
ENDBRANCH   1   2
BRANCH   1  29
ATOM     29  C   UNL     1       2.621  32.189  69.213  1.00  0.00     0.339 C 
ATOM     30  C   UNL     1       2.501  32.275  67.655  1.00  0.00     0.214 C 
ATOM     31  O   UNL     1       2.829  33.462  69.819  1.00  0.00    -0.332 OA
ATOM     32  C   UNL     1       3.003  33.650  67.151  1.00  0.00     0.180 C 
ATOM     33  C   UNL     1       1.878  34.391  69.319  1.00  0.00     0.179 C 
ATOM     34  C   UNL     1       2.241  34.798  67.863  1.00  0.00     0.177 C 
BRANCH  30  35
ATOM     35  O   UNL     1       1.150  32.109  67.296  1.00  0.00    -0.384 OA
ATOM     36  H   UNL     1       1.035  31.163  67.012  1.00  0.00     0.211 HD
ENDBRANCH  30  35
BRANCH  32  37
ATOM     37  O   UNL     1       4.382  33.783  67.404  1.00  0.00    -0.387 OA
ATOM     38  H   UNL     1       4.515  33.607  68.372  1.00  0.00     0.211 HD
ENDBRANCH  32  37
BRANCH  33  39
ATOM     39  C   UNL     1       1.752  35.600  70.263  1.00  0.00     0.191 C 
BRANCH  39  40
ATOM     40  O   UNL     1       1.143  36.699  69.644  1.00  0.00    -0.394 OA
ATOM     41  H   UNL     1       1.857  37.190  69.163  1.00  0.00     0.210 HD
ENDBRANCH  39  40
ENDBRANCH  33  39
BRANCH  34  42
ATOM     42  O   UNL     1       1.062  35.119  67.161  1.00  0.00    -0.387 OA
ATOM     43  H   UNL     1       0.325  35.115  67.825  1.00  0.00     0.211 HD
ENDBRANCH  34  42
ENDBRANCH   1  29
TORSDOF 13
ENDMDL
MODEL 9
REMARK VINA RESULT:    -5.699      1.745      6.057
REMARK INTER + INTRA:          -8.836
REMARK INTER:                  -8.444
REMARK INTRA:                  -0.392
REMARK UNBOUND:                -0.305
REMARK SMILES O=c1c(O[C@H]2O[C@@H](CO)[C@H](O)[C@@H](O)[C@@H]2O)c(-c2cc(O)c(O)c(O)c2)oc2cc(O)cc(O)c12
REMARK SMILES IDX 4 1 3 2 16 3 26 4 2 5 27 6 1 7 34 8 28 9 32 10 29 11 31 12
REMARK SMILES IDX 17 13 18 14 19 15 25 16 21 17 23 18 20 19 22 21 24 23 33 25
REMARK SMILES IDX 30 27 5 29 14 30 6 31 12 32 7 33 10 34 15 35 13 37 8 39 9 40
REMARK SMILES IDX 11 42
REMARK H PARENT 20 20 22 22 24 24 33 26 30 28 15 36 13 38 9 41 11 43
REMARK Flexibility Score: inf
ROOT
ATOM      1  O   UNL     1      19.385  45.015  75.747  1.00  0.00    -0.454 OA
ENDROOT
BRANCH   1   2
ATOM      2  C   UNL     1      19.275  45.264  77.124  1.00  0.00     0.214 A 
ATOM      3  C   UNL     1      18.921  44.247  78.029  1.00  0.00     0.181 A 
ATOM      4  O   UNL     1      18.787  44.525  79.323  1.00  0.00    -0.452 OA
ATOM      5  C   UNL     1      19.574  46.538  77.626  1.00  0.00     0.239 A 
ATOM      6  C   UNL     1      19.031  45.726  79.836  1.00  0.00     0.146 A 
ATOM      7  O   UNL     1      19.976  47.436  76.833  1.00  0.00    -0.285 OA
ATOM      8  C   UNL     1      19.434  46.796  79.004  1.00  0.00     0.111 A 
ATOM      9  C   UNL     1      18.931  45.907  81.218  1.00  0.00     0.094 A 
ATOM     10  C   UNL     1      19.712  48.056  79.585  1.00  0.00     0.134 A 
ATOM     11  C   UNL     1      19.246  47.142  81.793  1.00  0.00     0.123 A 
ATOM     12  C   UNL     1      19.598  48.221  80.974  1.00  0.00     0.093 A 
BRANCH   3  13
ATOM     13  C   UNL     1      18.776  42.844  77.603  1.00  0.00     0.029 A 
ATOM     14  C   UNL     1      18.243  41.892  78.487  1.00  0.00     0.062 A 
ATOM     15  C   UNL     1      18.013  40.578  78.061  1.00  0.00     0.162 A 
ATOM     16  C   UNL     1      19.054  42.478  76.277  1.00  0.00     0.062 A 
ATOM     17  C   UNL     1      18.335  40.202  76.743  1.00  0.00     0.200 A 
ATOM     18  C   UNL     1      18.846  41.161  75.848  1.00  0.00     0.162 A 
BRANCH  15  19
ATOM     19  O   UNL     1      17.450  39.649  78.939  1.00  0.00    -0.504 OA
ATOM     20  H   UNL     1      17.465  38.653  78.740  1.00  0.00     0.293 HD
ENDBRANCH  15  19
BRANCH  17  21
ATOM     21  O   UNL     1      18.142  38.889  76.311  1.00  0.00    -0.502 OA
ATOM     22  H   UNL     1      17.229  38.551  76.016  1.00  0.00     0.293 HD
ENDBRANCH  17  21
BRANCH  18  23
ATOM     23  O   UNL     1      19.171  40.817  74.534  1.00  0.00    -0.504 OA
ATOM     24  H   UNL     1      20.093  40.486  74.274  1.00  0.00     0.293 HD
ENDBRANCH  18  23
ENDBRANCH   3  13
BRANCH  10  25
ATOM     25  O   UNL     1      20.123  49.135  78.802  1.00  0.00    -0.507 OA
ATOM     26  H   UNL     1      19.618  49.421  77.974  1.00  0.00     0.293 HD
ENDBRANCH  10  25
BRANCH  11  27
ATOM     27  O   UNL     1      19.233  47.301  83.181  1.00  0.00    -0.508 OA
ATOM     28  H   UNL     1      19.808  48.004  83.628  1.00  0.00     0.293 HD
ENDBRANCH  11  27
ENDBRANCH   1   2
BRANCH   1  29
ATOM     29  C   UNL     1      18.304  45.097  74.806  1.00  0.00     0.339 C 
ATOM     30  C   UNL     1      18.389  46.402  73.946  1.00  0.00     0.214 C 
ATOM     31  O   UNL     1      17.051  44.957  75.470  1.00  0.00    -0.332 OA
ATOM     32  C   UNL     1      17.246  47.375  74.329  1.00  0.00     0.180 C 
ATOM     33  C   UNL     1      15.993  45.160  74.543  1.00  0.00     0.179 C 
ATOM     34  C   UNL     1      15.871  46.671  74.194  1.00  0.00     0.177 C 
BRANCH  30  35
ATOM     35  O   UNL     1      18.274  46.057  72.586  1.00  0.00    -0.384 OA
ATOM     36  H   UNL     1      17.569  45.359  72.519  1.00  0.00     0.211 HD
ENDBRANCH  30  35
BRANCH  32  37
ATOM     37  O   UNL     1      17.413  47.817  75.656  1.00  0.00    -0.387 OA
ATOM     38  H   UNL     1      16.753  47.323  76.209  1.00  0.00     0.211 HD
ENDBRANCH  32  37
BRANCH  33  39
ATOM     39  C   UNL     1      14.681  44.563  75.078  1.00  0.00     0.191 C 
BRANCH  39  40
ATOM     40  O   UNL     1      13.630  45.488  75.068  1.00  0.00    -0.394 OA
ATOM     41  H   UNL     1      14.041  46.389  75.109  1.00  0.00     0.210 HD
ENDBRANCH  39  40
ENDBRANCH  33  39
BRANCH  34  42
ATOM     42  O   UNL     1      15.371  46.809  72.884  1.00  0.00    -0.387 OA
ATOM     43  H   UNL     1      15.882  47.547  72.461  1.00  0.00     0.211 HD
ENDBRANCH  34  42
ENDBRANCH   1  29
TORSDOF 13
ENDMDL
