MODEL 1
REMARK VINA RESULT:    -4.119      0.000      0.000
REMARK INTER + INTRA:         -15.566
REMARK INTER:                 -10.380
REMARK INTRA:                  -5.186
REMARK UNBOUND:                -5.186
REMARK SMILES CCCCCCCCCCCCCCCCCCCCCCCCCCCC(=O)[O-]
REMARK SMILES IDX 15 1 16 2 17 3 18 4 19 5 20 6 21 7 22 8 23 9 24 10 25 11
REMARK SMILES IDX 26 12 27 13 28 14 29 15 30 16 14 17 13 18 12 19 11 20 10 21
REMARK SMILES IDX 9 22 8 23 7 24 6 25 5 26 4 27 3 28 2 29 1 30
REMARK H PARENT
REMARK Flexibility Score: inf
ROOT
ATOM      1  C   UNL     1      31.729  74.002  12.413  1.00  0.00     0.000 C 
ENDROOT
BRANCH   1   2
ATOM      2  C   UNL     1      30.404  73.607  11.728  1.00  0.00     0.000 C 
BRANCH   2   3
ATOM      3  C   UNL     1      30.389  73.757  10.195  1.00  0.00     0.000 C 
BRANCH   3   4
ATOM      4  C   UNL     1      30.128  72.450   9.418  1.00  0.00     0.000 C 
BRANCH   4   5
ATOM      5  C   UNL     1      30.201  71.163  10.264  1.00  0.00     0.000 C 
BRANCH   5   6
ATOM      6  C   UNL     1      31.231  70.124   9.789  1.00  0.00     0.000 C 
BRANCH   6   7
ATOM      7  C   UNL     1      32.578  70.756   9.398  1.00  0.00     0.000 C 
BRANCH   7   8
ATOM      8  C   UNL     1      33.188  70.117   8.141  1.00  0.00     0.000 C 
BRANCH   8   9
ATOM      9  C   UNL     1      33.542  71.152   7.057  1.00  0.00     0.000 C 
BRANCH   9  10
ATOM     10  C   UNL     1      32.296  71.904   6.542  1.00  0.00     0.000 C 
BRANCH  10  11
ATOM     11  C   UNL     1      32.438  73.435   6.590  1.00  0.00     0.000 C 
BRANCH  11  12
ATOM     12  C   UNL     1      33.496  73.906   7.600  1.00  0.00     0.006 C 
BRANCH  12  13
ATOM     13  C   UNL     1      34.432  74.969   7.008  1.00  0.00     0.053 C 
BRANCH  13  14
ATOM     14  C   UNL     1      35.854  74.498   6.969  1.00  0.00     0.041 C 
ATOM     15  O   UNL     1      36.749  75.130   7.588  1.00  0.00    -0.550 OA
ATOM     16  O   UNL     1      36.193  73.371   6.229  1.00  0.00    -0.550 OA
ENDBRANCH  13  14
ENDBRANCH  12  13
ENDBRANCH  11  12
ENDBRANCH  10  11
ENDBRANCH   9  10
ENDBRANCH   8   9
ENDBRANCH   7   8
ENDBRANCH   6   7
ENDBRANCH   5   6
ENDBRANCH   4   5
ENDBRANCH   3   4
ENDBRANCH   2   3
ENDBRANCH   1   2
BRANCH   1  17
ATOM     17  C   UNL     1      32.953  74.060  11.482  1.00  0.00     0.000 C 
BRANCH  17  18
ATOM     18  C   UNL     1      33.886  75.242  11.794  1.00  0.00     0.000 C 
BRANCH  18  19
ATOM     19  C   UNL     1      34.910  75.495  10.674  1.00  0.00     0.000 C 
BRANCH  19  20
ATOM     20  C   UNL     1      35.526  76.904  10.744  1.00  0.00     0.000 C 
BRANCH  20  21
ATOM     21  C   UNL     1      34.530  78.012  10.351  1.00  0.00     0.000 C 
BRANCH  21  22
ATOM     22  C   UNL     1      33.734  77.746   9.061  1.00  0.00    -0.000 C 
BRANCH  22  23
ATOM     23  C   UNL     1      32.214  77.771   9.278  1.00  0.00    -0.000 C 
BRANCH  23  24
ATOM     24  C   UNL     1      31.863  78.408  10.627  1.00  0.00    -0.000 C 
BRANCH  24  25
ATOM     25  C   UNL     1      30.968  77.482  11.458  1.00  0.00    -0.000 C 
BRANCH  25  26
ATOM     26  C   UNL     1      31.180  77.716  12.961  1.00  0.00    -0.000 C 
BRANCH  26  27
ATOM     27  C   UNL     1      32.502  78.438  13.274  1.00  0.00    -0.000 C 
BRANCH  27  28
ATOM     28  C   UNL     1      32.706  78.817  14.755  1.00  0.00    -0.000 C 
BRANCH  28  29
ATOM     29  C   UNL     1      31.574  79.658  15.372  1.00  0.00    -0.003 C 
ATOM     30  C   UNL     1      31.327  80.966  14.623  1.00  0.00     0.004 C 
ENDBRANCH  28  29
ENDBRANCH  27  28
ENDBRANCH  26  27
ENDBRANCH  25  26
ENDBRANCH  24  25
ENDBRANCH  23  24
ENDBRANCH  22  23
ENDBRANCH  21  22
ENDBRANCH  20  21
ENDBRANCH  19  20
ENDBRANCH  18  19
ENDBRANCH  17  18
ENDBRANCH   1  17
TORSDOF 26
ENDMDL
MODEL 2
REMARK VINA RESULT:    -4.028      3.667      7.396
REMARK INTER + INTRA:         -15.337
REMARK INTER:                 -10.340
REMARK INTRA:                  -4.996
REMARK UNBOUND:                -5.186
REMARK SMILES CCCCCCCCCCCCCCCCCCCCCCCCCCCC(=O)[O-]
REMARK SMILES IDX 15 1 16 2 17 3 18 4 19 5 20 6 21 7 22 8 23 9 24 10 25 11
REMARK SMILES IDX 26 12 27 13 28 14 29 15 30 16 14 17 13 18 12 19 11 20 10 21
REMARK SMILES IDX 9 22 8 23 7 24 6 25 5 26 4 27 3 28 2 29 1 30
REMARK H PARENT
REMARK Flexibility Score: inf
ROOT
ATOM      1  C   UNL     1      33.456  78.508  11.228  1.00  0.00     0.000 C 
ENDROOT
BRANCH   1   2
ATOM      2  C   UNL     1      32.109  78.599  10.483  1.00  0.00     0.000 C 
BRANCH   2   3
ATOM      3  C   UNL     1      32.110  78.023   9.054  1.00  0.00     0.000 C 
BRANCH   3   4
ATOM      4  C   UNL     1      30.713  77.704   8.483  1.00  0.00     0.000 C 
BRANCH   4   5
ATOM      5  C   UNL     1      29.557  77.794   9.499  1.00  0.00     0.000 C 
BRANCH   5   6
ATOM      6  C   UNL     1      29.001  76.443   9.981  1.00  0.00     0.000 C 
BRANCH   6   7
ATOM      7  C   UNL     1      28.630  76.449  11.474  1.00  0.00     0.000 C 
BRANCH   7   8
ATOM      8  C   UNL     1      29.299  77.598  12.244  1.00  0.00     0.000 C 
BRANCH   8   9
ATOM      9  C   UNL     1      30.285  77.103  13.317  1.00  0.00     0.000 C 
BRANCH   9  10
ATOM     10  C   UNL     1      31.034  78.267  14.001  1.00  0.00     0.000 C 
BRANCH  10  11
ATOM     11  C   UNL     1      32.400  77.862  14.583  1.00  0.00     0.000 C 
BRANCH  11  12
ATOM     12  C   UNL     1      33.031  78.965  15.449  1.00  0.00     0.006 C 
BRANCH  12  13
ATOM     13  C   UNL     1      32.013  79.615  16.394  1.00  0.00     0.053 C 
BRANCH  13  14
ATOM     14  C   UNL     1      32.153  81.107  16.420  1.00  0.00     0.041 C 
ATOM     15  O   UNL     1      32.470  81.696  17.486  1.00  0.00    -0.550 OA
ATOM     16  O   UNL     1      31.911  81.849  15.270  1.00  0.00    -0.550 OA
ENDBRANCH  13  14
ENDBRANCH  12  13
ENDBRANCH  11  12
ENDBRANCH  10  11
ENDBRANCH   9  10
ENDBRANCH   8   9
ENDBRANCH   7   8
ENDBRANCH   6   7
ENDBRANCH   5   6
ENDBRANCH   4   5
ENDBRANCH   3   4
ENDBRANCH   2   3
ENDBRANCH   1   2
BRANCH   1  17
ATOM     17  C   UNL     1      34.655  78.083  10.360  1.00  0.00     0.000 C 
BRANCH  17  18
ATOM     18  C   UNL     1      35.698  77.265  11.141  1.00  0.00     0.000 C 
BRANCH  18  19
ATOM     19  C   UNL     1      36.278  76.107  10.311  1.00  0.00     0.000 C 
BRANCH  19  20
ATOM     20  C   UNL     1      35.605  75.972   8.933  1.00  0.00     0.000 C 
BRANCH  20  21
ATOM     21  C   UNL     1      36.450  75.162   7.931  1.00  0.00     0.000 C 
BRANCH  21  22
ATOM     22  C   UNL     1      35.726  74.781   6.628  1.00  0.00    -0.000 C 
BRANCH  22  23
ATOM     23  C   UNL     1      34.339  75.428   6.501  1.00  0.00    -0.000 C 
BRANCH  23  24
ATOM     24  C   UNL     1      33.293  74.400   6.053  1.00  0.00    -0.000 C 
BRANCH  24  25
ATOM     25  C   UNL     1      32.159  74.285   7.079  1.00  0.00    -0.000 C 
BRANCH  25  26
ATOM     26  C   UNL     1      32.693  73.811   8.439  1.00  0.00    -0.000 C 
BRANCH  26  27
ATOM     27  C   UNL     1      31.874  74.350   9.625  1.00  0.00    -0.000 C 
BRANCH  27  28
ATOM     28  C   UNL     1      32.710  74.876  10.810  1.00  0.00    -0.000 C 
BRANCH  28  29
ATOM     29  C   UNL     1      32.455  74.165  12.151  1.00  0.00    -0.003 C 
ATOM     30  C   UNL     1      31.016  73.675  12.302  1.00  0.00     0.004 C 
ENDBRANCH  28  29
ENDBRANCH  27  28
ENDBRANCH  26  27
ENDBRANCH  25  26
ENDBRANCH  24  25
ENDBRANCH  23  24
ENDBRANCH  22  23
ENDBRANCH  21  22
ENDBRANCH  20  21
ENDBRANCH  19  20
ENDBRANCH  18  19
ENDBRANCH  17  18
ENDBRANCH   1  17
TORSDOF 26
ENDMDL
MODEL 3
REMARK VINA RESULT:    -3.980      3.605      7.375
REMARK INTER + INTRA:         -15.214
REMARK INTER:                 -10.023
REMARK INTRA:                  -5.191
REMARK UNBOUND:                -5.186
REMARK SMILES CCCCCCCCCCCCCCCCCCCCCCCCCCCC(=O)[O-]
REMARK SMILES IDX 15 1 16 2 17 3 18 4 19 5 20 6 21 7 22 8 23 9 24 10 25 11
REMARK SMILES IDX 26 12 27 13 28 14 29 15 30 16 14 17 13 18 12 19 11 20 10 21
REMARK SMILES IDX 9 22 8 23 7 24 6 25 5 26 4 27 3 28 2 29 1 30
REMARK H PARENT
REMARK Flexibility Score: inf
ROOT
ATOM      1  C   UNL     1      32.684  75.248   6.969  1.00  0.00     0.000 C 
ENDROOT
BRANCH   1   2
ATOM      2  C   UNL     1      33.950  75.726   7.708  1.00  0.00     0.000 C 
BRANCH   2   3
ATOM      3  C   UNL     1      35.270  75.094   7.225  1.00  0.00     0.000 C 
BRANCH   3   4
ATOM      4  C   UNL     1      36.470  75.295   8.172  1.00  0.00     0.000 C 
BRANCH   4   5
ATOM      5  C   UNL     1      36.101  75.566   9.644  1.00  0.00     0.000 C 
BRANCH   5   6
ATOM      6  C   UNL     1      37.020  76.557  10.379  1.00  0.00     0.000 C 
BRANCH   6   7
ATOM      7  C   UNL     1      36.245  77.529  11.286  1.00  0.00     0.000 C 
BRANCH   7   8
ATOM      8  C   UNL     1      34.727  77.300  11.238  1.00  0.00     0.000 C 
BRANCH   8   9
ATOM      9  C   UNL     1      33.951  78.540  10.760  1.00  0.00     0.000 C 
BRANCH   9  10
ATOM     10  C   UNL     1      32.707  78.819  11.630  1.00  0.00     0.000 C 
BRANCH  10  11
ATOM     11  C   UNL     1      32.542  77.837  12.803  1.00  0.00     0.000 C 
BRANCH  11  12
ATOM     12  C   UNL     1      32.792  78.491  14.171  1.00  0.00     0.006 C 
BRANCH  12  13
ATOM     13  C   UNL     1      31.541  79.191  14.717  1.00  0.00     0.053 C 
BRANCH  13  14
ATOM     14  C   UNL     1      31.841  80.584  15.181  1.00  0.00     0.041 C 
ATOM     15  O   UNL     1      32.617  80.776  16.153  1.00  0.00    -0.550 OA
ATOM     16  O   UNL     1      31.245  81.670  14.551  1.00  0.00    -0.550 OA
ENDBRANCH  13  14
ENDBRANCH  12  13
ENDBRANCH  11  12
ENDBRANCH  10  11
ENDBRANCH   9  10
ENDBRANCH   8   9
ENDBRANCH   7   8
ENDBRANCH   6   7
ENDBRANCH   5   6
ENDBRANCH   4   5
ENDBRANCH   3   4
ENDBRANCH   2   3
ENDBRANCH   1   2
BRANCH   1  17
ATOM     17  C   UNL     1      31.375  75.926   7.410  1.00  0.00     0.000 C 
BRANCH  17  18
ATOM     18  C   UNL     1      31.596  77.026   8.462  1.00  0.00     0.000 C 
BRANCH  18  19
ATOM     19  C   UNL     1      30.275  77.638   8.959  1.00  0.00     0.000 C 
BRANCH  19  20
ATOM     20  C   UNL     1      29.670  76.860  10.140  1.00  0.00     0.000 C 
BRANCH  20  21
ATOM     21  C   UNL     1      29.195  77.779  11.282  1.00  0.00     0.000 C 
BRANCH  21  22
ATOM     22  C   UNL     1      29.035  77.089  12.649  1.00  0.00    -0.000 C 
BRANCH  22  23
ATOM     23  C   UNL     1      28.809  75.575  12.533  1.00  0.00    -0.000 C 
BRANCH  23  24
ATOM     24  C   UNL     1      29.822  74.803  13.387  1.00  0.00    -0.000 C 
BRANCH  24  25
ATOM     25  C   UNL     1      29.671  73.290  13.188  1.00  0.00    -0.000 C 
BRANCH  25  26
ATOM     26  C   UNL     1      29.635  72.933  11.695  1.00  0.00    -0.000 C 
BRANCH  26  27
ATOM     27  C   UNL     1      31.008  72.502  11.149  1.00  0.00    -0.000 C 
BRANCH  27  28
ATOM     28  C   UNL     1      31.714  73.547  10.260  1.00  0.00    -0.000 C 
BRANCH  28  29
ATOM     29  C   UNL     1      32.571  74.574  11.021  1.00  0.00    -0.003 C 
ATOM     30  C   UNL     1      33.550  73.928  11.999  1.00  0.00     0.004 C 
ENDBRANCH  28  29
ENDBRANCH  27  28
ENDBRANCH  26  27
ENDBRANCH  25  26
ENDBRANCH  24  25
ENDBRANCH  23  24
ENDBRANCH  22  23
ENDBRANCH  21  22
ENDBRANCH  20  21
ENDBRANCH  19  20
ENDBRANCH  18  19
ENDBRANCH  17  18
ENDBRANCH   1  17
TORSDOF 26
ENDMDL
MODEL 4
REMARK VINA RESULT:    -3.949      3.153      7.463
REMARK INTER + INTRA:         -15.138
REMARK INTER:                 -10.165
REMARK INTRA:                  -4.973
REMARK UNBOUND:                -5.186
REMARK SMILES CCCCCCCCCCCCCCCCCCCCCCCCCCCC(=O)[O-]
REMARK SMILES IDX 15 1 16 2 17 3 18 4 19 5 20 6 21 7 22 8 23 9 24 10 25 11
REMARK SMILES IDX 26 12 27 13 28 14 29 15 30 16 14 17 13 18 12 19 11 20 10 21
REMARK SMILES IDX 9 22 8 23 7 24 6 25 5 26 4 27 3 28 2 29 1 30
REMARK H PARENT
REMARK Flexibility Score: inf
ROOT
ATOM      1  C   UNL     1      32.812  74.018  11.021  1.00  0.00     0.000 C 
ENDROOT
BRANCH   1   2
ATOM      2  C   UNL     1      31.518  74.648  11.574  1.00  0.00     0.000 C 
BRANCH   2   3
ATOM      3  C   UNL     1      30.289  74.537  10.650  1.00  0.00     0.000 C 
BRANCH   3   4
ATOM      4  C   UNL     1      30.608  74.561   9.142  1.00  0.00     0.000 C 
BRANCH   4   5
ATOM      5  C   UNL     1      30.562  75.957   8.488  1.00  0.00     0.000 C 
BRANCH   5   6
ATOM      6  C   UNL     1      31.912  76.480   7.966  1.00  0.00     0.000 C 
BRANCH   6   7
ATOM      7  C   UNL     1      32.353  77.783   8.655  1.00  0.00     0.000 C 
BRANCH   7   8
ATOM      8  C   UNL     1      31.436  78.172   9.825  1.00  0.00     0.000 C 
BRANCH   8   9
ATOM      9  C   UNL     1      32.206  78.792  11.006  1.00  0.00     0.000 C 
BRANCH   9  10
ATOM     10  C   UNL     1      31.694  78.277  12.368  1.00  0.00     0.000 C 
BRANCH  10  11
ATOM     11  C   UNL     1      32.819  77.981  13.376  1.00  0.00     0.000 C 
BRANCH  11  12
ATOM     12  C   UNL     1      32.350  78.065  14.837  1.00  0.00     0.006 C 
BRANCH  12  13
ATOM     13  C   UNL     1      33.163  79.081  15.650  1.00  0.00     0.053 C 
BRANCH  13  14
ATOM     14  C   UNL     1      32.409  80.361  15.853  1.00  0.00     0.041 C 
ATOM     15  O   UNL     1      32.596  81.049  16.890  1.00  0.00    -0.550 OA
ATOM     16  O   UNL     1      31.484  80.781  14.905  1.00  0.00    -0.550 OA
ENDBRANCH  13  14
ENDBRANCH  12  13
ENDBRANCH  11  12
ENDBRANCH  10  11
ENDBRANCH   9  10
ENDBRANCH   8   9
ENDBRANCH   7   8
ENDBRANCH   6   7
ENDBRANCH   5   6
ENDBRANCH   4   5
ENDBRANCH   3   4
ENDBRANCH   2   3
ENDBRANCH   1   2
BRANCH   1  17
ATOM     17  C   UNL     1      34.117  74.672  11.509  1.00  0.00     0.000 C 
BRANCH  17  18
ATOM     18  C   UNL     1      34.466  75.958  10.739  1.00  0.00     0.000 C 
BRANCH  18  19
ATOM     19  C   UNL     1      35.982  76.206  10.665  1.00  0.00     0.000 C 
BRANCH  19  20
ATOM     20  C   UNL     1      36.596  75.718   9.341  1.00  0.00     0.000 C 
BRANCH  20  21
ATOM     21  C   UNL     1      35.559  75.605   8.206  1.00  0.00     0.000 C 
BRANCH  21  22
ATOM     22  C   UNL     1      36.059  74.896   6.935  1.00  0.00    -0.000 C 
BRANCH  22  23
ATOM     23  C   UNL     1      35.243  73.642   6.588  1.00  0.00    -0.000 C 
BRANCH  23  24
ATOM     24  C   UNL     1      33.932  73.604   7.382  1.00  0.00    -0.000 C 
BRANCH  24  25
ATOM     25  C   UNL     1      32.935  72.624   6.753  1.00  0.00    -0.000 C 
BRANCH  25  26
ATOM     26  C   UNL     1      33.454  71.181   6.839  1.00  0.00    -0.000 C 
BRANCH  26  27
ATOM     27  C   UNL     1      32.797  70.375   7.974  1.00  0.00    -0.000 C 
BRANCH  27  28
ATOM     28  C   UNL     1      31.503  70.989   8.546  1.00  0.00    -0.000 C 
BRANCH  28  29
ATOM     29  C   UNL     1      31.254  70.706  10.038  1.00  0.00    -0.003 C 
ATOM     30  C   UNL     1      29.791  70.877  10.443  1.00  0.00     0.004 C 
ENDBRANCH  28  29
ENDBRANCH  27  28
ENDBRANCH  26  27
ENDBRANCH  25  26
ENDBRANCH  24  25
ENDBRANCH  23  24
ENDBRANCH  22  23
ENDBRANCH  21  22
ENDBRANCH  20  21
ENDBRANCH  19  20
ENDBRANCH  18  19
ENDBRANCH  17  18
ENDBRANCH   1  17
TORSDOF 26
ENDMDL
MODEL 5
REMARK VINA RESULT:    -3.943      2.646      5.459
REMARK INTER + INTRA:         -15.122
REMARK INTER:                 -10.457
REMARK INTRA:                  -4.665
REMARK UNBOUND:                -5.186
REMARK SMILES CCCCCCCCCCCCCCCCCCCCCCCCCCCC(=O)[O-]
REMARK SMILES IDX 15 1 16 2 17 3 18 4 19 5 20 6 21 7 22 8 23 9 24 10 25 11
REMARK SMILES IDX 26 12 27 13 28 14 29 15 30 16 14 17 13 18 12 19 11 20 10 21
REMARK SMILES IDX 9 22 8 23 7 24 6 25 5 26 4 27 3 28 2 29 1 30
REMARK H PARENT
REMARK Flexibility Score: inf
ROOT
ATOM      1  C   UNL     1      36.277  76.435  10.600  1.00  0.00     0.000 C 
ENDROOT
BRANCH   1   2
ATOM      2  C   UNL     1      35.742  75.881   9.264  1.00  0.00     0.000 C 
BRANCH   2   3
ATOM      3  C   UNL     1      36.793  75.190   8.374  1.00  0.00     0.000 C 
BRANCH   3   4
ATOM      4  C   UNL     1      36.285  74.767   6.980  1.00  0.00     0.000 C 
BRANCH   4   5
ATOM      5  C   UNL     1      34.865  75.254   6.628  1.00  0.00     0.000 C 
BRANCH   5   6
ATOM      6  C   UNL     1      33.927  74.177   6.056  1.00  0.00     0.000 C 
BRANCH   6   7
ATOM      7  C   UNL     1      34.432  72.747   6.315  1.00  0.00     0.000 C 
BRANCH   7   8
ATOM      8  C   UNL     1      33.398  71.878   7.047  1.00  0.00     0.000 C 
BRANCH   8   9
ATOM      9  C   UNL     1      33.749  70.380   7.017  1.00  0.00     0.000 C 
BRANCH   9  10
ATOM     10  C   UNL     1      33.452  69.685   8.364  1.00  0.00     0.000 C 
BRANCH  10  11
ATOM     11  C   UNL     1      32.379  70.402   9.202  1.00  0.00     0.000 C 
BRANCH  11  12
ATOM     12  C   UNL     1      31.203  69.486   9.578  1.00  0.00     0.006 C 
BRANCH  12  13
ATOM     13  C   UNL     1      30.123  70.226  10.378  1.00  0.00     0.053 C 
BRANCH  13  14
ATOM     14  C   UNL     1      29.365  71.195   9.522  1.00  0.00     0.041 C 
ATOM     15  O   UNL     1      29.011  72.310   9.988  1.00  0.00    -0.550 OA
ATOM     16  O   UNL     1      29.031  70.858   8.216  1.00  0.00    -0.550 OA
ENDBRANCH  13  14
ENDBRANCH  12  13
ENDBRANCH  11  12
ENDBRANCH  10  11
ENDBRANCH   9  10
ENDBRANCH   8   9
ENDBRANCH   7   8
ENDBRANCH   6   7
ENDBRANCH   5   6
ENDBRANCH   4   5
ENDBRANCH   3   4
ENDBRANCH   2   3
ENDBRANCH   1   2
BRANCH   1  17
ATOM     17  C   UNL     1      35.554  77.690  11.122  1.00  0.00     0.000 C 
BRANCH  17  18
ATOM     18  C   UNL     1      34.313  78.055  10.290  1.00  0.00     0.000 C 
BRANCH  18  19
ATOM     19  C   UNL     1      33.137  78.525  11.164  1.00  0.00     0.000 C 
BRANCH  19  20
ATOM     20  C   UNL     1      33.163  77.906  12.572  1.00  0.00     0.000 C 
BRANCH  20  21
ATOM     21  C   UNL     1      32.322  76.620  12.676  1.00  0.00     0.000 C 
BRANCH  21  22
ATOM     22  C   UNL     1      33.056  75.327  12.279  1.00  0.00    -0.000 C 
BRANCH  22  23
ATOM     23  C   UNL     1      32.119  74.116  12.165  1.00  0.00    -0.000 C 
BRANCH  23  24
ATOM     24  C   UNL     1      32.265  73.437  10.799  1.00  0.00    -0.000 C 
BRANCH  24  25
ATOM     25  C   UNL     1      32.505  74.471   9.691  1.00  0.00    -0.000 C 
BRANCH  25  26
ATOM     26  C   UNL     1      31.406  74.394   8.621  1.00  0.00    -0.000 C 
BRANCH  26  27
ATOM     27  C   UNL     1      30.335  75.488   8.782  1.00  0.00    -0.000 C 
BRANCH  27  28
ATOM     28  C   UNL     1      30.886  76.916   8.974  1.00  0.00    -0.000 C 
BRANCH  28  29
ATOM     29  C   UNL     1      29.843  77.962   9.407  1.00  0.00    -0.003 C 
ATOM     30  C   UNL     1      29.414  77.809  10.865  1.00  0.00     0.004 C 
ENDBRANCH  28  29
ENDBRANCH  27  28
ENDBRANCH  26  27
ENDBRANCH  25  26
ENDBRANCH  24  25
ENDBRANCH  23  24
ENDBRANCH  22  23
ENDBRANCH  21  22
ENDBRANCH  20  21
ENDBRANCH  19  20
ENDBRANCH  18  19
ENDBRANCH  17  18
ENDBRANCH   1  17
TORSDOF 26
ENDMDL
MODEL 6
REMARK VINA RESULT:    -3.917      3.388      7.794
REMARK INTER + INTRA:         -15.057
REMARK INTER:                 -10.109
REMARK INTRA:                  -4.948
REMARK UNBOUND:                -5.186
REMARK SMILES CCCCCCCCCCCCCCCCCCCCCCCCCCCC(=O)[O-]
REMARK SMILES IDX 15 1 16 2 17 3 18 4 19 5 20 6 21 7 22 8 23 9 24 10 25 11
REMARK SMILES IDX 26 12 27 13 28 14 29 15 30 16 14 17 13 18 12 19 11 20 10 21
REMARK SMILES IDX 9 22 8 23 7 24 6 25 5 26 4 27 3 28 2 29 1 30
REMARK H PARENT
REMARK Flexibility Score: inf
ROOT
ATOM      1  C   UNL     1      33.724  76.922   8.133  1.00  0.00     0.000 C 
ENDROOT
BRANCH   1   2
ATOM      2  C   UNL     1      34.640  75.779   7.649  1.00  0.00     0.000 C 
BRANCH   2   3
ATOM      3  C   UNL     1      35.859  75.493   8.546  1.00  0.00     0.000 C 
BRANCH   3   4
ATOM      4  C   UNL     1      35.607  75.668  10.058  1.00  0.00     0.000 C 
BRANCH   4   5
ATOM      5  C   UNL     1      36.410  76.802  10.726  1.00  0.00     0.000 C 
BRANCH   5   6
ATOM      6  C   UNL     1      35.590  77.740  11.630  1.00  0.00     0.000 C 
BRANCH   6   7
ATOM      7  C   UNL     1      34.114  77.323  11.739  1.00  0.00     0.000 C 
BRANCH   7   8
ATOM      8  C   UNL     1      33.149  78.498  11.517  1.00  0.00     0.000 C 
BRANCH   8   9
ATOM      9  C   UNL     1      32.186  78.711  12.699  1.00  0.00     0.000 C 
BRANCH   9  10
ATOM     10  C   UNL     1      32.662  77.986  13.976  1.00  0.00     0.000 C 
BRANCH  10  11
ATOM     11  C   UNL     1      33.383  78.908  14.974  1.00  0.00     0.000 C 
BRANCH  11  12
ATOM     12  C   UNL     1      32.550  79.194  16.234  1.00  0.00     0.006 C 
BRANCH  12  13
ATOM     13  C   UNL     1      32.212  80.684  16.380  1.00  0.00     0.053 C 
BRANCH  13  14
ATOM     14  C   UNL     1      31.125  81.102  15.438  1.00  0.00     0.041 C 
ATOM     15  O   UNL     1      31.385  81.851  14.460  1.00  0.00    -0.550 OA
ATOM     16  O   UNL     1      29.817  80.682  15.653  1.00  0.00    -0.550 OA
ENDBRANCH  13  14
ENDBRANCH  12  13
ENDBRANCH  11  12
ENDBRANCH  10  11
ENDBRANCH   9  10
ENDBRANCH   8   9
ENDBRANCH   7   8
ENDBRANCH   6   7
ENDBRANCH   5   6
ENDBRANCH   4   5
ENDBRANCH   3   4
ENDBRANCH   2   3
ENDBRANCH   1   2
BRANCH   1  17
ATOM     17  C   UNL     1      32.346  76.478   8.656  1.00  0.00     0.000 C 
BRANCH  17  18
ATOM     18  C   UNL     1      31.188  76.929   7.749  1.00  0.00     0.000 C 
BRANCH  18  19
ATOM     19  C   UNL     1      30.406  75.742   7.161  1.00  0.00     0.000 C 
BRANCH  19  20
ATOM     20  C   UNL     1      31.179  75.020   6.044  1.00  0.00     0.000 C 
BRANCH  20  21
ATOM     21  C   UNL     1      31.114  73.485   6.166  1.00  0.00     0.000 C 
BRANCH  21  22
ATOM     22  C   UNL     1      32.448  72.803   6.518  1.00  0.00    -0.000 C 
BRANCH  22  23
ATOM     23  C   UNL     1      32.730  72.780   8.028  1.00  0.00    -0.000 C 
BRANCH  23  24
ATOM     24  C   UNL     1      31.624  72.032   8.780  1.00  0.00    -0.000 C 
BRANCH  24  25
ATOM     25  C   UNL     1      31.522  72.513  10.233  1.00  0.00    -0.000 C 
BRANCH  25  26
ATOM     26  C   UNL     1      32.612  73.549  10.546  1.00  0.00    -0.000 C 
BRANCH  26  27
ATOM     27  C   UNL     1      32.558  74.055  11.999  1.00  0.00    -0.000 C 
BRANCH  27  28
ATOM     28  C   UNL     1      31.166  73.993  12.660  1.00  0.00    -0.000 C 
BRANCH  28  29
ATOM     29  C   UNL     1      30.449  75.348  12.793  1.00  0.00    -0.003 C 
ATOM     30  C   UNL     1      29.982  75.910  11.452  1.00  0.00     0.004 C 
ENDBRANCH  28  29
ENDBRANCH  27  28
ENDBRANCH  26  27
ENDBRANCH  25  26
ENDBRANCH  24  25
ENDBRANCH  23  24
ENDBRANCH  22  23
ENDBRANCH  21  22
ENDBRANCH  20  21
ENDBRANCH  19  20
ENDBRANCH  18  19
ENDBRANCH  17  18
ENDBRANCH   1  17
TORSDOF 26
ENDMDL
MODEL 7
REMARK VINA RESULT:    -3.906      4.011      7.827
REMARK INTER + INTRA:         -15.030
REMARK INTER:                 -10.291
REMARK INTRA:                  -4.739
REMARK UNBOUND:                -5.186
REMARK SMILES CCCCCCCCCCCCCCCCCCCCCCCCCCCC(=O)[O-]
REMARK SMILES IDX 15 1 16 2 17 3 18 4 19 5 20 6 21 7 22 8 23 9 24 10 25 11
REMARK SMILES IDX 26 12 27 13 28 14 29 15 30 16 14 17 13 18 12 19 11 20 10 21
REMARK SMILES IDX 9 22 8 23 7 24 6 25 5 26 4 27 3 28 2 29 1 30
REMARK H PARENT
REMARK Flexibility Score: inf
ROOT
ATOM      1  C   UNL     1      34.605  77.601  11.511  1.00  0.00     0.000 C 
ENDROOT
BRANCH   1   2
ATOM      2  C   UNL     1      33.808  78.437  10.489  1.00  0.00     0.000 C 
BRANCH   2   3
ATOM      3  C   UNL     1      32.318  78.637  10.826  1.00  0.00     0.000 C 
BRANCH   3   4
ATOM      4  C   UNL     1      31.338  78.182   9.726  1.00  0.00     0.000 C 
BRANCH   4   5
ATOM      5  C   UNL     1      30.141  77.347  10.222  1.00  0.00     0.000 C 
BRANCH   5   6
ATOM      6  C   UNL     1      29.293  78.008  11.323  1.00  0.00     0.000 C 
BRANCH   6   7
ATOM      7  C   UNL     1      29.253  77.182  12.621  1.00  0.00     0.000 C 
BRANCH   7   8
ATOM      8  C   UNL     1      30.084  77.812  13.749  1.00  0.00     0.000 C 
BRANCH   8   9
ATOM      9  C   UNL     1      31.503  77.223  13.845  1.00  0.00     0.000 C 
BRANCH   9  10
ATOM     10  C   UNL     1      32.438  78.094  14.710  1.00  0.00     0.000 C 
BRANCH  10  11
ATOM     11  C   UNL     1      31.922  79.529  14.922  1.00  0.00     0.000 C 
BRANCH  11  12
ATOM     12  C   UNL     1      32.730  80.306  15.973  1.00  0.00     0.006 C 
BRANCH  12  13
ATOM     13  C   UNL     1      31.897  81.399  16.655  1.00  0.00     0.053 C 
BRANCH  13  14
ATOM     14  C   UNL     1      31.734  81.139  18.122  1.00  0.00     0.041 C 
ATOM     15  O   UNL     1      32.103  80.042  18.617  1.00  0.00    -0.550 OA
ATOM     16  O   UNL     1      31.156  82.103  18.939  1.00  0.00    -0.550 OA
ENDBRANCH  13  14
ENDBRANCH  12  13
ENDBRANCH  11  12
ENDBRANCH  10  11
ENDBRANCH   9  10
ENDBRANCH   8   9
ENDBRANCH   7   8
ENDBRANCH   6   7
ENDBRANCH   5   6
ENDBRANCH   4   5
ENDBRANCH   3   4
ENDBRANCH   2   3
ENDBRANCH   1   2
BRANCH   1  17
ATOM     17  C   UNL     1      35.938  77.033  10.992  1.00  0.00     0.000 C 
BRANCH  17  18
ATOM     18  C   UNL     1      35.783  75.656  10.325  1.00  0.00     0.000 C 
BRANCH  18  19
ATOM     19  C   UNL     1      36.519  75.569   8.977  1.00  0.00     0.000 C 
BRANCH  19  20
ATOM     20  C   UNL     1      35.577  75.226   7.810  1.00  0.00     0.000 C 
BRANCH  20  21
ATOM     21  C   UNL     1      34.361  76.169   7.726  1.00  0.00     0.000 C 
BRANCH  21  22
ATOM     22  C   UNL     1      32.992  75.484   7.891  1.00  0.00    -0.000 C 
BRANCH  22  23
ATOM     23  C   UNL     1      33.104  73.970   8.123  1.00  0.00    -0.000 C 
BRANCH  23  24
ATOM     24  C   UNL     1      32.369  73.556   9.403  1.00  0.00    -0.000 C 
BRANCH  24  25
ATOM     25  C   UNL     1      32.478  74.644  10.479  1.00  0.00    -0.000 C 
BRANCH  25  26
ATOM     26  C   UNL     1      32.146  74.079  11.868  1.00  0.00    -0.000 C 
BRANCH  26  27
ATOM     27  C   UNL     1      30.634  74.043  12.153  1.00  0.00    -0.000 C 
BRANCH  27  28
ATOM     28  C   UNL     1      30.215  73.151  13.340  1.00  0.00    -0.000 C 
BRANCH  28  29
ATOM     29  C   UNL     1      29.046  73.695  14.180  1.00  0.00    -0.003 C 
ATOM     30  C   UNL     1      29.508  74.496  15.397  1.00  0.00     0.004 C 
ENDBRANCH  28  29
ENDBRANCH  27  28
ENDBRANCH  26  27
ENDBRANCH  25  26
ENDBRANCH  24  25
ENDBRANCH  23  24
ENDBRANCH  22  23
ENDBRANCH  21  22
ENDBRANCH  20  21
ENDBRANCH  19  20
ENDBRANCH  18  19
ENDBRANCH  17  18
ENDBRANCH   1  17
TORSDOF 26
ENDMDL
MODEL 8
REMARK VINA RESULT:    -3.902      3.304      7.599
REMARK INTER + INTRA:         -15.020
REMARK INTER:                 -10.176
REMARK INTRA:                  -4.844
REMARK UNBOUND:                -5.186
REMARK SMILES CCCCCCCCCCCCCCCCCCCCCCCCCCCC(=O)[O-]
REMARK SMILES IDX 15 1 16 2 17 3 18 4 19 5 20 6 21 7 22 8 23 9 24 10 25 11
REMARK SMILES IDX 26 12 27 13 28 14 29 15 30 16 14 17 13 18 12 19 11 20 10 21
REMARK SMILES IDX 9 22 8 23 7 24 6 25 5 26 4 27 3 28 2 29 1 30
REMARK H PARENT
REMARK Flexibility Score: inf
ROOT
ATOM      1  C   UNL     1      33.580  78.542  10.478  1.00  0.00     0.000 C 
ENDROOT
BRANCH   1   2
ATOM      2  C   UNL     1      32.111  78.120  10.272  1.00  0.00     0.000 C 
BRANCH   2   3
ATOM      3  C   UNL     1      31.832  77.325   8.982  1.00  0.00     0.000 C 
BRANCH   3   4
ATOM      4  C   UNL     1      30.732  76.252   9.108  1.00  0.00     0.000 C 
BRANCH   4   5
ATOM      5  C   UNL     1      31.225  74.795   8.998  1.00  0.00     0.000 C 
BRANCH   5   6
ATOM      6  C   UNL     1      31.161  73.982  10.302  1.00  0.00     0.000 C 
BRANCH   6   7
ATOM      7  C   UNL     1      32.533  73.835  10.981  1.00  0.00     0.000 C 
BRANCH   7   8
ATOM      8  C   UNL     1      32.696  74.766  12.193  1.00  0.00     0.000 C 
BRANCH   8   9
ATOM      9  C   UNL     1      31.395  75.502  12.559  1.00  0.00     0.000 C 
BRANCH   9  10
ATOM     10  C   UNL     1      31.603  76.517  13.703  1.00  0.00     0.000 C 
BRANCH  10  11
ATOM     11  C   UNL     1      30.476  77.558  13.815  1.00  0.00     0.000 C 
BRANCH  11  12
ATOM     12  C   UNL     1      30.991  79.006  13.771  1.00  0.00     0.006 C 
BRANCH  12  13
ATOM     13  C   UNL     1      32.067  79.272  14.832  1.00  0.00     0.053 C 
BRANCH  13  14
ATOM     14  C   UNL     1      32.017  80.683  15.333  1.00  0.00     0.041 C 
ATOM     15  O   UNL     1      32.608  80.999  16.398  1.00  0.00    -0.550 OA
ATOM     16  O   UNL     1      31.297  81.644  14.634  1.00  0.00    -0.550 OA
ENDBRANCH  13  14
ENDBRANCH  12  13
ENDBRANCH  11  12
ENDBRANCH  10  11
ENDBRANCH   9  10
ENDBRANCH   8   9
ENDBRANCH   7   8
ENDBRANCH   6   7
ENDBRANCH   5   6
ENDBRANCH   4   5
ENDBRANCH   3   4
ENDBRANCH   2   3
ENDBRANCH   1   2
BRANCH   1  17
ATOM     17  C   UNL     1      34.343  77.748  11.553  1.00  0.00     0.000 C 
BRANCH  17  18
ATOM     18  C   UNL     1      35.770  77.372  11.118  1.00  0.00     0.000 C 
BRANCH  18  19
ATOM     19  C   UNL     1      35.847  75.961  10.511  1.00  0.00     0.000 C 
BRANCH  19  20
ATOM     20  C   UNL     1      35.842  75.979   8.972  1.00  0.00     0.000 C 
BRANCH  20  21
ATOM     21  C   UNL     1      34.745  75.082   8.367  1.00  0.00     0.000 C 
BRANCH  21  22
ATOM     22  C   UNL     1      34.334  75.437   6.927  1.00  0.00    -0.000 C 
BRANCH  22  23
ATOM     23  C   UNL     1      33.841  74.223   6.127  1.00  0.00    -0.000 C 
BRANCH  23  24
ATOM     24  C   UNL     1      34.617  72.959   6.516  1.00  0.00    -0.000 C 
BRANCH  24  25
ATOM     25  C   UNL     1      33.705  71.725   6.500  1.00  0.00    -0.000 C 
BRANCH  25  26
ATOM     26  C   UNL     1      32.654  71.805   7.617  1.00  0.00    -0.000 C 
BRANCH  26  27
ATOM     27  C   UNL     1      32.896  70.783   8.742  1.00  0.00    -0.000 C 
BRANCH  27  28
ATOM     28  C   UNL     1      31.634  70.354   9.517  1.00  0.00    -0.000 C 
BRANCH  28  29
ATOM     29  C   UNL     1      31.355  68.840   9.518  1.00  0.00    -0.003 C 
ATOM     30  C   UNL     1      32.419  68.037   8.771  1.00  0.00     0.004 C 
ENDBRANCH  28  29
ENDBRANCH  27  28
ENDBRANCH  26  27
ENDBRANCH  25  26
ENDBRANCH  24  25
ENDBRANCH  23  24
ENDBRANCH  22  23
ENDBRANCH  21  22
ENDBRANCH  20  21
ENDBRANCH  19  20
ENDBRANCH  18  19
ENDBRANCH  17  18
ENDBRANCH   1  17
TORSDOF 26
ENDMDL
MODEL 9
REMARK VINA RESULT:    -3.850      3.261      7.677
REMARK INTER + INTRA:         -14.887
REMARK INTER:                  -9.321
REMARK INTRA:                  -5.567
REMARK UNBOUND:                -5.186
REMARK SMILES CCCCCCCCCCCCCCCCCCCCCCCCCCCC(=O)[O-]
REMARK SMILES IDX 15 1 16 2 17 3 18 4 19 5 20 6 21 7 22 8 23 9 24 10 25 11
REMARK SMILES IDX 26 12 27 13 28 14 29 15 30 16 14 17 13 18 12 19 11 20 10 21
REMARK SMILES IDX 9 22 8 23 7 24 6 25 5 26 4 27 3 28 2 29 1 30
REMARK H PARENT
REMARK Flexibility Score: inf
ROOT
ATOM      1  C   UNL     1      32.014  73.363   7.730  1.00  0.00     0.000 C 
ENDROOT
BRANCH   1   2
ATOM      2  C   UNL     1      30.692  73.958   7.205  1.00  0.00     0.000 C 
BRANCH   2   3
ATOM      3  C   UNL     1      30.746  75.455   6.842  1.00  0.00     0.000 C 
BRANCH   3   4
ATOM      4  C   UNL     1      31.678  76.303   7.731  1.00  0.00     0.000 C 
BRANCH   4   5
ATOM      5  C   UNL     1      31.075  77.634   8.224  1.00  0.00     0.000 C 
BRANCH   5   6
ATOM      6  C   UNL     1      31.571  78.106   9.602  1.00  0.00     0.000 C 
BRANCH   6   7
ATOM      7  C   UNL     1      30.486  78.018  10.689  1.00  0.00     0.000 C 
BRANCH   7   8
ATOM      8  C   UNL     1      31.071  78.002  12.109  1.00  0.00     0.000 C 
BRANCH   8   9
ATOM      9  C   UNL     1      32.446  78.687  12.196  1.00  0.00     0.000 C 
BRANCH   9  10
ATOM     10  C   UNL     1      33.253  78.219  13.426  1.00  0.00     0.000 C 
BRANCH  10  11
ATOM     11  C   UNL     1      32.380  77.624  14.545  1.00  0.00     0.000 C 
BRANCH  11  12
ATOM     12  C   UNL     1      32.474  78.414  15.861  1.00  0.00     0.006 C 
BRANCH  12  13
ATOM     13  C   UNL     1      32.746  79.905  15.625  1.00  0.00     0.053 C 
BRANCH  13  14
ATOM     14  C   UNL     1      31.475  80.697  15.555  1.00  0.00     0.041 C 
ATOM     15  O   UNL     1      30.591  80.557  16.440  1.00  0.00    -0.550 OA
ATOM     16  O   UNL     1      31.259  81.575  14.500  1.00  0.00    -0.550 OA
ENDBRANCH  13  14
ENDBRANCH  12  13
ENDBRANCH  11  12
ENDBRANCH  10  11
ENDBRANCH   9  10
ENDBRANCH   8   9
ENDBRANCH   7   8
ENDBRANCH   6   7
ENDBRANCH   5   6
ENDBRANCH   4   5
ENDBRANCH   3   4
ENDBRANCH   2   3
ENDBRANCH   1   2
BRANCH   1  17
ATOM     17  C   UNL     1      32.016  71.834   7.913  1.00  0.00     0.000 C 
BRANCH  17  18
ATOM     18  C   UNL     1      32.382  71.403   9.343  1.00  0.00     0.000 C 
BRANCH  18  19
ATOM     19  C   UNL     1      31.296  70.526   9.989  1.00  0.00     0.000 C 
BRANCH  19  20
ATOM     20  C   UNL     1      29.912  71.200   9.986  1.00  0.00     0.000 C 
BRANCH  20  21
ATOM     21  C   UNL     1      29.695  72.124  11.199  1.00  0.00     0.000 C 
BRANCH  21  22
ATOM     22  C   UNL     1      29.499  73.612  10.858  1.00  0.00    -0.000 C 
BRANCH  22  23
ATOM     23  C   UNL     1      30.796  74.426  10.959  1.00  0.00    -0.000 C 
BRANCH  23  24
ATOM     24  C   UNL     1      31.517  74.146  12.283  1.00  0.00    -0.000 C 
BRANCH  24  25
ATOM     25  C   UNL     1      32.965  74.650  12.240  1.00  0.00    -0.000 C 
BRANCH  25  26
ATOM     26  C   UNL     1      33.408  74.926  10.795  1.00  0.00    -0.000 C 
BRANCH  26  27
ATOM     27  C   UNL     1      34.700  75.758  10.714  1.00  0.00    -0.000 C 
BRANCH  27  28
ATOM     28  C   UNL     1      34.988  76.384   9.334  1.00  0.00    -0.000 C 
BRANCH  28  29
ATOM     29  C   UNL     1      35.887  75.541   8.413  1.00  0.00    -0.003 C 
ATOM     30  C   UNL     1      35.201  75.147   7.106  1.00  0.00     0.004 C 
ENDBRANCH  28  29
ENDBRANCH  27  28
ENDBRANCH  26  27
ENDBRANCH  25  26
ENDBRANCH  24  25
ENDBRANCH  23  24
ENDBRANCH  22  23
ENDBRANCH  21  22
ENDBRANCH  20  21
ENDBRANCH  19  20
ENDBRANCH  18  19
ENDBRANCH  17  18
ENDBRANCH   1  17
TORSDOF 26
ENDMDL
