MODEL 1
REMARK VINA RESULT:    -3.708      0.000      0.000
REMARK INTER + INTRA:          -6.777
REMARK INTER:                  -5.659
REMARK INTRA:                  -1.118
REMARK UNBOUND:                -1.118
REMARK SMILES CCCCCCCCCCC(=O)[O-]
REMARK SMILES IDX 7 1 8 2 9 3 10 4 11 5 12 6 13 7 6 8 5 9 4 10 3 11 2 12 1 13
REMARK H PARENT
REMARK Flexibility Score: inf
ROOT
ATOM      1  C   UNL     1       7.869 -18.962  22.738  1.00  0.00     0.000 C 
ENDROOT
BRANCH   1   2
ATOM      2  C   UNL     1       7.497 -17.483  22.897  1.00  0.00     0.000 C 
BRANCH   2   3
ATOM      3  C   UNL     1       6.721 -17.247  24.198  1.00  0.00     0.006 C 
BRANCH   3   4
ATOM      4  C   UNL     1       6.040 -15.874  24.192  1.00  0.00     0.053 C 
BRANCH   4   5
ATOM      5  C   UNL     1       7.061 -14.783  24.140  1.00  0.00     0.041 C 
ATOM      6  O   UNL     1       7.965 -14.719  25.014  1.00  0.00    -0.550 OA
ATOM      7  O   UNL     1       7.044 -13.864  23.098  1.00  0.00    -0.550 OA
ENDBRANCH   4   5
ENDBRANCH   3   4
ENDBRANCH   2   3
ENDBRANCH   1   2
BRANCH   1   8
ATOM      8  C   UNL     1       6.904 -19.859  23.521  1.00  0.00     0.000 C 
BRANCH   8   9
ATOM      9  C   UNL     1       7.669 -20.884  24.367  1.00  0.00    -0.000 C 
BRANCH   9  10
ATOM     10  C   UNL     1       7.156 -20.893  25.816  1.00  0.00    -0.000 C 
BRANCH  10  11
ATOM     11  C   UNL     1       7.714 -19.728  26.649  1.00  0.00    -0.000 C 
BRANCH  11  12
ATOM     12  C   UNL     1       9.220 -19.517  26.436  1.00  0.00    -0.003 C 
ATOM     13  C   UNL     1       9.579 -18.035  26.490  1.00  0.00     0.004 C 
ENDBRANCH  11  12
ENDBRANCH  10  11
ENDBRANCH   9  10
ENDBRANCH   8   9
ENDBRANCH   1   8
TORSDOF 9
ENDMDL
MODEL 2
REMARK VINA RESULT:    -3.707      1.713      2.806
REMARK INTER + INTRA:          -6.775
REMARK INTER:                  -5.991
REMARK INTRA:                  -0.784
REMARK UNBOUND:                -1.118
REMARK SMILES CCCCCCCCCCC(=O)[O-]
REMARK SMILES IDX 7 1 8 2 9 3 10 4 11 5 12 6 13 7 6 8 5 9 4 10 3 11 2 12 1 13
REMARK H PARENT
REMARK Flexibility Score: inf
ROOT
ATOM      1  C   UNL     1       6.964 -17.528  24.052  1.00  0.00     0.000 C 
ENDROOT
BRANCH   1   2
ATOM      2  C   UNL     1       6.286 -16.171  24.277  1.00  0.00     0.000 C 
BRANCH   2   3
ATOM      3  C   UNL     1       7.122 -15.033  23.681  1.00  0.00     0.006 C 
BRANCH   3   4
ATOM      4  C   UNL     1       7.994 -14.371  24.753  1.00  0.00     0.053 C 
BRANCH   4   5
ATOM      5  C   UNL     1       9.420 -14.797  24.606  1.00  0.00     0.041 C 
ATOM      6  O   UNL     1      10.197 -14.159  23.850  1.00  0.00    -0.550 OA
ATOM      7  O   UNL     1       9.903 -15.871  25.344  1.00  0.00    -0.550 OA
ENDBRANCH   4   5
ENDBRANCH   3   4
ENDBRANCH   2   3
ENDBRANCH   1   2
BRANCH   1   8
ATOM      8  C   UNL     1       7.453 -17.665  22.606  1.00  0.00     0.000 C 
BRANCH   8   9
ATOM      9  C   UNL     1       7.407 -19.126  22.144  1.00  0.00    -0.000 C 
BRANCH   9  10
ATOM     10  C   UNL     1       6.999 -20.056  23.298  1.00  0.00    -0.000 C 
BRANCH  10  11
ATOM     11  C   UNL     1       8.075 -21.104  23.622  1.00  0.00    -0.000 C 
BRANCH  11  12
ATOM     12  C   UNL     1       8.391 -21.183  25.122  1.00  0.00    -0.003 C 
ATOM     13  C   UNL     1       7.170 -20.814  25.960  1.00  0.00     0.004 C 
ENDBRANCH  11  12
ENDBRANCH  10  11
ENDBRANCH   9  10
ENDBRANCH   8   9
ENDBRANCH   1   8
TORSDOF 9
ENDMDL
MODEL 3
REMARK VINA RESULT:    -3.688      1.575      2.118
REMARK INTER + INTRA:          -6.747
REMARK INTER:                  -5.573
REMARK INTRA:                  -1.174
REMARK UNBOUND:                -1.118
REMARK SMILES CCCCCCCCCCC(=O)[O-]
REMARK SMILES IDX 7 1 8 2 9 3 10 4 11 5 12 6 13 7 6 8 5 9 4 10 3 11 2 12 1 13
REMARK H PARENT
REMARK Flexibility Score: inf
ROOT
ATOM      1  C   UNL     1       7.396 -18.302  22.972  1.00  0.00     0.000 C 
ENDROOT
BRANCH   1   2
ATOM      2  C   UNL     1       6.597 -17.419  23.938  1.00  0.00     0.000 C 
BRANCH   2   3
ATOM      3  C   UNL     1       7.113 -17.568  25.374  1.00  0.00     0.006 C 
BRANCH   3   4
ATOM      4  C   UNL     1       8.589 -17.172  25.473  1.00  0.00     0.053 C 
BRANCH   4   5
ATOM      5  C   UNL     1       8.724 -15.693  25.656  1.00  0.00     0.041 C 
ATOM      6  O   UNL     1       8.147 -15.119  26.616  1.00  0.00    -0.550 OA
ATOM      7  O   UNL     1       9.529 -14.958  24.795  1.00  0.00    -0.550 OA
ENDBRANCH   4   5
ENDBRANCH   3   4
ENDBRANCH   2   3
ENDBRANCH   1   2
BRANCH   1   8
ATOM      8  C   UNL     1       6.805 -19.714  22.899  1.00  0.00     0.000 C 
BRANCH   8   9
ATOM      9  C   UNL     1       7.818 -20.761  23.376  1.00  0.00    -0.000 C 
BRANCH   9  10
ATOM     10  C   UNL     1       7.525 -21.193  24.821  1.00  0.00    -0.000 C 
BRANCH  10  11
ATOM     11  C   UNL     1       8.695 -20.904  25.774  1.00  0.00    -0.000 C 
BRANCH  11  12
ATOM     12  C   UNL     1       8.261 -20.853  27.246  1.00  0.00    -0.003 C 
ATOM     13  C   UNL     1       6.743 -20.754  27.366  1.00  0.00     0.004 C 
ENDBRANCH  11  12
ENDBRANCH  10  11
ENDBRANCH   9  10
ENDBRANCH   8   9
ENDBRANCH   1   8
TORSDOF 9
ENDMDL
MODEL 4
REMARK VINA RESULT:    -3.687      2.698      4.839
REMARK INTER + INTRA:          -6.745
REMARK INTER:                  -5.594
REMARK INTRA:                  -1.151
REMARK UNBOUND:                -1.118
REMARK SMILES CCCCCCCCCCC(=O)[O-]
REMARK SMILES IDX 7 1 8 2 9 3 10 4 11 5 12 6 13 7 6 8 5 9 4 10 3 11 2 12 1 13
REMARK H PARENT
REMARK Flexibility Score: inf
ROOT
ATOM      1  C   UNL     1       8.441 -14.691  24.915  1.00  0.00     0.000 C 
ENDROOT
BRANCH   1   2
ATOM      2  C   UNL     1       9.788 -14.739  24.184  1.00  0.00     0.000 C 
BRANCH   2   3
ATOM      3  C   UNL     1      10.675 -15.861  24.737  1.00  0.00     0.006 C 
BRANCH   3   4
ATOM      4  C   UNL     1      10.142 -16.373  26.079  1.00  0.00     0.053 C 
BRANCH   4   5
ATOM      5  C   UNL     1      10.249 -17.863  26.153  1.00  0.00     0.041 C 
ATOM      6  O   UNL     1      10.278 -18.548  25.097  1.00  0.00    -0.550 OA
ATOM      7  O   UNL     1      10.368 -18.490  27.386  1.00  0.00    -0.550 OA
ENDBRANCH   4   5
ENDBRANCH   3   4
ENDBRANCH   2   3
ENDBRANCH   1   2
BRANCH   1   8
ATOM      8  C   UNL     1       7.299 -14.372  23.943  1.00  0.00     0.000 C 
BRANCH   8   9
ATOM      9  C   UNL     1       6.239 -15.480  23.954  1.00  0.00    -0.000 C 
BRANCH   9  10
ATOM     10  C   UNL     1       6.617 -16.593  24.944  1.00  0.00    -0.000 C 
BRANCH  10  11
ATOM     11  C   UNL     1       6.906 -17.932  24.248  1.00  0.00    -0.000 C 
BRANCH  11  12
ATOM     12  C   UNL     1       7.538 -17.752  22.860  1.00  0.00    -0.003 C 
ATOM     13  C   UNL     1       7.649 -19.088  22.131  1.00  0.00     0.004 C 
ENDBRANCH  11  12
ENDBRANCH  10  11
ENDBRANCH   9  10
ENDBRANCH   8   9
ENDBRANCH   1   8
TORSDOF 9
ENDMDL
MODEL 5
REMARK VINA RESULT:    -3.680      3.246      5.103
REMARK INTER + INTRA:          -6.733
REMARK INTER:                  -5.734
REMARK INTRA:                  -0.999
REMARK UNBOUND:                -1.118
REMARK SMILES CCCCCCCCCCC(=O)[O-]
REMARK SMILES IDX 7 1 8 2 9 3 10 4 11 5 12 6 13 7 6 8 5 9 4 10 3 11 2 12 1 13
REMARK H PARENT
REMARK Flexibility Score: inf
ROOT
ATOM      1  C   UNL     1       6.727 -17.305  24.279  1.00  0.00     0.000 C 
ENDROOT
BRANCH   1   2
ATOM      2  C   UNL     1       7.373 -17.537  22.908  1.00  0.00     0.000 C 
BRANCH   2   3
ATOM      3  C   UNL     1       8.085 -18.893  22.858  1.00  0.00     0.006 C 
BRANCH   3   4
ATOM      4  C   UNL     1       7.117 -20.008  22.448  1.00  0.00     0.053 C 
BRANCH   4   5
ATOM      5  C   UNL     1       7.472 -20.541  21.097  1.00  0.00     0.041 C 
ATOM      6  O   UNL     1       7.488 -21.782  20.889  1.00  0.00    -0.550 OA
ATOM      7  O   UNL     1       7.737 -19.664  20.052  1.00  0.00    -0.550 OA
ENDBRANCH   4   5
ENDBRANCH   3   4
ENDBRANCH   2   3
ENDBRANCH   1   2
BRANCH   1   8
ATOM      8  C   UNL     1       6.191 -15.874  24.400  1.00  0.00     0.000 C 
BRANCH   8   9
ATOM      9  C   UNL     1       7.177 -14.863  23.803  1.00  0.00    -0.000 C 
BRANCH   9  10
ATOM     10  C   UNL     1       8.277 -14.505  24.815  1.00  0.00    -0.000 C 
BRANCH  10  11
ATOM     11  C   UNL     1       9.691 -14.717  24.251  1.00  0.00    -0.000 C 
BRANCH  11  12
ATOM     12  C   UNL     1      10.380 -15.959  24.836  1.00  0.00    -0.003 C 
ATOM     13  C   UNL     1       9.771 -16.342  26.181  1.00  0.00     0.004 C 
ENDBRANCH  11  12
ENDBRANCH  10  11
ENDBRANCH   9  10
ENDBRANCH   8   9
ENDBRANCH   1   8
TORSDOF 9
ENDMDL
MODEL 6
REMARK VINA RESULT:    -3.671      1.790      3.148
REMARK INTER + INTRA:          -6.720
REMARK INTER:                  -6.011
REMARK INTRA:                  -0.709
REMARK UNBOUND:                -1.118
REMARK SMILES CCCCCCCCCCC(=O)[O-]
REMARK SMILES IDX 7 1 8 2 9 3 10 4 11 5 12 6 13 7 6 8 5 9 4 10 3 11 2 12 1 13
REMARK H PARENT
REMARK Flexibility Score: inf
ROOT
ATOM      1  C   UNL     1       7.585 -18.878  22.319  1.00  0.00     0.000 C 
ENDROOT
BRANCH   1   2
ATOM      2  C   UNL     1       7.487 -17.418  22.779  1.00  0.00     0.000 C 
BRANCH   2   3
ATOM      3  C   UNL     1       6.710 -17.308  24.096  1.00  0.00     0.006 C 
BRANCH   3   4
ATOM      4  C   UNL     1       6.041 -15.936  24.227  1.00  0.00     0.053 C 
BRANCH   4   5
ATOM      5  C   UNL     1       7.061 -14.845  24.154  1.00  0.00     0.041 C 
ATOM      6  O   UNL     1       7.969 -14.767  25.023  1.00  0.00    -0.550 OA
ATOM      7  O   UNL     1       7.039 -13.943  23.097  1.00  0.00    -0.550 OA
ENDBRANCH   4   5
ENDBRANCH   3   4
ENDBRANCH   2   3
ENDBRANCH   1   2
BRANCH   1   8
ATOM      8  C   UNL     1       6.777 -19.800  23.239  1.00  0.00     0.000 C 
BRANCH   8   9
ATOM      9  C   UNL     1       7.692 -20.797  23.961  1.00  0.00    -0.000 C 
BRANCH   9  10
ATOM     10  C   UNL     1       8.930 -21.123  23.112  1.00  0.00    -0.000 C 
BRANCH  10  11
ATOM     11  C   UNL     1       9.033 -22.617  22.764  1.00  0.00    -0.000 C 
BRANCH  11  12
ATOM     12  C   UNL     1       9.108 -22.868  21.252  1.00  0.00    -0.003 C 
ATOM     13  C   UNL     1       8.037 -22.073  20.509  1.00  0.00     0.004 C 
ENDBRANCH  11  12
ENDBRANCH  10  11
ENDBRANCH   9  10
ENDBRANCH   8   9
ENDBRANCH   1   8
TORSDOF 9
ENDMDL
MODEL 7
REMARK VINA RESULT:    -3.629      3.703      6.202
REMARK INTER + INTRA:          -6.657
REMARK INTER:                  -5.583
REMARK INTRA:                  -1.073
REMARK UNBOUND:                -1.118
REMARK SMILES CCCCCCCCCCC(=O)[O-]
REMARK SMILES IDX 7 1 8 2 9 3 10 4 11 5 12 6 13 7 6 8 5 9 4 10 3 11 2 12 1 13
REMARK H PARENT
REMARK Flexibility Score: inf
ROOT
ATOM      1  C   UNL     1       6.846 -16.857  23.667  1.00  0.00     0.000 C 
ENDROOT
BRANCH   1   2
ATOM      2  C   UNL     1       8.229 -16.719  23.019  1.00  0.00     0.000 C 
BRANCH   2   3
ATOM      3  C   UNL     1       8.583 -17.970  22.208  1.00  0.00     0.006 C 
BRANCH   3   4
ATOM      4  C   UNL     1       7.373 -18.900  22.073  1.00  0.00     0.053 C 
BRANCH   4   5
ATOM      5  C   UNL     1       7.538 -19.809  20.897  1.00  0.00     0.041 C 
ATOM      6  O   UNL     1       8.025 -19.371  19.822  1.00  0.00    -0.550 OA
ATOM      7  O   UNL     1       7.200 -21.152  21.004  1.00  0.00    -0.550 OA
ENDBRANCH   4   5
ENDBRANCH   3   4
ENDBRANCH   2   3
ENDBRANCH   1   2
BRANCH   1   8
ATOM      8  C   UNL     1       6.228 -15.481  23.944  1.00  0.00     0.000 C 
BRANCH   8   9
ATOM      9  C   UNL     1       7.132 -14.356  23.425  1.00  0.00    -0.000 C 
BRANCH   9  10
ATOM     10  C   UNL     1       6.383 -13.469  22.418  1.00  0.00    -0.000 C 
BRANCH  10  11
ATOM     11  C   UNL     1       5.606 -14.286  21.373  1.00  0.00    -0.000 C 
BRANCH  11  12
ATOM     12  C   UNL     1       6.307 -14.316  20.007  1.00  0.00    -0.003 C 
ATOM     13  C   UNL     1       6.995 -15.658  19.773  1.00  0.00     0.004 C 
ENDBRANCH  11  12
ENDBRANCH  10  11
ENDBRANCH   9  10
ENDBRANCH   8   9
ENDBRANCH   1   8
TORSDOF 9
ENDMDL
MODEL 8
REMARK VINA RESULT:    -3.618      1.469      3.176
REMARK INTER + INTRA:          -6.640
REMARK INTER:                  -5.501
REMARK INTRA:                  -1.139
REMARK UNBOUND:                -1.118
REMARK SMILES CCCCCCCCCCC(=O)[O-]
REMARK SMILES IDX 7 1 8 2 9 3 10 4 11 5 12 6 13 7 6 8 5 9 4 10 3 11 2 12 1 13
REMARK H PARENT
REMARK Flexibility Score: inf
ROOT
ATOM      1  C   UNL     1       8.440 -18.973  26.418  1.00  0.00     0.000 C 
ENDROOT
BRANCH   1   2
ATOM      2  C   UNL     1       7.144 -18.163  26.547  1.00  0.00     0.000 C 
BRANCH   2   3
ATOM      3  C   UNL     1       7.383 -16.686  26.214  1.00  0.00     0.006 C 
BRANCH   3   4
ATOM      4  C   UNL     1       8.880 -16.382  26.100  1.00  0.00     0.053 C 
BRANCH   4   5
ATOM      5  C   UNL     1       9.111 -15.216  25.191  1.00  0.00     0.041 C 
ATOM      6  O   UNL     1       8.236 -14.319  25.078  1.00  0.00    -0.550 OA
ATOM      7  O   UNL     1      10.314 -15.096  24.508  1.00  0.00    -0.550 OA
ENDBRANCH   4   5
ENDBRANCH   3   4
ENDBRANCH   2   3
ENDBRANCH   1   2
BRANCH   1   8
ATOM      8  C   UNL     1       8.173 -20.472  26.594  1.00  0.00     0.000 C 
BRANCH   8   9
ATOM      9  C   UNL     1       7.441 -21.048  25.376  1.00  0.00    -0.000 C 
BRANCH   9  10
ATOM     10  C   UNL     1       8.312 -20.952  24.115  1.00  0.00    -0.000 C 
BRANCH  10  11
ATOM     11  C   UNL     1       7.499 -20.597  22.859  1.00  0.00    -0.000 C 
BRANCH  11  12
ATOM     12  C   UNL     1       6.782 -19.245  22.983  1.00  0.00    -0.003 C 
ATOM     13  C   UNL     1       7.763 -18.087  22.825  1.00  0.00     0.004 C 
ENDBRANCH  11  12
ENDBRANCH  10  11
ENDBRANCH   9  10
ENDBRANCH   8   9
ENDBRANCH   1   8
TORSDOF 9
ENDMDL
MODEL 9
REMARK VINA RESULT:    -3.584      1.037      1.451
REMARK INTER + INTRA:          -6.588
REMARK INTER:                  -5.237
REMARK INTRA:                  -1.350
REMARK UNBOUND:                -1.118
REMARK SMILES CCCCCCCCCCC(=O)[O-]
REMARK SMILES IDX 7 1 8 2 9 3 10 4 11 5 12 6 13 7 6 8 5 9 4 10 3 11 2 12 1 13
REMARK H PARENT
REMARK Flexibility Score: inf
ROOT
ATOM      1  C   UNL     1       7.270 -20.007  23.468  1.00  0.00     0.000 C 
ENDROOT
BRANCH   1   2
ATOM      2  C   UNL     1       7.781 -18.562  23.525  1.00  0.00     0.000 C 
BRANCH   2   3
ATOM      3  C   UNL     1       6.682 -17.608  24.005  1.00  0.00     0.006 C 
BRANCH   3   4
ATOM      4  C   UNL     1       7.005 -17.051  25.395  1.00  0.00     0.053 C 
BRANCH   4   5
ATOM      5  C   UNL     1       7.457 -15.629  25.299  1.00  0.00     0.041 C 
ATOM      6  O   UNL     1       8.248 -15.156  26.156  1.00  0.00    -0.550 OA
ATOM      7  O   UNL     1       7.043 -14.840  24.233  1.00  0.00    -0.550 OA
ENDBRANCH   4   5
ENDBRANCH   3   4
ENDBRANCH   2   3
ENDBRANCH   1   2
BRANCH   1   8
ATOM      8  C   UNL     1       7.971 -20.879  24.515  1.00  0.00     0.000 C 
BRANCH   8   9
ATOM      9  C   UNL     1       7.144 -20.967  25.803  1.00  0.00    -0.000 C 
BRANCH   9  10
ATOM     10  C   UNL     1       7.863 -20.271  26.968  1.00  0.00    -0.000 C 
BRANCH  10  11
ATOM     11  C   UNL     1       9.383 -20.180  26.757  1.00  0.00    -0.000 C 
BRANCH  11  12
ATOM     12  C   UNL     1       9.928 -18.763  26.986  1.00  0.00    -0.003 C 
ATOM     13  C   UNL     1      10.607 -18.227  25.729  1.00  0.00     0.004 C 
ENDBRANCH  11  12
ENDBRANCH  10  11
ENDBRANCH   9  10
ENDBRANCH   8   9
ENDBRANCH   1   8
TORSDOF 9
ENDMDL
