MODEL 1
REMARK VINA RESULT:    -1.561      0.000      0.000
REMARK INTER + INTRA:          -4.229
REMARK INTER:                  -3.386
REMARK INTRA:                  -0.843
REMARK UNBOUND:                -0.843
REMARK SMILES CCCCCCCCCCCCCCCCCCCCCC(=O)[O-]
REMARK SMILES IDX 12 1 11 2 10 3 9 4 8 5 7 6 6 7 5 8 4 9 3 10 2 11 1 12 13 13
REMARK SMILES IDX 14 14 15 15 16 16 17 17 18 18 19 19 20 20 21 21 22 22 23 23
REMARK SMILES IDX 24 24
REMARK H PARENT
REMARK Flexibility Score: inf
ROOT
ATOM      1  C   UNL     1      32.445   0.143  -2.834  1.00  0.00     0.000 C 
ENDROOT
BRANCH   1   2
ATOM      2  C   UNL     1      31.484  -0.668  -1.940  1.00  0.00     0.000 C 
BRANCH   2   3
ATOM      3  C   UNL     1      31.531  -0.216  -0.472  1.00  0.00     0.000 C 
BRANCH   3   4
ATOM      4  C   UNL     1      30.608   0.989  -0.237  1.00  0.00    -0.000 C 
BRANCH   4   5
ATOM      5  C   UNL     1      29.627   0.772   0.927  1.00  0.00    -0.000 C 
BRANCH   5   6
ATOM      6  C   UNL     1      29.479   1.967   1.892  1.00  0.00    -0.000 C 
BRANCH   6   7
ATOM      7  C   UNL     1      30.804   2.572   2.388  1.00  0.00    -0.000 C 
BRANCH   7   8
ATOM      8  C   UNL     1      30.739   3.031   3.852  1.00  0.00    -0.000 C 
BRANCH   8   9
ATOM      9  C   UNL     1      31.155   4.500   3.985  1.00  0.00    -0.000 C 
BRANCH   9  10
ATOM     10  C   UNL     1      30.356   5.390   3.025  1.00  0.00    -0.000 C 
BRANCH  10  11
ATOM     11  C   UNL     1      29.940   6.699   3.707  1.00  0.00    -0.003 C 
ATOM     12  C   UNL     1      30.606   6.847   5.072  1.00  0.00     0.004 C 
ENDBRANCH  10  11
ENDBRANCH   9  10
ENDBRANCH   8   9
ENDBRANCH   7   8
ENDBRANCH   6   7
ENDBRANCH   5   6
ENDBRANCH   4   5
ENDBRANCH   3   4
ENDBRANCH   2   3
ENDBRANCH   1   2
BRANCH   1  13
ATOM     13  C   UNL     1      31.736   1.190  -3.711  1.00  0.00     0.000 C 
BRANCH  13  14
ATOM     14  C   UNL     1      32.638   2.384  -4.063  1.00  0.00     0.000 C 
BRANCH  14  15
ATOM     15  C   UNL     1      31.920   3.734  -3.907  1.00  0.00     0.000 C 
BRANCH  15  16
ATOM     16  C   UNL     1      32.839   4.831  -3.349  1.00  0.00     0.000 C 
BRANCH  16  17
ATOM     17  C   UNL     1      32.115   6.185  -3.311  1.00  0.00     0.000 C 
BRANCH  17  18
ATOM     18  C   UNL     1      31.225   6.344  -2.068  1.00  0.00     0.000 C 
BRANCH  18  19
ATOM     19  C   UNL     1      30.247   7.526  -2.187  1.00  0.00     0.000 C 
BRANCH  19  20
ATOM     20  C   UNL     1      30.688   8.570  -3.229  1.00  0.00     0.006 C 
BRANCH  20  21
ATOM     21  C   UNL     1      29.519   9.326  -3.887  1.00  0.00     0.053 C 
BRANCH  21  22
ATOM     22  C   UNL     1      28.526   9.839  -2.888  1.00  0.00     0.041 C 
ATOM     23  O   UNL     1      28.887  10.109  -1.713  1.00  0.00    -0.550 OA
ATOM     24  O   UNL     1      27.192   9.988  -3.248  1.00  0.00    -0.550 OA
ENDBRANCH  21  22
ENDBRANCH  20  21
ENDBRANCH  19  20
ENDBRANCH  18  19
ENDBRANCH  17  18
ENDBRANCH  16  17
ENDBRANCH  15  16
ENDBRANCH  14  15
ENDBRANCH  13  14
ENDBRANCH   1  13
TORSDOF 20
ENDMDL
MODEL 2
REMARK VINA RESULT:    -1.428      2.416      6.617
REMARK INTER + INTRA:          -3.940
REMARK INTER:                  -2.899
REMARK INTRA:                  -1.040
REMARK UNBOUND:                -0.843
REMARK SMILES CCCCCCCCCCCCCCCCCCCCCC(=O)[O-]
REMARK SMILES IDX 12 1 11 2 10 3 9 4 8 5 7 6 6 7 5 8 4 9 3 10 2 11 1 12 13 13
REMARK SMILES IDX 14 14 15 15 16 16 17 17 18 18 19 19 20 20 21 21 22 22 23 23
REMARK SMILES IDX 24 24
REMARK H PARENT
REMARK Flexibility Score: inf
ROOT
ATOM      1  C   UNL     1      31.621   1.586  -4.089  1.00  0.00     0.000 C 
ENDROOT
BRANCH   1   2
ATOM      2  C   UNL     1      31.829   3.115  -4.091  1.00  0.00     0.000 C 
BRANCH   2   3
ATOM      3  C   UNL     1      33.300   3.503  -3.873  1.00  0.00     0.000 C 
BRANCH   3   4
ATOM      4  C   UNL     1      33.457   5.028  -3.772  1.00  0.00    -0.000 C 
BRANCH   4   5
ATOM      5  C   UNL     1      32.115   5.756  -3.585  1.00  0.00    -0.000 C 
BRANCH   5   6
ATOM      6  C   UNL     1      31.513   5.666  -2.167  1.00  0.00    -0.000 C 
BRANCH   6   7
ATOM      7  C   UNL     1      30.947   6.985  -1.615  1.00  0.00    -0.000 C 
BRANCH   7   8
ATOM      8  C   UNL     1      29.746   7.503  -2.420  1.00  0.00    -0.000 C 
BRANCH   8   9
ATOM      9  C   UNL     1      29.965   8.955  -2.860  1.00  0.00    -0.000 C 
BRANCH   9  10
ATOM     10  C   UNL     1      29.299   9.934  -1.885  1.00  0.00    -0.000 C 
BRANCH  10  11
ATOM     11  C   UNL     1      27.774   9.778  -1.906  1.00  0.00    -0.003 C 
ATOM     12  C   UNL     1      27.236   9.802  -3.334  1.00  0.00     0.004 C 
ENDBRANCH  10  11
ENDBRANCH   9  10
ENDBRANCH   8   9
ENDBRANCH   7   8
ENDBRANCH   6   7
ENDBRANCH   5   6
ENDBRANCH   4   5
ENDBRANCH   3   4
ENDBRANCH   2   3
ENDBRANCH   1   2
BRANCH   1  13
ATOM     13  C   UNL     1      30.837   1.072  -2.868  1.00  0.00     0.000 C 
BRANCH  13  14
ATOM     14  C   UNL     1      31.522  -0.117  -2.176  1.00  0.00     0.000 C 
BRANCH  14  15
ATOM     15  C   UNL     1      31.240  -0.165  -0.666  1.00  0.00     0.000 C 
BRANCH  15  16
ATOM     16  C   UNL     1      30.791   1.192  -0.104  1.00  0.00     0.000 C 
BRANCH  16  17
ATOM     17  C   UNL     1      29.854   1.004   1.098  1.00  0.00     0.000 C 
BRANCH  17  18
ATOM     18  C   UNL     1      29.709   2.283   1.939  1.00  0.00     0.000 C 
BRANCH  18  19
ATOM     19  C   UNL     1      30.982   2.613   2.737  1.00  0.00     0.000 C 
BRANCH  19  20
ATOM     20  C   UNL     1      30.813   3.831   3.664  1.00  0.00     0.006 C 
BRANCH  20  21
ATOM     21  C   UNL     1      30.634   5.164   2.915  1.00  0.00     0.053 C 
BRANCH  21  22
ATOM     22  C   UNL     1      30.942   6.356   3.771  1.00  0.00     0.041 C 
ATOM     23  O   UNL     1      31.994   7.021   3.581  1.00  0.00    -0.550 OA
ATOM     24  O   UNL     1      30.080   6.712   4.801  1.00  0.00    -0.550 OA
ENDBRANCH  21  22
ENDBRANCH  20  21
ENDBRANCH  19  20
ENDBRANCH  18  19
ENDBRANCH  17  18
ENDBRANCH  16  17
ENDBRANCH  15  16
ENDBRANCH  14  15
ENDBRANCH  13  14
ENDBRANCH   1  13
TORSDOF 20
ENDMDL
MODEL 3
REMARK VINA RESULT:    -1.401      1.194      2.158
REMARK INTER + INTRA:          -3.883
REMARK INTER:                  -2.512
REMARK INTRA:                  -1.371
REMARK UNBOUND:                -0.843
REMARK SMILES CCCCCCCCCCCCCCCCCCCCCC(=O)[O-]
REMARK SMILES IDX 12 1 11 2 10 3 9 4 8 5 7 6 6 7 5 8 4 9 3 10 2 11 1 12 13 13
REMARK SMILES IDX 14 14 15 15 16 16 17 17 18 18 19 19 20 20 21 21 22 22 23 23
REMARK SMILES IDX 24 24
REMARK H PARENT
REMARK Flexibility Score: inf
ROOT
ATOM      1  C   UNL     1      31.110  -1.147  -3.034  1.00  0.00     0.000 C 
ENDROOT
BRANCH   1   2
ATOM      2  C   UNL     1      31.366  -0.698  -1.580  1.00  0.00     0.000 C 
BRANCH   2   3
ATOM      3  C   UNL     1      30.639   0.611  -1.236  1.00  0.00     0.000 C 
BRANCH   3   4
ATOM      4  C   UNL     1      30.850   0.987   0.238  1.00  0.00    -0.000 C 
BRANCH   4   5
ATOM      5  C   UNL     1      29.557   0.902   1.067  1.00  0.00    -0.000 C 
BRANCH   5   6
ATOM      6  C   UNL     1      29.500   1.838   2.291  1.00  0.00    -0.000 C 
BRANCH   6   7
ATOM      7  C   UNL     1      30.488   3.017   2.257  1.00  0.00    -0.000 C 
BRANCH   7   8
ATOM      8  C   UNL     1      31.267   3.182   3.570  1.00  0.00    -0.000 C 
BRANCH   8   9
ATOM      9  C   UNL     1      30.817   4.440   4.322  1.00  0.00    -0.000 C 
BRANCH   9  10
ATOM     10  C   UNL     1      30.351   5.528   3.347  1.00  0.00    -0.000 C 
BRANCH  10  11
ATOM     11  C   UNL     1      30.680   6.925   3.885  1.00  0.00    -0.003 C 
ATOM     12  C   UNL     1      30.329   7.044   5.365  1.00  0.00     0.004 C 
ENDBRANCH  10  11
ENDBRANCH   9  10
ENDBRANCH   8   9
ENDBRANCH   7   8
ENDBRANCH   6   7
ENDBRANCH   5   6
ENDBRANCH   4   5
ENDBRANCH   3   4
ENDBRANCH   2   3
ENDBRANCH   1   2
BRANCH   1  13
ATOM     13  C   UNL     1      32.327  -0.970  -3.958  1.00  0.00     0.000 C 
BRANCH  13  14
ATOM     14  C   UNL     1      33.376  -0.003  -3.386  1.00  0.00     0.000 C 
BRANCH  14  15
ATOM     15  C   UNL     1      33.302   1.395  -4.022  1.00  0.00     0.000 C 
BRANCH  15  16
ATOM     16  C   UNL     1      31.864   1.923  -4.125  1.00  0.00     0.000 C 
BRANCH  16  17
ATOM     17  C   UNL     1      31.795   3.405  -3.726  1.00  0.00     0.000 C 
BRANCH  17  18
ATOM     18  C   UNL     1      33.081   4.171  -4.073  1.00  0.00     0.000 C 
BRANCH  18  19
ATOM     19  C   UNL     1      33.138   5.561  -3.417  1.00  0.00     0.000 C 
BRANCH  19  20
ATOM     20  C   UNL     1      31.787   6.003  -2.825  1.00  0.00     0.006 C 
BRANCH  20  21
ATOM     21  C   UNL     1      31.298   7.369  -3.341  1.00  0.00     0.053 C 
BRANCH  21  22
ATOM     22  C   UNL     1      30.284   8.001  -2.436  1.00  0.00     0.041 C 
ATOM     23  O   UNL     1      30.149   9.252  -2.407  1.00  0.00    -0.550 OA
ATOM     24  O   UNL     1      29.508   7.207  -1.601  1.00  0.00    -0.550 OA
ENDBRANCH  21  22
ENDBRANCH  20  21
ENDBRANCH  19  20
ENDBRANCH  18  19
ENDBRANCH  17  18
ENDBRANCH  16  17
ENDBRANCH  15  16
ENDBRANCH  14  15
ENDBRANCH  13  14
ENDBRANCH   1  13
TORSDOF 20
ENDMDL
MODEL 4
REMARK VINA RESULT:    -1.132      6.589      9.267
REMARK INTER + INTRA:          -3.298
REMARK INTER:                  -2.375
REMARK INTRA:                  -0.923
REMARK UNBOUND:                -0.843
REMARK SMILES CCCCCCCCCCCCCCCCCCCCCC(=O)[O-]
REMARK SMILES IDX 12 1 11 2 10 3 9 4 8 5 7 6 6 7 5 8 4 9 3 10 2 11 1 12 13 13
REMARK SMILES IDX 14 14 15 15 16 16 17 17 18 18 19 19 20 20 21 21 22 22 23 23
REMARK SMILES IDX 24 24
REMARK H PARENT
REMARK Flexibility Score: inf
ROOT
ATOM      1  C   UNL     1      31.620  -0.073  -1.143  1.00  0.00     0.000 C 
ENDROOT
BRANCH   1   2
ATOM      2  C   UNL     1      30.501   0.758  -0.482  1.00  0.00     0.000 C 
BRANCH   2   3
ATOM      3  C   UNL     1      30.395   0.497   1.029  1.00  0.00     0.000 C 
BRANCH   3   4
ATOM      4  C   UNL     1      29.635   1.631   1.732  1.00  0.00    -0.000 C 
BRANCH   4   5
ATOM      5  C   UNL     1      30.543   2.495   2.624  1.00  0.00    -0.000 C 
BRANCH   5   6
ATOM      6  C   UNL     1      30.412   4.018   2.415  1.00  0.00    -0.000 C 
BRANCH   6   7
ATOM      7  C   UNL     1      31.036   4.885   3.521  1.00  0.00    -0.000 C 
BRANCH   7   8
ATOM      8  C   UNL     1      30.738   6.381   3.348  1.00  0.00    -0.000 C 
BRANCH   8   9
ATOM      9  C   UNL     1      30.144   6.975   4.630  1.00  0.00    -0.000 C 
BRANCH   9  10
ATOM     10  C   UNL     1      30.508   6.123   5.852  1.00  0.00    -0.000 C 
BRANCH  10  11
ATOM     11  C   UNL     1      29.728   6.579   7.092  1.00  0.00    -0.003 C 
ATOM     12  C   UNL     1      30.100   8.006   7.483  1.00  0.00     0.004 C 
ENDBRANCH  10  11
ENDBRANCH   9  10
ENDBRANCH   8   9
ENDBRANCH   7   8
ENDBRANCH   6   7
ENDBRANCH   5   6
ENDBRANCH   4   5
ENDBRANCH   3   4
ENDBRANCH   2   3
ENDBRANCH   1   2
BRANCH   1  13
ATOM     13  C   UNL     1      31.100  -1.133  -2.130  1.00  0.00     0.000 C 
BRANCH  13  14
ATOM     14  C   UNL     1      31.571  -0.889  -3.572  1.00  0.00     0.000 C 
BRANCH  14  15
ATOM     15  C   UNL     1      33.033  -0.422  -3.647  1.00  0.00     0.000 C 
BRANCH  15  16
ATOM     16  C   UNL     1      33.986  -1.534  -4.111  1.00  0.00     0.000 C 
BRANCH  16  17
ATOM     17  C   UNL     1      35.452  -1.105  -3.945  1.00  0.00     0.000 C 
BRANCH  17  18
ATOM     18  C   UNL     1      36.411  -2.303  -3.857  1.00  0.00     0.000 C 
BRANCH  18  19
ATOM     19  C   UNL     1      35.681  -3.654  -3.945  1.00  0.00     0.000 C 
BRANCH  19  20
ATOM     20  C   UNL     1      36.641  -4.850  -4.076  1.00  0.00     0.006 C 
BRANCH  20  21
ATOM     21  C   UNL     1      36.751  -5.704  -2.800  1.00  0.00     0.053 C 
BRANCH  21  22
ATOM     22  C   UNL     1      35.975  -6.984  -2.890  1.00  0.00     0.041 C 
ATOM     23  O   UNL     1      36.015  -7.819  -1.949  1.00  0.00    -0.550 OA
ATOM     24  O   UNL     1      35.234  -7.267  -4.030  1.00  0.00    -0.550 OA
ENDBRANCH  21  22
ENDBRANCH  20  21
ENDBRANCH  19  20
ENDBRANCH  18  19
ENDBRANCH  17  18
ENDBRANCH  16  17
ENDBRANCH  15  16
ENDBRANCH  14  15
ENDBRANCH  13  14
ENDBRANCH   1  13
TORSDOF 20
ENDMDL
MODEL 5
REMARK VINA RESULT:    -0.979      4.421      9.073
REMARK INTER + INTRA:          -2.966
REMARK INTER:                  -3.431
REMARK INTRA:                   0.465
REMARK UNBOUND:                -0.843
REMARK SMILES CCCCCCCCCCCCCCCCCCCCCC(=O)[O-]
REMARK SMILES IDX 12 1 11 2 10 3 9 4 8 5 7 6 6 7 5 8 4 9 3 10 2 11 1 12 13 13
REMARK SMILES IDX 14 14 15 15 16 16 17 17 18 18 19 19 20 20 21 21 22 22 23 23
REMARK SMILES IDX 24 24
REMARK H PARENT
REMARK Flexibility Score: inf
ROOT
ATOM      1  C   UNL     1      30.511   0.553  -2.626  1.00  0.00     0.000 C 
ENDROOT
BRANCH   1   2
ATOM      2  C   UNL     1      31.172   0.211  -3.978  1.00  0.00     0.000 C 
BRANCH   2   3
ATOM      3  C   UNL     1      32.579   0.814  -4.109  1.00  0.00     0.000 C 
BRANCH   3   4
ATOM      4  C   UNL     1      33.585   0.060  -3.227  1.00  0.00    -0.000 C 
BRANCH   4   5
ATOM      5  C   UNL     1      34.046  -1.270  -3.849  1.00  0.00    -0.000 C 
BRANCH   5   6
ATOM      6  C   UNL     1      35.412  -1.787  -3.355  1.00  0.00    -0.000 C 
BRANCH   6   7
ATOM      7  C   UNL     1      35.927  -3.050  -4.067  1.00  0.00    -0.000 C 
BRANCH   7   8
ATOM      8  C   UNL     1      36.857  -3.895  -3.184  1.00  0.00    -0.000 C 
BRANCH   8   9
ATOM      9  C   UNL     1      36.869  -5.358  -3.641  1.00  0.00    -0.000 C 
BRANCH   9  10
ATOM     10  C   UNL     1      36.207  -6.267  -2.599  1.00  0.00    -0.000 C 
BRANCH  10  11
ATOM     11  C   UNL     1      35.639  -7.532  -3.255  1.00  0.00    -0.003 C 
ATOM     12  C   UNL     1      35.468  -8.653  -2.234  1.00  0.00     0.004 C 
ENDBRANCH  10  11
ENDBRANCH   9  10
ENDBRANCH   8   9
ENDBRANCH   7   8
ENDBRANCH   6   7
ENDBRANCH   5   6
ENDBRANCH   4   5
ENDBRANCH   3   4
ENDBRANCH   2   3
ENDBRANCH   1   2
BRANCH   1  13
ATOM     13  C   UNL     1      31.309   0.061  -1.406  1.00  0.00     0.000 C 
BRANCH  13  14
ATOM     14  C   UNL     1      31.107   0.943  -0.164  1.00  0.00     0.000 C 
BRANCH  14  15
ATOM     15  C   UNL     1      29.680   0.851   0.401  1.00  0.00     0.000 C 
BRANCH  15  16
ATOM     16  C   UNL     1      29.565   1.442   1.814  1.00  0.00     0.000 C 
BRANCH  16  17
ATOM     17  C   UNL     1      30.602   2.555   2.029  1.00  0.00     0.000 C 
BRANCH  17  18
ATOM     18  C   UNL     1      30.649   3.044   3.486  1.00  0.00     0.000 C 
BRANCH  18  19
ATOM     19  C   UNL     1      31.259   4.450   3.618  1.00  0.00     0.000 C 
BRANCH  19  20
ATOM     20  C   UNL     1      30.501   5.515   2.804  1.00  0.00     0.006 C 
BRANCH  20  21
ATOM     21  C   UNL     1      29.644   6.463   3.664  1.00  0.00     0.053 C 
BRANCH  21  22
ATOM     22  C   UNL     1      30.317   6.849   4.947  1.00  0.00     0.041 C 
ATOM     23  O   UNL     1      30.819   5.967   5.692  1.00  0.00    -0.550 OA
ATOM     24  O   UNL     1      30.362   8.182   5.334  1.00  0.00    -0.550 OA
ENDBRANCH  21  22
ENDBRANCH  20  21
ENDBRANCH  19  20
ENDBRANCH  18  19
ENDBRANCH  17  18
ENDBRANCH  16  17
ENDBRANCH  15  16
ENDBRANCH  14  15
ENDBRANCH  13  14
ENDBRANCH   1  13
TORSDOF 20
ENDMDL
MODEL 6
REMARK VINA RESULT:    -0.901      4.262      8.003
REMARK INTER + INTRA:          -2.798
REMARK INTER:                  -2.467
REMARK INTRA:                  -0.330
REMARK UNBOUND:                -0.843
REMARK SMILES CCCCCCCCCCCCCCCCCCCCCC(=O)[O-]
REMARK SMILES IDX 12 1 11 2 10 3 9 4 8 5 7 6 6 7 5 8 4 9 3 10 2 11 1 12 13 13
REMARK SMILES IDX 14 14 15 15 16 16 17 17 18 18 19 19 20 20 21 21 22 22 23 23
REMARK SMILES IDX 24 24
REMARK H PARENT
REMARK Flexibility Score: inf
ROOT
ATOM      1  C   UNL     1      31.341  -0.246  -2.591  1.00  0.00     0.000 C 
ENDROOT
BRANCH   1   2
ATOM      2  C   UNL     1      32.777  -0.311  -2.029  1.00  0.00     0.000 C 
BRANCH   2   3
ATOM      3  C   UNL     1      33.838  -0.343  -3.140  1.00  0.00     0.000 C 
BRANCH   3   4
ATOM      4  C   UNL     1      33.756  -1.650  -3.942  1.00  0.00    -0.000 C 
BRANCH   4   5
ATOM      5  C   UNL     1      35.126  -2.327  -4.123  1.00  0.00    -0.000 C 
BRANCH   5   6
ATOM      6  C   UNL     1      35.769  -2.863  -2.827  1.00  0.00    -0.000 C 
BRANCH   6   7
ATOM      7  C   UNL     1      37.120  -3.573  -3.015  1.00  0.00    -0.000 C 
BRANCH   7   8
ATOM      8  C   UNL     1      36.991  -4.917  -3.748  1.00  0.00    -0.000 C 
BRANCH   8   9
ATOM      9  C   UNL     1      36.709  -6.055  -2.761  1.00  0.00    -0.000 C 
BRANCH   9  10
ATOM     10  C   UNL     1      36.376  -7.357  -3.501  1.00  0.00    -0.000 C 
BRANCH  10  11
ATOM     11  C   UNL     1      36.554  -8.572  -2.583  1.00  0.00    -0.003 C 
ATOM     12  C   UNL     1      35.310  -8.807  -1.731  1.00  0.00     0.004 C 
ENDBRANCH  10  11
ENDBRANCH   9  10
ENDBRANCH   8   9
ENDBRANCH   7   8
ENDBRANCH   6   7
ENDBRANCH   5   6
ENDBRANCH   4   5
ENDBRANCH   3   4
ENDBRANCH   2   3
ENDBRANCH   1   2
BRANCH   1  13
ATOM     13  C   UNL     1      30.936   1.153  -3.087  1.00  0.00     0.000 C 
BRANCH  13  14
ATOM     14  C   UNL     1      31.954   1.759  -4.065  1.00  0.00     0.000 C 
BRANCH  14  15
ATOM     15  C   UNL     1      32.736   2.933  -3.454  1.00  0.00     0.000 C 
BRANCH  15  16
ATOM     16  C   UNL     1      32.228   4.298  -3.938  1.00  0.00     0.000 C 
BRANCH  16  17
ATOM     17  C   UNL     1      31.432   5.010  -2.834  1.00  0.00     0.000 C 
BRANCH  17  18
ATOM     18  C   UNL     1      32.033   6.373  -2.457  1.00  0.00     0.000 C 
BRANCH  18  19
ATOM     19  C   UNL     1      31.339   7.545  -3.173  1.00  0.00     0.000 C 
BRANCH  19  20
ATOM     20  C   UNL     1      29.964   7.888  -2.572  1.00  0.00     0.006 C 
BRANCH  20  21
ATOM     21  C   UNL     1      29.530   9.348  -2.803  1.00  0.00     0.053 C 
BRANCH  21  22
ATOM     22  C   UNL     1      28.131   9.616  -2.337  1.00  0.00     0.041 C 
ATOM     23  O   UNL     1      27.835   9.512  -1.118  1.00  0.00    -0.550 OA
ATOM     24  O   UNL     1      27.145   9.952  -3.257  1.00  0.00    -0.550 OA
ENDBRANCH  21  22
ENDBRANCH  20  21
ENDBRANCH  19  20
ENDBRANCH  18  19
ENDBRANCH  17  18
ENDBRANCH  16  17
ENDBRANCH  15  16
ENDBRANCH  14  15
ENDBRANCH  13  14
ENDBRANCH   1  13
TORSDOF 20
ENDMDL
MODEL 7
REMARK VINA RESULT:    -0.896      6.941     10.902
REMARK INTER + INTRA:          -2.786
REMARK INTER:                  -1.752
REMARK INTRA:                  -1.033
REMARK UNBOUND:                -0.843
REMARK SMILES CCCCCCCCCCCCCCCCCCCCCC(=O)[O-]
REMARK SMILES IDX 12 1 11 2 10 3 9 4 8 5 7 6 6 7 5 8 4 9 3 10 2 11 1 12 13 13
REMARK SMILES IDX 14 14 15 15 16 16 17 17 18 18 19 19 20 20 21 21 22 22 23 23
REMARK SMILES IDX 24 24
REMARK H PARENT
REMARK Flexibility Score: inf
ROOT
ATOM      1  C   UNL     1      31.425   0.430  -3.948  1.00  0.00     0.000 C 
ENDROOT
BRANCH   1   2
ATOM      2  C   UNL     1      30.833   1.811  -3.596  1.00  0.00     0.000 C 
BRANCH   2   3
ATOM      3  C   UNL     1      31.696   2.968  -4.124  1.00  0.00     0.000 C 
BRANCH   3   4
ATOM      4  C   UNL     1      31.934   4.021  -3.032  1.00  0.00    -0.000 C 
BRANCH   4   5
ATOM      5  C   UNL     1      33.124   4.944  -3.342  1.00  0.00    -0.000 C 
BRANCH   5   6
ATOM      6  C   UNL     1      32.760   6.272  -4.038  1.00  0.00    -0.000 C 
BRANCH   6   7
ATOM      7  C   UNL     1      31.689   7.112  -3.321  1.00  0.00    -0.000 C 
BRANCH   7   8
ATOM      8  C   UNL     1      31.327   8.395  -4.083  1.00  0.00    -0.000 C 
BRANCH   8   9
ATOM      9  C   UNL     1      29.927   8.886  -3.699  1.00  0.00    -0.000 C 
BRANCH   9  10
ATOM     10  C   UNL     1      29.503   8.331  -2.333  1.00  0.00    -0.000 C 
BRANCH  10  11
ATOM     11  C   UNL     1      28.110   8.837  -1.942  1.00  0.00    -0.003 C 
ATOM     12  C   UNL     1      27.671   9.991  -2.839  1.00  0.00     0.004 C 
ENDBRANCH  10  11
ENDBRANCH   9  10
ENDBRANCH   8   9
ENDBRANCH   7   8
ENDBRANCH   6   7
ENDBRANCH   5   6
ENDBRANCH   4   5
ENDBRANCH   3   4
ENDBRANCH   2   3
ENDBRANCH   1   2
BRANCH   1  13
ATOM     13  C   UNL     1      32.180  -0.233  -2.783  1.00  0.00     0.000 C 
BRANCH  13  14
ATOM     14  C   UNL     1      33.687   0.069  -2.799  1.00  0.00     0.000 C 
BRANCH  14  15
ATOM     15  C   UNL     1      34.445  -0.760  -3.848  1.00  0.00     0.000 C 
BRANCH  15  16
ATOM     16  C   UNL     1      35.280  -1.887  -3.222  1.00  0.00     0.000 C 
BRANCH  16  17
ATOM     17  C   UNL     1      36.465  -2.258  -4.125  1.00  0.00     0.000 C 
BRANCH  17  18
ATOM     18  C   UNL     1      37.079  -3.621  -3.763  1.00  0.00     0.000 C 
BRANCH  18  19
ATOM     19  C   UNL     1      36.039  -4.754  -3.752  1.00  0.00     0.000 C 
BRANCH  19  20
ATOM     20  C   UNL     1      36.380  -5.875  -2.754  1.00  0.00     0.006 C 
BRANCH  20  21
ATOM     21  C   UNL     1      36.756  -7.211  -3.422  1.00  0.00     0.053 C 
BRANCH  21  22
ATOM     22  C   UNL     1      36.001  -8.375  -2.855  1.00  0.00     0.041 C 
ATOM     23  O   UNL     1      35.097  -8.190  -1.999  1.00  0.00    -0.550 OA
ATOM     24  O   UNL     1      36.320  -9.668  -3.250  1.00  0.00    -0.550 OA
ENDBRANCH  21  22
ENDBRANCH  20  21
ENDBRANCH  19  20
ENDBRANCH  18  19
ENDBRANCH  17  18
ENDBRANCH  16  17
ENDBRANCH  15  16
ENDBRANCH  14  15
ENDBRANCH  13  14
ENDBRANCH   1  13
TORSDOF 20
ENDMDL
MODEL 8
REMARK VINA RESULT:    -0.879      2.741      6.881
REMARK INTER + INTRA:          -2.749
REMARK INTER:                  -1.634
REMARK INTRA:                  -1.116
REMARK UNBOUND:                -0.843
REMARK SMILES CCCCCCCCCCCCCCCCCCCCCC(=O)[O-]
REMARK SMILES IDX 12 1 11 2 10 3 9 4 8 5 7 6 6 7 5 8 4 9 3 10 2 11 1 12 13 13
REMARK SMILES IDX 14 14 15 15 16 16 17 17 18 18 19 19 20 20 21 21 22 22 23 23
REMARK SMILES IDX 24 24
REMARK H PARENT
REMARK Flexibility Score: inf
ROOT
ATOM      1  C   UNL     1      30.456   0.432  -1.066  1.00  0.00     0.000 C 
ENDROOT
BRANCH   1   2
ATOM      2  C   UNL     1      31.603  -0.405  -1.670  1.00  0.00     0.000 C 
BRANCH   2   3
ATOM      3  C   UNL     1      31.322  -0.819  -3.123  1.00  0.00     0.000 C 
BRANCH   3   4
ATOM      4  C   UNL     1      31.139   0.413  -4.021  1.00  0.00    -0.000 C 
BRANCH   4   5
ATOM      5  C   UNL     1      32.355   1.355  -3.998  1.00  0.00    -0.000 C 
BRANCH   5   6
ATOM      6  C   UNL     1      32.021   2.855  -3.866  1.00  0.00    -0.000 C 
BRANCH   6   7
ATOM      7  C   UNL     1      33.239   3.786  -3.745  1.00  0.00    -0.000 C 
BRANCH   7   8
ATOM      8  C   UNL     1      32.858   5.274  -3.768  1.00  0.00    -0.000 C 
BRANCH   8   9
ATOM      9  C   UNL     1      31.783   5.581  -2.719  1.00  0.00    -0.000 C 
BRANCH   9  10
ATOM     10  C   UNL     1      31.398   7.065  -2.742  1.00  0.00    -0.000 C 
BRANCH  10  11
ATOM     11  C   UNL     1      30.118   7.314  -1.935  1.00  0.00    -0.003 C 
ATOM     12  C   UNL     1      29.348   8.514  -2.478  1.00  0.00     0.004 C 
ENDBRANCH  10  11
ENDBRANCH   9  10
ENDBRANCH   8   9
ENDBRANCH   7   8
ENDBRANCH   6   7
ENDBRANCH   5   6
ENDBRANCH   4   5
ENDBRANCH   3   4
ENDBRANCH   2   3
ENDBRANCH   1   2
BRANCH   1  13
ATOM     13  C   UNL     1      30.800   1.059   0.296  1.00  0.00     0.000 C 
BRANCH  13  14
ATOM     14  C   UNL     1      29.553   1.425   1.117  1.00  0.00     0.000 C 
BRANCH  14  15
ATOM     15  C   UNL     1      29.887   1.773   2.577  1.00  0.00     0.000 C 
BRANCH  15  16
ATOM     16  C   UNL     1      30.708   3.065   2.704  1.00  0.00     0.000 C 
BRANCH  16  17
ATOM     17  C   UNL     1      30.916   3.438   4.179  1.00  0.00     0.000 C 
BRANCH  17  18
ATOM     18  C   UNL     1      31.349   4.902   4.362  1.00  0.00     0.000 C 
BRANCH  18  19
ATOM     19  C   UNL     1      30.456   5.885   3.586  1.00  0.00     0.000 C 
BRANCH  19  20
ATOM     20  C   UNL     1      30.144   7.169   4.376  1.00  0.00     0.006 C 
BRANCH  20  21
ATOM     21  C   UNL     1      29.988   6.946   5.891  1.00  0.00     0.053 C 
BRANCH  21  22
ATOM     22  C   UNL     1      30.106   8.215   6.679  1.00  0.00     0.041 C 
ATOM     23  O   UNL     1      30.307   8.177   7.921  1.00  0.00    -0.550 OA
ATOM     24  O   UNL     1      29.963   9.443   6.044  1.00  0.00    -0.550 OA
ENDBRANCH  21  22
ENDBRANCH  20  21
ENDBRANCH  19  20
ENDBRANCH  18  19
ENDBRANCH  17  18
ENDBRANCH  16  17
ENDBRANCH  15  16
ENDBRANCH  14  15
ENDBRANCH  13  14
ENDBRANCH   1  13
TORSDOF 20
ENDMDL
MODEL 9
REMARK VINA RESULT:    -0.396      2.386      6.405
REMARK INTER + INTRA:          -1.703
REMARK INTER:                  -0.340
REMARK INTRA:                  -1.363
REMARK UNBOUND:                -0.843
REMARK SMILES CCCCCCCCCCCCCCCCCCCCCC(=O)[O-]
REMARK SMILES IDX 12 1 11 2 10 3 9 4 8 5 7 6 6 7 5 8 4 9 3 10 2 11 1 12 13 13
REMARK SMILES IDX 14 14 15 15 16 16 17 17 18 18 19 19 20 20 21 21 22 22 23 23
REMARK SMILES IDX 24 24
REMARK H PARENT
REMARK Flexibility Score: inf
ROOT
ATOM      1  C   UNL     1      32.294  -1.453  -3.613  1.00  0.00     0.000 C 
ENDROOT
BRANCH   1   2
ATOM      2  C   UNL     1      33.528  -0.692  -3.084  1.00  0.00     0.000 C 
BRANCH   2   3
ATOM      3  C   UNL     1      34.106   0.279  -4.125  1.00  0.00     0.000 C 
BRANCH   3   4
ATOM      4  C   UNL     1      33.783   1.735  -3.759  1.00  0.00    -0.000 C 
BRANCH   4   5
ATOM      5  C   UNL     1      32.332   2.125  -4.089  1.00  0.00    -0.000 C 
BRANCH   5   6
ATOM      6  C   UNL     1      31.919   3.545  -3.651  1.00  0.00    -0.000 C 
BRANCH   6   7
ATOM      7  C   UNL     1      33.024   4.610  -3.762  1.00  0.00    -0.000 C 
BRANCH   7   8
ATOM      8  C   UNL     1      32.705   5.886  -2.971  1.00  0.00    -0.000 C 
BRANCH   8   9
ATOM      9  C   UNL     1      31.223   5.935  -2.581  1.00  0.00    -0.000 C 
BRANCH   9  10
ATOM     10  C   UNL     1      30.852   7.300  -1.990  1.00  0.00    -0.000 C 
BRANCH  10  11
ATOM     11  C   UNL     1      29.707   7.948  -2.779  1.00  0.00    -0.003 C 
ATOM     12  C   UNL     1      29.571   9.429  -2.438  1.00  0.00     0.004 C 
ENDBRANCH  10  11
ENDBRANCH   9  10
ENDBRANCH   8   9
ENDBRANCH   7   8
ENDBRANCH   6   7
ENDBRANCH   5   6
ENDBRANCH   4   5
ENDBRANCH   3   4
ENDBRANCH   2   3
ENDBRANCH   1   2
BRANCH   1  13
ATOM     13  C   UNL     1      31.083  -1.398  -2.665  1.00  0.00     0.000 C 
BRANCH  13  14
ATOM     14  C   UNL     1      30.765   0.027  -2.185  1.00  0.00     0.000 C 
BRANCH  14  15
ATOM     15  C   UNL     1      31.082   0.235  -0.696  1.00  0.00     0.000 C 
BRANCH  15  16
ATOM     16  C   UNL     1      30.341   1.439  -0.096  1.00  0.00     0.000 C 
BRANCH  16  17
ATOM     17  C   UNL     1      29.928   1.159   1.357  1.00  0.00     0.000 C 
BRANCH  17  18
ATOM     18  C   UNL     1      29.859   2.438   2.208  1.00  0.00     0.000 C 
BRANCH  18  19
ATOM     19  C   UNL     1      31.177   2.729   2.947  1.00  0.00     0.000 C 
BRANCH  19  20
ATOM     20  C   UNL     1      31.060   3.888   3.954  1.00  0.00     0.006 C 
BRANCH  20  21
ATOM     21  C   UNL     1      30.481   5.181   3.351  1.00  0.00     0.053 C 
BRANCH  21  22
ATOM     22  C   UNL     1      30.344   6.280   4.361  1.00  0.00     0.041 C 
ATOM     23  O   UNL     1      29.701   7.325   4.080  1.00  0.00    -0.550 OA
ATOM     24  O   UNL     1      30.954   6.162   5.604  1.00  0.00    -0.550 OA
ENDBRANCH  21  22
ENDBRANCH  20  21
ENDBRANCH  19  20
ENDBRANCH  18  19
ENDBRANCH  17  18
ENDBRANCH  16  17
ENDBRANCH  15  16
ENDBRANCH  14  15
ENDBRANCH  13  14
ENDBRANCH   1  13
TORSDOF 20
ENDMDL
