MODEL 1
REMARK VINA RESULT:    64.666      0.000      0.000
REMARK INTER + INTRA:          85.114
REMARK INTER:                  85.458
REMARK INTRA:                  -0.344
REMARK UNBOUND:                -0.344
REMARK SMILES CC[C@@H](C=C[C@H](C)[C@@H]1CC[C@H]2[C@H]3CC=C4C[C@H](O)CC[C@]4(C)[C@H]3CC[C@@]21C)C(C)C
REMARK SMILES IDX 6 1 7 2 5 3 4 4 3 5 2 6 1 7 28 8 29 9 30 10 8 11 9 12 26 13
REMARK SMILES IDX 10 14 11 15 25 16 27 17 12 18 24 19 23 20 13 21 21 22 14 23
REMARK SMILES IDX 15 24 20 25 22 26 16 27 19 28 17 29 18 30
REMARK H PARENT 18 31
REMARK Flexibility Score: inf
ROOT
ATOM      1  C   UNL     1     -17.615  -6.354  17.750  1.00  0.00     0.012 C 
ATOM      2  C   UNL     1     -17.267  -7.000  19.102  1.00  0.00     0.012 C 
ENDROOT
BRANCH   1   3
ATOM      3  C   UNL     1     -18.937  -6.920  17.253  1.00  0.00    -0.028 C 
ATOM      4  C   UNL     1     -19.125  -8.174  16.793  1.00  0.00    -0.027 C 
BRANCH   4   5
ATOM      5  C   UNL     1     -18.038  -9.227  16.613  1.00  0.00     0.014 C 
BRANCH   5   6
ATOM      6  C   UNL     1     -17.100  -8.913  15.414  1.00  0.00     0.004 C 
ATOM      7  C   UNL     1     -16.109 -10.025  15.037  1.00  0.00     0.004 C 
ENDBRANCH   5   6
BRANCH   5   8
ATOM      8  C   UNL     1     -18.602 -10.684  16.592  1.00  0.00    -0.011 C 
ATOM      9  C   UNL     1     -19.092 -11.078  15.189  1.00  0.00     0.008 C 
ATOM     10  C   UNL     1     -17.641 -11.752  17.136  1.00  0.00     0.008 C 
ENDBRANCH   5   8
ENDBRANCH   4   5
ENDBRANCH   1   3
BRANCH   1  11
ATOM     11  C   UNL     1     -17.579  -4.788  17.861  1.00  0.00     0.002 C 
ATOM     12  C   UNL     1     -18.950  -4.090  17.614  1.00  0.00     0.005 C 
ATOM     13  C   UNL     1     -16.577  -4.027  16.928  1.00  0.00    -0.026 C 
ATOM     14  C   UNL     1     -18.798  -3.192  16.373  1.00  0.00     0.005 C 
ATOM     15  C   UNL     1     -17.485  -3.637  15.751  1.00  0.00    -0.001 C 
ATOM     16  C   UNL     1     -15.387  -4.821  16.348  1.00  0.00     0.007 C 
ATOM     17  C   UNL     1     -16.019  -2.824  17.750  1.00  0.00     0.012 C 
ATOM     18  C   UNL     1     -16.840  -2.793  14.626  1.00  0.00     0.000 C 
ATOM     19  C   UNL     1     -14.637  -4.018  15.259  1.00  0.00     0.005 C 
ATOM     20  C   UNL     1     -15.558  -3.511  14.097  1.00  0.00     0.003 C 
ATOM     21  C   UNL     1     -16.668  -1.288  14.948  1.00  0.00     0.031 C 
ATOM     22  C   UNL     1     -14.802  -2.651  13.010  1.00  0.00    -0.008 C 
ATOM     23  C   UNL     1     -15.428  -0.642  14.388  1.00  0.00    -0.027 C 
ATOM     24  C   UNL     1     -14.617  -1.211  13.472  1.00  0.00    -0.065 C 
ATOM     25  C   UNL     1     -15.617  -2.577  11.681  1.00  0.00     0.014 C 
ATOM     26  C   UNL     1     -13.421  -3.305  12.707  1.00  0.00     0.016 C 
ATOM     27  C   UNL     1     -13.887  -0.291  12.518  1.00  0.00     0.063 C 
ATOM     28  C   UNL     1     -15.011  -1.608  10.633  1.00  0.00     0.033 C 
ATOM     29  C   UNL     1     -14.694  -0.207  11.206  1.00  0.00     0.118 C 
BRANCH  29  30
ATOM     30  O   UNL     1     -15.898   0.487  11.420  1.00  0.00    -0.393 OA
ATOM     31  H   UNL     1     -15.685   1.455  11.369  1.00  0.00     0.210 HD
ENDBRANCH  29  30
ENDBRANCH   1  11
TORSDOF 6
ENDMDL
MODEL 2
REMARK VINA RESULT:    65.972      5.156      8.084
REMARK INTER + INTRA:          86.840
REMARK INTER:                  87.791
REMARK INTRA:                  -0.951
REMARK UNBOUND:                -0.344
REMARK SMILES CC[C@@H](C=C[C@H](C)[C@@H]1CC[C@H]2[C@H]3CC=C4C[C@H](O)CC[C@]4(C)[C@H]3CC[C@@]21C)C(C)C
REMARK SMILES IDX 6 1 7 2 5 3 4 4 3 5 2 6 1 7 28 8 29 9 30 10 8 11 9 12 26 13
REMARK SMILES IDX 10 14 11 15 25 16 27 17 12 18 24 19 23 20 13 21 21 22 14 23
REMARK SMILES IDX 15 24 20 25 22 26 16 27 19 28 17 29 18 30
REMARK H PARENT 18 31
REMARK Flexibility Score: inf
ROOT
ATOM      1  C   UNL     1     -14.346  -1.742  13.809  1.00  0.00     0.012 C 
ATOM      2  C   UNL     1     -15.355  -0.878  13.034  1.00  0.00     0.012 C 
ENDROOT
BRANCH   1   3
ATOM      3  C   UNL     1     -14.927  -3.136  14.001  1.00  0.00    -0.028 C 
ATOM      4  C   UNL     1     -15.992  -3.438  14.772  1.00  0.00    -0.027 C 
BRANCH   4   5
ATOM      5  C   UNL     1     -16.759  -2.458  15.652  1.00  0.00     0.014 C 
BRANCH   5   6
ATOM      6  C   UNL     1     -16.217  -2.417  17.108  1.00  0.00     0.004 C 
ATOM      7  C   UNL     1     -15.518  -3.697  17.591  1.00  0.00     0.004 C 
ENDBRANCH   5   6
BRANCH   5   8
ATOM      8  C   UNL     1     -18.307  -2.656  15.572  1.00  0.00    -0.011 C 
ATOM      9  C   UNL     1     -18.805  -3.635  16.647  1.00  0.00     0.008 C 
ATOM     10  C   UNL     1     -19.124  -1.354  15.624  1.00  0.00     0.008 C 
ENDBRANCH   5   8
ENDBRANCH   4   5
ENDBRANCH   1   3
BRANCH   1  11
ATOM     11  C   UNL     1     -12.941  -1.714  13.109  1.00  0.00     0.002 C 
ATOM     12  C   UNL     1     -12.280  -3.113  12.929  1.00  0.00     0.005 C 
ATOM     13  C   UNL     1     -11.827  -0.835  13.774  1.00  0.00    -0.026 C 
ATOM     14  C   UNL     1     -10.970  -3.116  13.737  1.00  0.00     0.005 C 
ATOM     15  C   UNL     1     -11.071  -1.878  14.611  1.00  0.00    -0.001 C 
ATOM     16  C   UNL     1     -12.273   0.290  14.731  1.00  0.00     0.007 C 
ATOM     17  C   UNL     1     -10.999  -0.203  12.613  1.00  0.00     0.012 C 
ATOM     18  C   UNL     1      -9.827  -1.378  15.384  1.00  0.00     0.000 C 
ATOM     19  C   UNL     1     -11.075   0.900  15.497  1.00  0.00     0.005 C 
ATOM     20  C   UNL     1     -10.216  -0.156  16.276  1.00  0.00     0.003 C 
ATOM     21  C   UNL     1      -8.550  -1.189  14.527  1.00  0.00     0.031 C 
ATOM     22  C   UNL     1      -8.965   0.460  17.018  1.00  0.00    -0.008 C 
ATOM     23  C   UNL     1      -7.672  -0.030  14.917  1.00  0.00    -0.027 C 
ATOM     24  C   UNL     1      -7.802   0.677  16.059  1.00  0.00    -0.065 C 
ATOM     25  C   UNL     1      -8.437  -0.504  18.127  1.00  0.00     0.014 C 
ATOM     26  C   UNL     1      -9.376   1.805  17.688  1.00  0.00     0.016 C 
ATOM     27  C   UNL     1      -6.549   1.281  16.654  1.00  0.00     0.063 C 
ATOM     28  C   UNL     1      -7.110  -0.034  18.777  1.00  0.00     0.033 C 
ATOM     29  C   UNL     1      -6.016   0.328  17.744  1.00  0.00     0.118 C 
BRANCH  29  30
ATOM     30  O   UNL     1      -5.526  -0.852  17.158  1.00  0.00    -0.393 OA
ATOM     31  H   UNL     1      -5.300  -0.633  16.217  1.00  0.00     0.210 HD
ENDBRANCH  29  30
ENDBRANCH   1  11
TORSDOF 6
ENDMDL
