MODEL 1
REMARK VINA RESULT:    -7.246      0.000      0.000
REMARK INTER + INTRA:          -9.047
REMARK INTER:                  -8.729
REMARK INTRA:                  -0.318
REMARK UNBOUND:                -0.318
REMARK SMILES O=c1c(O)c(-c2ccc(O)c(O)c2)oc2cc(O)cc(O)c12
REMARK SMILES IDX 5 1 3 2 2 3 1 4 22 5 20 6 19 7 17 8 16 9 15 10 14 11 6 12
REMARK SMILES IDX 7 13 8 14 9 15 13 16 11 17 10 18 12 20 4 22 21 24 18 26
REMARK H PARENT 10 19 12 21 4 23 21 25 18 27
REMARK Flexibility Score: inf
ROOT
ATOM      1  C   UNL     1       4.710   0.173 -23.023  1.00  0.00     0.180 A 
ATOM      2  C   UNL     1       5.206  -0.495 -24.156  1.00  0.00     0.208 A 
ATOM      3  C   UNL     1       5.067  -1.890 -24.237  1.00  0.00     0.238 A 
ATOM      4  O   UNL     1       5.464  -2.477 -25.278  1.00  0.00    -0.285 OA
ATOM      5  C   UNL     1       4.450  -2.601 -23.180  1.00  0.00     0.111 A 
ATOM      6  C   UNL     1       4.293  -4.019 -23.139  1.00  0.00     0.134 A 
ATOM      7  C   UNL     1       3.551  -4.603 -22.105  1.00  0.00     0.093 A 
ATOM      8  C   UNL     1       3.017  -3.827 -21.076  1.00  0.00     0.123 A 
ATOM      9  C   UNL     1       3.215  -2.446 -21.074  1.00  0.00     0.094 A 
ATOM     10  C   UNL     1       3.920  -1.831 -22.111  1.00  0.00     0.146 A 
ATOM     11  O   UNL     1       4.077  -0.514 -22.078  1.00  0.00    -0.452 OA
ENDROOT
BRANCH   1  12
ATOM     12  C   UNL     1       4.841   1.638 -22.852  1.00  0.00     0.025 A 
ATOM     13  C   UNL     1       5.898   2.196 -22.113  1.00  0.00     0.016 A 
ATOM     14  C   UNL     1       5.988   3.581 -21.946  1.00  0.00     0.051 A 
ATOM     15  C   UNL     1       5.018   4.426 -22.501  1.00  0.00     0.157 A 
ATOM     16  C   UNL     1       3.859   2.487 -23.389  1.00  0.00     0.062 A 
ATOM     17  C   UNL     1       3.946   3.874 -23.223  1.00  0.00     0.158 A 
BRANCH  15  18
ATOM     18  O   UNL     1       5.112   5.806 -22.332  1.00  0.00    -0.504 OA
ATOM     19  H   UNL     1       5.286   6.426 -23.115  1.00  0.00     0.293 HD
ENDBRANCH  15  18
BRANCH  17  20
ATOM     20  O   UNL     1       2.961   4.686 -23.781  1.00  0.00    -0.504 OA
ATOM     21  H   UNL     1       3.079   5.138 -24.681  1.00  0.00     0.293 HD
ENDBRANCH  17  20
ENDBRANCH   1  12
BRANCH   2  22
ATOM     22  O   UNL     1       5.793   0.227 -25.198  1.00  0.00    -0.502 OA
ATOM     23  H   UNL     1       6.686  -0.028 -25.600  1.00  0.00     0.293 HD
ENDBRANCH   2  22
BRANCH   6  24
ATOM     24  O   UNL     1       4.863  -4.895 -24.068  1.00  0.00    -0.507 OA
ATOM     25  H   UNL     1       5.339  -5.753 -23.831  1.00  0.00     0.293 HD
ENDBRANCH   6  24
BRANCH   8  26
ATOM     26  O   UNL     1       2.296  -4.443 -20.055  1.00  0.00    -0.508 OA
ATOM     27  H   UNL     1       2.249  -4.044 -19.124  1.00  0.00     0.293 HD
ENDBRANCH   8  26
TORSDOF 6
ENDMDL
MODEL 2
REMARK VINA RESULT:    -7.021      0.656      1.429
REMARK INTER + INTRA:          -8.775
REMARK INTER:                  -8.487
REMARK INTRA:                  -0.288
REMARK UNBOUND:                -0.318
REMARK SMILES O=c1c(O)c(-c2ccc(O)c(O)c2)oc2cc(O)cc(O)c12
REMARK SMILES IDX 5 1 3 2 2 3 1 4 22 5 20 6 19 7 17 8 16 9 15 10 14 11 6 12
REMARK SMILES IDX 7 13 8 14 9 15 13 16 11 17 10 18 12 20 4 22 21 24 18 26
REMARK H PARENT 10 19 12 21 4 23 21 25 18 27
REMARK Flexibility Score: inf
ROOT
ATOM      1  C   UNL     1       4.451   0.197 -23.371  1.00  0.00     0.180 A 
ATOM      2  C   UNL     1       5.040  -0.497 -24.442  1.00  0.00     0.208 A 
ATOM      3  C   UNL     1       5.032  -1.901 -24.429  1.00  0.00     0.238 A 
ATOM      4  O   UNL     1       5.513  -2.518 -25.416  1.00  0.00    -0.285 OA
ATOM      5  C   UNL     1       4.449  -2.593 -23.340  1.00  0.00     0.111 A 
ATOM      6  C   UNL     1       4.421  -4.014 -23.204  1.00  0.00     0.134 A 
ATOM      7  C   UNL     1       3.703  -4.592 -22.150  1.00  0.00     0.093 A 
ATOM      8  C   UNL     1       3.069  -3.802 -21.192  1.00  0.00     0.123 A 
ATOM      9  C   UNL     1       3.140  -2.412 -21.281  1.00  0.00     0.094 A 
ATOM     10  C   UNL     1       3.818  -1.805 -22.342  1.00  0.00     0.146 A 
ATOM     11  O   UNL     1       3.854  -0.480 -22.396  1.00  0.00    -0.452 OA
ENDROOT
BRANCH   1  12
ATOM     12  C   UNL     1       4.443   1.676 -23.301  1.00  0.00     0.025 A 
ATOM     13  C   UNL     1       3.532   2.439 -24.052  1.00  0.00     0.016 A 
ATOM     14  C   UNL     1       3.558   3.835 -23.988  1.00  0.00     0.051 A 
ATOM     15  C   UNL     1       4.501   4.489 -23.185  1.00  0.00     0.157 A 
ATOM     16  C   UNL     1       5.400   2.337 -22.513  1.00  0.00     0.062 A 
ATOM     17  C   UNL     1       5.429   3.734 -22.446  1.00  0.00     0.158 A 
BRANCH  15  18
ATOM     18  O   UNL     1       4.523   5.881 -23.122  1.00  0.00    -0.504 OA
ATOM     19  H   UNL     1       5.394   6.398 -23.094  1.00  0.00     0.293 HD
ENDBRANCH  15  18
BRANCH  17  20
ATOM     20  O   UNL     1       6.385   4.355 -21.644  1.00  0.00    -0.504 OA
ATOM     21  H   UNL     1       6.357   4.300 -20.632  1.00  0.00     0.293 HD
ENDBRANCH  17  20
ENDBRANCH   1  12
BRANCH   2  22
ATOM     22  O   UNL     1       5.591   0.204 -25.517  1.00  0.00    -0.502 OA
ATOM     23  H   UNL     1       6.401   0.804 -25.418  1.00  0.00     0.293 HD
ENDBRANCH   2  22
BRANCH   6  24
ATOM     24  O   UNL     1       5.097  -4.893 -24.054  1.00  0.00    -0.507 OA
ATOM     25  H   UNL     1       5.452  -5.798 -23.780  1.00  0.00     0.293 HD
ENDBRANCH   6  24
BRANCH   8  26
ATOM     26  O   UNL     1       2.376  -4.411 -20.148  1.00  0.00    -0.508 OA
ATOM     27  H   UNL     1       2.602  -5.349 -19.836  1.00  0.00     0.293 HD
ENDBRANCH   8  26
TORSDOF 6
ENDMDL
MODEL 3
REMARK VINA RESULT:    -6.844      1.586      6.923
REMARK INTER + INTRA:          -8.562
REMARK INTER:                  -8.228
REMARK INTRA:                  -0.334
REMARK UNBOUND:                -0.318
REMARK SMILES O=c1c(O)c(-c2ccc(O)c(O)c2)oc2cc(O)cc(O)c12
REMARK SMILES IDX 5 1 3 2 2 3 1 4 22 5 20 6 19 7 17 8 16 9 15 10 14 11 6 12
REMARK SMILES IDX 7 13 8 14 9 15 13 16 11 17 10 18 12 20 4 22 21 24 18 26
REMARK H PARENT 10 19 12 21 4 23 21 25 18 27
REMARK Flexibility Score: inf
ROOT
ATOM      1  C   UNL     1       3.940  -0.341 -23.491  1.00  0.00     0.180 A 
ATOM      2  C   UNL     1       3.300   0.113 -24.658  1.00  0.00     0.208 A 
ATOM      3  C   UNL     1       3.339   1.482 -24.965  1.00  0.00     0.238 A 
ATOM      4  O   UNL     1       2.811   1.876 -26.038  1.00  0.00    -0.285 OA
ATOM      5  C   UNL     1       4.003   2.382 -24.097  1.00  0.00     0.111 A 
ATOM      6  C   UNL     1       4.071   3.795 -24.289  1.00  0.00     0.134 A 
ATOM      7  C   UNL     1       4.865   4.571 -23.437  1.00  0.00     0.093 A 
ATOM      8  C   UNL     1       5.540   3.996 -22.361  1.00  0.00     0.123 A 
ATOM      9  C   UNL     1       5.434   2.625 -22.127  1.00  0.00     0.094 A 
ATOM     10  C   UNL     1       4.678   1.819 -22.982  1.00  0.00     0.146 A 
ATOM     11  O   UNL     1       4.611   0.517 -22.731  1.00  0.00    -0.452 OA
ENDROOT
BRANCH   1  12
ATOM     12  C   UNL     1       3.921  -1.766 -23.086  1.00  0.00     0.025 A 
ATOM     13  C   UNL     1       2.883  -2.287 -22.296  1.00  0.00     0.016 A 
ATOM     14  C   UNL     1       2.899  -3.630 -21.906  1.00  0.00     0.051 A 
ATOM     15  C   UNL     1       3.956  -4.465 -22.287  1.00  0.00     0.157 A 
ATOM     16  C   UNL     1       4.990  -2.602 -23.449  1.00  0.00     0.062 A 
ATOM     17  C   UNL     1       5.009  -3.946 -23.060  1.00  0.00     0.158 A 
BRANCH  15  18
ATOM     18  O   UNL     1       3.968  -5.803 -21.897  1.00  0.00    -0.504 OA
ATOM     19  H   UNL     1       4.806  -6.369 -21.964  1.00  0.00     0.293 HD
ENDBRANCH  15  18
BRANCH  17  20
ATOM     20  O   UNL     1       6.079  -4.749 -23.450  1.00  0.00    -0.504 OA
ATOM     21  H   UNL     1       6.066  -5.757 -23.340  1.00  0.00     0.293 HD
ENDBRANCH  17  20
ENDBRANCH   1  12
BRANCH   2  22
ATOM     22  O   UNL     1       2.668  -0.794 -25.512  1.00  0.00    -0.502 OA
ATOM     23  H   UNL     1       3.177  -1.348 -26.190  1.00  0.00     0.293 HD
ENDBRANCH   2  22
BRANCH   6  24
ATOM     24  O   UNL     1       3.361   4.482 -25.279  1.00  0.00    -0.507 OA
ATOM     25  H   UNL     1       3.661   4.579 -26.238  1.00  0.00     0.293 HD
ENDBRANCH   6  24
BRANCH   8  26
ATOM     26  O   UNL     1       6.310   4.801 -21.523  1.00  0.00    -0.508 OA
ATOM     27  H   UNL     1       7.217   4.501 -21.185  1.00  0.00     0.293 HD
ENDBRANCH   8  26
TORSDOF 6
ENDMDL
MODEL 4
REMARK VINA RESULT:    -6.724      4.494     10.477
REMARK INTER + INTRA:          -8.418
REMARK INTER:                  -8.095
REMARK INTRA:                  -0.323
REMARK UNBOUND:                -0.318
REMARK SMILES O=c1c(O)c(-c2ccc(O)c(O)c2)oc2cc(O)cc(O)c12
REMARK SMILES IDX 5 1 3 2 2 3 1 4 22 5 20 6 19 7 17 8 16 9 15 10 14 11 6 12
REMARK SMILES IDX 7 13 8 14 9 15 13 16 11 17 10 18 12 20 4 22 21 24 18 26
REMARK H PARENT 10 19 12 21 4 23 21 25 18 27
REMARK Flexibility Score: inf
ROOT
ATOM      1  C   UNL     1       4.370   7.123 -23.135  1.00  0.00     0.180 A 
ATOM      2  C   UNL     1       3.188   7.749 -23.569  1.00  0.00     0.208 A 
ATOM      3  C   UNL     1       3.204   9.130 -23.826  1.00  0.00     0.238 A 
ATOM      4  O   UNL     1       2.158   9.675 -24.265  1.00  0.00    -0.285 OA
ATOM      5  C   UNL     1       4.396   9.869 -23.632  1.00  0.00     0.111 A 
ATOM      6  C   UNL     1       4.516  11.279 -23.823  1.00  0.00     0.134 A 
ATOM      7  C   UNL     1       5.775  11.884 -23.728  1.00  0.00     0.093 A 
ATOM      8  C   UNL     1       6.905  11.144 -23.385  1.00  0.00     0.123 A 
ATOM      9  C   UNL     1       6.790   9.776 -23.138  1.00  0.00     0.094 A 
ATOM     10  C   UNL     1       5.554   9.137 -23.260  1.00  0.00     0.146 A 
ATOM     11  O   UNL     1       5.488   7.832 -23.026  1.00  0.00    -0.452 OA
ENDROOT
BRANCH   1  12
ATOM     12  C   UNL     1       4.426   5.678 -22.820  1.00  0.00     0.025 A 
ATOM     13  C   UNL     1       4.245   5.208 -21.507  1.00  0.00     0.016 A 
ATOM     14  C   UNL     1       4.325   3.841 -21.229  1.00  0.00     0.051 A 
ATOM     15  C   UNL     1       4.601   2.925 -22.253  1.00  0.00     0.157 A 
ATOM     16  C   UNL     1       4.723   4.758 -23.839  1.00  0.00     0.062 A 
ATOM     17  C   UNL     1       4.804   3.389 -23.564  1.00  0.00     0.158 A 
BRANCH  15  18
ATOM     18  O   UNL     1       4.679   1.562 -21.972  1.00  0.00    -0.504 OA
ATOM     19  H   UNL     1       5.039   0.900 -22.649  1.00  0.00     0.293 HD
ENDBRANCH  15  18
BRANCH  17  20
ATOM     20  O   UNL     1       5.088   2.504 -24.604  1.00  0.00    -0.504 OA
ATOM     21  H   UNL     1       6.004   2.454 -25.034  1.00  0.00     0.293 HD
ENDBRANCH  17  20
ENDBRANCH   1  12
BRANCH   2  22
ATOM     22  O   UNL     1       2.029   6.998 -23.774  1.00  0.00    -0.502 OA
ATOM     23  H   UNL     1       1.926   6.357 -24.551  1.00  0.00     0.293 HD
ENDBRANCH   2  22
BRANCH   6  24
ATOM     24  O   UNL     1       3.434  12.126 -24.079  1.00  0.00    -0.507 OA
ATOM     25  H   UNL     1       2.799  12.028 -24.858  1.00  0.00     0.293 HD
ENDBRANCH   6  24
BRANCH   8  26
ATOM     26  O   UNL     1       8.140  11.782 -23.285  1.00  0.00    -0.508 OA
ATOM     27  H   UNL     1       8.534  12.301 -24.062  1.00  0.00     0.293 HD
ENDBRANCH   8  26
TORSDOF 6
ENDMDL
MODEL 5
REMARK VINA RESULT:    -6.704      1.489      3.085
REMARK INTER + INTRA:          -8.393
REMARK INTER:                  -8.105
REMARK INTRA:                  -0.288
REMARK UNBOUND:                -0.318
REMARK SMILES O=c1c(O)c(-c2ccc(O)c(O)c2)oc2cc(O)cc(O)c12
REMARK SMILES IDX 5 1 3 2 2 3 1 4 22 5 20 6 19 7 17 8 16 9 15 10 14 11 6 12
REMARK SMILES IDX 7 13 8 14 9 15 13 16 11 17 10 18 12 20 4 22 21 24 18 26
REMARK H PARENT 10 19 12 21 4 23 21 25 18 27
REMARK Flexibility Score: inf
ROOT
ATOM      1  C   UNL     1       4.762   1.018 -22.773  1.00  0.00     0.180 A 
ATOM      2  C   UNL     1       4.406   0.186 -21.698  1.00  0.00     0.208 A 
ATOM      3  C   UNL     1       4.241  -1.189 -21.927  1.00  0.00     0.238 A 
ATOM      4  O   UNL     1       3.975  -1.938 -20.950  1.00  0.00    -0.285 OA
ATOM      5  C   UNL     1       4.418  -1.713 -23.231  1.00  0.00     0.111 A 
ATOM      6  C   UNL     1       4.236  -3.083 -23.586  1.00  0.00     0.134 A 
ATOM      7  C   UNL     1       4.565  -3.512 -24.878  1.00  0.00     0.093 A 
ATOM      8  C   UNL     1       5.006  -2.610 -25.845  1.00  0.00     0.123 A 
ATOM      9  C   UNL     1       5.130  -1.257 -25.527  1.00  0.00     0.094 A 
ATOM     10  C   UNL     1       4.844  -0.805 -24.236  1.00  0.00     0.146 A 
ATOM     11  O   UNL     1       4.985   0.488 -23.970  1.00  0.00    -0.452 OA
ENDROOT
BRANCH   1  12
ATOM     12  C   UNL     1       4.930   2.481 -22.616  1.00  0.00     0.025 A 
ATOM     13  C   UNL     1       6.096   3.027 -22.051  1.00  0.00     0.016 A 
ATOM     14  C   UNL     1       6.222   4.409 -21.891  1.00  0.00     0.051 A 
ATOM     15  C   UNL     1       5.183   5.265 -22.278  1.00  0.00     0.157 A 
ATOM     16  C   UNL     1       3.881   3.342 -22.983  1.00  0.00     0.062 A 
ATOM     17  C   UNL     1       4.005   4.726 -22.823  1.00  0.00     0.158 A 
BRANCH  15  18
ATOM     18  O   UNL     1       5.314   6.643 -22.117  1.00  0.00    -0.504 OA
ATOM     19  H   UNL     1       5.196   7.086 -21.213  1.00  0.00     0.293 HD
ENDBRANCH  15  18
BRANCH  17  20
ATOM     20  O   UNL     1       2.950   5.550 -23.212  1.00  0.00    -0.504 OA
ATOM     21  H   UNL     1       2.701   6.387 -22.697  1.00  0.00     0.293 HD
ENDBRANCH  17  20
ENDBRANCH   1  12
BRANCH   2  22
ATOM     22  O   UNL     1       4.257   0.720 -20.415  1.00  0.00    -0.502 OA
ATOM     23  H   UNL     1       4.557   0.227 -19.583  1.00  0.00     0.293 HD
ENDBRANCH   2  22
BRANCH   6  24
ATOM     24  O   UNL     1       3.715  -4.051 -22.722  1.00  0.00    -0.507 OA
ATOM     25  H   UNL     1       3.291  -4.917 -23.019  1.00  0.00     0.293 HD
ENDBRANCH   6  24
BRANCH   8  26
ATOM     26  O   UNL     1       5.310  -3.068 -27.125  1.00  0.00    -0.508 OA
ATOM     27  H   UNL     1       5.893  -3.884 -27.271  1.00  0.00     0.293 HD
ENDBRANCH   8  26
TORSDOF 6
ENDMDL
MODEL 6
REMARK VINA RESULT:    -6.661      6.645      9.735
REMARK INTER + INTRA:          -8.342
REMARK INTER:                  -8.034
REMARK INTRA:                  -0.308
REMARK UNBOUND:                -0.318
REMARK SMILES O=c1c(O)c(-c2ccc(O)c(O)c2)oc2cc(O)cc(O)c12
REMARK SMILES IDX 5 1 3 2 2 3 1 4 22 5 20 6 19 7 17 8 16 9 15 10 14 11 6 12
REMARK SMILES IDX 7 13 8 14 9 15 13 16 11 17 10 18 12 20 4 22 21 24 18 26
REMARK H PARENT 10 19 12 21 4 23 21 25 18 27
REMARK Flexibility Score: inf
ROOT
ATOM      1  C   UNL     1       5.458   9.246 -24.459  1.00  0.00     0.180 A 
ATOM      2  C   UNL     1       5.891   8.811 -23.194  1.00  0.00     0.208 A 
ATOM      3  C   UNL     1       5.343   7.636 -22.655  1.00  0.00     0.238 A 
ATOM      4  O   UNL     1       5.774   7.222 -21.546  1.00  0.00    -0.285 OA
ATOM      5  C   UNL     1       4.360   6.918 -23.378  1.00  0.00     0.111 A 
ATOM      6  C   UNL     1       3.709   5.738 -22.910  1.00  0.00     0.134 A 
ATOM      7  C   UNL     1       2.848   5.038 -23.765  1.00  0.00     0.093 A 
ATOM      8  C   UNL     1       2.564   5.512 -25.045  1.00  0.00     0.123 A 
ATOM      9  C   UNL     1       3.149   6.697 -25.492  1.00  0.00     0.094 A 
ATOM     10  C   UNL     1       4.040   7.398 -24.676  1.00  0.00     0.146 A 
ATOM     11  O   UNL     1       4.583   8.516 -25.142  1.00  0.00    -0.452 OA
ENDROOT
BRANCH   1  12
ATOM     12  C   UNL     1       5.969  10.488 -25.083  1.00  0.00     0.025 A 
ATOM     13  C   UNL     1       7.034  10.460 -26.000  1.00  0.00     0.016 A 
ATOM     14  C   UNL     1       7.515  11.648 -26.559  1.00  0.00     0.051 A 
ATOM     15  C   UNL     1       6.951  12.878 -26.200  1.00  0.00     0.157 A 
ATOM     16  C   UNL     1       5.420  11.726 -24.710  1.00  0.00     0.062 A 
ATOM     17  C   UNL     1       5.900  12.916 -25.267  1.00  0.00     0.158 A 
BRANCH  15  18
ATOM     18  O   UNL     1       7.433  14.060 -26.760  1.00  0.00    -0.504 OA
ATOM     19  H   UNL     1       8.296  14.083 -27.291  1.00  0.00     0.293 HD
ENDBRANCH  15  18
BRANCH  17  20
ATOM     20  O   UNL     1       5.322  14.125 -24.883  1.00  0.00    -0.504 OA
ATOM     21  H   UNL     1       5.821  15.005 -24.943  1.00  0.00     0.293 HD
ENDBRANCH  17  20
ENDBRANCH   1  12
BRANCH   2  22
ATOM     22  O   UNL     1       6.877   9.522 -22.506  1.00  0.00    -0.502 OA
ATOM     23  H   UNL     1       7.723   9.085 -22.163  1.00  0.00     0.293 HD
ENDBRANCH   2  22
BRANCH   6  24
ATOM     24  O   UNL     1       3.852   5.229 -21.616  1.00  0.00    -0.507 OA
ATOM     25  H   UNL     1       3.517   5.684 -20.780  1.00  0.00     0.293 HD
ENDBRANCH   6  24
BRANCH   8  26
ATOM     26  O   UNL     1       1.691   4.798 -25.863  1.00  0.00    -0.508 OA
ATOM     27  H   UNL     1       0.748   4.576 -25.567  1.00  0.00     0.293 HD
ENDBRANCH   8  26
TORSDOF 6
ENDMDL
MODEL 7
REMARK VINA RESULT:    -6.615      1.809      7.113
REMARK INTER + INTRA:          -8.286
REMARK INTER:                  -8.007
REMARK INTRA:                  -0.279
REMARK UNBOUND:                -0.318
REMARK SMILES O=c1c(O)c(-c2ccc(O)c(O)c2)oc2cc(O)cc(O)c12
REMARK SMILES IDX 5 1 3 2 2 3 1 4 22 5 20 6 19 7 17 8 16 9 15 10 14 11 6 12
REMARK SMILES IDX 7 13 8 14 9 15 13 16 11 17 10 18 12 20 4 22 21 24 18 26
REMARK H PARENT 10 19 12 21 4 23 21 25 18 27
REMARK Flexibility Score: inf
ROOT
ATOM      1  C   UNL     1       4.307  -0.516 -22.632  1.00  0.00     0.180 A 
ATOM      2  C   UNL     1       4.469   0.343 -21.531  1.00  0.00     0.208 A 
ATOM      3  C   UNL     1       4.664   1.714 -21.760  1.00  0.00     0.238 A 
ATOM      4  O   UNL     1       4.754   2.486 -20.769  1.00  0.00    -0.285 OA
ATOM      5  C   UNL     1       4.709   2.209 -23.086  1.00  0.00     0.111 A 
ATOM      6  C   UNL     1       4.940   3.573 -23.436  1.00  0.00     0.134 A 
ATOM      7  C   UNL     1       4.834   3.971 -24.774  1.00  0.00     0.093 A 
ATOM      8  C   UNL     1       4.570   3.044 -25.781  1.00  0.00     0.123 A 
ATOM      9  C   UNL     1       4.401   1.697 -25.459  1.00  0.00     0.094 A 
ATOM     10  C   UNL     1       4.465   1.275 -24.128  1.00  0.00     0.146 A 
ATOM     11  O   UNL     1       4.288  -0.013 -23.862  1.00  0.00    -0.452 OA
ENDROOT
BRANCH   1  12
ATOM     12  C   UNL     1       4.123  -1.976 -22.472  1.00  0.00     0.025 A 
ATOM     13  C   UNL     1       5.171  -2.877 -22.728  1.00  0.00     0.016 A 
ATOM     14  C   UNL     1       4.968  -4.254 -22.593  1.00  0.00     0.051 A 
ATOM     15  C   UNL     1       3.713  -4.750 -22.216  1.00  0.00     0.157 A 
ATOM     16  C   UNL     1       2.861  -2.480 -22.115  1.00  0.00     0.062 A 
ATOM     17  C   UNL     1       2.654  -3.857 -21.980  1.00  0.00     0.158 A 
BRANCH  15  18
ATOM     18  O   UNL     1       3.515  -6.123 -22.082  1.00  0.00    -0.504 OA
ATOM     19  H   UNL     1       2.598  -6.511 -21.889  1.00  0.00     0.293 HD
ENDBRANCH  15  18
BRANCH  17  20
ATOM     20  O   UNL     1       1.392  -4.319 -21.610  1.00  0.00    -0.504 OA
ATOM     21  H   UNL     1       1.018  -5.197 -21.952  1.00  0.00     0.293 HD
ENDBRANCH  17  20
ENDBRANCH   1  12
BRANCH   2  22
ATOM     22  O   UNL     1       4.401  -0.162 -20.230  1.00  0.00    -0.502 OA
ATOM     23  H   UNL     1       4.214  -1.138 -20.034  1.00  0.00     0.293 HD
ENDBRANCH   2  22
BRANCH   6  24
ATOM     24  O   UNL     1       5.301   4.563 -22.517  1.00  0.00    -0.507 OA
ATOM     25  H   UNL     1       5.364   5.548 -22.730  1.00  0.00     0.293 HD
ENDBRANCH   6  24
BRANCH   8  26
ATOM     26  O   UNL     1       4.486   3.472 -27.105  1.00  0.00    -0.508 OA
ATOM     27  H   UNL     1       5.125   4.164 -27.480  1.00  0.00     0.293 HD
ENDBRANCH   8  26
TORSDOF 6
ENDMDL
MODEL 8
REMARK VINA RESULT:    -6.615      4.438      7.366
REMARK INTER + INTRA:          -8.286
REMARK INTER:                  -7.951
REMARK INTRA:                  -0.335
REMARK UNBOUND:                -0.318
REMARK SMILES O=c1c(O)c(-c2ccc(O)c(O)c2)oc2cc(O)cc(O)c12
REMARK SMILES IDX 5 1 3 2 2 3 1 4 22 5 20 6 19 7 17 8 16 9 15 10 14 11 6 12
REMARK SMILES IDX 7 13 8 14 9 15 13 16 11 17 10 18 12 20 4 22 21 24 18 26
REMARK H PARENT 10 19 12 21 4 23 21 25 18 27
REMARK Flexibility Score: inf
ROOT
ATOM      1  C   UNL     1       4.460   7.381 -24.229  1.00  0.00     0.180 A 
ATOM      2  C   UNL     1       4.017   6.844 -25.451  1.00  0.00     0.208 A 
ATOM      3  C   UNL     1       3.781   5.463 -25.541  1.00  0.00     0.238 A 
ATOM      4  O   UNL     1       3.333   4.996 -26.621  1.00  0.00    -0.285 OA
ATOM      5  C   UNL     1       4.004   4.634 -24.415  1.00  0.00     0.111 A 
ATOM      6  C   UNL     1       3.836   3.216 -24.406  1.00  0.00     0.134 A 
ATOM      7  C   UNL     1       3.959   2.514 -23.201  1.00  0.00     0.093 A 
ATOM      8  C   UNL     1       4.309   3.167 -22.020  1.00  0.00     0.123 A 
ATOM      9  C   UNL     1       4.534   4.544 -22.029  1.00  0.00     0.094 A 
ATOM     10  C   UNL     1       4.383   5.278 -23.208  1.00  0.00     0.146 A 
ATOM     11  O   UNL     1       4.597   6.587 -23.173  1.00  0.00    -0.452 OA
ENDROOT
BRANCH   1  12
ATOM     12  C   UNL     1       4.754   8.822 -24.063  1.00  0.00     0.025 A 
ATOM     13  C   UNL     1       6.031   9.343 -24.333  1.00  0.00     0.016 A 
ATOM     14  C   UNL     1       6.293  10.704 -24.145  1.00  0.00     0.051 A 
ATOM     15  C   UNL     1       5.289  11.559 -23.674  1.00  0.00     0.157 A 
ATOM     16  C   UNL     1       3.757   9.680 -23.569  1.00  0.00     0.062 A 
ATOM     17  C   UNL     1       4.015  11.042 -23.381  1.00  0.00     0.158 A 
BRANCH  15  18
ATOM     18  O   UNL     1       5.554  12.915 -23.489  1.00  0.00    -0.504 OA
ATOM     19  H   UNL     1       6.053  13.458 -24.184  1.00  0.00     0.293 HD
ENDBRANCH  15  18
BRANCH  17  20
ATOM     20  O   UNL     1       2.997  11.865 -22.903  1.00  0.00    -0.504 OA
ATOM     21  H   UNL     1       2.840  12.797 -23.270  1.00  0.00     0.293 HD
ENDBRANCH  17  20
ENDBRANCH   1  12
BRANCH   2  22
ATOM     22  O   UNL     1       3.783   7.682 -26.543  1.00  0.00    -0.502 OA
ATOM     23  H   UNL     1       3.660   8.683 -26.445  1.00  0.00     0.293 HD
ENDBRANCH   2  22
BRANCH   6  24
ATOM     24  O   UNL     1       3.575   2.454 -25.548  1.00  0.00    -0.507 OA
ATOM     25  H   UNL     1       3.678   2.786 -26.496  1.00  0.00     0.293 HD
ENDBRANCH   6  24
BRANCH   8  26
ATOM     26  O   UNL     1       4.438   2.435 -20.842  1.00  0.00    -0.508 OA
ATOM     27  H   UNL     1       4.535   2.890 -19.941  1.00  0.00     0.293 HD
ENDBRANCH   8  26
TORSDOF 6
ENDMDL
MODEL 9
REMARK VINA RESULT:    -6.516      5.395      8.521
REMARK INTER + INTRA:          -8.167
REMARK INTER:                  -7.851
REMARK INTRA:                  -0.316
REMARK UNBOUND:                -0.318
REMARK SMILES O=c1c(O)c(-c2ccc(O)c(O)c2)oc2cc(O)cc(O)c12
REMARK SMILES IDX 5 1 3 2 2 3 1 4 22 5 20 6 19 7 17 8 16 9 15 10 14 11 6 12
REMARK SMILES IDX 7 13 8 14 9 15 13 16 11 17 10 18 12 20 4 22 21 24 18 26
REMARK H PARENT 10 19 12 21 4 23 21 25 18 27
REMARK Flexibility Score: inf
ROOT
ATOM      1  C   UNL     1       4.645   8.315 -24.316  1.00  0.00     0.180 A 
ATOM      2  C   UNL     1       3.469   8.039 -25.035  1.00  0.00     0.208 A 
ATOM      3  C   UNL     1       2.840   6.796 -24.859  1.00  0.00     0.238 A 
ATOM      4  O   UNL     1       1.758   6.575 -25.465  1.00  0.00    -0.285 OA
ATOM      5  C   UNL     1       3.401   5.839 -23.979  1.00  0.00     0.111 A 
ATOM      6  C   UNL     1       2.870   4.534 -23.755  1.00  0.00     0.134 A 
ATOM      7  C   UNL     1       3.433   3.719 -22.765  1.00  0.00     0.093 A 
ATOM      8  C   UNL     1       4.547   4.137 -22.038  1.00  0.00     0.123 A 
ATOM      9  C   UNL     1       5.111   5.387 -22.290  1.00  0.00     0.094 A 
ATOM     10  C   UNL     1       4.550   6.237 -23.246  1.00  0.00     0.146 A 
ATOM     11  O   UNL     1       5.110   7.423 -23.448  1.00  0.00    -0.452 OA
ENDROOT
BRANCH   1  12
ATOM     12  C   UNL     1       5.379   9.592 -24.466  1.00  0.00     0.025 A 
ATOM     13  C   UNL     1       5.141  10.678 -23.606  1.00  0.00     0.016 A 
ATOM     14  C   UNL     1       5.829  11.882 -23.782  1.00  0.00     0.051 A 
ATOM     15  C   UNL     1       6.753  12.023 -24.825  1.00  0.00     0.157 A 
ATOM     16  C   UNL     1       6.291   9.745 -25.524  1.00  0.00     0.062 A 
ATOM     17  C   UNL     1       6.982  10.949 -25.702  1.00  0.00     0.158 A 
BRANCH  15  18
ATOM     18  O   UNL     1       7.438  13.225 -24.996  1.00  0.00    -0.504 OA
ATOM     19  H   UNL     1       8.400  13.335 -24.697  1.00  0.00     0.293 HD
ENDBRANCH  15  18
BRANCH  17  20
ATOM     20  O   UNL     1       7.890  11.060 -26.754  1.00  0.00    -0.504 OA
ATOM     21  H   UNL     1       8.832  10.691 -26.695  1.00  0.00     0.293 HD
ENDBRANCH  17  20
ENDBRANCH   1  12
BRANCH   2  22
ATOM     22  O   UNL     1       2.920   9.005 -25.883  1.00  0.00    -0.502 OA
ATOM     23  H   UNL     1       2.250   9.693 -25.562  1.00  0.00     0.293 HD
ENDBRANCH   2  22
BRANCH   6  24
ATOM     24  O   UNL     1       1.816   3.983 -24.490  1.00  0.00    -0.507 OA
ATOM     25  H   UNL     1       1.449   4.372 -25.347  1.00  0.00     0.293 HD
ENDBRANCH   6  24
BRANCH   8  26
ATOM     26  O   UNL     1       5.091   3.294 -21.070  1.00  0.00    -0.508 OA
ATOM     27  H   UNL     1       5.022   3.508 -20.082  1.00  0.00     0.293 HD
ENDBRANCH   8  26
TORSDOF 6
ENDMDL
