MODEL 1
REMARK VINA RESULT:    -3.957      0.000      0.000
REMARK INTER + INTRA:          -5.493
REMARK INTER:                  -5.230
REMARK INTRA:                  -0.263
REMARK UNBOUND:                -0.263
REMARK SMILES C=C[C@H](O)CCCCC
REMARK SMILES IDX 6 1 7 2 8 3 9 4 5 5 3 6 2 7 1 8 4 9
REMARK H PARENT 4 10
REMARK Flexibility Score: inf
ROOT
ATOM      1  C   UNL     1     120.350 118.271 115.004  1.00  0.00     0.003 C 
ENDROOT
BRANCH   1   2
ATOM      2  C   UNL     1     120.602 117.517 116.318  1.00  0.00    -0.000 C 
BRANCH   2   3
ATOM      3  C   UNL     1     119.302 117.054 116.992  1.00  0.00    -0.003 C 
ATOM      4  C   UNL     1     118.961 117.934 118.191  1.00  0.00     0.004 C 
ENDBRANCH   2   3
ENDBRANCH   1   2
BRANCH   1   5
ATOM      5  C   UNL     1     121.596 119.021 114.503  1.00  0.00     0.036 C 
BRANCH   5   6
ATOM      6  C   UNL     1     122.893 118.351 114.988  1.00  0.00     0.136 C 
BRANCH   6   7
ATOM      7  C   UNL     1     123.950 119.390 115.270  1.00  0.00    -0.004 C 
ATOM      8  C   UNL     1     123.657 120.694 115.325  1.00  0.00     0.007 C 
ENDBRANCH   6   7
BRANCH   6   9
ATOM      9  O   UNL     1     123.358 117.469 113.998  1.00  0.00    -0.389 OA
ATOM     10  H   UNL     1     124.343 117.409 114.107  1.00  0.00     0.211 HD
ENDBRANCH   6   9
ENDBRANCH   5   6
ENDBRANCH   1   5
TORSDOF 6
ENDMDL
MODEL 2
REMARK VINA RESULT:    -3.936     15.329     16.370
REMARK INTER + INTRA:          -5.464
REMARK INTER:                  -4.890
REMARK INTRA:                  -0.574
REMARK UNBOUND:                -0.263
REMARK SMILES C=C[C@H](O)CCCCC
REMARK SMILES IDX 6 1 7 2 8 3 9 4 5 5 3 6 2 7 1 8 4 9
REMARK H PARENT 4 10
REMARK Flexibility Score: inf
ROOT
ATOM      1  C   UNL     1     115.692 129.188 125.547  1.00  0.00     0.003 C 
ENDROOT
BRANCH   1   2
ATOM      2  C   UNL     1     114.577 129.993 126.231  1.00  0.00    -0.000 C 
BRANCH   2   3
ATOM      3  C   UNL     1     114.173 131.240 125.432  1.00  0.00    -0.003 C 
ATOM      4  C   UNL     1     114.978 131.350 124.140  1.00  0.00     0.004 C 
ENDBRANCH   2   3
ENDBRANCH   1   2
BRANCH   1   5
ATOM      5  C   UNL     1     116.952 129.062 126.419  1.00  0.00     0.036 C 
BRANCH   5   6
ATOM      6  C   UNL     1     118.223 129.432 125.633  1.00  0.00     0.136 C 
BRANCH   6   7
ATOM      7  C   UNL     1     118.419 130.928 125.624  1.00  0.00    -0.004 C 
ATOM      8  C   UNL     1     118.196 131.674 126.711  1.00  0.00     0.007 C 
ENDBRANCH   6   7
BRANCH   6   9
ATOM      9  O   UNL     1     118.103 128.969 124.313  1.00  0.00    -0.389 OA
ATOM     10  H   UNL     1     117.138 128.804 124.153  1.00  0.00     0.211 HD
ENDBRANCH   6   9
ENDBRANCH   5   6
ENDBRANCH   1   5
TORSDOF 6
ENDMDL
MODEL 3
REMARK VINA RESULT:    -3.795      2.254      4.257
REMARK INTER + INTRA:          -5.278
REMARK INTER:                  -4.883
REMARK INTRA:                  -0.395
REMARK UNBOUND:                -0.263
REMARK SMILES C=C[C@H](O)CCCCC
REMARK SMILES IDX 6 1 7 2 8 3 9 4 5 5 3 6 2 7 1 8 4 9
REMARK H PARENT 4 10
REMARK Flexibility Score: inf
ROOT
ATOM      1  C   UNL     1     120.390 118.235 114.945  1.00  0.00     0.003 C 
ENDROOT
BRANCH   1   2
ATOM      2  C   UNL     1     121.467 119.215 114.455  1.00  0.00    -0.000 C 
BRANCH   2   3
ATOM      3  C   UNL     1     122.730 119.191 115.327  1.00  0.00    -0.003 C 
ATOM      4  C   UNL     1     123.449 120.536 115.293  1.00  0.00     0.004 C 
ENDBRANCH   2   3
ENDBRANCH   1   2
BRANCH   1   5
ATOM      5  C   UNL     1     120.779 117.535 116.258  1.00  0.00     0.036 C 
BRANCH   5   6
ATOM      6  C   UNL     1     119.780 117.849 117.385  1.00  0.00     0.136 C 
BRANCH   6   7
ATOM      7  C   UNL     1     120.496 117.953 118.709  1.00  0.00    -0.004 C 
ATOM      8  C   UNL     1     121.780 118.316 118.788  1.00  0.00     0.007 C 
ENDBRANCH   6   7
BRANCH   6   9
ATOM      9  O   UNL     1     118.820 116.827 117.452  1.00  0.00    -0.389 OA
ATOM     10  H   UNL     1     119.315 115.966 117.433  1.00  0.00     0.211 HD
ENDBRANCH   6   9
ENDBRANCH   5   6
ENDBRANCH   1   5
TORSDOF 6
ENDMDL
MODEL 4
REMARK VINA RESULT:    -3.732      1.601      4.284
REMARK INTER + INTRA:          -5.195
REMARK INTER:                  -4.797
REMARK INTRA:                  -0.398
REMARK UNBOUND:                -0.263
REMARK SMILES C=C[C@H](O)CCCCC
REMARK SMILES IDX 6 1 7 2 8 3 9 4 5 5 3 6 2 7 1 8 4 9
REMARK H PARENT 4 10
REMARK Flexibility Score: inf
ROOT
ATOM      1  C   UNL     1     123.186 117.439 116.334  1.00  0.00     0.003 C 
ENDROOT
BRANCH   1   2
ATOM      2  C   UNL     1     123.171 118.874 116.882  1.00  0.00    -0.000 C 
BRANCH   2   3
ATOM      3  C   UNL     1     124.252 119.761 116.247  1.00  0.00    -0.003 C 
ATOM      4  C   UNL     1     123.645 120.728 115.235  1.00  0.00     0.004 C 
ENDBRANCH   2   3
ENDBRANCH   1   2
BRANCH   1   5
ATOM      5  C   UNL     1     122.172 117.226 115.199  1.00  0.00     0.036 C 
BRANCH   5   6
ATOM      6  C   UNL     1     120.981 118.195 115.315  1.00  0.00     0.136 C 
BRANCH   6   7
ATOM      7  C   UNL     1     119.761 117.470 115.826  1.00  0.00    -0.004 C 
ATOM      8  C   UNL     1     119.647 116.140 115.746  1.00  0.00     0.007 C 
ENDBRANCH   6   7
BRANCH   6   9
ATOM      9  O   UNL     1     120.704 118.743 114.053  1.00  0.00    -0.389 OA
ATOM     10  H   UNL     1     120.903 119.714 114.111  1.00  0.00     0.211 HD
ENDBRANCH   6   9
ENDBRANCH   5   6
ENDBRANCH   1   5
TORSDOF 6
ENDMDL
MODEL 5
REMARK VINA RESULT:    -3.730     15.983     17.653
REMARK INTER + INTRA:          -5.192
REMARK INTER:                  -4.982
REMARK INTRA:                  -0.210
REMARK UNBOUND:                -0.263
REMARK SMILES C=C[C@H](O)CCCCC
REMARK SMILES IDX 6 1 7 2 8 3 9 4 5 5 3 6 2 7 1 8 4 9
REMARK H PARENT 4 10
REMARK Flexibility Score: inf
ROOT
ATOM      1  C   UNL     1     109.982 116.084 127.598  1.00  0.00     0.003 C 
ENDROOT
BRANCH   1   2
ATOM      2  C   UNL     1     109.504 117.334 126.843  1.00  0.00    -0.000 C 
BRANCH   2   3
ATOM      3  C   UNL     1     109.496 117.138 125.320  1.00  0.00    -0.003 C 
ATOM      4  C   UNL     1     109.907 115.717 124.946  1.00  0.00     0.004 C 
ENDBRANCH   2   3
ENDBRANCH   1   2
BRANCH   1   5
ATOM      5  C   UNL     1     109.537 116.075 129.069  1.00  0.00     0.036 C 
BRANCH   5   6
ATOM      6  C   UNL     1     110.601 116.703 129.986  1.00  0.00     0.136 C 
BRANCH   6   7
ATOM      7  C   UNL     1     111.344 115.630 130.743  1.00  0.00    -0.004 C 
ATOM      8  C   UNL     1     112.561 115.220 130.369  1.00  0.00     0.007 C 
ENDBRANCH   6   7
BRANCH   6   9
ATOM      9  O   UNL     1     109.975 117.569 130.898  1.00  0.00    -0.389 OA
ATOM     10  H   UNL     1     110.113 117.182 131.802  1.00  0.00     0.211 HD
ENDBRANCH   6   9
ENDBRANCH   5   6
ENDBRANCH   1   5
TORSDOF 6
ENDMDL
MODEL 6
REMARK VINA RESULT:    -3.665     15.859     17.079
REMARK INTER + INTRA:          -5.107
REMARK INTER:                  -4.476
REMARK INTRA:                  -0.631
REMARK UNBOUND:                -0.263
REMARK SMILES C=C[C@H](O)CCCCC
REMARK SMILES IDX 6 1 7 2 8 3 9 4 5 5 3 6 2 7 1 8 4 9
REMARK H PARENT 4 10
REMARK Flexibility Score: inf
ROOT
ATOM      1  C   UNL     1     109.830 116.496 127.229  1.00  0.00     0.003 C 
ENDROOT
BRANCH   1   2
ATOM      2  C   UNL     1     109.376 115.912 128.576  1.00  0.00    -0.000 C 
BRANCH   2   3
ATOM      3  C   UNL     1     110.479 115.960 129.643  1.00  0.00    -0.003 C 
ATOM      4  C   UNL     1     110.224 117.080 130.647  1.00  0.00     0.004 C 
ENDBRANCH   2   3
ENDBRANCH   1   2
BRANCH   1   5
ATOM      5  C   UNL     1     109.090 117.793 126.865  1.00  0.00     0.036 C 
BRANCH   5   6
ATOM      6  C   UNL     1     109.993 119.027 127.037  1.00  0.00     0.136 C 
BRANCH   6   7
ATOM      7  C   UNL     1     111.439 118.610 127.148  1.00  0.00    -0.004 C 
ATOM      8  C   UNL     1     112.248 119.119 128.084  1.00  0.00     0.007 C 
ENDBRANCH   6   7
BRANCH   6   9
ATOM      9  O   UNL     1     109.616 119.720 128.199  1.00  0.00    -0.389 OA
ATOM     10  H   UNL     1     110.263 120.465 128.311  1.00  0.00     0.211 HD
ENDBRANCH   6   9
ENDBRANCH   5   6
ENDBRANCH   1   5
TORSDOF 6
ENDMDL
MODEL 7
REMARK VINA RESULT:    -3.630     14.473     15.717
REMARK INTER + INTRA:          -5.060
REMARK INTER:                  -4.818
REMARK INTRA:                  -0.242
REMARK UNBOUND:                -0.263
REMARK SMILES C=C[C@H](O)CCCCC
REMARK SMILES IDX 6 1 7 2 8 3 9 4 5 5 3 6 2 7 1 8 4 9
REMARK H PARENT 4 10
REMARK Flexibility Score: inf
ROOT
ATOM      1  C   UNL     1     116.578 129.097 126.019  1.00  0.00     0.003 C 
ENDROOT
BRANCH   1   2
ATOM      2  C   UNL     1     117.948 128.598 125.534  1.00  0.00    -0.000 C 
BRANCH   2   3
ATOM      3  C   UNL     1     118.902 129.746 125.176  1.00  0.00    -0.003 C 
ATOM      4  C   UNL     1     118.693 130.943 126.098  1.00  0.00     0.004 C 
ENDBRANCH   2   3
ENDBRANCH   1   2
BRANCH   1   5
ATOM      5  C   UNL     1     115.609 127.948 126.343  1.00  0.00     0.036 C 
BRANCH   5   6
ATOM      6  C   UNL     1     116.361 126.688 126.807  1.00  0.00     0.136 C 
BRANCH   6   7
ATOM      7  C   UNL     1     115.719 125.450 126.231  1.00  0.00    -0.004 C 
ATOM      8  C   UNL     1     114.422 125.181 126.411  1.00  0.00     0.007 C 
ENDBRANCH   6   7
BRANCH   6   9
ATOM      9  O   UNL     1     116.330 126.620 128.210  1.00  0.00    -0.389 OA
ATOM     10  H   UNL     1     116.456 127.545 128.545  1.00  0.00     0.211 HD
ENDBRANCH   6   9
ENDBRANCH   5   6
ENDBRANCH   1   5
TORSDOF 6
ENDMDL
MODEL 8
REMARK VINA RESULT:    -3.588      1.808      4.198
REMARK INTER + INTRA:          -5.004
REMARK INTER:                  -4.590
REMARK INTRA:                  -0.414
REMARK UNBOUND:                -0.263
REMARK SMILES C=C[C@H](O)CCCCC
REMARK SMILES IDX 6 1 7 2 8 3 9 4 5 5 3 6 2 7 1 8 4 9
REMARK H PARENT 4 10
REMARK Flexibility Score: inf
ROOT
ATOM      1  C   UNL     1     122.495 118.721 114.903  1.00  0.00     0.003 C 
ENDROOT
BRANCH   1   2
ATOM      2  C   UNL     1     123.102 120.123 115.062  1.00  0.00    -0.000 C 
BRANCH   2   3
ATOM      3  C   UNL     1     124.239 120.161 116.094  1.00  0.00    -0.003 C 
ATOM      4  C   UNL     1     125.006 118.843 116.116  1.00  0.00     0.004 C 
ENDBRANCH   2   3
ENDBRANCH   1   2
BRANCH   1   5
ATOM      5  C   UNL     1     120.975 118.756 114.674  1.00  0.00     0.036 C 
BRANCH   5   6
ATOM      6  C   UNL     1     120.210 118.134 115.856  1.00  0.00     0.136 C 
BRANCH   6   7
ATOM      7  C   UNL     1     121.176 117.610 116.890  1.00  0.00    -0.004 C 
ATOM      8  C   UNL     1     121.026 117.878 118.191  1.00  0.00     0.007 C 
ENDBRANCH   6   7
BRANCH   6   9
ATOM      9  O   UNL     1     119.410 117.079 115.387  1.00  0.00    -0.389 OA
ATOM     10  H   UNL     1     118.560 117.115 115.899  1.00  0.00     0.211 HD
ENDBRANCH   6   9
ENDBRANCH   5   6
ENDBRANCH   1   5
TORSDOF 6
ENDMDL
MODEL 9
REMARK VINA RESULT:    -3.565     15.229     16.607
REMARK INTER + INTRA:          -4.974
REMARK INTER:                  -4.376
REMARK INTRA:                  -0.598
REMARK UNBOUND:                -0.263
REMARK SMILES C=C[C@H](O)CCCCC
REMARK SMILES IDX 6 1 7 2 8 3 9 4 5 5 3 6 2 7 1 8 4 9
REMARK H PARENT 4 10
REMARK Flexibility Score: inf
ROOT
ATOM      1  C   UNL     1     109.234 118.630 125.651  1.00  0.00     0.003 C 
ENDROOT
BRANCH   1   2
ATOM      2  C   UNL     1     110.184 117.696 124.885  1.00  0.00    -0.000 C 
BRANCH   2   3
ATOM      3  C   UNL     1     109.544 116.339 124.559  1.00  0.00    -0.003 C 
ATOM      4  C   UNL     1     110.363 115.191 125.142  1.00  0.00     0.004 C 
ENDBRANCH   2   3
ENDBRANCH   1   2
BRANCH   1   5
ATOM      5  C   UNL     1     109.094 118.245 127.133  1.00  0.00     0.036 C 
BRANCH   5   6
ATOM      6  C   UNL     1     110.465 117.993 127.785  1.00  0.00     0.136 C 
BRANCH   6   7
ATOM      7  C   UNL     1     110.396 116.805 128.713  1.00  0.00    -0.004 C 
ATOM      8  C   UNL     1     109.378 115.940 128.674  1.00  0.00     0.007 C 
ENDBRANCH   6   7
BRANCH   6   9
ATOM      9  O   UNL     1     110.849 119.131 128.512  1.00  0.00    -0.389 OA
ATOM     10  H   UNL     1     110.631 118.951 129.464  1.00  0.00     0.211 HD
ENDBRANCH   6   9
ENDBRANCH   5   6
ENDBRANCH   1   5
TORSDOF 6
ENDMDL
