MODEL 1
REMARK VINA RESULT:    -3.614      0.000      0.000
REMARK INTER + INTRA:          -5.625
REMARK INTER:                  -5.304
REMARK INTRA:                  -0.321
REMARK UNBOUND:                -0.321
REMARK SMILES O=C([O-])CCCCCCCC(=O)[O-]
REMARK SMILES IDX 7 1 6 2 5 3 4 4 2 5 1 6 3 7 8 8 9 9 10 10 11 11 12 12 13 13
REMARK H PARENT
REMARK Flexibility Score: inf
ROOT
ATOM      1  C   UNL     1      56.769  28.175  50.555  1.00  0.00     0.000 C 
ENDROOT
BRANCH   1   2
ATOM      2  C   UNL     1      57.930  29.181  50.461  1.00  0.00     0.000 C 
BRANCH   2   3
ATOM      3  C   UNL     1      58.812  28.951  49.224  1.00  0.00     0.006 C 
BRANCH   3   4
ATOM      4  C   UNL     1      59.657  27.676  49.332  1.00  0.00     0.053 C 
BRANCH   4   5
ATOM      5  C   UNL     1      61.090  28.019  49.593  1.00  0.00     0.041 C 
ATOM      6  O   UNL     1      61.994  27.169  49.381  1.00  0.00    -0.550 OA
ATOM      7  O   UNL     1      61.422  29.261  50.121  1.00  0.00    -0.550 OA
ENDBRANCH   4   5
ENDBRANCH   3   4
ENDBRANCH   2   3
ENDBRANCH   1   2
BRANCH   1   8
ATOM      8  C   UNL     1      55.393  28.855  50.491  1.00  0.00     0.000 C 
BRANCH   8   9
ATOM      9  C   UNL     1      54.294  27.915  49.961  1.00  0.00     0.006 C 
BRANCH   9  10
ATOM     10  C   UNL     1      54.838  26.520  49.625  1.00  0.00     0.053 C 
BRANCH  10  11
ATOM     11  C   UNL     1      53.744  25.583  49.216  1.00  0.00     0.041 C 
ATOM     12  O   UNL     1      52.882  25.943  48.373  1.00  0.00    -0.550 OA
ATOM     13  O   UNL     1      53.657  24.322  49.794  1.00  0.00    -0.550 OA
ENDBRANCH  10  11
ENDBRANCH   9  10
ENDBRANCH   8   9
ENDBRANCH   1   8
TORSDOF 8
ENDMDL
MODEL 2
REMARK VINA RESULT:    -3.591     12.606     14.097
REMARK INTER + INTRA:          -5.591
REMARK INTER:                  -5.306
REMARK INTRA:                  -0.285
REMARK UNBOUND:                -0.321
REMARK SMILES O=C([O-])CCCCCCCC(=O)[O-]
REMARK SMILES IDX 7 1 6 2 5 3 4 4 2 5 1 6 3 7 8 8 9 9 10 10 11 11 12 12 13 13
REMARK H PARENT
REMARK Flexibility Score: inf
ROOT
ATOM      1  C   UNL     1      62.029  32.669  60.669  1.00  0.00     0.000 C 
ENDROOT
BRANCH   1   2
ATOM      2  C   UNL     1      61.517  34.062  60.262  1.00  0.00     0.000 C 
BRANCH   2   3
ATOM      3  C   UNL     1      62.394  35.197  60.812  1.00  0.00     0.006 C 
BRANCH   3   4
ATOM      4  C   UNL     1      63.869  34.795  60.936  1.00  0.00     0.053 C 
BRANCH   4   5
ATOM      5  C   UNL     1      64.679  35.934  61.469  1.00  0.00     0.041 C 
ATOM      6  O   UNL     1      64.108  36.928  61.990  1.00  0.00    -0.550 OA
ATOM      7  O   UNL     1      66.063  35.922  61.343  1.00  0.00    -0.550 OA
ENDBRANCH   4   5
ENDBRANCH   3   4
ENDBRANCH   2   3
ENDBRANCH   1   2
BRANCH   1   8
ATOM      8  C   UNL     1      60.937  31.591  60.584  1.00  0.00     0.000 C 
BRANCH   8   9
ATOM      9  C   UNL     1      60.997  30.595  61.756  1.00  0.00     0.006 C 
BRANCH   9  10
ATOM     10  C   UNL     1      62.337  29.850  61.814  1.00  0.00     0.053 C 
BRANCH  10  11
ATOM     11  C   UNL     1      62.197  28.425  61.373  1.00  0.00     0.041 C 
ATOM     12  O   UNL     1      61.063  27.953  61.105  1.00  0.00    -0.550 OA
ATOM     13  O   UNL     1      63.320  27.610  61.294  1.00  0.00    -0.550 OA
ENDBRANCH  10  11
ENDBRANCH   9  10
ENDBRANCH   8   9
ENDBRANCH   1   8
TORSDOF 8
ENDMDL
MODEL 3
REMARK VINA RESULT:    -3.540      1.373      5.939
REMARK INTER + INTRA:          -5.516
REMARK INTER:                  -4.938
REMARK INTRA:                  -0.578
REMARK UNBOUND:                -0.321
REMARK SMILES O=C([O-])CCCCCCCC(=O)[O-]
REMARK SMILES IDX 7 1 6 2 5 3 4 4 2 5 1 6 3 7 8 8 9 9 10 10 11 11 12 12 13 13
REMARK H PARENT
REMARK Flexibility Score: inf
ROOT
ATOM      1  C   UNL     1      58.358  28.933  51.172  1.00  0.00     0.000 C 
ENDROOT
BRANCH   1   2
ATOM      2  C   UNL     1      56.873  28.835  51.563  1.00  0.00     0.000 C 
BRANCH   2   3
ATOM      3  C   UNL     1      55.975  28.447  50.379  1.00  0.00     0.006 C 
BRANCH   3   4
ATOM      4  C   UNL     1      55.712  26.937  50.309  1.00  0.00     0.053 C 
BRANCH   4   5
ATOM      5  C   UNL     1      54.430  26.662  49.588  1.00  0.00     0.041 C 
ATOM      6  O   UNL     1      53.560  27.565  49.475  1.00  0.00    -0.550 OA
ATOM      7  O   UNL     1      54.174  25.393  49.084  1.00  0.00    -0.550 OA
ENDBRANCH   4   5
ENDBRANCH   3   4
ENDBRANCH   2   3
ENDBRANCH   1   2
BRANCH   1   8
ATOM      8  C   UNL     1      58.558  29.177  49.668  1.00  0.00     0.000 C 
BRANCH   8   9
ATOM      9  C   UNL     1      59.614  28.242  49.052  1.00  0.00     0.006 C 
BRANCH   9  10
ATOM     10  C   UNL     1      59.384  26.775  49.439  1.00  0.00     0.053 C 
BRANCH  10  11
ATOM     11  C   UNL     1      60.670  26.079  49.763  1.00  0.00     0.041 C 
ATOM     12  O   UNL     1      61.762  26.700  49.694  1.00  0.00    -0.550 OA
ATOM     13  O   UNL     1      60.664  24.733  50.106  1.00  0.00    -0.550 OA
ENDBRANCH  10  11
ENDBRANCH   9  10
ENDBRANCH   8   9
ENDBRANCH   1   8
TORSDOF 8
ENDMDL
MODEL 4
REMARK VINA RESULT:    -3.487     12.691     14.582
REMARK INTER + INTRA:          -5.439
REMARK INTER:                  -4.913
REMARK INTRA:                  -0.526
REMARK UNBOUND:                -0.321
REMARK SMILES O=C([O-])CCCCCCCC(=O)[O-]
REMARK SMILES IDX 7 1 6 2 5 3 4 4 2 5 1 6 3 7 8 8 9 9 10 10 11 11 12 12 13 13
REMARK H PARENT
REMARK Flexibility Score: inf
ROOT
ATOM      1  C   UNL     1      61.842  31.839  59.803  1.00  0.00     0.000 C 
ENDROOT
BRANCH   1   2
ATOM      2  C   UNL     1      61.055  31.308  61.014  1.00  0.00     0.000 C 
BRANCH   2   3
ATOM      3  C   UNL     1      61.820  30.223  61.787  1.00  0.00     0.006 C 
BRANCH   3   4
ATOM      4  C   UNL     1      63.328  30.251  61.504  1.00  0.00     0.053 C 
BRANCH   4   5
ATOM      5  C   UNL     1      63.817  28.883  61.147  1.00  0.00     0.041 C 
ATOM      6  O   UNL     1      63.094  27.875  61.361  1.00  0.00    -0.550 OA
ATOM      7  O   UNL     1      65.094  28.716  60.625  1.00  0.00    -0.550 OA
ENDBRANCH   4   5
ENDBRANCH   3   4
ENDBRANCH   2   3
ENDBRANCH   1   2
BRANCH   1   8
ATOM      8  C   UNL     1      61.514  33.305  59.482  1.00  0.00     0.000 C 
BRANCH   8   9
ATOM      9  C   UNL     1      61.973  34.270  60.591  1.00  0.00     0.006 C 
BRANCH   9  10
ATOM     10  C   UNL     1      63.494  34.245  60.785  1.00  0.00     0.053 C 
BRANCH  10  11
ATOM     11  C   UNL     1      63.994  35.515  61.404  1.00  0.00     0.041 C 
ATOM     12  O   UNL     1      65.152  35.569  61.891  1.00  0.00    -0.550 OA
ATOM     13  O   UNL     1      63.164  36.627  61.472  1.00  0.00    -0.550 OA
ENDBRANCH  10  11
ENDBRANCH   9  10
ENDBRANCH   8   9
ENDBRANCH   1   8
TORSDOF 8
ENDMDL
MODEL 5
REMARK VINA RESULT:    -3.472     11.860     13.614
REMARK INTER + INTRA:          -5.417
REMARK INTER:                  -4.751
REMARK INTRA:                  -0.666
REMARK UNBOUND:                -0.321
REMARK SMILES O=C([O-])CCCCCCCC(=O)[O-]
REMARK SMILES IDX 7 1 6 2 5 3 4 4 2 5 1 6 3 7 8 8 9 9 10 10 11 11 12 12 13 13
REMARK H PARENT
REMARK Flexibility Score: inf
ROOT
ATOM      1  C   UNL     1      64.341  31.294  60.910  1.00  0.00     0.000 C 
ENDROOT
BRANCH   1   2
ATOM      2  C   UNL     1      64.234  32.570  60.056  1.00  0.00     0.000 C 
BRANCH   2   3
ATOM      3  C   UNL     1      63.885  33.811  60.890  1.00  0.00     0.006 C 
BRANCH   3   4
ATOM      4  C   UNL     1      62.480  34.348  60.587  1.00  0.00     0.053 C 
BRANCH   4   5
ATOM      5  C   UNL     1      62.366  35.780  61.004  1.00  0.00     0.041 C 
ATOM      6  O   UNL     1      63.353  36.371  61.518  1.00  0.00    -0.550 OA
ATOM      7  O   UNL     1      61.155  36.449  60.874  1.00  0.00    -0.550 OA
ENDBRANCH   4   5
ENDBRANCH   3   4
ENDBRANCH   2   3
ENDBRANCH   1   2
BRANCH   1   8
ATOM      8  C   UNL     1      63.236  30.275  60.588  1.00  0.00     0.000 C 
BRANCH   8   9
ATOM      9  C   UNL     1      62.204  30.144  61.723  1.00  0.00     0.006 C 
BRANCH   9  10
ATOM     10  C   UNL     1      60.959  31.006  61.474  1.00  0.00     0.053 C 
BRANCH  10  11
ATOM     11  C   UNL     1      60.419  30.813  60.091  1.00  0.00     0.041 C 
ATOM     12  O   UNL     1      60.403  31.772  59.277  1.00  0.00    -0.550 OA
ATOM     13  O   UNL     1      59.901  29.580  59.714  1.00  0.00    -0.550 OA
ENDBRANCH  10  11
ENDBRANCH   9  10
ENDBRANCH   8   9
ENDBRANCH   1   8
TORSDOF 8
ENDMDL
MODEL 6
REMARK VINA RESULT:    -3.465     12.535     13.984
REMARK INTER + INTRA:          -5.407
REMARK INTER:                  -4.909
REMARK INTRA:                  -0.497
REMARK UNBOUND:                -0.321
REMARK SMILES O=C([O-])CCCCCCCC(=O)[O-]
REMARK SMILES IDX 7 1 6 2 5 3 4 4 2 5 1 6 3 7 8 8 9 9 10 10 11 11 12 12 13 13
REMARK H PARENT
REMARK Flexibility Score: inf
ROOT
ATOM      1  C   UNL     1      61.176  33.512  58.994  1.00  0.00     0.000 C 
ENDROOT
BRANCH   1   2
ATOM      2  C   UNL     1      61.233  34.535  60.142  1.00  0.00     0.000 C 
BRANCH   2   3
ATOM      3  C   UNL     1      62.359  35.565  59.961  1.00  0.00     0.006 C 
BRANCH   3   4
ATOM      4  C   UNL     1      63.083  35.883  61.275  1.00  0.00     0.053 C 
BRANCH   4   5
ATOM      5  C   UNL     1      64.399  35.175  61.332  1.00  0.00     0.041 C 
ATOM      6  O   UNL     1      65.425  35.775  61.747  1.00  0.00    -0.550 OA
ATOM      7  O   UNL     1      64.505  33.866  60.877  1.00  0.00    -0.550 OA
ENDBRANCH   4   5
ENDBRANCH   3   4
ENDBRANCH   2   3
ENDBRANCH   1   2
BRANCH   1   8
ATOM      8  C   UNL     1      61.438  32.075  59.470  1.00  0.00     0.000 C 
BRANCH   8   9
ATOM      9  C   UNL     1      61.586  31.976  60.999  1.00  0.00     0.006 C 
BRANCH   9  10
ATOM     10  C   UNL     1      61.215  30.585  61.528  1.00  0.00     0.053 C 
BRANCH  10  11
ATOM     11  C   UNL     1      62.424  29.717  61.698  1.00  0.00     0.041 C 
ATOM     12  O   UNL     1      63.571  30.230  61.747  1.00  0.00    -0.550 OA
ATOM     13  O   UNL     1      62.283  28.336  61.766  1.00  0.00    -0.550 OA
ENDBRANCH  10  11
ENDBRANCH   9  10
ENDBRANCH   8   9
ENDBRANCH   1   8
TORSDOF 8
ENDMDL
MODEL 7
REMARK VINA RESULT:    -3.440      1.085      6.148
REMARK INTER + INTRA:          -5.370
REMARK INTER:                  -4.906
REMARK INTRA:                  -0.464
REMARK UNBOUND:                -0.321
REMARK SMILES O=C([O-])CCCCCCCC(=O)[O-]
REMARK SMILES IDX 7 1 6 2 5 3 4 4 2 5 1 6 3 7 8 8 9 9 10 10 11 11 12 12 13 13
REMARK H PARENT
REMARK Flexibility Score: inf
ROOT
ATOM      1  C   UNL     1      55.840  28.491  51.286  1.00  0.00     0.000 C 
ENDROOT
BRANCH   1   2
ATOM      2  C   UNL     1      54.666  29.141  50.534  1.00  0.00     0.000 C 
BRANCH   2   3
ATOM      3  C   UNL     1      53.826  28.118  49.753  1.00  0.00     0.006 C 
BRANCH   3   4
ATOM      4  C   UNL     1      53.324  26.970  50.638  1.00  0.00     0.053 C 
BRANCH   4   5
ATOM      5  C   UNL     1      53.770  25.652  50.086  1.00  0.00     0.041 C 
ATOM      6  O   UNL     1      53.491  24.584  50.693  1.00  0.00    -0.550 OA
ATOM      7  O   UNL     1      54.538  25.606  48.930  1.00  0.00    -0.550 OA
ENDBRANCH   4   5
ENDBRANCH   3   4
ENDBRANCH   2   3
ENDBRANCH   1   2
BRANCH   1   8
ATOM      8  C   UNL     1      56.996  28.101  50.352  1.00  0.00     0.000 C 
BRANCH   8   9
ATOM      9  C   UNL     1      57.997  29.251  50.138  1.00  0.00     0.006 C 
BRANCH   9  10
ATOM     10  C   UNL     1      59.069  28.899  49.098  1.00  0.00     0.053 C 
BRANCH  10  11
ATOM     11  C   UNL     1      60.036  27.882  49.620  1.00  0.00     0.041 C 
ATOM     12  O   UNL     1      59.989  26.694  49.211  1.00  0.00    -0.550 OA
ATOM     13  O   UNL     1      60.967  28.242  50.587  1.00  0.00    -0.550 OA
ENDBRANCH  10  11
ENDBRANCH   9  10
ENDBRANCH   8   9
ENDBRANCH   1   8
TORSDOF 8
ENDMDL
MODEL 8
REMARK VINA RESULT:    -3.381     12.610     14.748
REMARK INTER + INTRA:          -5.284
REMARK INTER:                  -4.676
REMARK INTRA:                  -0.608
REMARK UNBOUND:                -0.321
REMARK SMILES O=C([O-])CCCCCCCC(=O)[O-]
REMARK SMILES IDX 7 1 6 2 5 3 4 4 2 5 1 6 3 7 8 8 9 9 10 10 11 11 12 12 13 13
REMARK H PARENT
REMARK Flexibility Score: inf
ROOT
ATOM      1  C   UNL     1      61.602  34.321  59.183  1.00  0.00     0.000 C 
ENDROOT
BRANCH   1   2
ATOM      2  C   UNL     1      61.142  32.854  59.270  1.00  0.00     0.000 C 
BRANCH   2   3
ATOM      3  C   UNL     1      61.480  32.209  60.623  1.00  0.00     0.006 C 
BRANCH   3   4
ATOM      4  C   UNL     1      62.861  31.541  60.628  1.00  0.00     0.053 C 
BRANCH   4   5
ATOM      5  C   UNL     1      62.823  30.270  61.417  1.00  0.00     0.041 C 
ATOM      6  O   UNL     1      61.777  29.937  62.034  1.00  0.00    -0.550 OA
ATOM      7  O   UNL     1      63.960  29.478  61.514  1.00  0.00    -0.550 OA
ENDBRANCH   4   5
ENDBRANCH   3   4
ENDBRANCH   2   3
ENDBRANCH   1   2
BRANCH   1   8
ATOM      8  C   UNL     1      61.372  35.090  60.493  1.00  0.00     0.000 C 
BRANCH   8   9
ATOM      9  C   UNL     1      62.604  35.908  60.922  1.00  0.00     0.006 C 
BRANCH   9  10
ATOM     10  C   UNL     1      63.793  35.013  61.291  1.00  0.00     0.053 C 
BRANCH  10  11
ATOM     11  C   UNL     1      65.019  35.368  60.508  1.00  0.00     0.041 C 
ATOM     12  O   UNL     1      65.125  35.021  59.303  1.00  0.00    -0.550 OA
ATOM     13  O   UNL     1      66.060  36.054  61.121  1.00  0.00    -0.550 OA
ENDBRANCH  10  11
ENDBRANCH   9  10
ENDBRANCH   8   9
ENDBRANCH   1   8
TORSDOF 8
ENDMDL
MODEL 9
REMARK VINA RESULT:    -3.370     12.146     13.977
REMARK INTER + INTRA:          -5.268
REMARK INTER:                  -4.670
REMARK INTRA:                  -0.598
REMARK UNBOUND:                -0.321
REMARK SMILES O=C([O-])CCCCCCCC(=O)[O-]
REMARK SMILES IDX 7 1 6 2 5 3 4 4 2 5 1 6 3 7 8 8 9 9 10 10 11 11 12 12 13 13
REMARK H PARENT
REMARK Flexibility Score: inf
ROOT
ATOM      1  C   UNL     1      60.749  31.475  60.124  1.00  0.00     0.000 C 
ENDROOT
BRANCH   1   2
ATOM      2  C   UNL     1      61.756  32.471  59.523  1.00  0.00     0.000 C 
BRANCH   2   3
ATOM      3  C   UNL     1      62.342  33.426  60.575  1.00  0.00     0.006 C 
BRANCH   3   4
ATOM      4  C   UNL     1      61.709  34.822  60.520  1.00  0.00     0.053 C 
BRANCH   4   5
ATOM      5  C   UNL     1      62.654  35.846  61.067  1.00  0.00     0.041 C 
ATOM      6  O   UNL     1      63.861  35.550  61.271  1.00  0.00    -0.550 OA
ATOM      7  O   UNL     1      62.190  37.112  61.402  1.00  0.00    -0.550 OA
ENDBRANCH   4   5
ENDBRANCH   3   4
ENDBRANCH   2   3
ENDBRANCH   1   2
BRANCH   1   8
ATOM      8  C   UNL     1      61.146  31.014  61.536  1.00  0.00     0.000 C 
BRANCH   8   9
ATOM      9  C   UNL     1      61.995  29.730  61.522  1.00  0.00     0.006 C 
BRANCH   9  10
ATOM     10  C   UNL     1      63.492  30.023  61.680  1.00  0.00     0.053 C 
BRANCH  10  11
ATOM     11  C   UNL     1      64.209  29.967  60.366  1.00  0.00     0.041 C 
ATOM     12  O   UNL     1      65.284  30.599  60.203  1.00  0.00    -0.550 OA
ATOM     13  O   UNL     1      63.670  29.241  59.311  1.00  0.00    -0.550 OA
ENDBRANCH  10  11
ENDBRANCH   9  10
ENDBRANCH   8   9
ENDBRANCH   1   8
TORSDOF 8
ENDMDL
