MODEL 1
REMARK VINA RESULT:    -3.694      0.000      0.000
REMARK INTER + INTRA:          -5.376
REMARK INTER:                  -4.990
REMARK INTRA:                  -0.387
REMARK UNBOUND:                -0.387
REMARK SMILES CCCCCCCC(=O)[O-]
REMARK SMILES IDX 5 1 6 2 7 3 8 4 9 5 10 6 4 7 3 8 2 9 1 10
REMARK H PARENT
REMARK Flexibility Score: inf
ROOT
ATOM      1  C   UNL     1       1.782   3.033   7.302  1.00  0.00     0.000 C 
ENDROOT
BRANCH   1   2
ATOM      2  C   UNL     1       0.681   3.311   6.259  1.00  0.00     0.006 C 
BRANCH   2   3
ATOM      3  C   UNL     1      -0.673   2.660   6.577  1.00  0.00     0.053 C 
BRANCH   3   4
ATOM      4  C   UNL     1      -1.597   2.689   5.398  1.00  0.00     0.041 C 
ATOM      5  O   UNL     1      -2.745   2.176   5.479  1.00  0.00    -0.550 OA
ATOM      6  O   UNL     1      -1.178   3.253   4.201  1.00  0.00    -0.550 OA
ENDBRANCH   3   4
ENDBRANCH   2   3
ENDBRANCH   1   2
BRANCH   1   7
ATOM      7  C   UNL     1       3.195   2.813   6.722  1.00  0.00     0.000 C 
BRANCH   7   8
ATOM      8  C   UNL     1       3.654   1.344   6.666  1.00  0.00    -0.000 C 
BRANCH   8   9
ATOM      9  C   UNL     1       2.645   0.380   7.306  1.00  0.00    -0.003 C 
ATOM     10  C   UNL     1       2.060  -0.571   6.266  1.00  0.00     0.004 C 
ENDBRANCH   8   9
ENDBRANCH   7   8
ENDBRANCH   1   7
TORSDOF 6
ENDMDL
MODEL 2
REMARK VINA RESULT:    -3.666      2.785      4.772
REMARK INTER + INTRA:          -5.339
REMARK INTER:                  -5.008
REMARK INTRA:                  -0.331
REMARK UNBOUND:                -0.387
REMARK SMILES CCCCCCCC(=O)[O-]
REMARK SMILES IDX 5 1 6 2 7 3 8 4 9 5 10 6 4 7 3 8 2 9 1 10
REMARK H PARENT
REMARK Flexibility Score: inf
ROOT
ATOM      1  C   UNL     1       0.412   3.522   6.893  1.00  0.00     0.000 C 
ENDROOT
BRANCH   1   2
ATOM      2  C   UNL     1       1.723   2.724   6.742  1.00  0.00     0.006 C 
BRANCH   2   3
ATOM      3  C   UNL     1       1.577   1.213   6.982  1.00  0.00     0.053 C 
BRANCH   3   4
ATOM      4  C   UNL     1       2.690   0.437   6.347  1.00  0.00     0.041 C 
ATOM      5  O   UNL     1       3.866   0.885   6.361  1.00  0.00    -0.550 OA
ATOM      6  O   UNL     1       2.420  -0.768   5.710  1.00  0.00    -0.550 OA
ENDBRANCH   3   4
ENDBRANCH   2   3
ENDBRANCH   1   2
BRANCH   1   7
ATOM      7  C   UNL     1      -0.016   4.321   5.645  1.00  0.00     0.000 C 
BRANCH   7   8
ATOM      8  C   UNL     1      -1.089   3.644   4.774  1.00  0.00    -0.000 C 
BRANCH   8   9
ATOM      9  C   UNL     1      -1.859   2.547   5.523  1.00  0.00    -0.003 C 
ATOM     10  C   UNL     1      -3.261   3.019   5.897  1.00  0.00     0.004 C 
ENDBRANCH   8   9
ENDBRANCH   7   8
ENDBRANCH   1   7
TORSDOF 6
ENDMDL
MODEL 3
REMARK VINA RESULT:    -3.615      1.111      1.908
REMARK INTER + INTRA:          -5.269
REMARK INTER:                  -4.980
REMARK INTRA:                  -0.290
REMARK UNBOUND:                -0.387
REMARK SMILES CCCCCCCC(=O)[O-]
REMARK SMILES IDX 5 1 6 2 7 3 8 4 9 5 10 6 4 7 3 8 2 9 1 10
REMARK H PARENT
REMARK Flexibility Score: inf
ROOT
ATOM      1  C   UNL     1       1.035   1.544   7.303  1.00  0.00     0.000 C 
ENDROOT
BRANCH   1   2
ATOM      2  C   UNL     1       0.612   2.784   6.489  1.00  0.00     0.006 C 
BRANCH   2   3
ATOM      3  C   UNL     1      -0.886   3.113   6.567  1.00  0.00     0.053 C 
BRANCH   3   4
ATOM      4  C   UNL     1      -1.591   2.819   5.278  1.00  0.00     0.041 C 
ATOM      5  O   UNL     1      -2.613   2.084   5.266  1.00  0.00    -0.550 OA
ATOM      6  O   UNL     1      -1.098   3.332   4.085  1.00  0.00    -0.550 OA
ENDBRANCH   3   4
ENDBRANCH   2   3
ENDBRANCH   1   2
BRANCH   1   7
ATOM      7  C   UNL     1       2.490   1.560   7.815  1.00  0.00     0.000 C 
BRANCH   7   8
ATOM      8  C   UNL     1       3.555   1.203   6.763  1.00  0.00    -0.000 C 
BRANCH   8   9
ATOM      9  C   UNL     1       4.717   2.207   6.728  1.00  0.00    -0.003 C 
ATOM     10  C   UNL     1       4.307   3.496   6.022  1.00  0.00     0.004 C 
ENDBRANCH   8   9
ENDBRANCH   7   8
ENDBRANCH   1   7
TORSDOF 6
ENDMDL
MODEL 4
REMARK VINA RESULT:    -3.567     12.693     13.490
REMARK INTER + INTRA:          -5.205
REMARK INTER:                  -4.838
REMARK INTRA:                  -0.367
REMARK UNBOUND:                -0.387
REMARK SMILES CCCCCCCC(=O)[O-]
REMARK SMILES IDX 5 1 6 2 7 3 8 4 9 5 10 6 4 7 3 8 2 9 1 10
REMARK H PARENT
REMARK Flexibility Score: inf
ROOT
ATOM      1  C   UNL     1      -1.168  -3.668  -5.081  1.00  0.00     0.000 C 
ENDROOT
BRANCH   1   2
ATOM      2  C   UNL     1      -1.764  -4.509  -3.934  1.00  0.00     0.006 C 
BRANCH   2   3
ATOM      3  C   UNL     1      -2.882  -5.469  -4.366  1.00  0.00     0.053 C 
BRANCH   3   4
ATOM      4  C   UNL     1      -4.201  -5.101  -3.759  1.00  0.00     0.041 C 
ATOM      5  O   UNL     1      -4.716  -5.827  -2.869  1.00  0.00    -0.550 OA
ATOM      6  O   UNL     1      -4.878  -3.971  -4.201  1.00  0.00    -0.550 OA
ENDBRANCH   3   4
ENDBRANCH   2   3
ENDBRANCH   1   2
BRANCH   1   7
ATOM      7  C   UNL     1      -1.793  -2.269  -5.261  1.00  0.00     0.000 C 
BRANCH   7   8
ATOM      8  C   UNL     1      -2.812  -2.153  -6.409  1.00  0.00    -0.000 C 
BRANCH   8   9
ATOM      9  C   UNL     1      -3.919  -1.128  -6.121  1.00  0.00    -0.003 C 
ATOM     10  C   UNL     1      -3.347   0.282  -6.018  1.00  0.00     0.004 C 
ENDBRANCH   8   9
ENDBRANCH   7   8
ENDBRANCH   1   7
TORSDOF 6
ENDMDL
MODEL 5
REMARK VINA RESULT:    -3.551      1.401      1.795
REMARK INTER + INTRA:          -5.184
REMARK INTER:                  -4.927
REMARK INTRA:                  -0.256
REMARK UNBOUND:                -0.387
REMARK SMILES CCCCCCCC(=O)[O-]
REMARK SMILES IDX 5 1 6 2 7 3 8 4 9 5 10 6 4 7 3 8 2 9 1 10
REMARK H PARENT
REMARK Flexibility Score: inf
ROOT
ATOM      1  C   UNL     1       0.745   3.556   6.355  1.00  0.00     0.000 C 
ENDROOT
BRANCH   1   2
ATOM      2  C   UNL     1      -0.525   3.900   5.550  1.00  0.00     0.006 C 
BRANCH   2   3
ATOM      3  C   UNL     1      -1.445   2.702   5.276  1.00  0.00     0.053 C 
BRANCH   3   4
ATOM      4  C   UNL     1      -2.808   2.897   5.865  1.00  0.00     0.041 C 
ATOM      5  O   UNL     1      -3.035   3.868   6.633  1.00  0.00    -0.550 OA
ATOM      6  O   UNL     1      -3.820   1.985   5.592  1.00  0.00    -0.550 OA
ENDBRANCH   3   4
ENDBRANCH   2   3
ENDBRANCH   1   2
BRANCH   1   7
ATOM      7  C   UNL     1       0.924   2.061   6.691  1.00  0.00     0.000 C 
BRANCH   7   8
ATOM      8  C   UNL     1       2.282   1.691   7.313  1.00  0.00    -0.000 C 
BRANCH   8   9
ATOM      9  C   UNL     1       2.987   0.547   6.568  1.00  0.00    -0.003 C 
ATOM     10  C   UNL     1       2.010  -0.581   6.247  1.00  0.00     0.004 C 
ENDBRANCH   8   9
ENDBRANCH   7   8
ENDBRANCH   1   7
TORSDOF 6
ENDMDL
MODEL 6
REMARK VINA RESULT:    -3.454     12.483     13.671
REMARK INTER + INTRA:          -5.052
REMARK INTER:                  -4.471
REMARK INTRA:                  -0.581
REMARK UNBOUND:                -0.387
REMARK SMILES CCCCCCCC(=O)[O-]
REMARK SMILES IDX 5 1 6 2 7 3 8 4 9 5 10 6 4 7 3 8 2 9 1 10
REMARK H PARENT
REMARK Flexibility Score: inf
ROOT
ATOM      1  C   UNL     1      -3.652  -2.972  -6.630  1.00  0.00     0.000 C 
ENDROOT
BRANCH   1   2
ATOM      2  C   UNL     1      -4.958  -3.540  -6.040  1.00  0.00     0.006 C 
BRANCH   2   3
ATOM      3  C   UNL     1      -4.943  -3.714  -4.514  1.00  0.00     0.053 C 
BRANCH   3   4
ATOM      4  C   UNL     1      -4.782  -5.149  -4.116  1.00  0.00     0.041 C 
ATOM      5  O   UNL     1      -4.507  -5.450  -2.925  1.00  0.00    -0.550 OA
ATOM      6  O   UNL     1      -4.902  -6.151  -5.070  1.00  0.00    -0.550 OA
ENDBRANCH   3   4
ENDBRANCH   2   3
ENDBRANCH   1   2
BRANCH   1   7
ATOM      7  C   UNL     1      -2.949  -1.908  -5.761  1.00  0.00     0.000 C 
BRANCH   7   8
ATOM      8  C   UNL     1      -1.508  -2.255  -5.344  1.00  0.00    -0.000 C 
BRANCH   8   9
ATOM      9  C   UNL     1      -1.260  -3.769  -5.264  1.00  0.00    -0.003 C 
ATOM     10  C   UNL     1      -1.132  -4.227  -3.814  1.00  0.00     0.004 C 
ENDBRANCH   8   9
ENDBRANCH   7   8
ENDBRANCH   1   7
TORSDOF 6
ENDMDL
MODEL 7
REMARK VINA RESULT:    -3.437      3.036      5.006
REMARK INTER + INTRA:          -5.029
REMARK INTER:                  -4.680
REMARK INTRA:                  -0.349
REMARK UNBOUND:                -0.387
REMARK SMILES CCCCCCCC(=O)[O-]
REMARK SMILES IDX 5 1 6 2 7 3 8 4 9 5 10 6 4 7 3 8 2 9 1 10
REMARK H PARENT
REMARK Flexibility Score: inf
ROOT
ATOM      1  C   UNL     1       0.003   2.353   7.684  1.00  0.00     0.000 C 
ENDROOT
BRANCH   1   2
ATOM      2  C   UNL     1       1.014   1.675   6.737  1.00  0.00     0.006 C 
BRANCH   2   3
ATOM      3  C   UNL     1       2.483   2.007   7.035  1.00  0.00     0.053 C 
BRANCH   3   4
ATOM      4  C   UNL     1       3.412   0.956   6.509  1.00  0.00     0.041 C 
ATOM      5  O   UNL     1       2.953  -0.080   5.961  1.00  0.00    -0.550 OA
ATOM      6  O   UNL     1       4.785   1.107   6.655  1.00  0.00    -0.550 OA
ENDBRANCH   3   4
ENDBRANCH   2   3
ENDBRANCH   1   2
BRANCH   1   7
ATOM      7  C   UNL     1      -1.142   3.115   6.984  1.00  0.00     0.000 C 
BRANCH   7   8
ATOM      8  C   UNL     1      -1.315   2.799   5.487  1.00  0.00    -0.000 C 
BRANCH   8   9
ATOM      9  C   UNL     1      -0.943   3.982   4.582  1.00  0.00    -0.003 C 
ATOM     10  C   UNL     1      -0.393   5.146   5.400  1.00  0.00     0.004 C 
ENDBRANCH   8   9
ENDBRANCH   7   8
ENDBRANCH   1   7
TORSDOF 6
ENDMDL
MODEL 8
REMARK VINA RESULT:    -3.407     12.506     14.189
REMARK INTER + INTRA:          -4.988
REMARK INTER:                  -4.499
REMARK INTRA:                  -0.489
REMARK UNBOUND:                -0.387
REMARK SMILES CCCCCCCC(=O)[O-]
REMARK SMILES IDX 5 1 6 2 7 3 8 4 9 5 10 6 4 7 3 8 2 9 1 10
REMARK H PARENT
REMARK Flexibility Score: inf
ROOT
ATOM      1  C   UNL     1      -3.220  -0.571  -5.648  1.00  0.00     0.000 C 
ENDROOT
BRANCH   1   2
ATOM      2  C   UNL     1      -2.392  -1.784  -6.118  1.00  0.00     0.006 C 
BRANCH   2   3
ATOM      3  C   UNL     1      -2.610  -3.060  -5.290  1.00  0.00     0.053 C 
BRANCH   3   4
ATOM      4  C   UNL     1      -1.389  -3.433  -4.507  1.00  0.00     0.041 C 
ATOM      5  O   UNL     1      -0.331  -2.761  -4.622  1.00  0.00    -0.550 OA
ATOM      6  O   UNL     1      -1.410  -4.546  -3.676  1.00  0.00    -0.550 OA
ENDBRANCH   3   4
ENDBRANCH   2   3
ENDBRANCH   1   2
BRANCH   1   7
ATOM      7  C   UNL     1      -4.147   0.044  -6.717  1.00  0.00     0.000 C 
BRANCH   7   8
ATOM      8  C   UNL     1      -4.889  -0.975  -7.600  1.00  0.00    -0.000 C 
BRANCH   8   9
ATOM      9  C   UNL     1      -6.130  -1.566  -6.915  1.00  0.00    -0.003 C 
ATOM     10  C   UNL     1      -6.042  -3.087  -6.838  1.00  0.00     0.004 C 
ENDBRANCH   8   9
ENDBRANCH   7   8
ENDBRANCH   1   7
TORSDOF 6
ENDMDL
MODEL 9
REMARK VINA RESULT:    -3.359     12.369     13.819
REMARK INTER + INTRA:          -4.924
REMARK INTER:                  -4.641
REMARK INTRA:                  -0.283
REMARK UNBOUND:                -0.387
REMARK SMILES CCCCCCCC(=O)[O-]
REMARK SMILES IDX 5 1 6 2 7 3 8 4 9 5 10 6 4 7 3 8 2 9 1 10
REMARK H PARENT
REMARK Flexibility Score: inf
ROOT
ATOM      1  C   UNL     1      -4.420  -3.650  -4.980  1.00  0.00     0.000 C 
ENDROOT
BRANCH   1   2
ATOM      2  C   UNL     1      -3.232  -4.613  -5.181  1.00  0.00     0.006 C 
BRANCH   2   3
ATOM      3  C   UNL     1      -2.433  -4.911  -3.904  1.00  0.00     0.053 C 
BRANCH   3   4
ATOM      4  C   UNL     1      -1.013  -4.446  -4.012  1.00  0.00     0.041 C 
ATOM      5  O   UNL     1      -0.638  -3.404  -3.413  1.00  0.00    -0.550 OA
ATOM      6  O   UNL     1      -0.111  -5.147  -4.802  1.00  0.00    -0.550 OA
ENDBRANCH   3   4
ENDBRANCH   2   3
ENDBRANCH   1   2
BRANCH   1   7
ATOM      7  C   UNL     1      -4.384  -2.375  -5.847  1.00  0.00     0.000 C 
BRANCH   7   8
ATOM      8  C   UNL     1      -3.175  -1.454  -5.603  1.00  0.00    -0.000 C 
BRANCH   8   9
ATOM      9  C   UNL     1      -3.356  -0.057  -6.214  1.00  0.00    -0.003 C 
ATOM     10  C   UNL     1      -4.609   0.002  -7.082  1.00  0.00     0.004 C 
ENDBRANCH   8   9
ENDBRANCH   7   8
ENDBRANCH   1   7
TORSDOF 6
ENDMDL
