MODEL 1
REMARK VINA RESULT:    -5.079      0.000      0.000
REMARK INTER + INTRA:          -6.227
REMARK INTER:                  -7.158
REMARK INTRA:                   0.931
REMARK UNBOUND:                 0.931
REMARK SMILES CC1=CCC(=C(C)C)C(=O)CC(C)=CCC1
REMARK SMILES IDX 12 1 14 2 13 3 15 4 16 5 2 6 1 7 3 8 11 10 9 11 10 12 5 13
REMARK SMILES IDX 6 14 7 15 8 16 4 17
REMARK H PARENT
REMARK Flexibility Score: 60.00
ROOT
ATOM      1  C   UNL     1     -12.907 -19.334  29.438  1.00  0.00    -0.070 C 
ATOM      2  C   UNL     1     -13.265 -19.596  30.717  1.00  0.00    -0.027 C 
ATOM      3  C   UNL     1     -13.937 -19.586  28.363  1.00  0.00     0.039 C 
ENDROOT
BRANCH   2   4
ATOM      4  C   UNL     1     -12.437 -19.321  31.950  1.00  0.00     0.032 C 
BRANCH   4   5
ATOM      5  C   UNL     1     -11.949 -17.861  32.021  1.00  0.00     0.034 C 
BRANCH   5   6
ATOM      6  C   UNL     1     -13.077 -16.871  31.803  1.00  0.00    -0.077 C 
ATOM      7  C   UNL     1     -14.287 -16.955  32.698  1.00  0.00     0.039 C 
ATOM      8  C   UNL     1     -13.071 -15.929  30.834  1.00  0.00    -0.023 CG0
ATOM      9  G   UNL     1     -11.972 -15.710  29.821  1.00  0.00     0.000 G0
ENDBRANCH   5   6
ENDBRANCH   4   5
ENDBRANCH   2   4
BRANCH   1  10
ATOM     10  C   UNL     1     -11.564 -18.746  29.039  1.00  0.00     0.111 C 
BRANCH  10  11
ATOM     11  C   UNL     1     -11.726 -17.593  28.079  1.00  0.00     0.163 C 
ATOM     12  O   UNL     1     -11.246 -17.714  26.920  1.00  0.00    -0.294 OA
BRANCH  11  13
ATOM     13  C   UNL     1     -12.387 -16.313  28.484  1.00  0.00    -0.002 C 
ATOM     14  C   UNL     1     -13.363 -15.735  27.720  1.00  0.00    -0.069 C 
ATOM     15  C   UNL     1     -13.879 -16.395  26.462  1.00  0.00     0.039 C 
ATOM     16  C   UNL     1     -14.000 -14.421  28.117  1.00  0.00     0.039 C 
BRANCH  13  17
ATOM     17  C   UNL     1     -11.981 -15.719  29.820  1.00  0.00     0.066 CG0
ATOM     18  G   UNL     1     -13.078 -15.938  30.834  1.00  0.00     0.000 G0
ENDBRANCH  13  17
ENDBRANCH  11  13
ENDBRANCH  10  11
ENDBRANCH   1  10
TORSDOF 0
ENDMDL
MODEL 2
REMARK VINA RESULT:    -5.047      1.718      4.762
REMARK INTER + INTRA:          -6.181
REMARK INTER:                  -7.042
REMARK INTRA:                   0.860
REMARK UNBOUND:                 0.931
REMARK SMILES CC1=CCC(=C(C)C)C(=O)CC(C)=CCC1
REMARK SMILES IDX 12 1 14 2 13 3 15 4 16 5 2 6 1 7 3 8 11 10 9 11 10 12 5 13
REMARK SMILES IDX 6 14 7 15 8 16 4 17
REMARK H PARENT
REMARK Flexibility Score: 60.00
ROOT
ATOM      1  C   UNL     1     -12.803 -15.801  30.748  1.00  0.00    -0.070 C 
ATOM      2  C   UNL     1     -13.591 -15.412  29.717  1.00  0.00    -0.027 C 
ATOM      3  C   UNL     1     -13.481 -16.123  32.057  1.00  0.00     0.039 C 
ENDROOT
BRANCH   2   4
ATOM      4  C   UNL     1     -13.141 -15.144  28.301  1.00  0.00     0.032 C 
BRANCH   4   5
ATOM      5  C   UNL     1     -13.624 -16.224  27.313  1.00  0.00     0.034 C 
BRANCH   5   6
ATOM      6  C   UNL     1     -12.520 -17.196  26.943  1.00  0.00    -0.077 C 
ATOM      7  C   UNL     1     -11.757 -16.960  25.665  1.00  0.00     0.039 C 
ATOM      8  C   UNL     1     -12.195 -18.279  27.684  1.00  0.00    -0.023 CG0
ATOM      9  G   UNL     1     -12.863 -18.702  28.970  1.00  0.00     0.000 G0
ENDBRANCH   5   6
ENDBRANCH   4   5
ENDBRANCH   2   4
BRANCH   1  10
ATOM     10  C   UNL     1     -11.300 -15.992  30.637  1.00  0.00     0.111 C 
BRANCH  10  11
ATOM     11  C   UNL     1     -10.953 -17.327  30.025  1.00  0.00     0.163 C 
ATOM     12  O   UNL     1      -9.875 -17.423  29.381  1.00  0.00    -0.294 OA
BRANCH  11  13
ATOM     13  C   UNL     1     -11.873 -18.504  30.122  1.00  0.00    -0.002 C 
ATOM     14  C   UNL     1     -11.882 -19.321  31.220  1.00  0.00    -0.069 C 
ATOM     15  C   UNL     1     -11.017 -19.035  32.427  1.00  0.00     0.039 C 
ATOM     16  C   UNL     1     -12.787 -20.531  31.294  1.00  0.00     0.039 C 
BRANCH  13  17
ATOM     17  C   UNL     1     -12.850 -18.713  28.980  1.00  0.00     0.066 CG0
ATOM     18  G   UNL     1     -12.213 -18.289  27.678  1.00  0.00     0.000 G0
ENDBRANCH  13  17
ENDBRANCH  11  13
ENDBRANCH  10  11
ENDBRANCH   1  10
TORSDOF 0
ENDMDL
MODEL 3
REMARK VINA RESULT:    -5.004      1.653      3.467
REMARK INTER + INTRA:          -6.121
REMARK INTER:                  -7.368
REMARK INTRA:                   1.247
REMARK UNBOUND:                 0.931
REMARK SMILES CC1=CCC(=C(C)C)C(=O)CC(C)=CCC1
REMARK SMILES IDX 12 1 14 2 13 3 15 4 16 5 2 6 1 7 3 8 11 10 9 11 10 12 5 13
REMARK SMILES IDX 6 14 7 15 8 16 4 17
REMARK H PARENT
REMARK Flexibility Score: 60.00
ROOT
ATOM      1  C   UNL     1     -12.944 -15.517  29.426  1.00  0.00    -0.070 C 
ATOM      2  C   UNL     1     -13.703 -15.488  30.547  1.00  0.00    -0.027 C 
ATOM      3  C   UNL     1     -13.622 -15.181  28.120  1.00  0.00     0.039 C 
ENDROOT
BRANCH   2   4
ATOM      4  C   UNL     1     -13.213 -15.685  31.962  1.00  0.00     0.032 C 
BRANCH   4   5
ATOM      5  C   UNL     1     -12.624 -17.089  32.195  1.00  0.00     0.034 C 
BRANCH   5   6
ATOM      6  C   UNL     1     -11.120 -17.054  32.388  1.00  0.00    -0.077 C 
ATOM      7  C   UNL     1     -10.542 -16.022  33.322  1.00  0.00     0.039 C 
ATOM      8  C   UNL     1     -10.262 -17.882  31.749  1.00  0.00    -0.023 CG0
ATOM      9  G   UNL     1     -10.643 -18.951  30.754  1.00  0.00     0.000 G0
ENDBRANCH   5   6
ENDBRANCH   4   5
ENDBRANCH   2   4
BRANCH   1  10
ATOM     10  C   UNL     1     -11.451 -15.800  29.423  1.00  0.00     0.111 C 
BRANCH  10  11
ATOM     11  C   UNL     1     -11.153 -17.198  28.938  1.00  0.00     0.163 C 
ATOM     12  O   UNL     1     -10.557 -17.329  27.835  1.00  0.00    -0.294 OA
BRANCH  11  13
ATOM     13  C   UNL     1     -11.589 -18.410  29.700  1.00  0.00    -0.002 C 
ATOM     14  C   UNL     1     -12.772 -19.041  29.431  1.00  0.00    -0.069 C 
ATOM     15  C   UNL     1     -13.670 -18.593  28.300  1.00  0.00     0.039 C 
ATOM     16  C   UNL     1     -13.224 -20.243  30.232  1.00  0.00     0.039 C 
BRANCH  13  17
ATOM     17  C   UNL     1     -10.626 -18.956  30.738  1.00  0.00     0.066 CG0
ATOM     18  G   UNL     1     -10.269 -17.871  31.727  1.00  0.00     0.000 G0
ENDBRANCH  13  17
ENDBRANCH  11  13
ENDBRANCH  10  11
ENDBRANCH   1  10
TORSDOF 0
ENDMDL
MODEL 4
REMARK VINA RESULT:    -4.900      1.683      3.164
REMARK INTER + INTRA:          -5.975
REMARK INTER:                  -6.763
REMARK INTRA:                   0.788
REMARK UNBOUND:                 0.931
REMARK SMILES CC1=CCC(=C(C)C)C(=O)CC(C)=CCC1
REMARK SMILES IDX 12 1 14 2 13 3 15 4 16 5 2 6 1 7 3 8 11 10 9 11 10 12 5 13
REMARK SMILES IDX 6 14 7 15 8 16 4 17
REMARK H PARENT
REMARK Flexibility Score: 60.00
ROOT
ATOM      1  C   UNL     1     -12.811 -16.915  31.372  1.00  0.00    -0.070 C 
ATOM      2  C   UNL     1     -13.351 -18.138  31.581  1.00  0.00    -0.027 C 
ATOM      3  C   UNL     1     -13.691 -15.715  31.621  1.00  0.00     0.039 C 
ENDROOT
BRANCH   2   4
ATOM      4  C   UNL     1     -12.627 -19.461  31.496  1.00  0.00     0.032 C 
BRANCH   4   5
ATOM      5  C   UNL     1     -11.899 -19.651  30.152  1.00  0.00     0.034 C 
BRANCH   5   6
ATOM      6  C   UNL     1     -12.857 -19.641  28.977  1.00  0.00    -0.077 C 
ATOM      7  C   UNL     1     -13.976 -20.651  28.957  1.00  0.00     0.039 C 
ATOM      8  C   UNL     1     -12.752 -18.792  27.930  1.00  0.00    -0.023 CG0
ATOM      9  G   UNL     1     -11.684 -17.739  27.751  1.00  0.00     0.000 G0
ENDBRANCH   5   6
ENDBRANCH   4   5
ENDBRANCH   2   4
BRANCH   1  10
ATOM     10  C   UNL     1     -11.364 -16.688  30.967  1.00  0.00     0.111 C 
BRANCH  10  11
ATOM     11  C   UNL     1     -11.263 -16.021  29.617  1.00  0.00     0.163 C 
ATOM     12  O   UNL     1     -10.478 -15.043  29.495  1.00  0.00    -0.294 OA
BRANCH  11  13
ATOM     13  C   UNL     1     -12.100 -16.457  28.455  1.00  0.00    -0.002 C 
ATOM     14  C   UNL     1     -13.153 -15.708  28.007  1.00  0.00    -0.069 C 
ATOM     15  C   UNL     1     -13.484 -14.363  28.614  1.00  0.00     0.039 C 
ATOM     16  C   UNL     1     -14.018 -16.173  26.856  1.00  0.00     0.039 C 
BRANCH  13  17
ATOM     17  C   UNL     1     -11.684 -17.732  27.745  1.00  0.00     0.066 CG0
ATOM     18  G   UNL     1     -12.747 -18.789  27.928  1.00  0.00     0.000 G0
ENDBRANCH  13  17
ENDBRANCH  11  13
ENDBRANCH  10  11
ENDBRANCH   1  10
TORSDOF 0
ENDMDL
MODEL 5
REMARK VINA RESULT:    -4.669      2.213      4.978
REMARK INTER + INTRA:          -5.648
REMARK INTER:                  -6.560
REMARK INTRA:                   0.912
REMARK UNBOUND:                 0.931
REMARK SMILES CC1=CCC(=C(C)C)C(=O)CC(C)=CCC1
REMARK SMILES IDX 12 1 14 2 13 3 15 4 16 5 2 6 1 7 3 8 11 10 9 11 10 12 5 13
REMARK SMILES IDX 6 14 7 15 8 16 4 17
REMARK H PARENT
REMARK Flexibility Score: 60.00
ROOT
ATOM      1  C   UNL     1     -14.151 -15.146  31.490  1.00  0.00    -0.070 C 
ATOM      2  C   UNL     1     -14.166 -14.852  30.169  1.00  0.00    -0.027 C 
ATOM      3  C   UNL     1     -15.374 -14.783  32.296  1.00  0.00     0.039 C 
ENDROOT
BRANCH   2   4
ATOM      4  C   UNL     1     -13.102 -15.218  29.161  1.00  0.00     0.032 C 
BRANCH   4   5
ATOM      5  C   UNL     1     -13.550 -16.345  28.211  1.00  0.00     0.034 C 
BRANCH   5   6
ATOM      6  C   UNL     1     -12.413 -17.287  27.866  1.00  0.00    -0.077 C 
ATOM      7  C   UNL     1     -11.632 -17.034  26.602  1.00  0.00     0.039 C 
ATOM      8  C   UNL     1     -12.073 -18.360  28.616  1.00  0.00    -0.023 CG0
ATOM      9  G   UNL     1     -12.755 -18.798  29.890  1.00  0.00     0.000 G0
ENDBRANCH   5   6
ENDBRANCH   4   5
ENDBRANCH   2   4
BRANCH   1  10
ATOM     10  C   UNL     1     -13.009 -15.871  32.182  1.00  0.00     0.111 C 
BRANCH  10  11
ATOM     11  C   UNL     1     -13.104 -17.365  31.991  1.00  0.00     0.163 C 
ATOM     12  O   UNL     1     -13.977 -17.993  32.647  1.00  0.00    -0.294 OA
BRANCH  11  13
ATOM     13  C   UNL     1     -12.164 -18.109  31.094  1.00  0.00    -0.002 C 
ATOM     14  C   UNL     1     -10.831 -18.217  31.380  1.00  0.00    -0.069 C 
ATOM     15  C   UNL     1     -10.247 -17.654  32.656  1.00  0.00     0.039 C 
ATOM     16  C   UNL     1      -9.881 -18.938  30.449  1.00  0.00     0.039 C 
BRANCH  13  17
ATOM     17  C   UNL     1     -12.767 -18.804  29.887  1.00  0.00     0.066 CG0
ATOM     18  G   UNL     1     -12.059 -18.356  28.631  1.00  0.00     0.000 G0
ENDBRANCH  13  17
ENDBRANCH  11  13
ENDBRANCH  10  11
ENDBRANCH   1  10
TORSDOF 0
ENDMDL
MODEL 6
REMARK VINA RESULT:    -4.536      2.108      4.767
REMARK INTER + INTRA:          -5.461
REMARK INTER:                  -7.225
REMARK INTRA:                   1.764
REMARK UNBOUND:                 0.931
REMARK SMILES CC1=CCC(=C(C)C)C(=O)CC(C)=CCC1
REMARK SMILES IDX 12 1 14 2 13 3 15 4 16 5 2 6 1 7 3 8 11 10 9 11 10 12 5 13
REMARK SMILES IDX 6 14 7 15 8 16 4 17
REMARK H PARENT
REMARK Flexibility Score: 60.00
ROOT
ATOM      1  C   UNL     1     -10.604 -15.837  31.883  1.00  0.00    -0.070 C 
ATOM      2  C   UNL     1      -9.999 -15.453  30.734  1.00  0.00    -0.027 C 
ATOM      3  C   UNL     1      -9.892 -15.534  33.178  1.00  0.00     0.039 C 
ENDROOT
BRANCH   2   4
ATOM      4  C   UNL     1     -10.575 -15.559  29.342  1.00  0.00     0.032 C 
BRANCH   4   5
ATOM      5  C   UNL     1     -10.374 -16.957  28.725  1.00  0.00     0.034 C 
BRANCH   5   6
ATOM      6  C   UNL     1     -11.454 -17.295  27.715  1.00  0.00    -0.077 C 
ATOM      7  C   UNL     1     -11.065 -17.410  26.263  1.00  0.00     0.039 C 
ATOM      8  C   UNL     1     -12.754 -17.477  28.039  1.00  0.00    -0.023 CG0
ATOM      9  G   UNL     1     -13.341 -17.369  29.425  1.00  0.00     0.000 G0
ENDBRANCH   5   6
ENDBRANCH   4   5
ENDBRANCH   2   4
BRANCH   1  10
ATOM     10  C   UNL     1     -11.976 -16.489  31.938  1.00  0.00     0.111 C 
BRANCH  10  11
ATOM     11  C   UNL     1     -11.925 -17.928  31.486  1.00  0.00     0.163 C 
ATOM     12  O   UNL     1     -11.125 -18.706  32.071  1.00  0.00    -0.294 OA
BRANCH  11  13
ATOM     13  C   UNL     1     -12.752 -18.427  30.343  1.00  0.00    -0.002 C 
ATOM     14  C   UNL     1     -13.006 -19.760  30.167  1.00  0.00    -0.069 C 
ATOM     15  C   UNL     1     -12.526 -20.795  31.159  1.00  0.00     0.039 C 
ATOM     16  C   UNL     1     -13.811 -20.260  28.988  1.00  0.00     0.039 C 
BRANCH  13  17
ATOM     17  C   UNL     1     -13.362 -17.384  29.425  1.00  0.00     0.066 CG0
ATOM     18  G   UNL     1     -12.737 -17.480  28.054  1.00  0.00     0.000 G0
ENDBRANCH  13  17
ENDBRANCH  11  13
ENDBRANCH  10  11
ENDBRANCH   1  10
TORSDOF 0
ENDMDL
MODEL 7
REMARK VINA RESULT:    -4.529      1.579      3.492
REMARK INTER + INTRA:          -5.452
REMARK INTER:                  -7.098
REMARK INTRA:                   1.646
REMARK UNBOUND:                 0.931
REMARK SMILES CC1=CCC(=C(C)C)C(=O)CC(C)=CCC1
REMARK SMILES IDX 12 1 14 2 13 3 15 4 16 5 2 6 1 7 3 8 11 10 9 11 10 12 5 13
REMARK SMILES IDX 6 14 7 15 8 16 4 17
REMARK H PARENT
REMARK Flexibility Score: 60.00
ROOT
ATOM      1  C   UNL     1     -12.412 -19.645  30.342  1.00  0.00    -0.070 C 
ATOM      2  C   UNL     1     -13.401 -19.728  29.420  1.00  0.00    -0.027 C 
ATOM      3  C   UNL     1     -12.591 -20.422  31.624  1.00  0.00     0.039 C 
ENDROOT
BRANCH   2   4
ATOM      4  C   UNL     1     -13.384 -19.125  28.036  1.00  0.00     0.032 C 
BRANCH   4   5
ATOM      5  C   UNL     1     -12.267 -18.079  27.860  1.00  0.00     0.034 C 
BRANCH   5   6
ATOM      6  C   UNL     1     -12.818 -16.700  27.553  1.00  0.00    -0.077 C 
ATOM      7  C   UNL     1     -13.754 -16.548  26.382  1.00  0.00     0.039 C 
ATOM      8  C   UNL     1     -12.498 -15.590  28.256  1.00  0.00    -0.023 CG0
ATOM      9  G   UNL     1     -11.555 -15.533  29.434  1.00  0.00     0.000 G0
ENDBRANCH   5   6
ENDBRANCH   4   5
ENDBRANCH   2   4
BRANCH   1  10
ATOM     10  C   UNL     1     -11.120 -18.876  30.128  1.00  0.00     0.111 C 
BRANCH  10  11
ATOM     11  C   UNL     1     -11.112 -17.580  30.901  1.00  0.00     0.163 C 
ATOM     12  O   UNL     1     -10.340 -17.484  31.892  1.00  0.00    -0.294 OA
BRANCH  11  13
ATOM     13  C   UNL     1     -12.023 -16.444  30.552  1.00  0.00    -0.002 C 
ATOM     14  C   UNL     1     -13.187 -16.221  31.235  1.00  0.00    -0.069 C 
ATOM     15  C   UNL     1     -13.581 -17.064  32.427  1.00  0.00     0.039 C 
ATOM     16  C   UNL     1     -14.122 -15.095  30.852  1.00  0.00     0.039 C 
BRANCH  13  17
ATOM     17  C   UNL     1     -11.565 -15.504  29.453  1.00  0.00     0.066 CG0
ATOM     18  G   UNL     1     -12.505 -15.594  28.275  1.00  0.00     0.000 G0
ENDBRANCH  13  17
ENDBRANCH  11  13
ENDBRANCH  10  11
ENDBRANCH   1  10
TORSDOF 0
ENDMDL
MODEL 8
REMARK VINA RESULT:    -4.474      2.205      4.189
REMARK INTER + INTRA:          -5.373
REMARK INTER:                  -6.071
REMARK INTRA:                   0.698
REMARK UNBOUND:                 0.931
REMARK SMILES CC1=CCC(=C(C)C)C(=O)CC(C)=CCC1
REMARK SMILES IDX 12 1 14 2 13 3 15 4 16 5 2 6 1 7 3 8 11 10 9 11 10 12 5 13
REMARK SMILES IDX 6 14 7 15 8 16 4 17
REMARK H PARENT
REMARK Flexibility Score: 60.00
ROOT
ATOM      1  C   UNL     1     -10.490 -17.209  31.878  1.00  0.00    -0.070 C 
ATOM      2  C   UNL     1     -10.033 -17.226  30.604  1.00  0.00    -0.027 C 
ATOM      3  C   UNL     1      -9.939 -18.246  32.827  1.00  0.00     0.039 C 
ENDROOT
BRANCH   2   4
ATOM      4  C   UNL     1     -10.365 -16.225  29.523  1.00  0.00     0.032 C 
BRANCH   4   5
ATOM      5  C   UNL     1     -10.921 -16.891  28.250  1.00  0.00     0.034 C 
BRANCH   5   6
ATOM      6  C   UNL     1     -12.260 -17.561  28.493  1.00  0.00    -0.077 C 
ATOM      7  C   UNL     1     -12.460 -18.966  27.986  1.00  0.00     0.039 C 
ATOM      8  C   UNL     1     -13.296 -16.960  29.120  1.00  0.00    -0.023 CG0
ATOM      9  G   UNL     1     -13.302 -15.552  29.664  1.00  0.00     0.000 G0
ENDBRANCH   5   6
ENDBRANCH   4   5
ENDBRANCH   2   4
BRANCH   1  10
ATOM     10  C   UNL     1     -11.464 -16.173  32.413  1.00  0.00     0.111 C 
BRANCH  10  11
ATOM     11  C   UNL     1     -12.886 -16.498  32.031  1.00  0.00     0.163 C 
ATOM     12  O   UNL     1     -13.379 -17.582  32.443  1.00  0.00    -0.294 OA
BRANCH  11  13
ATOM     13  C   UNL     1     -13.692 -15.602  31.143  1.00  0.00    -0.002 C 
ATOM     14  C   UNL     1     -14.681 -14.798  31.641  1.00  0.00    -0.069 C 
ATOM     15  C   UNL     1     -14.965 -14.717  33.124  1.00  0.00     0.039 C 
ATOM     16  C   UNL     1     -15.517 -13.923  30.733  1.00  0.00     0.039 C 
BRANCH  13  17
ATOM     17  C   UNL     1     -13.316 -15.565  29.674  1.00  0.00     0.066 CG0
ATOM     18  G   UNL     1     -13.297 -16.968  29.115  1.00  0.00     0.000 G0
ENDBRANCH  13  17
ENDBRANCH  11  13
ENDBRANCH  10  11
ENDBRANCH   1  10
TORSDOF 0
ENDMDL
MODEL 9
REMARK VINA RESULT:    -3.975      1.984      4.499
REMARK INTER + INTRA:          -4.670
REMARK INTER:                  -5.743
REMARK INTRA:                   1.072
REMARK UNBOUND:                 0.931
REMARK SMILES CC1=CCC(=C(C)C)C(=O)CC(C)=CCC1
REMARK SMILES IDX 12 1 14 2 13 3 15 4 16 5 2 6 1 7 3 8 11 10 9 11 10 12 5 13
REMARK SMILES IDX 6 14 7 15 8 16 4 17
REMARK H PARENT
REMARK Flexibility Score: 60.00
ROOT
ATOM      1  C   UNL     1     -13.388 -15.711  28.616  1.00  0.00    -0.070 C 
ATOM      2  C   UNL     1     -13.608 -16.521  27.553  1.00  0.00    -0.027 C 
ATOM      3  C   UNL     1     -13.622 -14.233  28.423  1.00  0.00     0.039 C 
ENDROOT
BRANCH   2   4
ATOM      4  C   UNL     1     -13.539 -18.030  27.551  1.00  0.00     0.032 C 
BRANCH   4   5
ATOM      5  C   UNL     1     -12.188 -18.561  28.066  1.00  0.00     0.034 C 
BRANCH   5   6
ATOM      6  C   UNL     1     -12.348 -19.433  29.297  1.00  0.00    -0.077 C 
ATOM      7  C   UNL     1     -13.507 -20.394  29.348  1.00  0.00     0.039 C 
ATOM      8  C   UNL     1     -11.522 -19.380  30.366  1.00  0.00    -0.023 CG0
ATOM      9  G   UNL     1     -10.332 -18.462  30.519  1.00  0.00     0.000 G0
ENDBRANCH   5   6
ENDBRANCH   4   5
ENDBRANCH   2   4
BRANCH   1  10
ATOM     10  C   UNL     1     -12.987 -16.214  29.993  1.00  0.00     0.111 C 
BRANCH  10  11
ATOM     11  C   UNL     1     -11.490 -16.183  30.181  1.00  0.00     0.163 C 
ATOM     12  O   UNL     1     -10.822 -15.364  29.495  1.00  0.00    -0.294 OA
BRANCH  11  13
ATOM     13  C   UNL     1     -10.790 -17.124  31.111  1.00  0.00    -0.002 C 
ATOM     14  C   UNL     1     -10.622 -16.834  32.436  1.00  0.00    -0.069 C 
ATOM     15  C   UNL     1     -11.199 -15.578  33.051  1.00  0.00     0.039 C 
ATOM     16  C   UNL     1      -9.879 -17.773  33.362  1.00  0.00     0.039 C 
BRANCH  13  17
ATOM     17  C   UNL     1     -10.337 -18.454  30.535  1.00  0.00     0.066 CG0
ATOM     18  G   UNL     1     -11.526 -19.369  30.362  1.00  0.00     0.000 G0
ENDBRANCH  13  17
ENDBRANCH  11  13
ENDBRANCH  10  11
ENDBRANCH   1  10
TORSDOF 0
ENDMDL
