MODEL 1
REMARK VINA RESULT:    -2.023      0.000      0.000
REMARK INTER + INTRA:          -4.350
REMARK INTER:                  -3.678
REMARK INTRA:                  -0.672
REMARK UNBOUND:                -0.672
REMARK SMILES CCCCCCCCCCCCCCCC(=O)[O-]
REMARK SMILES IDX 9 1 10 2 11 3 12 4 13 5 14 6 15 7 16 8 17 9 18 10 8 11 7 12
REMARK SMILES IDX 6 13 5 14 4 15 3 16 2 17 1 18
REMARK H PARENT
REMARK Flexibility Score: inf
ROOT
ATOM      1  C   UNL     1      -5.163 -21.272  15.988  1.00  0.00     0.000 C 
ENDROOT
BRANCH   1   2
ATOM      2  C   UNL     1      -6.068 -20.835  14.827  1.00  0.00     0.000 C 
BRANCH   2   3
ATOM      3  C   UNL     1      -7.549 -21.187  15.055  1.00  0.00     0.000 C 
BRANCH   3   4
ATOM      4  C   UNL     1      -8.555 -20.241  14.374  1.00  0.00     0.000 C 
BRANCH   4   5
ATOM      5  C   UNL     1     -10.016 -20.650  14.608  1.00  0.00     0.000 C 
BRANCH   5   6
ATOM      6  C   UNL     1     -10.531 -20.105  15.949  1.00  0.00     0.006 C 
BRANCH   6   7
ATOM      7  C   UNL     1     -11.124 -21.207  16.837  1.00  0.00     0.053 C 
BRANCH   7   8
ATOM      8  C   UNL     1     -10.146 -21.669  17.873  1.00  0.00     0.041 C 
ATOM      9  O   UNL     1      -9.419 -22.675  17.657  1.00  0.00    -0.550 OA
ATOM     10  O   UNL     1     -10.015 -20.970  19.066  1.00  0.00    -0.550 OA
ENDBRANCH   7   8
ENDBRANCH   6   7
ENDBRANCH   5   6
ENDBRANCH   4   5
ENDBRANCH   3   4
ENDBRANCH   2   3
ENDBRANCH   1   2
BRANCH   1  11
ATOM     11  C   UNL     1      -5.264 -22.784  16.224  1.00  0.00     0.000 C 
BRANCH  11  12
ATOM     12  C   UNL     1      -5.146 -23.117  17.716  1.00  0.00    -0.000 C 
BRANCH  12  13
ATOM     13  C   UNL     1      -6.521 -23.110  18.392  1.00  0.00    -0.000 C 
BRANCH  13  14
ATOM     14  C   UNL     1      -6.384 -23.125  19.920  1.00  0.00    -0.000 C 
BRANCH  14  15
ATOM     15  C   UNL     1      -7.760 -23.040  20.598  1.00  0.00    -0.000 C 
BRANCH  15  16
ATOM     16  C   UNL     1      -7.648 -22.931  22.134  1.00  0.00    -0.000 C 
BRANCH  16  17
ATOM     17  C   UNL     1      -8.607 -21.899  22.750  1.00  0.00    -0.003 C 
ATOM     18  C   UNL     1      -9.485 -22.484  23.855  1.00  0.00     0.004 C 
ENDBRANCH  16  17
ENDBRANCH  15  16
ENDBRANCH  14  15
ENDBRANCH  13  14
ENDBRANCH  12  13
ENDBRANCH  11  12
ENDBRANCH   1  11
TORSDOF 14
ENDMDL
MODEL 2
REMARK VINA RESULT:    -1.974      1.478      2.163
REMARK INTER + INTRA:          -4.262
REMARK INTER:                  -3.085
REMARK INTRA:                  -1.177
REMARK UNBOUND:                -0.672
REMARK SMILES CCCCCCCCCCCCCCCC(=O)[O-]
REMARK SMILES IDX 9 1 10 2 11 3 12 4 13 5 14 6 15 7 16 8 17 9 18 10 8 11 7 12
REMARK SMILES IDX 6 13 5 14 4 15 3 16 2 17 1 18
REMARK H PARENT
REMARK Flexibility Score: inf
ROOT
ATOM      1  C   UNL     1      -5.571 -22.265  17.448  1.00  0.00     0.000 C 
ENDROOT
BRANCH   1   2
ATOM      2  C   UNL     1      -6.151 -22.270  16.025  1.00  0.00     0.000 C 
BRANCH   2   3
ATOM      3  C   UNL     1      -6.017 -20.909  15.317  1.00  0.00     0.000 C 
BRANCH   3   4
ATOM      4  C   UNL     1      -7.264 -20.456  14.539  1.00  0.00     0.000 C 
BRANCH   4   5
ATOM      5  C   UNL     1      -8.578 -20.805  15.252  1.00  0.00     0.000 C 
BRANCH   5   6
ATOM      6  C   UNL     1      -9.789 -20.485  14.363  1.00  0.00     0.006 C 
BRANCH   6   7
ATOM      7  C   UNL     1     -11.120 -20.806  15.056  1.00  0.00     0.053 C 
BRANCH   7   8
ATOM      8  C   UNL     1     -11.092 -20.437  16.507  1.00  0.00     0.041 C 
ATOM      9  O   UNL     1     -11.031 -21.335  17.389  1.00  0.00    -0.550 OA
ATOM     10  O   UNL     1     -11.102 -19.101  16.885  1.00  0.00    -0.550 OA
ENDBRANCH   7   8
ENDBRANCH   6   7
ENDBRANCH   5   6
ENDBRANCH   4   5
ENDBRANCH   3   4
ENDBRANCH   2   3
ENDBRANCH   1   2
BRANCH   1  11
ATOM     11  C   UNL     1      -6.422 -23.125  18.391  1.00  0.00     0.000 C 
BRANCH  11  12
ATOM     12  C   UNL     1      -7.914 -22.815  18.221  1.00  0.00    -0.000 C 
BRANCH  12  13
ATOM     13  C   UNL     1      -8.557 -22.454  19.566  1.00  0.00    -0.000 C 
BRANCH  13  14
ATOM     14  C   UNL     1      -7.709 -22.967  20.736  1.00  0.00    -0.000 C 
BRANCH  14  15
ATOM     15  C   UNL     1      -8.525 -22.992  22.038  1.00  0.00    -0.000 C 
BRANCH  15  16
ATOM     16  C   UNL     1      -9.999 -22.597  21.811  1.00  0.00    -0.000 C 
BRANCH  16  17
ATOM     17  C   UNL     1     -10.413 -21.311  22.545  1.00  0.00    -0.003 C 
ATOM     18  C   UNL     1     -10.320 -20.065  21.667  1.00  0.00     0.004 C 
ENDBRANCH  16  17
ENDBRANCH  15  16
ENDBRANCH  14  15
ENDBRANCH  13  14
ENDBRANCH  12  13
ENDBRANCH  11  12
ENDBRANCH   1  11
TORSDOF 14
ENDMDL
MODEL 3
REMARK VINA RESULT:    -1.394      2.389      4.652
REMARK INTER + INTRA:          -3.206
REMARK INTER:                  -2.154
REMARK INTRA:                  -1.052
REMARK UNBOUND:                -0.672
REMARK SMILES CCCCCCCCCCCCCCCC(=O)[O-]
REMARK SMILES IDX 9 1 10 2 11 3 12 4 13 5 14 6 15 7 16 8 17 9 18 10 8 11 7 12
REMARK SMILES IDX 6 13 5 14 4 15 3 16 2 17 1 18
REMARK H PARENT
REMARK Flexibility Score: inf
ROOT
ATOM      1  C   UNL     1      -6.952 -22.944  21.427  1.00  0.00     0.000 C 
ENDROOT
BRANCH   1   2
ATOM      2  C   UNL     1      -7.956 -23.093  20.274  1.00  0.00     0.000 C 
BRANCH   2   3
ATOM      3  C   UNL     1      -7.527 -22.339  19.003  1.00  0.00     0.000 C 
BRANCH   3   4
ATOM      4  C   UNL     1      -8.451 -22.533  17.788  1.00  0.00     0.000 C 
BRANCH   4   5
ATOM      5  C   UNL     1      -9.933 -22.647  18.173  1.00  0.00     0.000 C 
BRANCH   5   6
ATOM      6  C   UNL     1     -10.803 -21.745  17.284  1.00  0.00     0.006 C 
BRANCH   6   7
ATOM      7  C   UNL     1      -9.998 -20.607  16.645  1.00  0.00     0.053 C 
BRANCH   7   8
ATOM      8  C   UNL     1      -9.819 -20.814  15.173  1.00  0.00     0.041 C 
ATOM      9  O   UNL     1      -8.665 -20.815  14.668  1.00  0.00    -0.550 OA
ATOM     10  O   UNL     1     -10.924 -21.037  14.363  1.00  0.00    -0.550 OA
ENDBRANCH   7   8
ENDBRANCH   6   7
ENDBRANCH   5   6
ENDBRANCH   4   5
ENDBRANCH   3   4
ENDBRANCH   2   3
ENDBRANCH   1   2
BRANCH   1  11
ATOM     11  C   UNL     1      -7.232 -21.672  22.237  1.00  0.00     0.000 C 
BRANCH  11  12
ATOM     12  C   UNL     1      -8.044 -21.990  23.499  1.00  0.00    -0.000 C 
BRANCH  12  13
ATOM     13  C   UNL     1      -9.042 -23.124  23.239  1.00  0.00    -0.000 C 
BRANCH  13  14
ATOM     14  C   UNL     1     -10.312 -22.943  24.080  1.00  0.00    -0.000 C 
BRANCH  14  15
ATOM     15  C   UNL     1     -11.125 -21.731  23.597  1.00  0.00    -0.000 C 
BRANCH  15  16
ATOM     16  C   UNL     1     -10.928 -21.460  22.091  1.00  0.00    -0.000 C 
BRANCH  16  17
ATOM     17  C   UNL     1     -10.939 -19.966  21.727  1.00  0.00    -0.003 C 
ATOM     18  C   UNL     1     -10.821 -19.714  20.225  1.00  0.00     0.004 C 
ENDBRANCH  16  17
ENDBRANCH  15  16
ENDBRANCH  14  15
ENDBRANCH  13  14
ENDBRANCH  12  13
ENDBRANCH  11  12
ENDBRANCH   1  11
TORSDOF 14
ENDMDL
MODEL 4
REMARK VINA RESULT:    -1.259      1.516      5.352
REMARK INTER + INTRA:          -2.962
REMARK INTER:                  -1.720
REMARK INTRA:                  -1.242
REMARK UNBOUND:                -0.672
REMARK SMILES CCCCCCCCCCCCCCCC(=O)[O-]
REMARK SMILES IDX 9 1 10 2 11 3 12 4 13 5 14 6 15 7 16 8 17 9 18 10 8 11 7 12
REMARK SMILES IDX 6 13 5 14 4 15 3 16 2 17 1 18
REMARK H PARENT
REMARK Flexibility Score: inf
ROOT
ATOM      1  C   UNL     1      -5.195 -22.739  17.289  1.00  0.00     0.000 C 
ENDROOT
BRANCH   1   2
ATOM      2  C   UNL     1      -5.953 -23.122  18.569  1.00  0.00     0.000 C 
BRANCH   2   3
ATOM      3  C   UNL     1      -7.285 -22.368  18.727  1.00  0.00     0.000 C 
BRANCH   3   4
ATOM      4  C   UNL     1      -8.243 -22.952  19.781  1.00  0.00     0.000 C 
BRANCH   4   5
ATOM      5  C   UNL     1      -7.603 -23.073  21.172  1.00  0.00     0.000 C 
BRANCH   5   6
ATOM      6  C   UNL     1      -8.659 -22.924  22.278  1.00  0.00     0.006 C 
BRANCH   6   7
ATOM      7  C   UNL     1      -8.951 -21.455  22.609  1.00  0.00     0.053 C 
BRANCH   7   8
ATOM      8  C   UNL     1     -10.408 -21.136  22.476  1.00  0.00     0.041 C 
ATOM      9  O   UNL     1     -11.125 -21.002  23.503  1.00  0.00    -0.550 OA
ATOM     10  O   UNL     1     -10.969 -20.955  21.218  1.00  0.00    -0.550 OA
ENDBRANCH   7   8
ENDBRANCH   6   7
ENDBRANCH   5   6
ENDBRANCH   4   5
ENDBRANCH   3   4
ENDBRANCH   2   3
ENDBRANCH   1   2
BRANCH   1  11
ATOM     11  C   UNL     1      -6.104 -22.853  16.059  1.00  0.00     0.000 C 
BRANCH  11  12
ATOM     12  C   UNL     1      -6.469 -21.467  15.514  1.00  0.00    -0.000 C 
BRANCH  12  13
ATOM     13  C   UNL     1      -7.853 -21.481  14.854  1.00  0.00    -0.000 C 
BRANCH  13  14
ATOM     14  C   UNL     1      -8.748 -20.375  15.427  1.00  0.00    -0.000 C 
BRANCH  14  15
ATOM     15  C   UNL     1     -10.234 -20.714  15.235  1.00  0.00    -0.000 C 
BRANCH  15  16
ATOM     16  C   UNL     1     -11.125 -20.063  16.314  1.00  0.00    -0.000 C 
BRANCH  16  17
ATOM     17  C   UNL     1     -11.030 -20.749  17.687  1.00  0.00    -0.003 C 
ATOM     18  C   UNL     1     -11.120 -22.272  17.603  1.00  0.00     0.004 C 
ENDBRANCH  16  17
ENDBRANCH  15  16
ENDBRANCH  14  15
ENDBRANCH  13  14
ENDBRANCH  12  13
ENDBRANCH  11  12
ENDBRANCH   1  11
TORSDOF 14
ENDMDL
MODEL 5
REMARK VINA RESULT:    -0.805      2.183      4.311
REMARK INTER + INTRA:          -2.136
REMARK INTER:                  -1.111
REMARK INTRA:                  -1.025
REMARK UNBOUND:                -0.672
REMARK SMILES CCCCCCCCCCCCCCCC(=O)[O-]
REMARK SMILES IDX 9 1 10 2 11 3 12 4 13 5 14 6 15 7 16 8 17 9 18 10 8 11 7 12
REMARK SMILES IDX 6 13 5 14 4 15 3 16 2 17 1 18
REMARK H PARENT
REMARK Flexibility Score: inf
ROOT
ATOM      1  C   UNL     1      -9.458 -21.454  19.509  1.00  0.00     0.000 C 
ENDROOT
BRANCH   1   2
ATOM      2  C   UNL     1     -10.011 -21.293  18.085  1.00  0.00     0.000 C 
BRANCH   2   3
ATOM      3  C   UNL     1     -10.058 -22.620  17.305  1.00  0.00     0.000 C 
BRANCH   3   4
ATOM      4  C   UNL     1      -8.767 -22.973  16.544  1.00  0.00     0.000 C 
BRANCH   4   5
ATOM      5  C   UNL     1      -8.158 -21.772  15.807  1.00  0.00     0.000 C 
BRANCH   5   6
ATOM      6  C   UNL     1      -6.623 -21.827  15.841  1.00  0.00     0.006 C 
BRANCH   6   7
ATOM      7  C   UNL     1      -6.101 -23.078  16.559  1.00  0.00     0.053 C 
BRANCH   7   8
ATOM      8  C   UNL     1      -5.042 -22.739  17.562  1.00  0.00     0.041 C 
ATOM      9  O   UNL     1      -4.027 -22.080  17.215  1.00  0.00    -0.550 OA
ATOM     10  O   UNL     1      -5.192 -23.124  18.888  1.00  0.00    -0.550 OA
ENDBRANCH   7   8
ENDBRANCH   6   7
ENDBRANCH   5   6
ENDBRANCH   4   5
ENDBRANCH   3   4
ENDBRANCH   2   3
ENDBRANCH   1   2
BRANCH   1  11
ATOM     11  C   UNL     1      -8.733 -22.797  19.667  1.00  0.00     0.000 C 
BRANCH  11  12
ATOM     12  C   UNL     1      -8.472 -23.110  21.146  1.00  0.00    -0.000 C 
BRANCH  12  13
ATOM     13  C   UNL     1      -7.465 -22.123  21.747  1.00  0.00    -0.000 C 
BRANCH  13  14
ATOM     14  C   UNL     1      -7.945 -21.609  23.110  1.00  0.00    -0.000 C 
BRANCH  14  15
ATOM     15  C   UNL     1      -8.927 -22.597  23.757  1.00  0.00    -0.000 C 
BRANCH  15  16
ATOM     16  C   UNL     1     -10.393 -22.130  23.631  1.00  0.00    -0.000 C 
BRANCH  16  17
ATOM     17  C   UNL     1     -10.543 -20.607  23.477  1.00  0.00    -0.003 C 
ATOM     18  C   UNL     1     -11.125 -20.198  22.125  1.00  0.00     0.004 C 
ENDBRANCH  16  17
ENDBRANCH  15  16
ENDBRANCH  14  15
ENDBRANCH  13  14
ENDBRANCH  12  13
ENDBRANCH  11  12
ENDBRANCH   1  11
TORSDOF 14
ENDMDL
MODEL 6
REMARK VINA RESULT:    -0.685      2.792      5.525
REMARK INTER + INTRA:          -1.918
REMARK INTER:                  -1.295
REMARK INTRA:                  -0.622
REMARK UNBOUND:                -0.672
REMARK SMILES CCCCCCCCCCCCCCCC(=O)[O-]
REMARK SMILES IDX 9 1 10 2 11 3 12 4 13 5 14 6 15 7 16 8 17 9 18 10 8 11 7 12
REMARK SMILES IDX 6 13 5 14 4 15 3 16 2 17 1 18
REMARK H PARENT
REMARK Flexibility Score: inf
ROOT
ATOM      1  C   UNL     1      -7.518 -21.402  15.516  1.00  0.00     0.000 C 
ENDROOT
BRANCH   1   2
ATOM      2  C   UNL     1      -8.179 -21.658  16.878  1.00  0.00     0.000 C 
BRANCH   2   3
ATOM      3  C   UNL     1      -7.879 -23.060  17.438  1.00  0.00     0.000 C 
BRANCH   3   4
ATOM      4  C   UNL     1      -7.373 -23.086  18.892  1.00  0.00     0.000 C 
BRANCH   4   5
ATOM      5  C   UNL     1      -5.845 -22.977  18.997  1.00  0.00     0.000 C 
BRANCH   5   6
ATOM      6  C   UNL     1      -5.187 -23.125  17.617  1.00  0.00     0.006 C 
BRANCH   6   7
ATOM      7  C   UNL     1      -4.061 -22.106  17.397  1.00  0.00     0.053 C 
BRANCH   7   8
ATOM      8  C   UNL     1      -3.512 -22.178  16.006  1.00  0.00     0.041 C 
ATOM      9  O   UNL     1      -4.018 -21.481  15.087  1.00  0.00    -0.550 OA
ATOM     10  O   UNL     1      -2.421 -22.992  15.730  1.00  0.00    -0.550 OA
ENDBRANCH   7   8
ENDBRANCH   6   7
ENDBRANCH   5   6
ENDBRANCH   4   5
ENDBRANCH   3   4
ENDBRANCH   2   3
ENDBRANCH   1   2
BRANCH   1  11
ATOM     11  C   UNL     1      -8.495 -20.718  14.551  1.00  0.00     0.000 C 
BRANCH  11  12
ATOM     12  C   UNL     1      -9.926 -20.755  15.100  1.00  0.00    -0.000 C 
BRANCH  12  13
ATOM     13  C   UNL     1     -10.187 -19.568  16.036  1.00  0.00    -0.000 C 
BRANCH  13  14
ATOM     14  C   UNL     1     -11.125 -19.967  17.182  1.00  0.00    -0.000 C 
BRANCH  14  15
ATOM     15  C   UNL     1     -10.909 -19.068  18.409  1.00  0.00    -0.000 C 
BRANCH  15  16
ATOM     16  C   UNL     1     -10.974 -19.860  19.732  1.00  0.00    -0.000 C 
BRANCH  16  17
ATOM     17  C   UNL     1      -9.773 -20.795  19.949  1.00  0.00    -0.003 C 
ATOM     18  C   UNL     1     -10.179 -22.190  20.421  1.00  0.00     0.004 C 
ENDBRANCH  16  17
ENDBRANCH  15  16
ENDBRANCH  14  15
ENDBRANCH  13  14
ENDBRANCH  12  13
ENDBRANCH  11  12
ENDBRANCH   1  11
TORSDOF 14
ENDMDL
MODEL 7
REMARK VINA RESULT:    -0.663      1.663      2.218
REMARK INTER + INTRA:          -1.878
REMARK INTER:                  -1.963
REMARK INTRA:                   0.085
REMARK UNBOUND:                -0.672
REMARK SMILES CCCCCCCCCCCCCCCC(=O)[O-]
REMARK SMILES IDX 9 1 10 2 11 3 12 4 13 5 14 6 15 7 16 8 17 9 18 10 8 11 7 12
REMARK SMILES IDX 6 13 5 14 4 15 3 16 2 17 1 18
REMARK H PARENT
REMARK Flexibility Score: inf
ROOT
ATOM      1  C   UNL     1      -5.346 -21.267  16.532  1.00  0.00     0.000 C 
ENDROOT
BRANCH   1   2
ATOM      2  C   UNL     1      -6.323 -21.656  15.412  1.00  0.00     0.000 C 
BRANCH   2   3
ATOM      3  C   UNL     1      -7.592 -22.350  15.938  1.00  0.00     0.000 C 
BRANCH   3   4
ATOM      4  C   UNL     1      -8.475 -21.485  16.855  1.00  0.00     0.000 C 
BRANCH   4   5
ATOM      5  C   UNL     1      -9.676 -22.250  17.429  1.00  0.00     0.000 C 
BRANCH   5   6
ATOM      6  C   UNL     1     -10.934 -21.368  17.442  1.00  0.00     0.006 C 
BRANCH   6   7
ATOM      7  C   UNL     1     -10.813 -20.167  16.496  1.00  0.00     0.053 C 
BRANCH   7   8
ATOM      8  C   UNL     1     -10.641 -20.598  15.073  1.00  0.00     0.041 C 
ATOM      9  O   UNL     1     -10.035 -19.857  14.254  1.00  0.00    -0.550 OA
ATOM     10  O   UNL     1     -11.121 -21.833  14.657  1.00  0.00    -0.550 OA
ENDBRANCH   7   8
ENDBRANCH   6   7
ENDBRANCH   5   6
ENDBRANCH   4   5
ENDBRANCH   3   4
ENDBRANCH   2   3
ENDBRANCH   1   2
BRANCH   1  11
ATOM     11  C   UNL     1      -4.439 -22.447  16.904  1.00  0.00     0.000 C 
BRANCH  11  12
ATOM     12  C   UNL     1      -4.734 -22.941  18.325  1.00  0.00    -0.000 C 
BRANCH  12  13
ATOM     13  C   UNL     1      -6.221 -22.783  18.665  1.00  0.00    -0.000 C 
BRANCH  13  14
ATOM     14  C   UNL     1      -6.487 -23.115  20.138  1.00  0.00    -0.000 C 
BRANCH  14  15
ATOM     15  C   UNL     1      -7.871 -22.611  20.576  1.00  0.00    -0.000 C 
BRANCH  15  16
ATOM     16  C   UNL     1      -7.951 -22.372  22.098  1.00  0.00    -0.000 C 
BRANCH  16  17
ATOM     17  C   UNL     1      -9.347 -21.949  22.584  1.00  0.00    -0.003 C 
ATOM     18  C   UNL     1     -10.142 -21.185  21.526  1.00  0.00     0.004 C 
ENDBRANCH  16  17
ENDBRANCH  15  16
ENDBRANCH  14  15
ENDBRANCH  13  14
ENDBRANCH  12  13
ENDBRANCH  11  12
ENDBRANCH   1  11
TORSDOF 14
ENDMDL
