MODEL 1
REMARK VINA RESULT:    -3.174      0.000      0.000
REMARK INTER + INTRA:          -5.172
REMARK INTER:                  -4.473
REMARK INTRA:                  -0.699
REMARK UNBOUND:                -0.699
REMARK SMILES CCCCCCCCC(=O)[O-]
REMARK SMILES IDX 6 1 7 2 8 3 9 4 10 5 11 6 5 7 4 8 3 9 2 10 1 11
REMARK H PARENT
REMARK Flexibility Score: inf
ROOT
ATOM      1  C   UNL     1     -23.642  20.112 -28.687  1.00  0.00     0.000 C 
ENDROOT
BRANCH   1   2
ATOM      2  C   UNL     1     -23.923  19.043 -29.759  1.00  0.00     0.006 C 
BRANCH   2   3
ATOM      3  C   UNL     1     -22.742  18.078 -29.935  1.00  0.00     0.053 C 
BRANCH   3   4
ATOM      4  C   UNL     1     -22.698  17.501 -31.316  1.00  0.00     0.041 C 
ATOM      5  O   UNL     1     -21.620  17.501 -31.968  1.00  0.00    -0.550 OA
ATOM      6  O   UNL     1     -23.837  16.931 -31.870  1.00  0.00    -0.550 OA
ENDBRANCH   3   4
ENDBRANCH   2   3
ENDBRANCH   1   2
BRANCH   1   7
ATOM      7  C   UNL     1     -24.548  19.965 -27.452  1.00  0.00     0.000 C 
BRANCH   7   8
ATOM      8  C   UNL     1     -23.776  19.496 -26.207  1.00  0.00    -0.000 C 
BRANCH   8   9
ATOM      9  C   UNL     1     -23.671  17.965 -26.120  1.00  0.00    -0.000 C 
BRANCH   9  10
ATOM     10  C   UNL     1     -22.228  17.460 -26.253  1.00  0.00    -0.003 C 
ATOM     11  C   UNL     1     -21.232  18.613 -26.161  1.00  0.00     0.004 C 
ENDBRANCH   9  10
ENDBRANCH   8   9
ENDBRANCH   7   8
ENDBRANCH   1   7
TORSDOF 7
ENDMDL
MODEL 2
REMARK VINA RESULT:    -3.133      7.430      9.933
REMARK INTER + INTRA:          -5.114
REMARK INTER:                  -4.387
REMARK INTRA:                  -0.728
REMARK UNBOUND:                -0.699
REMARK SMILES CCCCCCCCC(=O)[O-]
REMARK SMILES IDX 6 1 7 2 8 3 9 4 10 5 11 6 5 7 4 8 3 9 2 10 1 11
REMARK H PARENT
REMARK Flexibility Score: inf
ROOT
ATOM      1  C   UNL     1     -26.773  18.847 -38.689  1.00  0.00     0.000 C 
ENDROOT
BRANCH   1   2
ATOM      2  C   UNL     1     -26.664  18.003 -37.406  1.00  0.00     0.006 C 
BRANCH   2   3
ATOM      3  C   UNL     1     -25.825  18.698 -36.325  1.00  0.00     0.053 C 
BRANCH   3   4
ATOM      4  C   UNL     1     -26.108  18.148 -34.962  1.00  0.00     0.041 C 
ATOM      5  O   UNL     1     -25.203  17.552 -34.319  1.00  0.00    -0.550 OA
ATOM      6  O   UNL     1     -27.360  18.322 -34.386  1.00  0.00    -0.550 OA
ENDBRANCH   3   4
ENDBRANCH   2   3
ENDBRANCH   1   2
BRANCH   1   7
ATOM      7  C   UNL     1     -26.166  20.250 -38.527  1.00  0.00     0.000 C 
BRANCH   7   8
ATOM      8  C   UNL     1     -27.041  21.348 -39.157  1.00  0.00    -0.000 C 
BRANCH   8   9
ATOM      9  C   UNL     1     -27.961  22.029 -38.132  1.00  0.00    -0.000 C 
BRANCH   9  10
ATOM     10  C   UNL     1     -27.311  22.163 -36.747  1.00  0.00    -0.003 C 
ATOM     11  C   UNL     1     -28.188  21.539 -35.666  1.00  0.00     0.004 C 
ENDBRANCH   9  10
ENDBRANCH   8   9
ENDBRANCH   7   8
ENDBRANCH   1   7
TORSDOF 7
ENDMDL
MODEL 3
REMARK VINA RESULT:    -3.098     17.643     18.694
REMARK INTER + INTRA:          -5.065
REMARK INTER:                  -4.687
REMARK INTRA:                  -0.378
REMARK UNBOUND:                -0.699
REMARK SMILES CCCCCCCCC(=O)[O-]
REMARK SMILES IDX 6 1 7 2 8 3 9 4 10 5 11 6 5 7 4 8 3 9 2 10 1 11
REMARK H PARENT
REMARK Flexibility Score: inf
ROOT
ATOM      1  C   UNL     1     -21.642  31.331 -41.142  1.00  0.00     0.000 C 
ENDROOT
BRANCH   1   2
ATOM      2  C   UNL     1     -20.261  30.658 -41.234  1.00  0.00     0.006 C 
BRANCH   2   3
ATOM      3  C   UNL     1     -19.690  30.703 -42.658  1.00  0.00     0.053 C 
BRANCH   3   4
ATOM      4  C   UNL     1     -18.639  31.760 -42.802  1.00  0.00     0.041 C 
ATOM      5  O   UNL     1     -18.256  32.121 -43.947  1.00  0.00    -0.550 OA
ATOM      6  O   UNL     1     -18.107  32.372 -41.674  1.00  0.00    -0.550 OA
ENDBRANCH   3   4
ENDBRANCH   2   3
ENDBRANCH   1   2
BRANCH   1   7
ATOM      7  C   UNL     1     -21.864  32.046 -39.799  1.00  0.00     0.000 C 
BRANCH   7   8
ATOM      8  C   UNL     1     -20.884  33.211 -39.581  1.00  0.00    -0.000 C 
BRANCH   8   9
ATOM      9  C   UNL     1     -21.389  34.221 -38.538  1.00  0.00    -0.000 C 
BRANCH   9  10
ATOM     10  C   UNL     1     -22.865  34.009 -38.174  1.00  0.00    -0.003 C 
ATOM     11  C   UNL     1     -23.020  33.632 -36.703  1.00  0.00     0.004 C 
ENDBRANCH   9  10
ENDBRANCH   8   9
ENDBRANCH   7   8
ENDBRANCH   1   7
TORSDOF 7
ENDMDL
MODEL 4
REMARK VINA RESULT:    -3.096     17.561     19.087
REMARK INTER + INTRA:          -5.061
REMARK INTER:                  -4.220
REMARK INTRA:                  -0.841
REMARK UNBOUND:                -0.699
REMARK SMILES CCCCCCCCC(=O)[O-]
REMARK SMILES IDX 6 1 7 2 8 3 9 4 10 5 11 6 5 7 4 8 3 9 2 10 1 11
REMARK H PARENT
REMARK Flexibility Score: inf
ROOT
ATOM      1  C   UNL     1     -17.428  31.605 -40.869  1.00  0.00     0.000 C 
ENDROOT
BRANCH   1   2
ATOM      2  C   UNL     1     -17.744  32.523 -39.674  1.00  0.00     0.006 C 
BRANCH   2   3
ATOM      3  C   UNL     1     -19.074  32.156 -39.000  1.00  0.00     0.053 C 
BRANCH   3   4
ATOM      4  C   UNL     1     -20.132  33.182 -39.266  1.00  0.00     0.041 C 
ATOM      5  O   UNL     1     -20.702  33.228 -40.389  1.00  0.00    -0.550 OA
ATOM      6  O   UNL     1     -20.515  34.064 -38.264  1.00  0.00    -0.550 OA
ENDBRANCH   3   4
ENDBRANCH   2   3
ENDBRANCH   1   2
BRANCH   1   7
ATOM      7  C   UNL     1     -17.605  32.312 -42.223  1.00  0.00     0.000 C 
BRANCH   7   8
ATOM      8  C   UNL     1     -18.788  31.751 -43.031  1.00  0.00    -0.000 C 
BRANCH   8   9
ATOM      9  C   UNL     1     -19.323  30.430 -42.454  1.00  0.00    -0.000 C 
BRANCH   9  10
ATOM     10  C   UNL     1     -20.857  30.375 -42.420  1.00  0.00    -0.003 C 
ATOM     11  C   UNL     1     -21.355  29.765 -41.113  1.00  0.00     0.004 C 
ENDBRANCH   9  10
ENDBRANCH   8   9
ENDBRANCH   7   8
ENDBRANCH   1   7
TORSDOF 7
ENDMDL
MODEL 5
REMARK VINA RESULT:    -3.087     17.127     18.057
REMARK INTER + INTRA:          -5.049
REMARK INTER:                  -4.444
REMARK INTRA:                  -0.605
REMARK UNBOUND:                -0.699
REMARK SMILES CCCCCCCCC(=O)[O-]
REMARK SMILES IDX 6 1 7 2 8 3 9 4 10 5 11 6 5 7 4 8 3 9 2 10 1 11
REMARK H PARENT
REMARK Flexibility Score: inf
ROOT
ATOM      1  C   UNL     1     -20.757  33.376 -39.980  1.00  0.00     0.000 C 
ENDROOT
BRANCH   1   2
ATOM      2  C   UNL     1     -20.228  32.017 -40.475  1.00  0.00     0.006 C 
BRANCH   2   3
ATOM      3  C   UNL     1     -21.346  31.138 -41.052  1.00  0.00     0.053 C 
BRANCH   3   4
ATOM      4  C   UNL     1     -20.927  30.472 -42.326  1.00  0.00     0.041 C 
ATOM      5  O   UNL     1     -19.741  30.581 -42.738  1.00  0.00    -0.550 OA
ATOM      6  O   UNL     1     -21.836  29.703 -43.042  1.00  0.00    -0.550 OA
ENDBRANCH   3   4
ENDBRANCH   2   3
ENDBRANCH   1   2
BRANCH   1   7
ATOM      7  C   UNL     1     -20.619  33.547 -38.458  1.00  0.00     0.000 C 
BRANCH   7   8
ATOM      8  C   UNL     1     -21.716  34.446 -37.863  1.00  0.00    -0.000 C 
BRANCH   8   9
ATOM      9  C   UNL     1     -23.121  34.072 -38.363  1.00  0.00    -0.000 C 
BRANCH   9  10
ATOM     10  C   UNL     1     -23.649  32.776 -37.733  1.00  0.00    -0.003 C 
ATOM     11  C   UNL     1     -24.249  31.855 -38.793  1.00  0.00     0.004 C 
ENDBRANCH   9  10
ENDBRANCH   8   9
ENDBRANCH   7   8
ENDBRANCH   1   7
TORSDOF 7
ENDMDL
MODEL 6
REMARK VINA RESULT:    -3.067     17.585     18.756
REMARK INTER + INTRA:          -5.020
REMARK INTER:                  -4.766
REMARK INTRA:                  -0.255
REMARK UNBOUND:                -0.699
REMARK SMILES CCCCCCCCC(=O)[O-]
REMARK SMILES IDX 6 1 7 2 8 3 9 4 10 5 11 6 5 7 4 8 3 9 2 10 1 11
REMARK H PARENT
REMARK Flexibility Score: inf
ROOT
ATOM      1  C   UNL     1     -19.487  33.356 -39.623  1.00  0.00     0.000 C 
ENDROOT
BRANCH   1   2
ATOM      2  C   UNL     1     -19.137  32.025 -40.312  1.00  0.00     0.006 C 
BRANCH   2   3
ATOM      3  C   UNL     1     -18.172  32.220 -41.489  1.00  0.00     0.053 C 
BRANCH   3   4
ATOM      4  C   UNL     1     -18.769  31.754 -42.781  1.00  0.00     0.041 C 
ATOM      5  O   UNL     1     -19.781  31.003 -42.777  1.00  0.00    -0.550 OA
ATOM      6  O   UNL     1     -18.230  32.175 -43.990  1.00  0.00    -0.550 OA
ENDBRANCH   3   4
ENDBRANCH   2   3
ENDBRANCH   1   2
BRANCH   1   7
ATOM      7  C   UNL     1     -20.999  33.637 -39.608  1.00  0.00     0.000 C 
BRANCH   7   8
ATOM      8  C   UNL     1     -21.476  34.231 -38.272  1.00  0.00    -0.000 C 
BRANCH   8   9
ATOM      9  C   UNL     1     -22.318  33.240 -37.453  1.00  0.00    -0.000 C 
BRANCH   9  10
ATOM     10  C   UNL     1     -23.686  32.956 -38.091  1.00  0.00    -0.003 C 
ATOM     11  C   UNL     1     -24.753  33.900 -37.544  1.00  0.00     0.004 C 
ENDBRANCH   9  10
ENDBRANCH   8   9
ENDBRANCH   7   8
ENDBRANCH   1   7
TORSDOF 7
ENDMDL
MODEL 7
REMARK VINA RESULT:    -3.061      9.120     10.681
REMARK INTER + INTRA:          -5.012
REMARK INTER:                  -4.307
REMARK INTRA:                  -0.705
REMARK UNBOUND:                -0.699
REMARK SMILES CCCCCCCCC(=O)[O-]
REMARK SMILES IDX 6 1 7 2 8 3 9 4 10 5 11 6 5 7 4 8 3 9 2 10 1 11
REMARK H PARENT
REMARK Flexibility Score: inf
ROOT
ATOM      1  C   UNL     1     -26.530  18.459 -37.006  1.00  0.00     0.000 C 
ENDROOT
BRANCH   1   2
ATOM      2  C   UNL     1     -26.487  18.601 -38.539  1.00  0.00     0.006 C 
BRANCH   2   3
ATOM      3  C   UNL     1     -27.882  18.829 -39.137  1.00  0.00     0.053 C 
BRANCH   3   4
ATOM      4  C   UNL     1     -28.061  20.240 -39.606  1.00  0.00     0.041 C 
ATOM      5  O   UNL     1     -27.056  20.943 -39.896  1.00  0.00    -0.550 OA
ATOM      6  O   UNL     1     -29.337  20.767 -39.758  1.00  0.00    -0.550 OA
ENDBRANCH   3   4
ENDBRANCH   2   3
ENDBRANCH   1   2
BRANCH   1   7
ATOM      7  C   UNL     1     -25.417  19.257 -36.306  1.00  0.00     0.000 C 
BRANCH   7   8
ATOM      8  C   UNL     1     -25.562  20.775 -36.512  1.00  0.00    -0.000 C 
BRANCH   8   9
ATOM      9  C   UNL     1     -26.930  21.304 -36.055  1.00  0.00    -0.000 C 
BRANCH   9  10
ATOM     10  C   UNL     1     -27.397  22.521 -36.867  1.00  0.00    -0.003 C 
ATOM     11  C   UNL     1     -28.893  22.764 -36.682  1.00  0.00     0.004 C 
ENDBRANCH   9  10
ENDBRANCH   8   9
ENDBRANCH   7   8
ENDBRANCH   1   7
TORSDOF 7
ENDMDL
MODEL 8
REMARK VINA RESULT:    -3.047     16.820     17.747
REMARK INTER + INTRA:          -4.992
REMARK INTER:                  -4.734
REMARK INTRA:                  -0.258
REMARK UNBOUND:                -0.699
REMARK SMILES CCCCCCCCC(=O)[O-]
REMARK SMILES IDX 6 1 7 2 8 3 9 4 10 5 11 6 5 7 4 8 3 9 2 10 1 11
REMARK H PARENT
REMARK Flexibility Score: inf
ROOT
ATOM      1  C   UNL     1     -24.205  29.956 -41.520  1.00  0.00     0.000 C 
ENDROOT
BRANCH   1   2
ATOM      2  C   UNL     1     -25.708  29.634 -41.608  1.00  0.00     0.006 C 
BRANCH   2   3
ATOM      3  C   UNL     1     -25.965  28.143 -41.869  1.00  0.00     0.053 C 
BRANCH   3   4
ATOM      4  C   UNL     1     -27.429  27.836 -41.937  1.00  0.00     0.041 C 
ATOM      5  O   UNL     1     -27.932  27.379 -42.998  1.00  0.00    -0.550 OA
ATOM      6  O   UNL     1     -28.233  28.020 -40.819  1.00  0.00    -0.550 OA
ENDBRANCH   3   4
ENDBRANCH   2   3
ENDBRANCH   1   2
BRANCH   1   7
ATOM      7  C   UNL     1     -23.334  28.922 -42.253  1.00  0.00     0.000 C 
BRANCH   7   8
ATOM      8  C   UNL     1     -22.153  29.568 -42.998  1.00  0.00    -0.000 C 
BRANCH   8   9
ATOM      9  C   UNL     1     -21.523  30.729 -42.212  1.00  0.00    -0.000 C 
BRANCH   9  10
ATOM     10  C   UNL     1     -20.055  30.470 -41.844  1.00  0.00    -0.003 C 
ATOM     11  C   UNL     1     -19.123  31.392 -42.625  1.00  0.00     0.004 C 
ENDBRANCH   9  10
ENDBRANCH   8   9
ENDBRANCH   7   8
ENDBRANCH   1   7
TORSDOF 7
ENDMDL
MODEL 9
REMARK VINA RESULT:    -3.042     16.950     18.142
REMARK INTER + INTRA:          -4.985
REMARK INTER:                  -4.564
REMARK INTRA:                  -0.421
REMARK UNBOUND:                -0.699
REMARK SMILES CCCCCCCCC(=O)[O-]
REMARK SMILES IDX 6 1 7 2 8 3 9 4 10 5 11 6 5 7 4 8 3 9 2 10 1 11
REMARK H PARENT
REMARK Flexibility Score: inf
ROOT
ATOM      1  C   UNL     1     -22.547  29.244 -42.708  1.00  0.00     0.000 C 
ENDROOT
BRANCH   1   2
ATOM      2  C   UNL     1     -23.417  28.879 -41.492  1.00  0.00     0.006 C 
BRANCH   2   3
ATOM      3  C   UNL     1     -24.836  28.461 -41.901  1.00  0.00     0.053 C 
BRANCH   3   4
ATOM      4  C   UNL     1     -25.818  29.578 -41.721  1.00  0.00     0.041 C 
ATOM      5  O   UNL     1     -25.415  30.735 -41.429  1.00  0.00    -0.550 OA
ATOM      6  O   UNL     1     -27.175  29.350 -41.912  1.00  0.00    -0.550 OA
ENDBRANCH   3   4
ENDBRANCH   2   3
ENDBRANCH   1   2
BRANCH   1   7
ATOM      7  C   UNL     1     -21.933  30.649 -42.598  1.00  0.00     0.000 C 
BRANCH   7   8
ATOM      8  C   UNL     1     -21.400  30.951 -41.187  1.00  0.00    -0.000 C 
BRANCH   8   9
ATOM      9  C   UNL     1     -19.868  31.065 -41.146  1.00  0.00    -0.000 C 
BRANCH   9  10
ATOM     10  C   UNL     1     -19.209  30.685 -42.480  1.00  0.00    -0.003 C 
ATOM     11  C   UNL     1     -18.440  31.865 -43.068  1.00  0.00     0.004 C 
ENDBRANCH   9  10
ENDBRANCH   8   9
ENDBRANCH   7   8
ENDBRANCH   1   7
TORSDOF 7
ENDMDL
