MODEL 1
REMARK VINA RESULT:    -4.916      0.000      0.000
REMARK INTER + INTRA:          -9.513
REMARK INTER:                  -8.364
REMARK INTRA:                  -1.148
REMARK UNBOUND:                -1.148
REMARK SMILES CCCCCCCCCCCCCC(=O)[O-]
REMARK SMILES IDX 8 1 9 2 10 3 11 4 12 5 13 6 14 7 15 8 16 9 7 10 6 11 5 12
REMARK SMILES IDX 4 13 3 14 2 15 1 16
REMARK H PARENT
REMARK Flexibility Score: inf
ROOT
ATOM      1  C   UNL     1      49.058  19.373  49.816  1.00  0.00     0.000 C 
ENDROOT
BRANCH   1   2
ATOM      2  C   UNL     1      48.308  20.711  49.910  1.00  0.00     0.000 C 
BRANCH   2   3
ATOM      3  C   UNL     1      47.578  20.884  51.252  1.00  0.00     0.000 C 
BRANCH   3   4
ATOM      4  C   UNL     1      47.870  22.240  51.919  1.00  0.00     0.000 C 
BRANCH   4   5
ATOM      5  C   UNL     1      49.323  22.384  52.421  1.00  0.00     0.006 C 
BRANCH   5   6
ATOM      6  C   UNL     1      49.443  22.124  53.928  1.00  0.00     0.053 C 
BRANCH   6   7
ATOM      7  C   UNL     1      50.862  21.829  54.297  1.00  0.00     0.041 C 
ATOM      8  O   UNL     1      51.220  20.647  54.541  1.00  0.00    -0.550 OA
ATOM      9  O   UNL     1      51.778  22.865  54.421  1.00  0.00    -0.550 OA
ENDBRANCH   6   7
ENDBRANCH   5   6
ENDBRANCH   4   5
ENDBRANCH   3   4
ENDBRANCH   2   3
ENDBRANCH   1   2
BRANCH   1  10
ATOM     10  C   UNL     1      50.414  19.403  50.538  1.00  0.00     0.000 C 
BRANCH  10  11
ATOM     11  C   UNL     1      51.331  20.476  49.939  1.00  0.00    -0.000 C 
BRANCH  11  12
ATOM     12  C   UNL     1      52.327  20.996  50.986  1.00  0.00    -0.000 C 
BRANCH  12  13
ATOM     13  C   UNL     1      53.785  20.921  50.505  1.00  0.00    -0.000 C 
BRANCH  13  14
ATOM     14  C   UNL     1      53.940  20.112  49.208  1.00  0.00    -0.000 C 
BRANCH  14  15
ATOM     15  C   UNL     1      55.360  20.248  48.645  1.00  0.00    -0.003 C 
ATOM     16  C   UNL     1      55.484  21.482  47.754  1.00  0.00     0.004 C 
ENDBRANCH  14  15
ENDBRANCH  13  14
ENDBRANCH  12  13
ENDBRANCH  11  12
ENDBRANCH  10  11
ENDBRANCH   1  10
TORSDOF 12
ENDMDL
MODEL 2
REMARK VINA RESULT:    -4.800      3.752      4.659
REMARK INTER + INTRA:          -9.316
REMARK INTER:                  -8.705
REMARK INTRA:                  -0.611
REMARK UNBOUND:                -1.148
REMARK SMILES CCCCCCCCCCCCCC(=O)[O-]
REMARK SMILES IDX 8 1 9 2 10 3 11 4 12 5 13 6 14 7 15 8 16 9 7 10 6 11 5 12
REMARK SMILES IDX 4 13 3 14 2 15 1 16
REMARK H PARENT
REMARK Flexibility Score: inf
ROOT
ATOM      1  C   UNL     1      48.604  20.616  49.775  1.00  0.00     0.000 C 
ENDROOT
BRANCH   1   2
ATOM      2  C   UNL     1      47.245  20.749  50.482  1.00  0.00     0.000 C 
BRANCH   2   3
ATOM      3  C   UNL     1      46.996  19.623  51.498  1.00  0.00     0.000 C 
BRANCH   3   4
ATOM      4  C   UNL     1      45.712  18.827  51.203  1.00  0.00     0.000 C 
BRANCH   4   5
ATOM      5  C   UNL     1      45.178  18.038  52.417  1.00  0.00     0.006 C 
BRANCH   5   6
ATOM      6  C   UNL     1      43.645  18.043  52.481  1.00  0.00     0.053 C 
BRANCH   6   7
ATOM      7  C   UNL     1      43.174  18.785  53.692  1.00  0.00     0.041 C 
ATOM      8  O   UNL     1      42.037  19.326  53.701  1.00  0.00    -0.550 OA
ATOM      9  O   UNL     1      44.010  18.921  54.793  1.00  0.00    -0.550 OA
ENDBRANCH   6   7
ENDBRANCH   5   6
ENDBRANCH   4   5
ENDBRANCH   3   4
ENDBRANCH   2   3
ENDBRANCH   1   2
BRANCH   1  10
ATOM     10  C   UNL     1      49.345  19.326  50.156  1.00  0.00     0.000 C 
BRANCH  10  11
ATOM     11  C   UNL     1      50.853  19.468  49.915  1.00  0.00    -0.000 C 
BRANCH  11  12
ATOM     12  C   UNL     1      51.393  20.757  50.553  1.00  0.00    -0.000 C 
BRANCH  12  13
ATOM     13  C   UNL     1      52.884  20.986  50.256  1.00  0.00    -0.000 C 
BRANCH  13  14
ATOM     14  C   UNL     1      53.429  20.024  49.189  1.00  0.00    -0.000 C 
BRANCH  14  15
ATOM     15  C   UNL     1      54.943  20.199  49.016  1.00  0.00    -0.003 C 
ATOM     16  C   UNL     1      55.260  21.378  48.101  1.00  0.00     0.004 C 
ENDBRANCH  14  15
ENDBRANCH  13  14
ENDBRANCH  12  13
ENDBRANCH  11  12
ENDBRANCH  10  11
ENDBRANCH   1  10
TORSDOF 12
ENDMDL
MODEL 3
REMARK VINA RESULT:    -4.800      3.776      4.535
REMARK INTER + INTRA:          -9.315
REMARK INTER:                  -8.755
REMARK INTRA:                  -0.560
REMARK UNBOUND:                -1.148
REMARK SMILES CCCCCCCCCCCCCC(=O)[O-]
REMARK SMILES IDX 8 1 9 2 10 3 11 4 12 5 13 6 14 7 15 8 16 9 7 10 6 11 5 12
REMARK SMILES IDX 4 13 3 14 2 15 1 16
REMARK H PARENT
REMARK Flexibility Score: inf
ROOT
ATOM      1  C   UNL     1      49.481  19.473  50.352  1.00  0.00     0.000 C 
ENDROOT
BRANCH   1   2
ATOM      2  C   UNL     1      48.577  20.604  49.834  1.00  0.00     0.000 C 
BRANCH   2   3
ATOM      3  C   UNL     1      47.727  21.237  50.948  1.00  0.00     0.000 C 
BRANCH   3   4
ATOM      4  C   UNL     1      47.024  20.190  51.829  1.00  0.00     0.000 C 
BRANCH   4   5
ATOM      5  C   UNL     1      46.062  19.268  51.049  1.00  0.00     0.006 C 
BRANCH   5   6
ATOM      6  C   UNL     1      45.463  18.171  51.939  1.00  0.00     0.053 C 
BRANCH   6   7
ATOM      7  C   UNL     1      44.169  17.682  51.369  1.00  0.00     0.041 C 
ATOM      8  O   UNL     1      44.053  16.484  50.999  1.00  0.00    -0.550 OA
ATOM      9  O   UNL     1      43.107  18.561  51.200  1.00  0.00    -0.550 OA
ENDBRANCH   6   7
ENDBRANCH   5   6
ENDBRANCH   4   5
ENDBRANCH   3   4
ENDBRANCH   2   3
ENDBRANCH   1   2
BRANCH   1  10
ATOM     10  C   UNL     1      50.919  19.576  49.822  1.00  0.00     0.000 C 
BRANCH  10  11
ATOM     11  C   UNL     1      51.558  20.911  50.225  1.00  0.00    -0.000 C 
BRANCH  11  12
ATOM     12  C   UNL     1      53.090  20.803  50.245  1.00  0.00    -0.000 C 
BRANCH  12  13
ATOM     13  C   UNL     1      53.635  19.895  49.132  1.00  0.00    -0.000 C 
BRANCH  13  14
ATOM     14  C   UNL     1      55.095  20.211  48.770  1.00  0.00    -0.000 C 
BRANCH  14  15
ATOM     15  C   UNL     1      55.243  21.667  48.314  1.00  0.00    -0.003 C 
ATOM     16  C   UNL     1      55.998  21.757  46.991  1.00  0.00     0.004 C 
ENDBRANCH  14  15
ENDBRANCH  13  14
ENDBRANCH  12  13
ENDBRANCH  11  12
ENDBRANCH  10  11
ENDBRANCH   1  10
TORSDOF 12
ENDMDL
MODEL 4
REMARK VINA RESULT:    -4.739      2.370      3.771
REMARK INTER + INTRA:          -9.212
REMARK INTER:                  -7.845
REMARK INTRA:                  -1.367
REMARK UNBOUND:                -1.148
REMARK SMILES CCCCCCCCCCCCCC(=O)[O-]
REMARK SMILES IDX 8 1 9 2 10 3 11 4 12 5 13 6 14 7 15 8 16 9 7 10 6 11 5 12
REMARK SMILES IDX 4 13 3 14 2 15 1 16
REMARK H PARENT
REMARK Flexibility Score: inf
ROOT
ATOM      1  C   UNL     1      51.970  23.511  52.385  1.00  0.00     0.000 C 
ENDROOT
BRANCH   1   2
ATOM      2  C   UNL     1      50.997  24.401  53.176  1.00  0.00     0.000 C 
BRANCH   2   3
ATOM      3  C   UNL     1      49.722  23.651  53.598  1.00  0.00     0.000 C 
BRANCH   3   4
ATOM      4  C   UNL     1      48.746  23.431  52.430  1.00  0.00     0.000 C 
BRANCH   4   5
ATOM      5  C   UNL     1      48.177  21.998  52.358  1.00  0.00     0.006 C 
BRANCH   5   6
ATOM      6  C   UNL     1      47.779  21.604  50.930  1.00  0.00     0.053 C 
BRANCH   6   7
ATOM      7  C   UNL     1      47.695  20.116  50.801  1.00  0.00     0.041 C 
ATOM      8  O   UNL     1      48.600  19.481  50.198  1.00  0.00    -0.550 OA
ATOM      9  O   UNL     1      46.593  19.435  51.302  1.00  0.00    -0.550 OA
ENDBRANCH   6   7
ENDBRANCH   5   6
ENDBRANCH   4   5
ENDBRANCH   3   4
ENDBRANCH   2   3
ENDBRANCH   1   2
BRANCH   1  10
ATOM     10  C   UNL     1      52.286  22.193  53.107  1.00  0.00     0.000 C 
BRANCH  10  11
ATOM     11  C   UNL     1      51.769  20.990  52.307  1.00  0.00    -0.000 C 
BRANCH  11  12
ATOM     12  C   UNL     1      51.498  21.377  50.845  1.00  0.00    -0.000 C 
BRANCH  12  13
ATOM     13  C   UNL     1      52.299  20.524  49.849  1.00  0.00    -0.000 C 
BRANCH  13  14
ATOM     14  C   UNL     1      53.818  20.675  50.028  1.00  0.00    -0.000 C 
BRANCH  14  15
ATOM     15  C   UNL     1      54.569  20.129  48.808  1.00  0.00    -0.003 C 
ATOM     16  C   UNL     1      55.300  21.245  48.066  1.00  0.00     0.004 C 
ENDBRANCH  14  15
ENDBRANCH  13  14
ENDBRANCH  12  13
ENDBRANCH  11  12
ENDBRANCH  10  11
ENDBRANCH   1  10
TORSDOF 12
ENDMDL
MODEL 5
REMARK VINA RESULT:    -4.678      3.184      4.380
REMARK INTER + INTRA:          -9.108
REMARK INTER:                  -8.332
REMARK INTRA:                  -0.776
REMARK UNBOUND:                -1.148
REMARK SMILES CCCCCCCCCCCCCC(=O)[O-]
REMARK SMILES IDX 8 1 9 2 10 3 11 4 12 5 13 6 14 7 15 8 16 9 7 10 6 11 5 12
REMARK SMILES IDX 4 13 3 14 2 15 1 16
REMARK H PARENT
REMARK Flexibility Score: inf
ROOT
ATOM      1  C   UNL     1      49.831  22.914  52.875  1.00  0.00     0.000 C 
ENDROOT
BRANCH   1   2
ATOM      2  C   UNL     1      48.711  21.862  52.831  1.00  0.00     0.000 C 
BRANCH   2   3
ATOM      3  C   UNL     1      47.814  22.006  51.590  1.00  0.00     0.000 C 
BRANCH   3   4
ATOM      4  C   UNL     1      47.846  20.764  50.683  1.00  0.00     0.000 C 
BRANCH   4   5
ATOM      5  C   UNL     1      46.487  20.040  50.575  1.00  0.00     0.006 C 
BRANCH   5   6
ATOM      6  C   UNL     1      46.284  19.019  51.702  1.00  0.00     0.053 C 
BRANCH   6   7
ATOM      7  C   UNL     1      44.944  18.365  51.582  1.00  0.00     0.041 C 
ATOM      8  O   UNL     1      44.644  17.394  52.326  1.00  0.00    -0.550 OA
ATOM      9  O   UNL     1      44.044  18.795  50.616  1.00  0.00    -0.550 OA
ENDBRANCH   6   7
ENDBRANCH   5   6
ENDBRANCH   4   5
ENDBRANCH   3   4
ENDBRANCH   2   3
ENDBRANCH   1   2
BRANCH   1  10
ATOM     10  C   UNL     1      50.761  22.840  51.654  1.00  0.00     0.000 C 
BRANCH  10  11
ATOM     11  C   UNL     1      51.732  21.659  51.776  1.00  0.00    -0.000 C 
BRANCH  11  12
ATOM     12  C   UNL     1      51.402  20.566  50.748  1.00  0.00    -0.000 C 
BRANCH  12  13
ATOM     13  C   UNL     1      52.415  20.512  49.594  1.00  0.00    -0.000 C 
BRANCH  13  14
ATOM     14  C   UNL     1      53.867  20.673  50.072  1.00  0.00    -0.000 C 
BRANCH  14  15
ATOM     15  C   UNL     1      54.851  20.171  49.009  1.00  0.00    -0.003 C 
ATOM     16  C   UNL     1      55.181  21.270  48.002  1.00  0.00     0.004 C 
ENDBRANCH  14  15
ENDBRANCH  13  14
ENDBRANCH  12  13
ENDBRANCH  11  12
ENDBRANCH  10  11
ENDBRANCH   1  10
TORSDOF 12
ENDMDL
MODEL 6
REMARK VINA RESULT:    -4.638      1.013      1.919
REMARK INTER + INTRA:          -9.040
REMARK INTER:                  -7.900
REMARK INTRA:                  -1.140
REMARK UNBOUND:                -1.148
REMARK SMILES CCCCCCCCCCCCCC(=O)[O-]
REMARK SMILES IDX 8 1 9 2 10 3 11 4 12 5 13 6 14 7 15 8 16 9 7 10 6 11 5 12
REMARK SMILES IDX 4 13 3 14 2 15 1 16
REMARK H PARENT
REMARK Flexibility Score: inf
ROOT
ATOM      1  C   UNL     1      48.615  21.257  50.665  1.00  0.00     0.000 C 
ENDROOT
BRANCH   1   2
ATOM      2  C   UNL     1      47.564  21.362  51.782  1.00  0.00     0.000 C 
BRANCH   2   3
ATOM      3  C   UNL     1      48.059  22.183  52.984  1.00  0.00     0.000 C 
BRANCH   3   4
ATOM      4  C   UNL     1      49.584  22.100  53.174  1.00  0.00     0.000 C 
BRANCH   4   5
ATOM      5  C   UNL     1      50.013  21.829  54.632  1.00  0.00     0.006 C 
BRANCH   5   6
ATOM      6  C   UNL     1      51.501  22.124  54.861  1.00  0.00     0.053 C 
BRANCH   6   7
ATOM      7  C   UNL     1      52.323  20.899  54.613  1.00  0.00     0.041 C 
ATOM      8  O   UNL     1      51.842  19.758  54.840  1.00  0.00    -0.550 OA
ATOM      9  O   UNL     1      53.637  21.019  54.179  1.00  0.00    -0.550 OA
ENDBRANCH   6   7
ENDBRANCH   5   6
ENDBRANCH   4   5
ENDBRANCH   3   4
ENDBRANCH   2   3
ENDBRANCH   1   2
BRANCH   1  10
ATOM     10  C   UNL     1      48.870  19.807  50.226  1.00  0.00     0.000 C 
BRANCH  10  11
ATOM     11  C   UNL     1      50.365  19.469  50.293  1.00  0.00    -0.000 C 
BRANCH  11  12
ATOM     12  C   UNL     1      51.219  20.653  49.816  1.00  0.00    -0.000 C 
BRANCH  12  13
ATOM     13  C   UNL     1      52.199  21.148  50.892  1.00  0.00    -0.000 C 
BRANCH  13  14
ATOM     14  C   UNL     1      53.669  20.932  50.499  1.00  0.00    -0.000 C 
BRANCH  14  15
ATOM     15  C   UNL     1      53.774  20.191  49.161  1.00  0.00    -0.003 C 
ATOM     16  C   UNL     1      55.230  20.041  48.728  1.00  0.00     0.004 C 
ENDBRANCH  14  15
ENDBRANCH  13  14
ENDBRANCH  12  13
ENDBRANCH  11  12
ENDBRANCH  10  11
ENDBRANCH   1  10
TORSDOF 12
ENDMDL
MODEL 7
REMARK VINA RESULT:    -4.602      2.107      2.432
REMARK INTER + INTRA:          -8.979
REMARK INTER:                  -7.951
REMARK INTRA:                  -1.027
REMARK UNBOUND:                -1.148
REMARK SMILES CCCCCCCCCCCCCC(=O)[O-]
REMARK SMILES IDX 8 1 9 2 10 3 11 4 12 5 13 6 14 7 15 8 16 9 7 10 6 11 5 12
REMARK SMILES IDX 4 13 3 14 2 15 1 16
REMARK H PARENT
REMARK Flexibility Score: inf
ROOT
ATOM      1  C   UNL     1      48.586  20.548  49.533  1.00  0.00     0.000 C 
ENDROOT
BRANCH   1   2
ATOM      2  C   UNL     1      47.565  21.285  50.415  1.00  0.00     0.000 C 
BRANCH   2   3
ATOM      3  C   UNL     1      47.829  21.087  51.916  1.00  0.00     0.000 C 
BRANCH   3   4
ATOM      4  C   UNL     1      48.278  22.380  52.618  1.00  0.00     0.000 C 
BRANCH   4   5
ATOM      5  C   UNL     1      49.052  22.137  53.931  1.00  0.00     0.006 C 
BRANCH   5   6
ATOM      6  C   UNL     1      48.393  22.832  55.130  1.00  0.00     0.053 C 
BRANCH   6   7
ATOM      7  C   UNL     1      47.006  22.313  55.338  1.00  0.00     0.041 C 
ATOM      8  O   UNL     1      46.035  23.112  55.407  1.00  0.00    -0.550 OA
ATOM      9  O   UNL     1      46.791  20.951  55.507  1.00  0.00    -0.550 OA
ENDBRANCH   6   7
ENDBRANCH   5   6
ENDBRANCH   4   5
ENDBRANCH   3   4
ENDBRANCH   2   3
ENDBRANCH   1   2
BRANCH   1  10
ATOM     10  C   UNL     1      49.305  19.416  50.282  1.00  0.00     0.000 C 
BRANCH  10  11
ATOM     11  C   UNL     1      50.825  19.514  50.097  1.00  0.00    -0.000 C 
BRANCH  11  12
ATOM     12  C   UNL     1      51.396  20.717  50.862  1.00  0.00    -0.000 C 
BRANCH  12  13
ATOM     13  C   UNL     1      52.825  21.073  50.424  1.00  0.00    -0.000 C 
BRANCH  13  14
ATOM     14  C   UNL     1      53.346  20.161  49.302  1.00  0.00    -0.000 C 
BRANCH  14  15
ATOM     15  C   UNL     1      54.863  20.309  49.136  1.00  0.00    -0.003 C 
ATOM     16  C   UNL     1      55.201  21.340  48.062  1.00  0.00     0.004 C 
ENDBRANCH  14  15
ENDBRANCH  13  14
ENDBRANCH  12  13
ENDBRANCH  11  12
ENDBRANCH  10  11
ENDBRANCH   1  10
TORSDOF 12
ENDMDL
MODEL 8
REMARK VINA RESULT:    -4.565      4.759      6.267
REMARK INTER + INTRA:          -8.917
REMARK INTER:                  -8.338
REMARK INTRA:                  -0.578
REMARK UNBOUND:                -1.148
REMARK SMILES CCCCCCCCCCCCCC(=O)[O-]
REMARK SMILES IDX 8 1 9 2 10 3 11 4 12 5 13 6 14 7 15 8 16 9 7 10 6 11 5 12
REMARK SMILES IDX 4 13 3 14 2 15 1 16
REMARK H PARENT
REMARK Flexibility Score: inf
ROOT
ATOM      1  C   UNL     1      53.061  21.047  53.909  1.00  0.00     0.000 C 
ENDROOT
BRANCH   1   2
ATOM      2  C   UNL     1      53.340  21.936  55.132  1.00  0.00     0.000 C 
BRANCH   2   3
ATOM      3  C   UNL     1      54.503  22.915  54.897  1.00  0.00     0.000 C 
BRANCH   3   4
ATOM      4  C   UNL     1      55.754  22.562  55.719  1.00  0.00     0.000 C 
BRANCH   4   5
ATOM      5  C   UNL     1      56.720  23.749  55.920  1.00  0.00     0.006 C 
BRANCH   5   6
ATOM      6  C   UNL     1      57.081  23.958  57.397  1.00  0.00     0.053 C 
BRANCH   6   7
ATOM      7  C   UNL     1      58.547  23.749  57.613  1.00  0.00     0.041 C 
ATOM      8  O   UNL     1      59.337  24.729  57.585  1.00  0.00    -0.550 OA
ATOM      9  O   UNL     1      59.047  22.466  57.794  1.00  0.00    -0.550 OA
ENDBRANCH   6   7
ENDBRANCH   5   6
ENDBRANCH   4   5
ENDBRANCH   3   4
ENDBRANCH   2   3
ENDBRANCH   1   2
BRANCH   1  10
ATOM     10  C   UNL     1      51.706  21.353  53.252  1.00  0.00     0.000 C 
BRANCH  10  11
ATOM     11  C   UNL     1      51.892  21.812  51.800  1.00  0.00    -0.000 C 
BRANCH  11  12
ATOM     12  C   UNL     1      51.372  20.752  50.818  1.00  0.00    -0.000 C 
BRANCH  12  13
ATOM     13  C   UNL     1      52.374  20.443  49.694  1.00  0.00    -0.000 C 
BRANCH  13  14
ATOM     14  C   UNL     1      53.831  20.682  50.118  1.00  0.00    -0.000 C 
BRANCH  14  15
ATOM     15  C   UNL     1      54.803  20.198  49.035  1.00  0.00    -0.003 C 
ATOM     16  C   UNL     1      55.225  21.346  48.121  1.00  0.00     0.004 C 
ENDBRANCH  14  15
ENDBRANCH  13  14
ENDBRANCH  12  13
ENDBRANCH  11  12
ENDBRANCH  10  11
ENDBRANCH   1  10
TORSDOF 12
ENDMDL
MODEL 9
REMARK VINA RESULT:    -4.529      3.326      4.667
REMARK INTER + INTRA:          -8.855
REMARK INTER:                  -7.979
REMARK INTRA:                  -0.876
REMARK UNBOUND:                -1.148
REMARK SMILES CCCCCCCCCCCCCC(=O)[O-]
REMARK SMILES IDX 8 1 9 2 10 3 11 4 12 5 13 6 14 7 15 8 16 9 7 10 6 11 5 12
REMARK SMILES IDX 4 13 3 14 2 15 1 16
REMARK H PARENT
REMARK Flexibility Score: inf
ROOT
ATOM      1  C   UNL     1      51.687  22.365  52.787  1.00  0.00     0.000 C 
ENDROOT
BRANCH   1   2
ATOM      2  C   UNL     1      51.721  20.959  53.408  1.00  0.00     0.000 C 
BRANCH   2   3
ATOM      3  C   UNL     1      52.400  20.940  54.788  1.00  0.00     0.000 C 
BRANCH   3   4
ATOM      4  C   UNL     1      53.897  21.288  54.720  1.00  0.00     0.000 C 
BRANCH   4   5
ATOM      5  C   UNL     1      54.310  22.438  55.664  1.00  0.00     0.006 C 
BRANCH   5   6
ATOM      6  C   UNL     1      55.762  22.878  55.439  1.00  0.00     0.053 C 
BRANCH   6   7
ATOM      7  C   UNL     1      56.531  22.824  56.722  1.00  0.00     0.041 C 
ATOM      8  O   UNL     1      56.101  22.142  57.689  1.00  0.00    -0.550 OA
ATOM      9  O   UNL     1      57.695  23.568  56.867  1.00  0.00    -0.550 OA
ENDBRANCH   6   7
ENDBRANCH   5   6
ENDBRANCH   4   5
ENDBRANCH   3   4
ENDBRANCH   2   3
ENDBRANCH   1   2
BRANCH   1  10
ATOM     10  C   UNL     1      50.499  22.562  51.834  1.00  0.00     0.000 C 
BRANCH  10  11
ATOM     11  C   UNL     1      50.190  21.270  51.067  1.00  0.00    -0.000 C 
BRANCH  11  12
ATOM     12  C   UNL     1      50.976  21.212  49.748  1.00  0.00    -0.000 C 
BRANCH  12  13
ATOM     13  C   UNL     1      52.139  20.209  49.796  1.00  0.00    -0.000 C 
BRANCH  13  14
ATOM     14  C   UNL     1      53.507  20.895  49.940  1.00  0.00    -0.000 C 
BRANCH  14  15
ATOM     15  C   UNL     1      54.543  20.252  49.010  1.00  0.00    -0.003 C 
ATOM     16  C   UNL     1      55.218  21.299  48.129  1.00  0.00     0.004 C 
ENDBRANCH  14  15
ENDBRANCH  13  14
ENDBRANCH  12  13
ENDBRANCH  11  12
ENDBRANCH  10  11
ENDBRANCH   1  10
TORSDOF 12
ENDMDL
