MODEL 1
REMARK VINA RESULT:    -4.494      0.000      0.000
REMARK INTER + INTRA:          -6.159
REMARK INTER:                  -5.808
REMARK INTRA:                  -0.351
REMARK UNBOUND:                -0.351
REMARK SMILES CCO[C@@H]1O[C@@H](CO)[C@@H](O)[C@@H](O)[C@H]1O
REMARK SMILES IDX 4 1 13 2 11 3 9 4 6 5 5 6 3 7 2 8 1 9 14 10 12 12 7 14 8 15
REMARK SMILES IDX 10 17
REMARK H PARENT 14 11 12 13 8 16 10 18
REMARK Flexibility Score: inf
ROOT
ATOM      1  C   UNL     1     -23.132  19.455 -27.952  1.00  0.00     0.281 C 
ATOM      2  C   UNL     1     -24.150  20.537 -27.482  1.00  0.00     0.202 C 
ATOM      3  C   UNL     1     -24.130  21.764 -28.417  1.00  0.00     0.179 C 
ATOM      4  C   UNL     1     -24.249  21.359 -29.903  1.00  0.00     0.177 C 
ATOM      5  C   UNL     1     -23.455  20.055 -30.225  1.00  0.00     0.178 C 
ATOM      6  O   UNL     1     -22.514  19.743 -29.204  1.00  0.00    -0.341 OA
ENDROOT
BRANCH   1   7
ATOM      7  O   UNL     1     -22.157  19.209 -26.948  1.00  0.00    -0.350 OA
BRANCH   7   8
ATOM      8  C   UNL     1     -21.974  17.826 -26.704  1.00  0.00     0.160 C 
ATOM      9  C   UNL     1     -23.260  17.249 -26.132  1.00  0.00     0.035 C 
ENDBRANCH   7   8
ENDBRANCH   1   7
BRANCH   2  10
ATOM     10  O   UNL     1     -25.439  19.976 -27.430  1.00  0.00    -0.385 OA
ATOM     11  H   UNL     1     -25.785  19.949 -28.361  1.00  0.00     0.211 HD
ENDBRANCH   2  10
BRANCH   3  12
ATOM     12  O   UNL     1     -25.149  22.672 -28.078  1.00  0.00    -0.387 OA
ATOM     13  H   UNL     1     -25.139  22.758 -27.089  1.00  0.00     0.211 HD
ENDBRANCH   3  12
BRANCH   5  14
ATOM     14  C   UNL     1     -24.321  18.839 -30.622  1.00  0.00     0.191 C 
BRANCH  14  15
ATOM     15  O   UNL     1     -24.985  19.104 -31.828  1.00  0.00    -0.394 OA
ATOM     16  H   UNL     1     -24.582  19.936 -32.187  1.00  0.00     0.210 HD
ENDBRANCH  14  15
ENDBRANCH   5  14
BRANCH   4  17
ATOM     17  O   UNL     1     -25.586  21.299 -30.342  1.00  0.00    -0.387 OA
ATOM     18  H   UNL     1     -26.159  21.078 -29.565  1.00  0.00     0.211 HD
ENDBRANCH   4  17
TORSDOF 7
ENDMDL
MODEL 2
REMARK VINA RESULT:    -4.478     15.350     16.352
REMARK INTER + INTRA:          -6.138
REMARK INTER:                  -5.772
REMARK INTRA:                  -0.366
REMARK UNBOUND:                -0.351
REMARK SMILES CCO[C@@H]1O[C@@H](CO)[C@@H](O)[C@@H](O)[C@H]1O
REMARK SMILES IDX 4 1 13 2 11 3 9 4 6 5 5 6 3 7 2 8 1 9 14 10 12 12 7 14 8 15
REMARK SMILES IDX 10 17
REMARK H PARENT 14 11 12 13 8 16 10 18
REMARK Flexibility Score: inf
ROOT
ATOM      1  C   UNL     1     -26.586  28.782 -41.867  1.00  0.00     0.281 C 
ATOM      2  C   UNL     1     -27.699  27.727 -42.149  1.00  0.00     0.202 C 
ATOM      3  C   UNL     1     -28.540  27.452 -40.885  1.00  0.00     0.179 C 
ATOM      4  C   UNL     1     -29.032  28.759 -40.224  1.00  0.00     0.177 C 
ATOM      5  C   UNL     1     -27.959  29.890 -40.280  1.00  0.00     0.178 C 
ATOM      6  O   UNL     1     -26.665  29.377 -40.574  1.00  0.00    -0.341 OA
ENDROOT
BRANCH   1   7
ATOM      7  O   UNL     1     -25.298  28.229 -42.095  1.00  0.00    -0.350 OA
BRANCH   7   8
ATOM      8  C   UNL     1     -24.292  28.884 -41.345  1.00  0.00     0.160 C 
ATOM      9  C   UNL     1     -23.086  29.130 -42.239  1.00  0.00     0.035 C 
ENDBRANCH   7   8
ENDBRANCH   1   7
BRANCH   2  10
ATOM     10  O   UNL     1     -28.518  28.181 -43.199  1.00  0.00    -0.385 OA
ATOM     11  H   UNL     1     -28.339  29.152 -43.312  1.00  0.00     0.211 HD
ENDBRANCH   2  10
BRANCH   3  12
ATOM     12  O   UNL     1     -29.630  26.615 -41.178  1.00  0.00    -0.387 OA
ATOM     13  H   UNL     1     -29.527  26.329 -42.123  1.00  0.00     0.211 HD
ENDBRANCH   3  12
BRANCH   5  14
ATOM     14  C   UNL     1     -28.328  31.104 -41.161  1.00  0.00     0.191 C 
BRANCH  14  15
ATOM     15  O   UNL     1     -29.265  31.905 -40.496  1.00  0.00    -0.394 OA
ATOM     16  H   UNL     1     -29.486  32.645 -41.118  1.00  0.00     0.210 HD
ENDBRANCH  14  15
ENDBRANCH   5  14
BRANCH   4  17
ATOM     17  O   UNL     1     -30.283  29.177 -40.720  1.00  0.00    -0.387 OA
ATOM     18  H   UNL     1     -30.281  30.166 -40.778  1.00  0.00     0.211 HD
ENDBRANCH   4  17
TORSDOF 7
ENDMDL
MODEL 3
REMARK VINA RESULT:    -4.449      1.707      2.662
REMARK INTER + INTRA:          -6.100
REMARK INTER:                  -5.748
REMARK INTRA:                  -0.353
REMARK UNBOUND:                -0.351
REMARK SMILES CCO[C@@H]1O[C@@H](CO)[C@@H](O)[C@@H](O)[C@H]1O
REMARK SMILES IDX 4 1 13 2 11 3 9 4 6 5 5 6 3 7 2 8 1 9 14 10 12 12 7 14 8 15
REMARK SMILES IDX 10 17
REMARK H PARENT 14 11 12 13 8 16 10 18
REMARK Flexibility Score: inf
ROOT
ATOM      1  C   UNL     1     -22.252  17.792 -27.778  1.00  0.00     0.281 C 
ATOM      2  C   UNL     1     -23.183  17.882 -26.531  1.00  0.00     0.202 C 
ATOM      3  C   UNL     1     -23.466  19.351 -26.151  1.00  0.00     0.179 C 
ATOM      4  C   UNL     1     -23.925  20.183 -27.370  1.00  0.00     0.177 C 
ATOM      5  C   UNL     1     -23.161  19.792 -28.673  1.00  0.00     0.178 C 
ATOM      6  O   UNL     1     -21.981  19.050 -28.393  1.00  0.00    -0.341 OA
ENDROOT
BRANCH   1   7
ATOM      7  O   UNL     1     -21.046  17.111 -27.460  1.00  0.00    -0.350 OA
BRANCH   7   8
ATOM      8  C   UNL     1     -20.912  16.877 -26.070  1.00  0.00     0.160 C 
ATOM      9  C   UNL     1     -19.738  17.688 -25.542  1.00  0.00     0.035 C 
ENDBRANCH   7   8
ENDBRANCH   1   7
BRANCH   2  10
ATOM     10  O   UNL     1     -24.384  17.199 -26.794  1.00  0.00    -0.385 OA
ATOM     11  H   UNL     1     -25.025  17.864 -27.160  1.00  0.00     0.211 HD
ENDBRANCH   2  10
BRANCH   3  12
ATOM     12  O   UNL     1     -24.419  19.430 -25.122  1.00  0.00    -0.387 OA
ATOM     13  H   UNL     1     -24.991  18.622 -25.198  1.00  0.00     0.211 HD
ENDBRANCH   3  12
BRANCH   5  14
ATOM     14  C   UNL     1     -24.027  19.134 -29.770  1.00  0.00     0.191 C 
BRANCH  14  15
ATOM     15  O   UNL     1     -24.793  20.112 -30.420  1.00  0.00    -0.394 OA
ATOM     16  H   UNL     1     -25.684  19.705 -30.575  1.00  0.00     0.210 HD
ENDBRANCH  14  15
ENDBRANCH   5  14
BRANCH   4  17
ATOM     17  O   UNL     1     -25.323  20.168 -27.538  1.00  0.00    -0.387 OA
ATOM     18  H   UNL     1     -25.521  19.946 -28.482  1.00  0.00     0.211 HD
ENDBRANCH   4  17
TORSDOF 7
ENDMDL
MODEL 4
REMARK VINA RESULT:    -4.390     14.929     16.425
REMARK INTER + INTRA:          -6.024
REMARK INTER:                  -5.663
REMARK INTRA:                  -0.361
REMARK UNBOUND:                -0.351
REMARK SMILES CCO[C@@H]1O[C@@H](CO)[C@@H](O)[C@@H](O)[C@H]1O
REMARK SMILES IDX 4 1 13 2 11 3 9 4 6 5 5 6 3 7 2 8 1 9 14 10 12 12 7 14 8 15
REMARK SMILES IDX 10 17
REMARK H PARENT 14 11 12 13 8 16 10 18
REMARK Flexibility Score: inf
ROOT
ATOM      1  C   UNL     1     -28.081  30.047 -39.719  1.00  0.00     0.281 C 
ATOM      2  C   UNL     1     -29.443  30.202 -40.461  1.00  0.00     0.202 C 
ATOM      3  C   UNL     1     -29.244  30.799 -41.870  1.00  0.00     0.179 C 
ATOM      4  C   UNL     1     -28.149  30.052 -42.664  1.00  0.00     0.177 C 
ATOM      5  C   UNL     1     -26.947  29.632 -41.762  1.00  0.00     0.178 C 
ATOM      6  O   UNL     1     -26.942  30.337 -40.527  1.00  0.00    -0.341 OA
ENDROOT
BRANCH   1   7
ATOM      7  O   UNL     1     -28.067  30.816 -38.524  1.00  0.00    -0.350 OA
BRANCH   7   8
ATOM      8  C   UNL     1     -28.718  30.158 -37.454  1.00  0.00     0.160 C 
ATOM      9  C   UNL     1     -29.157  31.193 -36.429  1.00  0.00     0.035 C 
ENDBRANCH   7   8
ENDBRANCH   1   7
BRANCH   2  10
ATOM     10  O   UNL     1     -30.077  28.949 -40.540  1.00  0.00    -0.385 OA
ATOM     11  H   UNL     1     -30.837  29.044 -41.172  1.00  0.00     0.211 HD
ENDBRANCH   2  10
BRANCH   3  12
ATOM     12  O   UNL     1     -30.451  30.800 -42.590  1.00  0.00    -0.387 OA
ATOM     13  H   UNL     1     -30.243  30.464 -43.501  1.00  0.00     0.211 HD
ENDBRANCH   3  12
BRANCH   5  14
ATOM     14  C   UNL     1     -26.767  28.110 -41.574  1.00  0.00     0.191 C 
BRANCH  14  15
ATOM     15  O   UNL     1     -26.092  27.573 -42.679  1.00  0.00    -0.394 OA
ATOM     16  H   UNL     1     -26.576  27.897 -43.482  1.00  0.00     0.210 HD
ENDBRANCH  14  15
ENDBRANCH   5  14
BRANCH   4  17
ATOM     17  O   UNL     1     -28.664  28.975 -43.413  1.00  0.00    -0.387 OA
ATOM     18  H   UNL     1     -29.182  28.392 -42.803  1.00  0.00     0.211 HD
ENDBRANCH   4  17
TORSDOF 7
ENDMDL
MODEL 5
REMARK VINA RESULT:    -4.380     13.740     15.737
REMARK INTER + INTRA:          -6.011
REMARK INTER:                  -5.670
REMARK INTRA:                  -0.341
REMARK UNBOUND:                -0.351
REMARK SMILES CCO[C@@H]1O[C@@H](CO)[C@@H](O)[C@@H](O)[C@H]1O
REMARK SMILES IDX 4 1 13 2 11 3 9 4 6 5 5 6 3 7 2 8 1 9 14 10 12 12 7 14 8 15
REMARK SMILES IDX 10 17
REMARK H PARENT 14 11 12 13 8 16 10 18
REMARK Flexibility Score: inf
ROOT
ATOM      1  C   UNL     1     -28.265  28.696 -39.603  1.00  0.00     0.281 C 
ATOM      2  C   UNL     1     -29.422  29.678 -39.958  1.00  0.00     0.202 C 
ATOM      3  C   UNL     1     -28.986  30.684 -41.044  1.00  0.00     0.179 C 
ATOM      4  C   UNL     1     -28.334  29.979 -42.255  1.00  0.00     0.177 C 
ATOM      5  C   UNL     1     -27.437  28.776 -41.826  1.00  0.00     0.178 C 
ATOM      6  O   UNL     1     -27.117  28.823 -40.441  1.00  0.00    -0.341 OA
ENDROOT
BRANCH   1   7
ATOM      7  O   UNL     1     -27.909  28.808 -38.233  1.00  0.00    -0.350 OA
BRANCH   7   8
ATOM      8  C   UNL     1     -27.681  27.547 -37.632  1.00  0.00     0.160 C 
ATOM      9  C   UNL     1     -28.770  26.582 -38.074  1.00  0.00     0.035 C 
ENDBRANCH   7   8
ENDBRANCH   1   7
BRANCH   2  10
ATOM     10  O   UNL     1     -30.543  28.944 -40.385  1.00  0.00    -0.385 OA
ATOM     11  H   UNL     1     -30.261  28.410 -41.174  1.00  0.00     0.211 HD
ENDBRANCH   2  10
BRANCH   3  12
ATOM     12  O   UNL     1     -30.071  31.470 -41.467  1.00  0.00    -0.387 OA
ATOM     13  H   UNL     1     -30.884  30.907 -41.382  1.00  0.00     0.211 HD
ENDBRANCH   3  12
BRANCH   5  14
ATOM     14  C   UNL     1     -27.944  27.387 -42.269  1.00  0.00     0.191 C 
BRANCH  14  15
ATOM     15  O   UNL     1     -27.354  27.034 -43.490  1.00  0.00    -0.394 OA
ATOM     16  H   UNL     1     -27.348  26.043 -43.517  1.00  0.00     0.210 HD
ENDBRANCH  14  15
ENDBRANCH   5  14
BRANCH   4  17
ATOM     17  O   UNL     1     -29.273  29.626 -43.244  1.00  0.00    -0.387 OA
ATOM     18  H   UNL     1     -29.967  29.058 -42.826  1.00  0.00     0.211 HD
ENDBRANCH   4  17
TORSDOF 7
ENDMDL
MODEL 6
REMARK VINA RESULT:    -4.308      1.793      4.354
REMARK INTER + INTRA:          -5.918
REMARK INTER:                  -5.577
REMARK INTRA:                  -0.340
REMARK UNBOUND:                -0.351
REMARK SMILES CCO[C@@H]1O[C@@H](CO)[C@@H](O)[C@@H](O)[C@H]1O
REMARK SMILES IDX 4 1 13 2 11 3 9 4 6 5 5 6 3 7 2 8 1 9 14 10 12 12 7 14 8 15
REMARK SMILES IDX 10 17
REMARK H PARENT 14 11 12 13 8 16 10 18
REMARK Flexibility Score: inf
ROOT
ATOM      1  C   UNL     1     -22.786  20.715 -30.454  1.00  0.00     0.281 C 
ATOM      2  C   UNL     1     -23.357  19.331 -30.021  1.00  0.00     0.202 C 
ATOM      3  C   UNL     1     -23.283  19.152 -28.490  1.00  0.00     0.179 C 
ATOM      4  C   UNL     1     -23.874  20.365 -27.739  1.00  0.00     0.177 C 
ATOM      5  C   UNL     1     -23.529  21.718 -28.436  1.00  0.00     0.178 C 
ATOM      6  O   UNL     1     -22.461  21.576 -29.365  1.00  0.00    -0.341 OA
ENDROOT
BRANCH   1   7
ATOM      7  O   UNL     1     -21.675  20.553 -31.324  1.00  0.00    -0.350 OA
BRANCH   7   8
ATOM      8  C   UNL     1     -22.059  20.093 -32.607  1.00  0.00     0.160 C 
ATOM      9  C   UNL     1     -21.664  21.132 -33.645  1.00  0.00     0.035 C 
ENDBRANCH   7   8
ENDBRANCH   1   7
BRANCH   2  10
ATOM     10  O   UNL     1     -24.684  19.212 -30.469  1.00  0.00    -0.385 OA
ATOM     11  H   UNL     1     -25.061  20.130 -30.519  1.00  0.00     0.211 HD
ENDBRANCH   2  10
BRANCH   3  12
ATOM     12  O   UNL     1     -23.930  17.970 -28.090  1.00  0.00    -0.387 OA
ATOM     13  H   UNL     1     -23.392  17.585 -27.350  1.00  0.00     0.211 HD
ENDBRANCH   3  12
BRANCH   5  14
ATOM     14  C   UNL     1     -24.735  22.477 -29.032  1.00  0.00     0.191 C 
BRANCH  14  15
ATOM     15  O   UNL     1     -25.369  23.222 -28.029  1.00  0.00    -0.394 OA
ATOM     16  H   UNL     1     -25.681  22.566 -27.354  1.00  0.00     0.210 HD
ENDBRANCH  14  15
ENDBRANCH   5  14
BRANCH   4  17
ATOM     17  O   UNL     1     -25.253  20.225 -27.486  1.00  0.00    -0.387 OA
ATOM     18  H   UNL     1     -25.426  19.288 -27.217  1.00  0.00     0.211 HD
ENDBRANCH   4  17
TORSDOF 7
ENDMDL
MODEL 7
REMARK VINA RESULT:    -4.294     15.162     16.464
REMARK INTER + INTRA:          -5.899
REMARK INTER:                  -5.513
REMARK INTRA:                  -0.387
REMARK UNBOUND:                -0.351
REMARK SMILES CCO[C@@H]1O[C@@H](CO)[C@@H](O)[C@@H](O)[C@H]1O
REMARK SMILES IDX 4 1 13 2 11 3 9 4 6 5 5 6 3 7 2 8 1 9 14 10 12 12 7 14 8 15
REMARK SMILES IDX 10 17
REMARK H PARENT 14 11 12 13 8 16 10 18
REMARK Flexibility Score: inf
ROOT
ATOM      1  C   UNL     1     -28.037  30.378 -40.983  1.00  0.00     0.281 C 
ATOM      2  C   UNL     1     -27.730  29.540 -42.261  1.00  0.00     0.202 C 
ATOM      3  C   UNL     1     -27.283  28.109 -41.895  1.00  0.00     0.179 C 
ATOM      4  C   UNL     1     -28.252  27.441 -40.894  1.00  0.00     0.177 C 
ATOM      5  C   UNL     1     -28.783  28.446 -39.825  1.00  0.00     0.178 C 
ATOM      6  O   UNL     1     -27.992  29.627 -39.772  1.00  0.00    -0.341 OA
ENDROOT
BRANCH   1   7
ATOM      7  O   UNL     1     -27.188  31.515 -40.908  1.00  0.00    -0.350 OA
BRANCH   7   8
ATOM      8  C   UNL     1     -25.999  31.251 -40.187  1.00  0.00     0.160 C 
ATOM      9  C   UNL     1     -24.806  31.443 -41.111  1.00  0.00     0.035 C 
ENDBRANCH   7   8
ENDBRANCH   1   7
BRANCH   2  10
ATOM     10  O   UNL     1     -28.870  29.507 -43.083  1.00  0.00    -0.385 OA
ATOM     11  H   UNL     1     -29.258  28.595 -43.011  1.00  0.00     0.211 HD
ENDBRANCH   2  10
BRANCH   3  12
ATOM     12  O   UNL     1     -27.149  27.314 -43.047  1.00  0.00    -0.387 OA
ATOM     13  H   UNL     1     -27.173  26.368 -42.746  1.00  0.00     0.211 HD
ENDBRANCH   3  12
BRANCH   5  14
ATOM     14  C   UNL     1     -30.295  28.749 -39.902  1.00  0.00     0.191 C 
BRANCH  14  15
ATOM     15  O   UNL     1     -31.026  27.581 -39.646  1.00  0.00    -0.394 OA
ATOM     16  H   UNL     1     -30.372  26.836 -39.670  1.00  0.00     0.210 HD
ENDBRANCH  14  15
ENDBRANCH   5  14
BRANCH   4  17
ATOM     17  O   UNL     1     -29.290  26.736 -41.536  1.00  0.00    -0.387 OA
ATOM     18  H   UNL     1     -29.956  27.392 -41.862  1.00  0.00     0.211 HD
ENDBRANCH   4  17
TORSDOF 7
ENDMDL
MODEL 8
REMARK VINA RESULT:    -4.251      8.046     10.300
REMARK INTER + INTRA:          -5.844
REMARK INTER:                  -5.494
REMARK INTRA:                  -0.349
REMARK UNBOUND:                -0.351
REMARK SMILES CCO[C@@H]1O[C@@H](CO)[C@@H](O)[C@@H](O)[C@H]1O
REMARK SMILES IDX 4 1 13 2 11 3 9 4 6 5 5 6 3 7 2 8 1 9 14 10 12 12 7 14 8 15
REMARK SMILES IDX 10 17
REMARK H PARENT 14 11 12 13 8 16 10 18
REMARK Flexibility Score: inf
ROOT
ATOM      1  C   UNL     1     -27.014  19.607 -37.279  1.00  0.00     0.281 C 
ATOM      2  C   UNL     1     -26.640  20.301 -38.624  1.00  0.00     0.202 C 
ATOM      3  C   UNL     1     -27.759  20.125 -39.672  1.00  0.00     0.179 C 
ATOM      4  C   UNL     1     -29.146  20.503 -39.106  1.00  0.00     0.177 C 
ATOM      5  C   UNL     1     -29.319  20.057 -37.620  1.00  0.00     0.178 C 
ATOM      6  O   UNL     1     -28.344  19.093 -37.241  1.00  0.00    -0.341 OA
ENDROOT
BRANCH   1   7
ATOM      7  O   UNL     1     -26.070  18.597 -36.953  1.00  0.00    -0.350 OA
BRANCH   7   8
ATOM      8  C   UNL     1     -25.567  18.737 -35.636  1.00  0.00     0.160 C 
ATOM      9  C   UNL     1     -26.109  17.606 -34.776  1.00  0.00     0.035 C 
ENDBRANCH   7   8
ENDBRANCH   1   7
BRANCH   2  10
ATOM     10  O   UNL     1     -26.392  21.666 -38.391  1.00  0.00    -0.385 OA
ATOM     11  H   UNL     1     -26.796  21.892 -37.513  1.00  0.00     0.211 HD
ENDBRANCH   2  10
BRANCH   3  12
ATOM     12  O   UNL     1     -27.486  20.873 -40.830  1.00  0.00    -0.387 OA
ATOM     13  H   UNL     1     -28.177  21.584 -40.882  1.00  0.00     0.211 HD
ENDBRANCH   3  12
BRANCH   5  14
ATOM     14  C   UNL     1     -29.442  21.208 -36.598  1.00  0.00     0.191 C 
BRANCH  14  15
ATOM     15  O   UNL     1     -30.768  21.660 -36.551  1.00  0.00    -0.394 OA
ATOM     16  H   UNL     1     -30.976  21.803 -35.592  1.00  0.00     0.210 HD
ENDBRANCH  14  15
ENDBRANCH   5  14
BRANCH   4  17
ATOM     17  O   UNL     1     -29.456  21.864 -39.300  1.00  0.00    -0.387 OA
ATOM     18  H   UNL     1     -29.128  22.373 -38.517  1.00  0.00     0.211 HD
ENDBRANCH   4  17
TORSDOF 7
ENDMDL
MODEL 9
REMARK VINA RESULT:    -4.230      4.214      5.775
REMARK INTER + INTRA:          -5.818
REMARK INTER:                  -5.626
REMARK INTRA:                  -0.192
REMARK UNBOUND:                -0.351
REMARK SMILES CCO[C@@H]1O[C@@H](CO)[C@@H](O)[C@@H](O)[C@H]1O
REMARK SMILES IDX 4 1 13 2 11 3 9 4 6 5 5 6 3 7 2 8 1 9 14 10 12 12 7 14 8 15
REMARK SMILES IDX 10 17
REMARK H PARENT 14 11 12 13 8 16 10 18
REMARK Flexibility Score: inf
ROOT
ATOM      1  C   UNL     1     -21.983  23.727 -30.136  1.00  0.00     0.281 C 
ATOM      2  C   UNL     1     -21.591  25.230 -30.265  1.00  0.00     0.202 C 
ATOM      3  C   UNL     1     -22.714  26.042 -30.945  1.00  0.00     0.179 C 
ATOM      4  C   UNL     1     -24.090  25.781 -30.295  1.00  0.00     0.177 C 
ATOM      5  C   UNL     1     -24.276  24.286 -29.885  1.00  0.00     0.178 C 
ATOM      6  O   UNL     1     -23.326  23.442 -30.523  1.00  0.00    -0.341 OA
ENDROOT
BRANCH   1   7
ATOM      7  O   UNL     1     -21.065  22.904 -30.841  1.00  0.00    -0.350 OA
BRANCH   7   8
ATOM      8  C   UNL     1     -21.697  21.793 -31.449  1.00  0.00     0.160 C 
ATOM      9  C   UNL     1     -21.343  21.770 -32.929  1.00  0.00     0.035 C 
ENDBRANCH   7   8
ENDBRANCH   1   7
BRANCH   2  10
ATOM     10  O   UNL     1     -21.308  25.751 -28.990  1.00  0.00    -0.385 OA
ATOM     11  H   UNL     1     -20.358  26.039 -28.995  1.00  0.00     0.211 HD
ENDBRANCH   2  10
BRANCH   3  12
ATOM     12  O   UNL     1     -22.422  27.417 -30.928  1.00  0.00    -0.387 OA
ATOM     13  H   UNL     1     -22.949  27.813 -30.186  1.00  0.00     0.211 HD
ENDBRANCH   3  12
BRANCH   5  14
ATOM     14  C   UNL     1     -24.370  24.029 -28.365  1.00  0.00     0.191 C 
BRANCH  14  15
ATOM     15  O   UNL     1     -25.530  23.297 -28.079  1.00  0.00    -0.394 OA
ATOM     16  H   UNL     1     -25.826  23.591 -27.179  1.00  0.00     0.210 HD
ENDBRANCH  14  15
ENDBRANCH   5  14
BRANCH   4  17
ATOM     17  O   UNL     1     -24.365  26.669 -29.236  1.00  0.00    -0.387 OA
ATOM     18  H   UNL     1     -24.705  27.516 -29.621  1.00  0.00     0.211 HD
ENDBRANCH   4  17
TORSDOF 7
ENDMDL
