MODEL 1
REMARK VINA RESULT:    -7.451      0.000      0.000
REMARK INTER + INTRA:         -10.823
REMARK INTER:                 -10.065
REMARK INTRA:                  -0.758
REMARK UNBOUND:                -0.758
REMARK SMILES C=CC(C)=CCC=C(C)CCC=C(C)C
REMARK SMILES IDX 8 1 7 2 9 3 10 4 11 5 12 6 14 7 13 8 15 9 6 10 5 11 3 12
REMARK SMILES IDX 4 13 2 14 1 15
REMARK H PARENT
REMARK Flexibility Score: inf
ROOT
ATOM      1  C   UNL     1       0.401 -18.193  14.542  1.00  0.00    -0.077 C 
ATOM      2  C   UNL     1      -0.595 -18.158  13.628  1.00  0.00    -0.024 C 
ATOM      3  C   UNL     1       0.198 -17.702  15.956  1.00  0.00     0.039 C 
ENDROOT
BRANCH   1   4
ATOM      4  C   UNL     1       1.752 -18.749  14.141  1.00  0.00     0.034 C 
BRANCH   4   5
ATOM      5  C   UNL     1       2.633 -19.051  15.362  1.00  0.00     0.032 C 
BRANCH   5   6
ATOM      6  C   UNL     1       3.977 -18.368  15.264  1.00  0.00    -0.028 C 
ATOM      7  C   UNL     1       5.821 -16.891  15.937  1.00  0.00     0.039 C 
ATOM      8  C   UNL     1       4.433 -17.445  16.138  1.00  0.00    -0.080 C 
ATOM      9  C   UNL     1       3.592 -16.945  17.289  1.00  0.00     0.039 C 
ENDBRANCH   5   6
ENDBRANCH   4   5
ENDBRANCH   1   4
BRANCH   2  10
ATOM     10  C   UNL     1      -1.980 -17.625  13.906  1.00  0.00     0.055 C 
BRANCH  10  11
ATOM     11  C   UNL     1      -2.022 -16.123  13.797  1.00  0.00    -0.020 C 
ATOM     12  C   UNL     1      -2.406 -15.463  12.686  1.00  0.00    -0.055 C 
ATOM     13  C   UNL     1      -2.432 -13.953  12.712  1.00  0.00     0.044 C 
BRANCH  12  14
ATOM     14  C   UNL     1      -2.826 -16.192  11.455  1.00  0.00    -0.005 C 
ATOM     15  C   UNL     1      -4.084 -16.216  11.009  1.00  0.00     0.009 C 
ENDBRANCH  12  14
ENDBRANCH  10  11
ENDBRANCH   2  10
TORSDOF 6
ENDMDL
MODEL 2
REMARK VINA RESULT:    -7.431      3.282      6.018
REMARK INTER + INTRA:         -10.796
REMARK INTER:                 -10.239
REMARK INTRA:                  -0.557
REMARK UNBOUND:                -0.758
REMARK SMILES C=CC(C)=CCC=C(C)CCC=C(C)C
REMARK SMILES IDX 8 1 7 2 9 3 10 4 11 5 12 6 14 7 13 8 15 9 6 10 5 11 3 12
REMARK SMILES IDX 4 13 2 14 1 15
REMARK H PARENT
REMARK Flexibility Score: inf
ROOT
ATOM      1  C   UNL     1      -2.026 -14.359  10.685  1.00  0.00    -0.077 C 
ATOM      2  C   UNL     1      -2.013 -15.448   9.883  1.00  0.00    -0.024 C 
ATOM      3  C   UNL     1      -1.637 -12.992  10.174  1.00  0.00     0.039 C 
ENDROOT
BRANCH   1   4
ATOM      4  C   UNL     1      -2.449 -14.512  12.132  1.00  0.00     0.034 C 
BRANCH   4   5
ATOM      5  C   UNL     1      -2.562 -15.987  12.543  1.00  0.00     0.032 C 
BRANCH   5   6
ATOM      6  C   UNL     1      -2.118 -16.205  13.971  1.00  0.00    -0.028 C 
ATOM      7  C   UNL     1      -0.972 -17.308  15.843  1.00  0.00     0.039 C 
ATOM      8  C   UNL     1      -1.383 -17.256  14.394  1.00  0.00    -0.080 C 
ATOM      9  C   UNL     1      -0.980 -18.378  13.466  1.00  0.00     0.039 C 
ENDBRANCH   5   6
ENDBRANCH   4   5
ENDBRANCH   1   4
BRANCH   2  10
ATOM     10  C   UNL     1      -1.608 -15.423   8.429  1.00  0.00     0.055 C 
BRANCH  10  11
ATOM     11  C   UNL     1      -2.690 -14.824   7.569  1.00  0.00    -0.020 C 
ATOM     12  C   UNL     1      -3.834 -15.463   7.251  1.00  0.00    -0.055 C 
ATOM     13  C   UNL     1      -4.854 -14.743   6.402  1.00  0.00     0.044 C 
BRANCH  12  14
ATOM     14  C   UNL     1      -4.115 -16.842   7.742  1.00  0.00    -0.005 C 
ATOM     15  C   UNL     1      -5.069 -17.125   8.631  1.00  0.00     0.009 C 
ENDBRANCH  12  14
ENDBRANCH  10  11
ENDBRANCH   2  10
TORSDOF 6
ENDMDL
MODEL 3
REMARK VINA RESULT:    -7.271      4.193      7.475
REMARK INTER + INTRA:         -10.579
REMARK INTER:                  -8.757
REMARK INTRA:                  -1.822
REMARK UNBOUND:                -0.758
REMARK SMILES C=CC(C)=CCC=C(C)CCC=C(C)C
REMARK SMILES IDX 8 1 7 2 9 3 10 4 11 5 12 6 14 7 13 8 15 9 6 10 5 11 3 12
REMARK SMILES IDX 4 13 2 14 1 15
REMARK H PARENT
REMARK Flexibility Score: inf
ROOT
ATOM      1  C   UNL     1      -4.253 -17.058   8.434  1.00  0.00    -0.077 C 
ATOM      2  C   UNL     1      -4.893 -16.416   9.438  1.00  0.00    -0.024 C 
ATOM      3  C   UNL     1      -3.487 -18.338   8.673  1.00  0.00     0.039 C 
ENDROOT
BRANCH   1   4
ATOM      4  C   UNL     1      -4.313 -16.484   7.034  1.00  0.00     0.034 C 
BRANCH   4   5
ATOM      5  C   UNL     1      -3.506 -15.185   6.911  1.00  0.00     0.032 C 
BRANCH   5   6
ATOM      6  C   UNL     1      -2.155 -15.299   7.579  1.00  0.00    -0.028 C 
ATOM      7  C   UNL     1      -0.396 -14.826   9.227  1.00  0.00     0.039 C 
ATOM      8  C   UNL     1      -1.757 -14.559   8.636  1.00  0.00    -0.080 C 
ATOM      9  C   UNL     1      -2.623 -13.470   9.225  1.00  0.00     0.039 C 
ENDBRANCH   5   6
ENDBRANCH   4   5
ENDBRANCH   1   4
BRANCH   2  10
ATOM     10  C   UNL     1      -4.903 -16.886  10.872  1.00  0.00     0.055 C 
BRANCH  10  11
ATOM     11  C   UNL     1      -4.356 -15.831  11.799  1.00  0.00    -0.020 C 
ATOM     12  C   UNL     1      -3.099 -15.840  12.287  1.00  0.00    -0.055 C 
ATOM     13  C   UNL     1      -2.663 -14.709  13.187  1.00  0.00     0.044 C 
BRANCH  12  14
ATOM     14  C   UNL     1      -2.138 -16.924  11.934  1.00  0.00    -0.005 C 
ATOM     15  C   UNL     1      -1.556 -17.712  12.840  1.00  0.00     0.009 C 
ENDBRANCH  12  14
ENDBRANCH  10  11
ENDBRANCH   2  10
TORSDOF 6
ENDMDL
MODEL 4
REMARK VINA RESULT:    -7.249      1.719      4.016
REMARK INTER + INTRA:         -10.550
REMARK INTER:                  -9.858
REMARK INTRA:                  -0.692
REMARK UNBOUND:                -0.758
REMARK SMILES C=CC(C)=CCC=C(C)CCC=C(C)C
REMARK SMILES IDX 8 1 7 2 9 3 10 4 11 5 12 6 14 7 13 8 15 9 6 10 5 11 3 12
REMARK SMILES IDX 4 13 2 14 1 15
REMARK H PARENT
REMARK Flexibility Score: inf
ROOT
ATOM      1  C   UNL     1      -2.193 -15.960  13.171  1.00  0.00    -0.077 C 
ATOM      2  C   UNL     1      -2.042 -16.468  11.927  1.00  0.00    -0.024 C 
ATOM      3  C   UNL     1      -2.614 -14.527  13.398  1.00  0.00     0.039 C 
ENDROOT
BRANCH   1   4
ATOM      4  C   UNL     1      -1.942 -16.853  14.369  1.00  0.00     0.034 C 
BRANCH   4   5
ATOM      5  C   UNL     1      -0.847 -17.892  14.090  1.00  0.00     0.032 C 
BRANCH   5   6
ATOM      6  C   UNL     1       0.142 -17.983  15.228  1.00  0.00    -0.028 C 
ATOM      7  C   UNL     1       2.317 -18.331  16.316  1.00  0.00     0.039 C 
ATOM      8  C   UNL     1       1.439 -18.337  15.091  1.00  0.00    -0.080 C 
ATOM      9  C   UNL     1       2.021 -18.750  13.760  1.00  0.00     0.039 C 
ENDBRANCH   5   6
ENDBRANCH   4   5
ENDBRANCH   1   4
BRANCH   2  10
ATOM     10  C   UNL     1      -2.260 -15.678  10.659  1.00  0.00     0.055 C 
BRANCH  10  11
ATOM     11  C   UNL     1      -3.682 -15.797  10.176  1.00  0.00    -0.020 C 
ATOM     12  C   UNL     1      -4.062 -16.585   9.150  1.00  0.00    -0.055 C 
ATOM     13  C   UNL     1      -5.525 -16.638   8.779  1.00  0.00     0.044 C 
BRANCH  12  14
ATOM     14  C   UNL     1      -3.074 -17.414   8.401  1.00  0.00    -0.005 C 
ATOM     15  C   UNL     1      -3.253 -18.710   8.139  1.00  0.00     0.009 C 
ENDBRANCH  12  14
ENDBRANCH  10  11
ENDBRANCH   2  10
TORSDOF 6
ENDMDL
MODEL 5
REMARK VINA RESULT:    -7.242      1.467      2.486
REMARK INTER + INTRA:         -10.540
REMARK INTER:                  -9.917
REMARK INTRA:                  -0.623
REMARK UNBOUND:                -0.758
REMARK SMILES C=CC(C)=CCC=C(C)CCC=C(C)C
REMARK SMILES IDX 8 1 7 2 9 3 10 4 11 5 12 6 14 7 13 8 15 9 6 10 5 11 3 12
REMARK SMILES IDX 4 13 2 14 1 15
REMARK H PARENT
REMARK Flexibility Score: inf
ROOT
ATOM      1  C   UNL     1      -1.352 -17.223  14.248  1.00  0.00    -0.077 C 
ATOM      2  C   UNL     1      -2.024 -16.067  14.043  1.00  0.00    -0.024 C 
ATOM      3  C   UNL     1      -1.393 -18.353  13.247  1.00  0.00     0.039 C 
ENDROOT
BRANCH   1   4
ATOM      4  C   UNL     1      -0.529 -17.385  15.510  1.00  0.00     0.034 C 
BRANCH   4   5
ATOM      5  C   UNL     1       0.763 -18.173  15.254  1.00  0.00     0.032 C 
BRANCH   5   6
ATOM      6  C   UNL     1       1.800 -17.910  16.321  1.00  0.00    -0.028 C 
ATOM      7  C   UNL     1       4.044 -17.591  17.268  1.00  0.00     0.039 C 
ATOM      8  C   UNL     1       3.135 -17.925  16.113  1.00  0.00    -0.080 C 
ATOM      9  C   UNL     1       3.734 -18.280  14.773  1.00  0.00     0.039 C 
ENDBRANCH   5   6
ENDBRANCH   4   5
ENDBRANCH   1   4
BRANCH   2  10
ATOM     10  C   UNL     1      -2.878 -15.789  12.830  1.00  0.00     0.055 C 
BRANCH  10  11
ATOM     11  C   UNL     1      -2.438 -14.532  12.126  1.00  0.00    -0.020 C 
ATOM     12  C   UNL     1      -2.147 -14.472  10.811  1.00  0.00    -0.055 C 
ATOM     13  C   UNL     1      -1.744 -13.143  10.218  1.00  0.00     0.044 C 
BRANCH  12  14
ATOM     14  C   UNL     1      -2.242 -15.678   9.939  1.00  0.00    -0.005 C 
ATOM     15  C   UNL     1      -1.611 -15.789   8.769  1.00  0.00     0.009 C 
ENDBRANCH  12  14
ENDBRANCH  10  11
ENDBRANCH   2  10
TORSDOF 6
ENDMDL
MODEL 6
REMARK VINA RESULT:    -7.223      4.688      8.215
REMARK INTER + INTRA:         -10.514
REMARK INTER:                  -8.743
REMARK INTRA:                  -1.771
REMARK UNBOUND:                -0.758
REMARK SMILES C=CC(C)=CCC=C(C)CCC=C(C)C
REMARK SMILES IDX 8 1 7 2 9 3 10 4 11 5 12 6 14 7 13 8 15 9 6 10 5 11 3 12
REMARK SMILES IDX 4 13 2 14 1 15
REMARK H PARENT
REMARK Flexibility Score: inf
ROOT
ATOM      1  C   UNL     1      -2.760 -14.646   7.959  1.00  0.00    -0.077 C 
ATOM      2  C   UNL     1      -2.758 -13.702   8.927  1.00  0.00    -0.024 C 
ATOM      3  C   UNL     1      -1.621 -15.625   7.804  1.00  0.00     0.039 C 
ENDROOT
BRANCH   1   4
ATOM      4  C   UNL     1      -3.939 -14.730   7.011  1.00  0.00     0.034 C 
BRANCH   4   5
ATOM      5  C   UNL     1      -4.769 -16.000   7.240  1.00  0.00     0.032 C 
BRANCH   5   6
ATOM      6  C   UNL     1      -5.322 -16.062   8.645  1.00  0.00    -0.028 C 
ATOM      7  C   UNL     1      -5.526 -16.840  10.966  1.00  0.00     0.039 C 
ATOM      8  C   UNL     1      -4.916 -16.936   9.592  1.00  0.00    -0.080 C 
ATOM      9  C   UNL     1      -3.889 -18.006   9.307  1.00  0.00     0.039 C 
ENDBRANCH   5   6
ENDBRANCH   4   5
ENDBRANCH   1   4
BRANCH   2  10
ATOM     10  C   UNL     1      -1.643 -13.517   9.927  1.00  0.00     0.055 C 
BRANCH  10  11
ATOM     11  C   UNL     1      -2.171 -13.473  11.337  1.00  0.00    -0.020 C 
ATOM     12  C   UNL     1      -2.332 -14.566  12.111  1.00  0.00    -0.055 C 
ATOM     13  C   UNL     1      -2.845 -14.386  13.520  1.00  0.00     0.044 C 
BRANCH  12  14
ATOM     14  C   UNL     1      -1.990 -15.928  11.612  1.00  0.00    -0.005 C 
ATOM     15  C   UNL     1      -1.990 -17.015  12.386  1.00  0.00     0.009 C 
ENDBRANCH  12  14
ENDBRANCH  10  11
ENDBRANCH   2  10
TORSDOF 6
ENDMDL
MODEL 7
REMARK VINA RESULT:    -7.132      3.438      6.156
REMARK INTER + INTRA:         -10.392
REMARK INTER:                  -9.277
REMARK INTRA:                  -1.115
REMARK UNBOUND:                -0.758
REMARK SMILES C=CC(C)=CCC=C(C)CCC=C(C)C
REMARK SMILES IDX 8 1 7 2 9 3 10 4 11 5 12 6 14 7 13 8 15 9 6 10 5 11 3 12
REMARK SMILES IDX 4 13 2 14 1 15
REMARK H PARENT
REMARK Flexibility Score: inf
ROOT
ATOM      1  C   UNL     1      -3.710 -16.525  10.845  1.00  0.00    -0.077 C 
ATOM      2  C   UNL     1      -4.864 -16.502  10.138  1.00  0.00    -0.024 C 
ATOM      3  C   UNL     1      -2.485 -17.250  10.340  1.00  0.00     0.039 C 
ENDROOT
BRANCH   1   4
ATOM      4  C   UNL     1      -3.642 -15.796  12.171  1.00  0.00     0.034 C 
BRANCH   4   5
ATOM      5  C   UNL     1      -2.195 -15.602  12.644  1.00  0.00     0.032 C 
BRANCH   5   6
ATOM      6  C   UNL     1      -2.019 -16.008  14.089  1.00  0.00    -0.028 C 
ATOM      7  C   UNL     1      -1.335 -17.423  15.977  1.00  0.00     0.039 C 
ATOM      8  C   UNL     1      -1.493 -17.183  14.497  1.00  0.00    -0.080 C 
ATOM      9  C   UNL     1      -1.082 -18.260  13.521  1.00  0.00     0.039 C 
ENDBRANCH   5   6
ENDBRANCH   4   5
ENDBRANCH   1   4
BRANCH   2  10
ATOM     10  C   UNL     1      -5.055 -17.191   8.810  1.00  0.00     0.055 C 
BRANCH  10  11
ATOM     11  C   UNL     1      -5.468 -16.214   7.739  1.00  0.00    -0.020 C 
ATOM     12  C   UNL     1      -4.596 -15.495   7.005  1.00  0.00    -0.055 C 
ATOM     13  C   UNL     1      -5.135 -14.568   5.942  1.00  0.00     0.044 C 
BRANCH  12  14
ATOM     14  C   UNL     1      -3.124 -15.618   7.208  1.00  0.00    -0.005 C 
ATOM     15  C   UNL     1      -2.387 -14.690   7.821  1.00  0.00     0.009 C 
ENDBRANCH  12  14
ENDBRANCH  10  11
ENDBRANCH   2  10
TORSDOF 6
ENDMDL
MODEL 8
REMARK VINA RESULT:    -7.112      2.843      8.482
REMARK INTER + INTRA:         -10.365
REMARK INTER:                  -9.527
REMARK INTRA:                  -0.839
REMARK UNBOUND:                -0.758
REMARK SMILES C=CC(C)=CCC=C(C)CCC=C(C)C
REMARK SMILES IDX 8 1 7 2 9 3 10 4 11 5 12 6 14 7 13 8 15 9 6 10 5 11 3 12
REMARK SMILES IDX 4 13 2 14 1 15
REMARK H PARENT
REMARK Flexibility Score: inf
ROOT
ATOM      1  C   UNL     1      -3.008 -16.644  10.167  1.00  0.00    -0.077 C 
ATOM      2  C   UNL     1      -3.041 -16.509  11.512  1.00  0.00    -0.024 C 
ATOM      3  C   UNL     1      -1.901 -16.039   9.336  1.00  0.00     0.039 C 
ENDROOT
BRANCH   1   4
ATOM      4  C   UNL     1      -4.103 -17.429   9.475  1.00  0.00     0.034 C 
BRANCH   4   5
ATOM      5  C   UNL     1      -5.286 -16.535   9.077  1.00  0.00     0.032 C 
BRANCH   5   6
ATOM      6  C   UNL     1      -5.409 -16.404   7.577  1.00  0.00    -0.028 C 
ATOM      7  C   UNL     1      -5.190 -15.348   5.371  1.00  0.00     0.039 C 
ATOM      8  C   UNL     1      -5.057 -15.308   6.871  1.00  0.00    -0.080 C 
ATOM      9  C   UNL     1      -4.556 -14.050   7.541  1.00  0.00     0.039 C 
ENDBRANCH   5   6
ENDBRANCH   4   5
ENDBRANCH   1   4
BRANCH   2  10
ATOM     10  C   UNL     1      -2.011 -15.750  12.312  1.00  0.00     0.055 C 
BRANCH  10  11
ATOM     11  C   UNL     1      -2.113 -16.068  13.781  1.00  0.00    -0.020 C 
ATOM     12  C   UNL     1      -1.596 -17.179  14.344  1.00  0.00    -0.055 C 
ATOM     13  C   UNL     1      -1.741 -17.371  15.835  1.00  0.00     0.044 C 
BRANCH  12  14
ATOM     14  C   UNL     1      -0.871 -18.197  13.530  1.00  0.00    -0.005 C 
ATOM     15  C   UNL     1       0.430 -18.458  13.671  1.00  0.00     0.009 C 
ENDBRANCH  12  14
ENDBRANCH  10  11
ENDBRANCH   2  10
TORSDOF 6
ENDMDL
MODEL 9
REMARK VINA RESULT:    -7.052      1.176      7.301
REMARK INTER + INTRA:         -10.283
REMARK INTER:                  -9.834
REMARK INTRA:                  -0.449
REMARK UNBOUND:                -0.758
REMARK SMILES C=CC(C)=CCC=C(C)CCC=C(C)C
REMARK SMILES IDX 8 1 7 2 9 3 10 4 11 5 12 6 14 7 13 8 15 9 6 10 5 11 3 12
REMARK SMILES IDX 4 13 2 14 1 15
REMARK H PARENT
REMARK Flexibility Score: inf
ROOT
ATOM      1  C   UNL     1      -0.825 -17.746  14.511  1.00  0.00    -0.077 C 
ATOM      2  C   UNL     1       0.482 -18.091  14.470  1.00  0.00    -0.024 C 
ATOM      3  C   UNL     1      -1.509 -17.381  15.807  1.00  0.00     0.039 C 
ENDROOT
BRANCH   1   4
ATOM      4  C   UNL     1      -1.622 -17.716  13.223  1.00  0.00     0.034 C 
BRANCH   4   5
ATOM      5  C   UNL     1      -2.020 -16.287  12.829  1.00  0.00     0.032 C 
BRANCH   5   6
ATOM      6  C   UNL     1      -2.658 -16.240  11.460  1.00  0.00    -0.028 C 
ATOM      7  C   UNL     1      -3.295 -15.282   9.290  1.00  0.00     0.039 C 
ATOM      8  C   UNL     1      -2.662 -15.158  10.652  1.00  0.00    -0.080 C 
ATOM      9  C   UNL     1      -2.072 -13.835  11.081  1.00  0.00     0.039 C 
ENDBRANCH   5   6
ENDBRANCH   4   5
ENDBRANCH   1   4
BRANCH   2  10
ATOM     10  C   UNL     1       1.377 -18.161  15.684  1.00  0.00     0.055 C 
BRANCH  10  11
ATOM     11  C   UNL     1       2.724 -18.742  15.339  1.00  0.00    -0.020 C 
ATOM     12  C   UNL     1       3.892 -18.243  15.791  1.00  0.00    -0.055 C 
ATOM     13  C   UNL     1       5.176 -18.934  15.395  1.00  0.00     0.044 C 
BRANCH  12  14
ATOM     14  C   UNL     1       3.934 -17.050  16.684  1.00  0.00    -0.005 C 
ATOM     15  C   UNL     1       5.040 -16.338  16.907  1.00  0.00     0.009 C 
ENDBRANCH  12  14
ENDBRANCH  10  11
ENDBRANCH   2  10
TORSDOF 6
ENDMDL
