MODEL 1
REMARK VINA RESULT:    -3.284      0.000      0.000
REMARK INTER + INTRA:          -5.076
REMARK INTER:                  -4.628
REMARK INTRA:                  -0.448
REMARK UNBOUND:                -0.448
REMARK SMILES CCCCCCCCC(=O)[O-]
REMARK SMILES IDX 6 1 7 2 8 3 9 4 10 5 11 6 5 7 4 8 3 9 2 10 1 11
REMARK H PARENT
REMARK Flexibility Score: inf
ROOT
ATOM      1  C   UNL     1      23.615   6.012  28.764  1.00  0.00     0.000 C 
ENDROOT
BRANCH   1   2
ATOM      2  C   UNL     1      24.095   7.168  29.656  1.00  0.00     0.006 C 
BRANCH   2   3
ATOM      3  C   UNL     1      25.449   7.736  29.210  1.00  0.00     0.053 C 
BRANCH   3   4
ATOM      4  C   UNL     1      25.272   9.098  28.616  1.00  0.00     0.041 C 
ATOM      5  O   UNL     1      25.347  10.122  29.345  1.00  0.00    -0.550 OA
ATOM      6  O   UNL     1      24.976   9.235  27.266  1.00  0.00    -0.550 OA
ENDBRANCH   3   4
ENDBRANCH   2   3
ENDBRANCH   1   2
BRANCH   1   7
ATOM      7  C   UNL     1      22.583   5.113  29.463  1.00  0.00     0.000 C 
BRANCH   7   8
ATOM      8  C   UNL     1      21.925   5.847  30.641  1.00  0.00    -0.000 C 
BRANCH   8   9
ATOM      9  C   UNL     1      22.142   5.136  31.988  1.00  0.00    -0.000 C 
BRANCH   9  10
ATOM     10  C   UNL     1      21.986   6.034  33.228  1.00  0.00    -0.003 C 
ATOM     11  C   UNL     1      22.041   7.525  32.897  1.00  0.00     0.004 C 
ENDBRANCH   9  10
ENDBRANCH   8   9
ENDBRANCH   7   8
ENDBRANCH   1   7
TORSDOF 7
ENDMDL
MODEL 2
REMARK VINA RESULT:    -3.184      2.622      4.905
REMARK INTER + INTRA:          -4.935
REMARK INTER:                  -4.529
REMARK INTRA:                  -0.407
REMARK UNBOUND:                -0.448
REMARK SMILES CCCCCCCCC(=O)[O-]
REMARK SMILES IDX 6 1 7 2 8 3 9 4 10 5 11 6 5 7 4 8 3 9 2 10 1 11
REMARK H PARENT
REMARK Flexibility Score: inf
ROOT
ATOM      1  C   UNL     1      23.245   6.651  30.099  1.00  0.00     0.000 C 
ENDROOT
BRANCH   1   2
ATOM      2  C   UNL     1      22.623   5.392  29.473  1.00  0.00     0.006 C 
BRANCH   2   3
ATOM      3  C   UNL     1      23.229   5.052  28.105  1.00  0.00     0.053 C 
BRANCH   3   4
ATOM      4  C   UNL     1      22.393   5.630  27.007  1.00  0.00     0.041 C 
ATOM      5  O   UNL     1      22.865   6.518  26.250  1.00  0.00    -0.550 OA
ATOM      6  O   UNL     1      21.074   5.222  26.850  1.00  0.00    -0.550 OA
ENDBRANCH   3   4
ENDBRANCH   2   3
ENDBRANCH   1   2
BRANCH   1   7
ATOM      7  C   UNL     1      24.519   7.107  29.370  1.00  0.00     0.000 C 
BRANCH   7   8
ATOM      8  C   UNL     1      25.120   8.351  30.043  1.00  0.00    -0.000 C 
BRANCH   8   9
ATOM      9  C   UNL     1      25.148   9.580  29.116  1.00  0.00    -0.000 C 
BRANCH   9  10
ATOM     10  C   UNL     1      25.084   9.259  27.613  1.00  0.00    -0.003 C 
ATOM     11  C   UNL     1      24.074  10.125  26.859  1.00  0.00     0.004 C 
ENDBRANCH   9  10
ENDBRANCH   8   9
ENDBRANCH   7   8
ENDBRANCH   1   7
TORSDOF 7
ENDMDL
MODEL 3
REMARK VINA RESULT:    -3.127      1.576      2.810
REMARK INTER + INTRA:          -4.854
REMARK INTER:                  -4.509
REMARK INTRA:                  -0.344
REMARK UNBOUND:                -0.448
REMARK SMILES CCCCCCCCC(=O)[O-]
REMARK SMILES IDX 6 1 7 2 8 3 9 4 10 5 11 6 5 7 4 8 3 9 2 10 1 11
REMARK H PARENT
REMARK Flexibility Score: inf
ROOT
ATOM      1  C   UNL     1      23.222   6.592  30.511  1.00  0.00     0.000 C 
ENDROOT
BRANCH   1   2
ATOM      2  C   UNL     1      24.141   7.818  30.381  1.00  0.00     0.006 C 
BRANCH   2   3
ATOM      3  C   UNL     1      25.167   7.670  29.250  1.00  0.00     0.053 C 
BRANCH   3   4
ATOM      4  C   UNL     1      25.352   8.974  28.539  1.00  0.00     0.041 C 
ATOM      5  O   UNL     1      25.297  10.058  29.178  1.00  0.00    -0.550 OA
ATOM      6  O   UNL     1      25.535   8.995  27.162  1.00  0.00    -0.550 OA
ENDBRANCH   3   4
ENDBRANCH   2   3
ENDBRANCH   1   2
BRANCH   1   7
ATOM      7  C   UNL     1      23.210   5.724  29.243  1.00  0.00     0.000 C 
BRANCH   7   8
ATOM      8  C   UNL     1      22.080   4.686  29.300  1.00  0.00    -0.000 C 
BRANCH   8   9
ATOM      9  C   UNL     1      20.711   5.305  29.634  1.00  0.00    -0.000 C 
BRANCH   9  10
ATOM     10  C   UNL     1      19.688   5.275  28.486  1.00  0.00    -0.003 C 
ATOM     11  C   UNL     1      20.340   5.188  27.106  1.00  0.00     0.004 C 
ENDBRANCH   9  10
ENDBRANCH   8   9
ENDBRANCH   7   8
ENDBRANCH   1   7
TORSDOF 7
ENDMDL
MODEL 4
REMARK VINA RESULT:    -3.081      1.369      2.116
REMARK INTER + INTRA:          -4.790
REMARK INTER:                  -4.517
REMARK INTRA:                  -0.272
REMARK UNBOUND:                -0.448
REMARK SMILES CCCCCCCCC(=O)[O-]
REMARK SMILES IDX 6 1 7 2 8 3 9 4 10 5 11 6 5 7 4 8 3 9 2 10 1 11
REMARK H PARENT
REMARK Flexibility Score: inf
ROOT
ATOM      1  C   UNL     1      22.970   6.456  30.678  1.00  0.00     0.000 C 
ENDROOT
BRANCH   1   2
ATOM      2  C   UNL     1      23.946   6.805  29.543  1.00  0.00     0.006 C 
BRANCH   2   3
ATOM      3  C   UNL     1      25.145   7.630  30.029  1.00  0.00     0.053 C 
BRANCH   3   4
ATOM      4  C   UNL     1      25.299   8.865  29.198  1.00  0.00     0.041 C 
ATOM      5  O   UNL     1      25.588   8.776  27.976  1.00  0.00    -0.550 OA
ATOM      6  O   UNL     1      25.172  10.118  29.786  1.00  0.00    -0.550 OA
ENDBRANCH   3   4
ENDBRANCH   2   3
ENDBRANCH   1   2
BRANCH   1   7
ATOM      7  C   UNL     1      22.132   5.204  30.374  1.00  0.00     0.000 C 
BRANCH   7   8
ATOM      8  C   UNL     1      21.776   4.455  31.667  1.00  0.00    -0.000 C 
BRANCH   8   9
ATOM      9  C   UNL     1      22.457   5.049  32.912  1.00  0.00    -0.000 C 
BRANCH   9  10
ATOM     10  C   UNL     1      22.128   4.333  34.234  1.00  0.00    -0.003 C 
ATOM     11  C   UNL     1      22.553   2.865  34.241  1.00  0.00     0.004 C 
ENDBRANCH   9  10
ENDBRANCH   8   9
ENDBRANCH   7   8
ENDBRANCH   1   7
TORSDOF 7
ENDMDL
MODEL 5
REMARK VINA RESULT:    -3.056      3.127      5.418
REMARK INTER + INTRA:          -4.754
REMARK INTER:                  -4.402
REMARK INTRA:                  -0.352
REMARK UNBOUND:                -0.448
REMARK SMILES CCCCCCCCC(=O)[O-]
REMARK SMILES IDX 6 1 7 2 8 3 9 4 10 5 11 6 5 7 4 8 3 9 2 10 1 11
REMARK H PARENT
REMARK Flexibility Score: inf
ROOT
ATOM      1  C   UNL     1      22.756   5.968  30.032  1.00  0.00     0.000 C 
ENDROOT
BRANCH   1   2
ATOM      2  C   UNL     1      23.253   6.382  31.426  1.00  0.00     0.006 C 
BRANCH   2   3
ATOM      3  C   UNL     1      22.496   5.673  32.557  1.00  0.00     0.053 C 
BRANCH   3   4
ATOM      4  C   UNL     1      21.631   6.645  33.296  1.00  0.00     0.041 C 
ATOM      5  O   UNL     1      21.807   7.884  33.156  1.00  0.00    -0.550 OA
ATOM      6  O   UNL     1      20.663   6.182  34.178  1.00  0.00    -0.550 OA
ENDBRANCH   3   4
ENDBRANCH   2   3
ENDBRANCH   1   2
BRANCH   1   7
ATOM      7  C   UNL     1      23.730   6.369  28.913  1.00  0.00     0.000 C 
BRANCH   7   8
ATOM      8  C   UNL     1      24.830   7.297  29.450  1.00  0.00    -0.000 C 
BRANCH   8   9
ATOM      9  C   UNL     1      24.866   8.661  28.739  1.00  0.00    -0.000 C 
BRANCH   9  10
ATOM     10  C   UNL     1      24.425   8.635  27.265  1.00  0.00    -0.003 C 
ATOM     11  C   UNL     1      24.145  10.028  26.700  1.00  0.00     0.004 C 
ENDBRANCH   9  10
ENDBRANCH   8   9
ENDBRANCH   7   8
ENDBRANCH   1   7
TORSDOF 7
ENDMDL
MODEL 6
REMARK VINA RESULT:    -3.045     13.402     14.584
REMARK INTER + INTRA:          -4.739
REMARK INTER:                  -3.992
REMARK INTRA:                  -0.748
REMARK UNBOUND:                -0.448
REMARK SMILES CCCCCCCCC(=O)[O-]
REMARK SMILES IDX 6 1 7 2 8 3 9 4 10 5 11 6 5 7 4 8 3 9 2 10 1 11
REMARK H PARENT
REMARK Flexibility Score: inf
ROOT
ATOM      1  C   UNL     1      10.154   8.176  31.725  1.00  0.00     0.000 C 
ENDROOT
BRANCH   1   2
ATOM      2  C   UNL     1       8.644   8.193  31.441  1.00  0.00     0.006 C 
BRANCH   2   3
ATOM      3  C   UNL     1       8.092   6.802  31.100  1.00  0.00     0.053 C 
BRANCH   3   4
ATOM      4  C   UNL     1       8.200   6.544  29.630  1.00  0.00     0.041 C 
ATOM      5  O   UNL     1       8.364   5.371  29.202  1.00  0.00    -0.550 OA
ATOM      6  O   UNL     1       8.169   7.606  28.735  1.00  0.00    -0.550 OA
ENDBRANCH   3   4
ENDBRANCH   2   3
ENDBRANCH   1   2
BRANCH   1   7
ATOM      7  C   UNL     1      10.474   8.029  33.220  1.00  0.00     0.000 C 
BRANCH   7   8
ATOM      8  C   UNL     1      11.444   6.862  33.461  1.00  0.00    -0.000 C 
BRANCH   8   9
ATOM      9  C   UNL     1      10.789   5.678  34.194  1.00  0.00    -0.000 C 
BRANCH   9  10
ATOM     10  C   UNL     1      10.153   4.620  33.276  1.00  0.00    -0.003 C 
ATOM     11  C   UNL     1      10.868   4.487  31.932  1.00  0.00     0.004 C 
ENDBRANCH   9  10
ENDBRANCH   8   9
ENDBRANCH   7   8
ENDBRANCH   1   7
TORSDOF 7
ENDMDL
MODEL 7
REMARK VINA RESULT:    -3.040     12.792     14.067
REMARK INTER + INTRA:          -4.731
REMARK INTER:                  -3.951
REMARK INTRA:                  -0.780
REMARK UNBOUND:                -0.448
REMARK SMILES CCCCCCCCC(=O)[O-]
REMARK SMILES IDX 6 1 7 2 8 3 9 4 10 5 11 6 5 7 4 8 3 9 2 10 1 11
REMARK H PARENT
REMARK Flexibility Score: inf
ROOT
ATOM      1  C   UNL     1       9.306   8.373  32.234  1.00  0.00     0.000 C 
ENDROOT
BRANCH   1   2
ATOM      2  C   UNL     1      10.797   8.268  32.593  1.00  0.00     0.006 C 
BRANCH   2   3
ATOM      3  C   UNL     1      11.065   7.244  33.704  1.00  0.00     0.053 C 
BRANCH   3   4
ATOM      4  C   UNL     1      11.999   6.181  33.218  1.00  0.00     0.041 C 
ATOM      5  O   UNL     1      12.823   5.650  34.009  1.00  0.00    -0.550 OA
ATOM      6  O   UNL     1      11.994   5.811  31.879  1.00  0.00    -0.550 OA
ENDBRANCH   3   4
ENDBRANCH   2   3
ENDBRANCH   1   2
BRANCH   1   7
ATOM      7  C   UNL     1       9.004   7.878  30.811  1.00  0.00     0.000 C 
BRANCH   7   8
ATOM      8  C   UNL     1       8.079   6.651  30.841  1.00  0.00    -0.000 C 
BRANCH   8   9
ATOM      9  C   UNL     1       8.701   5.414  30.170  1.00  0.00    -0.000 C 
BRANCH   9  10
ATOM     10  C   UNL     1       9.005   4.244  31.122  1.00  0.00    -0.003 C 
ATOM     11  C   UNL     1       8.661   4.553  32.579  1.00  0.00     0.004 C 
ENDBRANCH   9  10
ENDBRANCH   8   9
ENDBRANCH   7   8
ENDBRANCH   1   7
TORSDOF 7
ENDMDL
MODEL 8
REMARK VINA RESULT:    -3.017     13.255     14.577
REMARK INTER + INTRA:          -4.700
REMARK INTER:                  -3.909
REMARK INTRA:                  -0.790
REMARK UNBOUND:                -0.448
REMARK SMILES CCCCCCCCC(=O)[O-]
REMARK SMILES IDX 6 1 7 2 8 3 9 4 10 5 11 6 5 7 4 8 3 9 2 10 1 11
REMARK H PARENT
REMARK Flexibility Score: inf
ROOT
ATOM      1  C   UNL     1       8.639   7.845  31.140  1.00  0.00     0.000 C 
ENDROOT
BRANCH   1   2
ATOM      2  C   UNL     1       8.051   6.425  31.094  1.00  0.00     0.006 C 
BRANCH   2   3
ATOM      3  C   UNL     1       9.111   5.356  30.798  1.00  0.00     0.053 C 
BRANCH   3   4
ATOM      4  C   UNL     1       9.096   4.300  31.859  1.00  0.00     0.041 C 
ATOM      5  O   UNL     1       8.495   4.502  32.947  1.00  0.00    -0.550 OA
ATOM      6  O   UNL     1       9.789   3.112  31.664  1.00  0.00    -0.550 OA
ENDBRANCH   3   4
ENDBRANCH   2   3
ENDBRANCH   1   2
BRANCH   1   7
ATOM      7  C   UNL     1      10.173   7.848  31.231  1.00  0.00     0.000 C 
BRANCH   7   8
ATOM      8  C   UNL     1      10.641   8.395  32.588  1.00  0.00    -0.000 C 
BRANCH   8   9
ATOM      9  C   UNL     1      10.722   7.311  33.677  1.00  0.00    -0.000 C 
BRANCH   9  10
ATOM     10  C   UNL     1      11.859   6.291  33.493  1.00  0.00    -0.003 C 
ATOM     11  C   UNL     1      11.727   5.076  34.411  1.00  0.00     0.004 C 
ENDBRANCH   9  10
ENDBRANCH   8   9
ENDBRANCH   7   8
ENDBRANCH   1   7
TORSDOF 7
ENDMDL
MODEL 9
REMARK VINA RESULT:    -2.989     12.918     14.120
REMARK INTER + INTRA:          -4.659
REMARK INTER:                  -3.865
REMARK INTRA:                  -0.794
REMARK UNBOUND:                -0.448
REMARK SMILES CCCCCCCCC(=O)[O-]
REMARK SMILES IDX 6 1 7 2 8 3 9 4 10 5 11 6 5 7 4 8 3 9 2 10 1 11
REMARK H PARENT
REMARK Flexibility Score: inf
ROOT
ATOM      1  C   UNL     1       8.025   5.629  31.501  1.00  0.00     0.000 C 
ENDROOT
BRANCH   1   2
ATOM      2  C   UNL     1       8.059   6.914  30.659  1.00  0.00     0.006 C 
BRANCH   2   3
ATOM      3  C   UNL     1       8.645   8.107  31.425  1.00  0.00     0.053 C 
BRANCH   3   4
ATOM      4  C   UNL     1      10.137   8.119  31.310  1.00  0.00     0.041 C 
ATOM      5  O   UNL     1      10.699   7.627  30.297  1.00  0.00    -0.550 OA
ATOM      6  O   UNL     1      10.910   8.631  32.345  1.00  0.00    -0.550 OA
ENDBRANCH   3   4
ENDBRANCH   2   3
ENDBRANCH   1   2
BRANCH   1   7
ATOM      7  C   UNL     1       9.021   4.569  31.006  1.00  0.00     0.000 C 
BRANCH   7   8
ATOM      8  C   UNL     1      10.203   4.430  31.978  1.00  0.00    -0.000 C 
BRANCH   8   9
ATOM      9  C   UNL     1       9.804   4.666  33.445  1.00  0.00    -0.000 C 
BRANCH   9  10
ATOM     10  C   UNL     1      10.668   5.696  34.194  1.00  0.00    -0.003 C 
ATOM     11  C   UNL     1      12.132   5.681  33.755  1.00  0.00     0.004 C 
ENDBRANCH   9  10
ENDBRANCH   8   9
ENDBRANCH   7   8
ENDBRANCH   1   7
TORSDOF 7
ENDMDL
