MODEL 1
REMARK VINA RESULT:     1.785      0.000      0.000
REMARK INTER + INTRA:           4.671
REMARK INTER:                   1.993
REMARK INTRA:                   2.677
REMARK UNBOUND:                 2.677
REMARK SMILES O=C([O-])C=Cc1ccccc1
REMARK SMILES IDX 4 1 5 2 2 3 1 4 3 5 6 6 7 7 11 8 8 9 10 10 9 11
REMARK H PARENT
REMARK Flexibility Score: inf
ROOT
ATOM      1  C   UNL     1     -36.157  24.684  -4.875  1.00  0.00     0.025 C 
ATOM      2  C   UNL     1     -35.745  25.962  -4.889  1.00  0.00     0.010 C 
ENDROOT
BRANCH   1   3
ATOM      3  C   UNL     1     -37.516  24.220  -5.212  1.00  0.00     0.064 C 
ATOM      4  O   UNL     1     -38.506  24.920  -4.876  1.00  0.00    -0.545 OA
ATOM      5  O   UNL     1     -37.732  22.993  -5.828  1.00  0.00    -0.545 OA
ENDBRANCH   1   3
BRANCH   2   6
ATOM      6  C   UNL     1     -36.620  27.140  -5.057  1.00  0.00    -0.026 A 
ATOM      7  C   UNL     1     -36.042  28.396  -5.297  1.00  0.00     0.008 A 
ATOM      8  C   UNL     1     -38.011  27.047  -4.877  1.00  0.00     0.008 A 
ATOM      9  C   UNL     1     -36.846  29.534  -5.409  1.00  0.00     0.001 A 
ATOM     10  C   UNL     1     -38.813  28.187  -4.989  1.00  0.00     0.001 A 
ATOM     11  C   UNL     1     -38.233  29.429  -5.259  1.00  0.00     0.000 A 
ENDBRANCH   2   6
TORSDOF 2
ENDMDL
MODEL 2
REMARK VINA RESULT:     1.945      2.516      4.364
REMARK INTER + INTRA:           4.849
REMARK INTER:                   3.947
REMARK INTRA:                   0.902
REMARK UNBOUND:                 2.677
REMARK SMILES O=C([O-])C=Cc1ccccc1
REMARK SMILES IDX 4 1 5 2 2 3 1 4 3 5 6 6 7 7 11 8 8 9 10 10 9 11
REMARK H PARENT
REMARK Flexibility Score: inf
ROOT
ATOM      1  C   UNL     1     -37.808  29.059  -5.228  1.00  0.00     0.025 C 
ATOM      2  C   UNL     1     -38.305  27.844  -4.950  1.00  0.00     0.010 C 
ENDROOT
BRANCH   1   3
ATOM      3  C   UNL     1     -36.437  29.336  -5.697  1.00  0.00     0.064 C 
ATOM      4  O   UNL     1     -35.670  30.030  -4.980  1.00  0.00    -0.545 OA
ATOM      5  O   UNL     1     -35.996  28.910  -6.945  1.00  0.00    -0.545 OA
ENDBRANCH   1   3
BRANCH   2   6
ATOM      6  C   UNL     1     -37.519  26.595  -4.881  1.00  0.00    -0.026 A 
ATOM      7  C   UNL     1     -36.117  26.662  -4.914  1.00  0.00     0.008 A 
ATOM      8  C   UNL     1     -38.147  25.336  -4.889  1.00  0.00     0.008 A 
ATOM      9  C   UNL     1     -35.354  25.491  -4.901  1.00  0.00     0.001 A 
ATOM     10  C   UNL     1     -37.380  24.167  -4.876  1.00  0.00     0.001 A 
ATOM     11  C   UNL     1     -35.985  24.244  -4.878  1.00  0.00     0.000 A 
ENDBRANCH   2   6
TORSDOF 2
ENDMDL
MODEL 3
REMARK VINA RESULT:     2.028      2.195      4.091
REMARK INTER + INTRA:           4.942
REMARK INTER:                   4.244
REMARK INTRA:                   0.698
REMARK UNBOUND:                 2.677
REMARK SMILES O=C([O-])C=Cc1ccccc1
REMARK SMILES IDX 4 1 5 2 2 3 1 4 3 5 6 6 7 7 11 8 8 9 10 10 9 11
REMARK H PARENT
REMARK Flexibility Score: inf
ROOT
ATOM      1  C   UNL     1     -37.663  29.215  -5.448  1.00  0.00     0.025 C 
ATOM      2  C   UNL     1     -36.699  28.407  -4.981  1.00  0.00     0.010 C 
ENDROOT
BRANCH   1   3
ATOM      3  C   UNL     1     -39.037  28.801  -5.789  1.00  0.00     0.064 C 
ATOM      4  O   UNL     1     -39.274  28.339  -6.935  1.00  0.00    -0.545 OA
ATOM      5  O   UNL     1     -40.090  28.975  -4.898  1.00  0.00    -0.545 OA
ENDBRANCH   1   3
BRANCH   2   6
ATOM      6  C   UNL     1     -36.781  26.934  -4.907  1.00  0.00    -0.026 A 
ATOM      7  C   UNL     1     -35.599  26.178  -4.937  1.00  0.00     0.008 A 
ATOM      8  C   UNL     1     -38.022  26.271  -4.914  1.00  0.00     0.008 A 
ATOM      9  C   UNL     1     -35.654  24.781  -4.919  1.00  0.00     0.001 A 
ATOM     10  C   UNL     1     -38.073  24.874  -4.896  1.00  0.00     0.001 A 
ATOM     11  C   UNL     1     -36.891  24.129  -4.894  1.00  0.00     0.000 A 
ENDBRANCH   2   6
TORSDOF 2
ENDMDL
MODEL 4
REMARK VINA RESULT:     2.200      2.182      4.216
REMARK INTER + INTRA:           5.135
REMARK INTER:                   4.187
REMARK INTRA:                   0.947
REMARK UNBOUND:                 2.677
REMARK SMILES O=C([O-])C=Cc1ccccc1
REMARK SMILES IDX 4 1 5 2 2 3 1 4 3 5 6 6 7 7 11 8 8 9 10 10 9 11
REMARK H PARENT
REMARK Flexibility Score: inf
ROOT
ATOM      1  C   UNL     1     -37.870  29.494  -5.281  1.00  0.00     0.025 C 
ATOM      2  C   UNL     1     -36.848  28.718  -4.889  1.00  0.00     0.010 C 
ENDROOT
BRANCH   1   3
ATOM      3  C   UNL     1     -39.215  29.016  -5.653  1.00  0.00     0.064 C 
ATOM      4  O   UNL     1     -40.182  29.238  -4.880  1.00  0.00    -0.545 OA
ATOM      5  O   UNL     1     -39.426  28.262  -6.802  1.00  0.00    -0.545 OA
ENDBRANCH   1   3
BRANCH   2   6
ATOM      6  C   UNL     1     -36.826  27.242  -4.943  1.00  0.00    -0.026 A 
ATOM      7  C   UNL     1     -38.037  26.534  -4.877  1.00  0.00     0.008 A 
ATOM      8  C   UNL     1     -35.614  26.530  -4.952  1.00  0.00     0.008 A 
ATOM      9  C   UNL     1     -38.038  25.136  -4.875  1.00  0.00     0.001 A 
ATOM     10  C   UNL     1     -35.618  25.132  -4.950  1.00  0.00     0.001 A 
ATOM     11  C   UNL     1     -36.829  24.435  -4.916  1.00  0.00     0.000 A 
ENDBRANCH   2   6
TORSDOF 2
ENDMDL
MODEL 5
REMARK VINA RESULT:     4.250      1.495      2.542
REMARK INTER + INTRA:           7.424
REMARK INTER:                   5.681
REMARK INTRA:                   1.743
REMARK UNBOUND:                 2.677
REMARK SMILES O=C([O-])C=Cc1ccccc1
REMARK SMILES IDX 4 1 5 2 2 3 1 4 3 5 6 6 7 7 11 8 8 9 10 10 9 11
REMARK H PARENT
REMARK Flexibility Score: inf
ROOT
ATOM      1  C   UNL     1     -38.428  26.104  -4.882  1.00  0.00     0.025 C 
ATOM      2  C   UNL     1     -38.419  27.446  -4.891  1.00  0.00     0.010 C 
ENDROOT
BRANCH   1   3
ATOM      3  C   UNL     1     -37.307  25.238  -5.294  1.00  0.00     0.064 C 
ATOM      4  O   UNL     1     -37.515  24.011  -5.482  1.00  0.00    -0.545 OA
ATOM      5  O   UNL     1     -36.013  25.731  -5.411  1.00  0.00    -0.545 OA
ENDBRANCH   1   3
BRANCH   2   6
ATOM      6  C   UNL     1     -37.365  28.289  -5.491  1.00  0.00    -0.026 A 
ATOM      7  C   UNL     1     -36.693  27.837  -6.637  1.00  0.00     0.008 A 
ATOM      8  C   UNL     1     -36.949  29.484  -4.876  1.00  0.00     0.008 A 
ATOM      9  C   UNL     1     -35.657  28.595  -7.193  1.00  0.00     0.001 A 
ATOM     10  C   UNL     1     -35.913  30.239  -5.435  1.00  0.00     0.001 A 
ATOM     11  C   UNL     1     -35.271  29.798  -6.594  1.00  0.00     0.000 A 
ENDBRANCH   2   6
TORSDOF 2
ENDMDL
