MODEL 1
REMARK VINA RESULT:    -4.901      0.000      0.000
REMARK INTER + INTRA:          -4.901
REMARK INTER:                  -4.901
REMARK INTRA:                   0.000
REMARK UNBOUND:                 0.000
REMARK SMILES CC(C)=C1CC[C@H](C)CC1=O
REMARK SMILES IDX 8 1 7 2 6 3 5 4 4 5 2 6 1 7 3 8 10 9 11 10 9 11
REMARK H PARENT
REMARK Flexibility Score: inf
ROOT
ATOM      1  C   UNL     1      -9.305   2.877 -14.715  1.00  0.00     0.008 C 
ATOM      2  C   UNL     1     -10.681   2.988 -14.040  1.00  0.00    -0.006 C 
ATOM      3  C   UNL     1     -10.852   4.314 -13.276  1.00  0.00     0.008 C 
ATOM      4  C   UNL     1     -10.889   5.540 -14.202  1.00  0.00     0.039 C 
ATOM      5  C   UNL     1     -11.858   5.377 -15.366  1.00  0.00    -0.006 C 
ATOM      6  C   UNL     1     -12.486   6.455 -15.919  1.00  0.00    -0.070 C 
ATOM      7  C   UNL     1     -13.492   6.305 -17.036  1.00  0.00     0.039 C 
ATOM      8  C   UNL     1     -12.233   7.856 -15.409  1.00  0.00     0.039 C 
ATOM      9  C   UNL     1     -11.982   4.003 -15.936  1.00  0.00     0.159 C 
ATOM     10  O   UNL     1     -12.207   3.819 -17.162  1.00  0.00    -0.295 OA
ATOM     11  C   UNL     1     -11.826   2.803 -15.046  1.00  0.00     0.084 C 
ENDROOT
TORSDOF 0
ENDMDL
MODEL 2
REMARK VINA RESULT:    -4.853      1.763      2.730
REMARK INTER + INTRA:          -4.853
REMARK INTER:                  -4.853
REMARK INTRA:                   0.000
REMARK UNBOUND:                 0.000
REMARK SMILES CC(C)=C1CC[C@H](C)CC1=O
REMARK SMILES IDX 8 1 7 2 6 3 5 4 4 5 2 6 1 7 3 8 10 9 11 10 9 11
REMARK H PARENT
REMARK Flexibility Score: inf
ROOT
ATOM      1  C   UNL     1     -12.150   2.546 -14.535  1.00  0.00     0.008 C 
ATOM      2  C   UNL     1     -11.392   3.232 -15.682  1.00  0.00    -0.006 C 
ATOM      3  C   UNL     1     -12.320   3.615 -16.849  1.00  0.00     0.008 C 
ATOM      4  C   UNL     1     -13.329   4.714 -16.478  1.00  0.00     0.039 C 
ATOM      5  C   UNL     1     -12.680   5.911 -15.795  1.00  0.00    -0.006 C 
ATOM      6  C   UNL     1     -13.202   7.165 -15.923  1.00  0.00    -0.070 C 
ATOM      7  C   UNL     1     -12.540   8.372 -15.299  1.00  0.00     0.039 C 
ATOM      8  C   UNL     1     -14.454   7.415 -16.733  1.00  0.00     0.039 C 
ATOM      9  C   UNL     1     -11.529   5.613 -14.892  1.00  0.00     0.159 C 
ATOM     10  O   UNL     1     -11.308   6.306 -13.863  1.00  0.00    -0.295 OA
ATOM     11  C   UNL     1     -10.614   4.463 -15.195  1.00  0.00     0.084 C 
ENDROOT
TORSDOF 0
ENDMDL
MODEL 3
REMARK VINA RESULT:    -4.444      1.735      3.066
REMARK INTER + INTRA:          -4.444
REMARK INTER:                  -4.444
REMARK INTRA:                   0.000
REMARK UNBOUND:                 0.000
REMARK SMILES CC(C)=C1CC[C@H](C)CC1=O
REMARK SMILES IDX 8 1 7 2 6 3 5 4 4 5 2 6 1 7 3 8 10 9 11 10 9 11
REMARK H PARENT
REMARK Flexibility Score: inf
ROOT
ATOM      1  C   UNL     1     -13.621   2.988 -15.773  1.00  0.00     0.008 C 
ATOM      2  C   UNL     1     -12.320   3.468 -16.435  1.00  0.00    -0.006 C 
ATOM      3  C   UNL     1     -12.515   4.777 -17.223  1.00  0.00     0.008 C 
ATOM      4  C   UNL     1     -12.838   5.979 -16.321  1.00  0.00     0.039 C 
ATOM      5  C   UNL     1     -11.881   6.113 -15.144  1.00  0.00    -0.006 C 
ATOM      6  C   UNL     1     -11.589   7.333 -14.606  1.00  0.00    -0.070 C 
ATOM      7  C   UNL     1     -10.599   7.489 -13.475  1.00  0.00     0.039 C 
ATOM      8  C   UNL     1     -12.216   8.598 -15.146  1.00  0.00     0.039 C 
ATOM      9  C   UNL     1     -11.386   4.838 -14.545  1.00  0.00     0.159 C 
ATOM     10  O   UNL     1     -11.139   4.745 -13.313  1.00  0.00    -0.295 OA
ATOM     11  C   UNL     1     -11.186   3.628 -15.412  1.00  0.00     0.084 C 
ENDROOT
TORSDOF 0
ENDMDL
MODEL 4
REMARK VINA RESULT:    -4.371      1.104      3.797
REMARK INTER + INTRA:          -4.371
REMARK INTER:                  -4.371
REMARK INTRA:                   0.000
REMARK UNBOUND:                 0.000
REMARK SMILES CC(C)=C1CC[C@H](C)CC1=O
REMARK SMILES IDX 8 1 7 2 6 3 5 4 4 5 2 6 1 7 3 8 10 9 11 10 9 11
REMARK H PARENT
REMARK Flexibility Score: inf
ROOT
ATOM      1  C   UNL     1     -14.539   6.018 -16.243  1.00  0.00     0.008 C 
ATOM      2  C   UNL     1     -13.203   6.250 -16.967  1.00  0.00    -0.006 C 
ATOM      3  C   UNL     1     -12.239   7.124 -16.144  1.00  0.00     0.008 C 
ATOM      4  C   UNL     1     -11.752   6.437 -14.859  1.00  0.00     0.039 C 
ATOM      5  C   UNL     1     -11.239   5.022 -15.099  1.00  0.00    -0.006 C 
ATOM      6  C   UNL     1     -10.263   4.482 -14.312  1.00  0.00    -0.070 C 
ATOM      7  C   UNL     1      -9.704   3.103 -14.572  1.00  0.00     0.039 C 
ATOM      8  C   UNL     1      -9.663   5.259 -13.163  1.00  0.00     0.039 C 
ATOM      9  C   UNL     1     -11.945   4.233 -16.150  1.00  0.00     0.159 C 
ATOM     10  O   UNL     1     -12.078   2.984 -16.053  1.00  0.00    -0.295 OA
ATOM     11  C   UNL     1     -12.525   4.926 -17.349  1.00  0.00     0.084 C 
ENDROOT
TORSDOF 0
ENDMDL
MODEL 5
REMARK VINA RESULT:    -4.266      1.996      3.223
REMARK INTER + INTRA:          -4.266
REMARK INTER:                  -4.266
REMARK INTRA:                   0.000
REMARK UNBOUND:                 0.000
REMARK SMILES CC(C)=C1CC[C@H](C)CC1=O
REMARK SMILES IDX 8 1 7 2 6 3 5 4 4 5 2 6 1 7 3 8 10 9 11 10 9 11
REMARK H PARENT
REMARK Flexibility Score: inf
ROOT
ATOM      1  C   UNL     1     -11.091   5.081 -11.508  1.00  0.00     0.008 C 
ATOM      2  C   UNL     1     -10.091   4.335 -12.405  1.00  0.00    -0.006 C 
ATOM      3  C   UNL     1     -10.504   2.872 -12.648  1.00  0.00     0.008 C 
ATOM      4  C   UNL     1     -11.788   2.741 -13.483  1.00  0.00     0.039 C 
ATOM      5  C   UNL     1     -11.763   3.587 -14.749  1.00  0.00    -0.006 C 
ATOM      6  C   UNL     1     -12.443   3.203 -15.869  1.00  0.00    -0.070 C 
ATOM      7  C   UNL     1     -12.383   4.002 -17.150  1.00  0.00     0.039 C 
ATOM      8  C   UNL     1     -13.261   1.932 -15.892  1.00  0.00     0.039 C 
ATOM      9  C   UNL     1     -11.062   4.901 -14.652  1.00  0.00     0.159 C 
ATOM     10  O   UNL     1     -11.449   5.901 -15.315  1.00  0.00    -0.295 OA
ATOM     11  C   UNL     1      -9.878   5.057 -13.743  1.00  0.00     0.084 C 
ENDROOT
TORSDOF 0
ENDMDL
MODEL 6
REMARK VINA RESULT:    -4.159      1.738      3.255
REMARK INTER + INTRA:          -4.159
REMARK INTER:                  -4.159
REMARK INTRA:                   0.000
REMARK UNBOUND:                 0.000
REMARK SMILES CC(C)=C1CC[C@H](C)CC1=O
REMARK SMILES IDX 8 1 7 2 6 3 5 4 4 5 2 6 1 7 3 8 10 9 11 10 9 11
REMARK H PARENT
REMARK Flexibility Score: inf
ROOT
ATOM      1  C   UNL     1     -11.906   3.967 -17.996  1.00  0.00     0.008 C 
ATOM      2  C   UNL     1     -12.771   3.911 -16.727  1.00  0.00    -0.006 C 
ATOM      3  C   UNL     1     -12.024   3.275 -15.540  1.00  0.00     0.008 C 
ATOM      4  C   UNL     1     -10.845   4.128 -15.044  1.00  0.00     0.039 C 
ATOM      5  C   UNL     1     -11.221   5.587 -14.818  1.00  0.00    -0.006 C 
ATOM      6  C   UNL     1     -10.587   6.341 -13.873  1.00  0.00    -0.070 C 
ATOM      7  C   UNL     1     -10.985   7.772 -13.598  1.00  0.00     0.039 C 
ATOM      8  C   UNL     1      -9.478   5.763 -13.024  1.00  0.00     0.039 C 
ATOM      9  C   UNL     1     -12.221   6.166 -15.763  1.00  0.00     0.159 C 
ATOM     10  O   UNL     1     -12.175   7.379 -16.103  1.00  0.00    -0.295 OA
ATOM     11  C   UNL     1     -13.302   5.298 -16.338  1.00  0.00     0.084 C 
ENDROOT
TORSDOF 0
ENDMDL
MODEL 7
REMARK VINA RESULT:    -4.122      1.892      3.081
REMARK INTER + INTRA:          -4.122
REMARK INTER:                  -4.122
REMARK INTRA:                   0.000
REMARK UNBOUND:                 0.000
REMARK SMILES CC(C)=C1CC[C@H](C)CC1=O
REMARK SMILES IDX 8 1 7 2 6 3 5 4 4 5 2 6 1 7 3 8 10 9 11 10 9 11
REMARK H PARENT
REMARK Flexibility Score: inf
ROOT
ATOM      1  C   UNL     1     -10.280   2.587 -11.543  1.00  0.00     0.008 C 
ATOM      2  C   UNL     1      -9.266   2.934 -12.645  1.00  0.00    -0.006 C 
ATOM      3  C   UNL     1      -9.510   2.131 -13.936  1.00  0.00     0.008 C 
ATOM      4  C   UNL     1     -10.828   2.501 -14.634  1.00  0.00     0.039 C 
ATOM      5  C   UNL     1     -11.007   4.004 -14.807  1.00  0.00    -0.006 C 
ATOM      6  C   UNL     1     -11.719   4.515 -15.854  1.00  0.00    -0.070 C 
ATOM      7  C   UNL     1     -11.859   6.003 -16.071  1.00  0.00     0.039 C 
ATOM      8  C   UNL     1     -12.369   3.609 -16.875  1.00  0.00     0.039 C 
ATOM      9  C   UNL     1     -10.472   4.864 -13.710  1.00  0.00     0.159 C 
ATOM     10  O   UNL     1     -11.032   5.948 -13.395  1.00  0.00    -0.295 OA
ATOM     11  C   UNL     1      -9.250   4.439 -12.950  1.00  0.00     0.084 C 
ENDROOT
TORSDOF 0
ENDMDL
MODEL 8
REMARK VINA RESULT:    -4.007     16.470     17.574
REMARK INTER + INTRA:          -4.007
REMARK INTER:                  -4.007
REMARK INTRA:                   0.000
REMARK UNBOUND:                 0.000
REMARK SMILES CC(C)=C1CC[C@H](C)CC1=O
REMARK SMILES IDX 8 1 7 2 6 3 5 4 4 5 2 6 1 7 3 8 10 9 11 10 9 11
REMARK H PARENT
REMARK Flexibility Score: inf
ROOT
ATOM      1  C   UNL     1     -29.125   7.426 -19.484  1.00  0.00     0.008 C 
ATOM      2  C   UNL     1     -27.804   6.694 -19.197  1.00  0.00    -0.006 C 
ATOM      3  C   UNL     1     -28.032   5.271 -18.654  1.00  0.00     0.008 C 
ATOM      4  C   UNL     1     -28.661   4.327 -19.691  1.00  0.00     0.039 C 
ATOM      5  C   UNL     1     -27.948   4.361 -21.037  1.00  0.00    -0.006 C 
ATOM      6  C   UNL     1     -27.918   3.263 -21.847  1.00  0.00    -0.070 C 
ATOM      7  C   UNL     1     -27.168   3.263 -23.159  1.00  0.00     0.039 C 
ATOM      8  C   UNL     1     -28.603   1.975 -21.450  1.00  0.00     0.039 C 
ATOM      9  C   UNL     1     -27.401   5.683 -21.461  1.00  0.00     0.159 C 
ATOM     10  O   UNL     1     -27.360   6.015 -22.676  1.00  0.00    -0.295 OA
ATOM     11  C   UNL     1     -26.895   6.653 -20.434  1.00  0.00     0.084 C 
ENDROOT
TORSDOF 0
ENDMDL
MODEL 9
REMARK VINA RESULT:    -3.940     16.173     18.414
REMARK INTER + INTRA:          -3.940
REMARK INTER:                  -3.940
REMARK INTRA:                   0.000
REMARK UNBOUND:                 0.000
REMARK SMILES CC(C)=C1CC[C@H](C)CC1=O
REMARK SMILES IDX 8 1 7 2 6 3 5 4 4 5 2 6 1 7 3 8 10 9 11 10 9 11
REMARK H PARENT
REMARK Flexibility Score: inf
ROOT
ATOM      1  C   UNL     1     -29.030  10.625 -24.005  1.00  0.00     0.008 C 
ATOM      2  C   UNL     1     -28.083  11.122 -22.901  1.00  0.00    -0.006 C 
ATOM      3  C   UNL     1     -28.765  11.162 -21.522  1.00  0.00     0.008 C 
ATOM      4  C   UNL     1     -29.120   9.766 -20.986  1.00  0.00     0.039 C 
ATOM      5  C   UNL     1     -27.955   8.786 -21.063  1.00  0.00    -0.006 C 
ATOM      6  C   UNL     1     -27.828   7.769 -20.162  1.00  0.00    -0.070 C 
ATOM      7  C   UNL     1     -26.650   6.823 -20.191  1.00  0.00     0.039 C 
ATOM      8  C   UNL     1     -28.844   7.564 -19.062  1.00  0.00     0.039 C 
ATOM      9  C   UNL     1     -27.047   8.930 -22.239  1.00  0.00     0.159 C 
ATOM     10  O   UNL     1     -26.485   7.929 -22.759  1.00  0.00    -0.295 OA
ATOM     11  C   UNL     1     -26.797  10.285 -22.835  1.00  0.00     0.084 C 
ENDROOT
TORSDOF 0
ENDMDL
