MODEL 1
REMARK VINA RESULT:    -2.889      0.000      0.000
REMARK INTER + INTRA:         -12.883
REMARK INTER:                  -7.619
REMARK INTRA:                  -5.265
REMARK UNBOUND:                -5.265
REMARK SMILES CCCCCCCCCCCCCCCCCCCCCCCCCCCCCC(=O)[O-]
REMARK SMILES IDX 16 1 17 2 18 3 19 4 20 5 21 6 22 7 23 8 24 9 25 10 26 11
REMARK SMILES IDX 27 12 28 13 29 14 30 15 31 16 32 17 15 18 14 19 13 20 12 21
REMARK SMILES IDX 11 22 10 23 9 24 8 25 7 26 6 27 5 28 4 29 3 30 2 31 1 32
REMARK H PARENT
REMARK Flexibility Score: inf
ROOT
ATOM      1  C   UNL     1      23.007  73.892  15.013  1.00  0.00     0.000 C 
ENDROOT
BRANCH   1   2
ATOM      2  C   UNL     1      22.748  74.754  13.760  1.00  0.00     0.000 C 
BRANCH   2   3
ATOM      3  C   UNL     1      21.300  74.660  13.227  1.00  0.00     0.000 C 
BRANCH   3   4
ATOM      4  C   UNL     1      20.382  73.785  14.100  1.00  0.00     0.000 C 
BRANCH   4   5
ATOM      5  C   UNL     1      19.235  73.153  13.290  1.00  0.00     0.000 C 
BRANCH   5   6
ATOM      6  C   UNL     1      19.166  71.627  13.463  1.00  0.00     0.000 C 
BRANCH   6   7
ATOM      7  C   UNL     1      20.513  70.937  13.198  1.00  0.00     0.000 C 
BRANCH   7   8
ATOM      8  C   UNL     1      20.832  69.913  14.297  1.00  0.00     0.000 C 
BRANCH   8   9
ATOM      9  C   UNL     1      20.164  70.249  15.640  1.00  0.00     0.000 C 
BRANCH   9  10
ATOM     10  C   UNL     1      21.033  71.161  16.525  1.00  0.00     0.000 C 
BRANCH  10  11
ATOM     11  C   UNL     1      22.340  70.476  16.966  1.00  0.00     0.000 C 
BRANCH  11  12
ATOM     12  C   UNL     1      22.338  70.013  18.436  1.00  0.00     0.000 C 
BRANCH  12  13
ATOM     13  C   UNL     1      22.447  68.484  18.571  1.00  0.00     0.006 C 
BRANCH  13  14
ATOM     14  C   UNL     1      22.551  67.788  17.207  1.00  0.00     0.053 C 
BRANCH  14  15
ATOM     15  C   UNL     1      23.273  66.479  17.305  1.00  0.00     0.041 C 
ATOM     16  O   UNL     1      22.953  65.642  18.191  1.00  0.00    -0.550 OA
ATOM     17  O   UNL     1      24.282  66.171  16.400  1.00  0.00    -0.550 OA
ENDBRANCH  14  15
ENDBRANCH  13  14
ENDBRANCH  12  13
ENDBRANCH  11  12
ENDBRANCH  10  11
ENDBRANCH   9  10
ENDBRANCH   8   9
ENDBRANCH   7   8
ENDBRANCH   6   7
ENDBRANCH   5   6
ENDBRANCH   4   5
ENDBRANCH   3   4
ENDBRANCH   2   3
ENDBRANCH   1   2
BRANCH   1  18
ATOM     18  C   UNL     1      24.051  72.776  14.827  1.00  0.00     0.000 C 
BRANCH  18  19
ATOM     19  C   UNL     1      23.866  72.003  13.510  1.00  0.00     0.000 C 
BRANCH  19  20
ATOM     20  C   UNL     1      25.142  72.003  12.643  1.00  0.00     0.000 C 
BRANCH  20  21
ATOM     21  C   UNL     1      26.447  72.092  13.456  1.00  0.00     0.000 C 
BRANCH  21  22
ATOM     22  C   UNL     1      27.668  71.421  12.806  1.00  0.00     0.000 C 
BRANCH  22  23
ATOM     23  C   UNL     1      27.354  70.840  11.416  1.00  0.00     0.000 C 
BRANCH  23  24
ATOM     24  C   UNL     1      27.971  71.656  10.265  1.00  0.00    -0.000 C 
BRANCH  24  25
ATOM     25  C   UNL     1      27.234  71.558   8.915  1.00  0.00    -0.000 C 
BRANCH  25  26
ATOM     26  C   UNL     1      25.766  72.005   8.997  1.00  0.00    -0.000 C 
BRANCH  26  27
ATOM     27  C   UNL     1      24.817  70.888   8.534  1.00  0.00    -0.000 C 
BRANCH  27  28
ATOM     28  C   UNL     1      24.457  69.915   9.669  1.00  0.00    -0.000 C 
BRANCH  28  29
ATOM     29  C   UNL     1      23.068  70.198  10.268  1.00  0.00    -0.000 C 
BRANCH  29  30
ATOM     30  C   UNL     1      22.292  71.266   9.481  1.00  0.00    -0.000 C 
BRANCH  30  31
ATOM     31  C   UNL     1      21.988  72.512  10.324  1.00  0.00    -0.003 C 
ATOM     32  C   UNL     1      20.751  73.239   9.806  1.00  0.00     0.004 C 
ENDBRANCH  30  31
ENDBRANCH  29  30
ENDBRANCH  28  29
ENDBRANCH  27  28
ENDBRANCH  26  27
ENDBRANCH  25  26
ENDBRANCH  24  25
ENDBRANCH  23  24
ENDBRANCH  22  23
ENDBRANCH  21  22
ENDBRANCH  20  21
ENDBRANCH  19  20
ENDBRANCH  18  19
ENDBRANCH   1  18
TORSDOF 28
ENDMDL
MODEL 2
REMARK VINA RESULT:    -2.872      1.439      2.602
REMARK INTER + INTRA:         -12.836
REMARK INTER:                  -7.855
REMARK INTRA:                  -4.981
REMARK UNBOUND:                -5.265
REMARK SMILES CCCCCCCCCCCCCCCCCCCCCCCCCCCCCC(=O)[O-]
REMARK SMILES IDX 16 1 17 2 18 3 19 4 20 5 21 6 22 7 23 8 24 9 25 10 26 11
REMARK SMILES IDX 27 12 28 13 29 14 30 15 31 16 32 17 15 18 14 19 13 20 12 21
REMARK SMILES IDX 11 22 10 23 9 24 8 25 7 26 6 27 5 28 4 29 3 30 2 31 1 32
REMARK H PARENT
REMARK Flexibility Score: inf
ROOT
ATOM      1  C   UNL     1      23.881  72.011  13.215  1.00  0.00     0.000 C 
ENDROOT
BRANCH   1   2
ATOM      2  C   UNL     1      24.164  72.664  14.584  1.00  0.00     0.000 C 
BRANCH   2   3
ATOM      3  C   UNL     1      23.066  73.650  15.042  1.00  0.00     0.000 C 
BRANCH   3   4
ATOM      4  C   UNL     1      22.309  74.311  13.875  1.00  0.00     0.000 C 
BRANCH   4   5
ATOM      5  C   UNL     1      20.787  74.104  13.974  1.00  0.00     0.000 C 
BRANCH   5   6
ATOM      6  C   UNL     1      20.309  72.871  13.191  1.00  0.00     0.000 C 
BRANCH   6   7
ATOM      7  C   UNL     1      20.021  71.666  14.098  1.00  0.00     0.000 C 
BRANCH   7   8
ATOM      8  C   UNL     1      19.200  72.086  15.326  1.00  0.00     0.000 C 
BRANCH   8   9
ATOM      9  C   UNL     1      19.907  71.767  16.654  1.00  0.00     0.000 C 
BRANCH   9  10
ATOM     10  C   UNL     1      20.715  70.458  16.599  1.00  0.00     0.000 C 
BRANCH  10  11
ATOM     11  C   UNL     1      22.201  70.672  16.942  1.00  0.00     0.000 C 
BRANCH  11  12
ATOM     12  C   UNL     1      22.652  69.963  18.234  1.00  0.00     0.000 C 
BRANCH  12  13
ATOM     13  C   UNL     1      22.514  68.432  18.144  1.00  0.00     0.006 C 
BRANCH  13  14
ATOM     14  C   UNL     1      21.519  67.879  19.173  1.00  0.00     0.053 C 
BRANCH  14  15
ATOM     15  C   UNL     1      20.658  66.801  18.590  1.00  0.00     0.041 C 
ATOM     16  O   UNL     1      21.163  65.697  18.256  1.00  0.00    -0.550 OA
ATOM     17  O   UNL     1      19.292  67.006  18.440  1.00  0.00    -0.550 OA
ENDBRANCH  14  15
ENDBRANCH  13  14
ENDBRANCH  12  13
ENDBRANCH  11  12
ENDBRANCH  10  11
ENDBRANCH   9  10
ENDBRANCH   8   9
ENDBRANCH   7   8
ENDBRANCH   6   7
ENDBRANCH   5   6
ENDBRANCH   4   5
ENDBRANCH   3   4
ENDBRANCH   2   3
ENDBRANCH   1   2
BRANCH   1  18
ATOM     18  C   UNL     1      25.134  71.679  12.385  1.00  0.00     0.000 C 
BRANCH  18  19
ATOM     19  C   UNL     1      26.442  71.958  13.146  1.00  0.00     0.000 C 
BRANCH  19  20
ATOM     20  C   UNL     1      27.692  71.566  12.331  1.00  0.00     0.000 C 
BRANCH  20  21
ATOM     21  C   UNL     1      27.371  70.936  10.963  1.00  0.00     0.000 C 
BRANCH  21  22
ATOM     22  C   UNL     1      28.343  71.304   9.830  1.00  0.00     0.000 C 
BRANCH  22  23
ATOM     23  C   UNL     1      27.622  71.854   8.586  1.00  0.00     0.000 C 
BRANCH  23  24
ATOM     24  C   UNL     1      26.317  72.599   8.923  1.00  0.00    -0.000 C 
BRANCH  24  25
ATOM     25  C   UNL     1      26.497  74.005   9.527  1.00  0.00    -0.000 C 
BRANCH  25  26
ATOM     26  C   UNL     1      25.188  74.600  10.069  1.00  0.00    -0.000 C 
BRANCH  26  27
ATOM     27  C   UNL     1      23.968  74.021   9.336  1.00  0.00    -0.000 C 
BRANCH  27  28
ATOM     28  C   UNL     1      22.739  73.897  10.252  1.00  0.00    -0.000 C 
BRANCH  28  29
ATOM     29  C   UNL     1      21.946  72.602  10.001  1.00  0.00    -0.000 C 
BRANCH  29  30
ATOM     30  C   UNL     1      22.853  71.415   9.639  1.00  0.00    -0.000 C 
BRANCH  30  31
ATOM     31  C   UNL     1      22.316  70.081  10.175  1.00  0.00    -0.003 C 
ATOM     32  C   UNL     1      20.868  70.217  10.636  1.00  0.00     0.004 C 
ENDBRANCH  30  31
ENDBRANCH  29  30
ENDBRANCH  28  29
ENDBRANCH  27  28
ENDBRANCH  26  27
ENDBRANCH  25  26
ENDBRANCH  24  25
ENDBRANCH  23  24
ENDBRANCH  22  23
ENDBRANCH  21  22
ENDBRANCH  20  21
ENDBRANCH  19  20
ENDBRANCH  18  19
ENDBRANCH   1  18
TORSDOF 28
ENDMDL
MODEL 3
REMARK VINA RESULT:    -2.858      2.707      4.822
REMARK INTER + INTRA:         -12.801
REMARK INTER:                  -8.368
REMARK INTRA:                  -4.433
REMARK UNBOUND:                -5.265
REMARK SMILES CCCCCCCCCCCCCCCCCCCCCCCCCCCCCC(=O)[O-]
REMARK SMILES IDX 16 1 17 2 18 3 19 4 20 5 21 6 22 7 23 8 24 9 25 10 26 11
REMARK SMILES IDX 27 12 28 13 29 14 30 15 31 16 32 17 15 18 14 19 13 20 12 21
REMARK SMILES IDX 11 22 10 23 9 24 8 25 7 26 6 27 5 28 4 29 3 30 2 31 1 32
REMARK H PARENT
REMARK Flexibility Score: inf
ROOT
ATOM      1  C   UNL     1      26.153  71.363  12.104  1.00  0.00     0.000 C 
ENDROOT
BRANCH   1   2
ATOM      2  C   UNL     1      24.909  72.024  12.733  1.00  0.00     0.000 C 
BRANCH   2   3
ATOM      3  C   UNL     1      23.586  71.671  12.016  1.00  0.00     0.000 C 
BRANCH   3   4
ATOM      4  C   UNL     1      22.680  72.892  11.764  1.00  0.00     0.000 C 
BRANCH   4   5
ATOM      5  C   UNL     1      23.258  74.182  12.372  1.00  0.00     0.000 C 
BRANCH   5   6
ATOM      6  C   UNL     1      22.252  74.903  13.283  1.00  0.00     0.000 C 
BRANCH   6   7
ATOM      7  C   UNL     1      22.216  74.322  14.705  1.00  0.00     0.000 C 
BRANCH   7   8
ATOM      8  C   UNL     1      20.827  73.753  15.031  1.00  0.00     0.000 C 
BRANCH   8   9
ATOM      9  C   UNL     1      20.856  72.246  15.337  1.00  0.00     0.000 C 
BRANCH   9  10
ATOM     10  C   UNL     1      22.261  71.742  15.713  1.00  0.00     0.000 C 
BRANCH  10  11
ATOM     11  C   UNL     1      22.228  70.349  16.369  1.00  0.00     0.000 C 
BRANCH  11  12
ATOM     12  C   UNL     1      22.649  70.345  17.851  1.00  0.00     0.000 C 
BRANCH  12  13
ATOM     13  C   UNL     1      22.064  69.151  18.626  1.00  0.00     0.006 C 
BRANCH  13  14
ATOM     14  C   UNL     1      20.763  68.634  17.997  1.00  0.00     0.053 C 
BRANCH  14  15
ATOM     15  C   UNL     1      20.180  67.497  18.780  1.00  0.00     0.041 C 
ATOM     16  O   UNL     1      20.830  66.428  18.925  1.00  0.00    -0.550 OA
ATOM     17  O   UNL     1      18.929  67.628  19.371  1.00  0.00    -0.550 OA
ENDBRANCH  14  15
ENDBRANCH  13  14
ENDBRANCH  12  13
ENDBRANCH  11  12
ENDBRANCH  10  11
ENDBRANCH   9  10
ENDBRANCH   8   9
ENDBRANCH   7   8
ENDBRANCH   6   7
ENDBRANCH   5   6
ENDBRANCH   4   5
ENDBRANCH   3   4
ENDBRANCH   2   3
ENDBRANCH   1   2
BRANCH   1  18
ATOM     18  C   UNL     1      27.487  72.063  12.417  1.00  0.00     0.000 C 
BRANCH  18  19
ATOM     19  C   UNL     1      28.515  71.917  11.281  1.00  0.00     0.000 C 
BRANCH  19  20
ATOM     20  C   UNL     1      27.977  71.074  10.105  1.00  0.00     0.000 C 
BRANCH  20  21
ATOM     21  C   UNL     1      28.370  71.618   8.719  1.00  0.00     0.000 C 
BRANCH  21  22
ATOM     22  C   UNL     1      27.486  72.761   8.192  1.00  0.00     0.000 C 
BRANCH  22  23
ATOM     23  C   UNL     1      26.017  72.625   8.630  1.00  0.00     0.000 C 
BRANCH  23  24
ATOM     24  C   UNL     1      25.387  73.962   9.061  1.00  0.00    -0.000 C 
BRANCH  24  25
ATOM     25  C   UNL     1      26.089  74.676  10.233  1.00  0.00    -0.000 C 
BRANCH  25  26
ATOM     26  C   UNL     1      26.656  76.051   9.847  1.00  0.00    -0.000 C 
BRANCH  26  27
ATOM     27  C   UNL     1      26.106  77.156  10.762  1.00  0.00    -0.000 C 
BRANCH  27  28
ATOM     28  C   UNL     1      24.743  77.687  10.287  1.00  0.00    -0.000 C 
BRANCH  28  29
ATOM     29  C   UNL     1      23.709  77.754  11.425  1.00  0.00    -0.000 C 
BRANCH  29  30
ATOM     30  C   UNL     1      24.357  77.985  12.799  1.00  0.00    -0.000 C 
BRANCH  30  31
ATOM     31  C   UNL     1      24.387  79.468  13.192  1.00  0.00    -0.003 C 
ATOM     32  C   UNL     1      25.814  80.008  13.191  1.00  0.00     0.004 C 
ENDBRANCH  30  31
ENDBRANCH  29  30
ENDBRANCH  28  29
ENDBRANCH  27  28
ENDBRANCH  26  27
ENDBRANCH  25  26
ENDBRANCH  24  25
ENDBRANCH  23  24
ENDBRANCH  22  23
ENDBRANCH  21  22
ENDBRANCH  20  21
ENDBRANCH  19  20
ENDBRANCH  18  19
ENDBRANCH   1  18
TORSDOF 28
ENDMDL
MODEL 4
REMARK VINA RESULT:    -2.830      3.900      8.559
REMARK INTER + INTRA:         -12.727
REMARK INTER:                  -6.978
REMARK INTRA:                  -5.749
REMARK UNBOUND:                -5.265
REMARK SMILES CCCCCCCCCCCCCCCCCCCCCCCCCCCCCC(=O)[O-]
REMARK SMILES IDX 16 1 17 2 18 3 19 4 20 5 21 6 22 7 23 8 24 9 25 10 26 11
REMARK SMILES IDX 27 12 28 13 29 14 30 15 31 16 32 17 15 18 14 19 13 20 12 21
REMARK SMILES IDX 11 22 10 23 9 24 8 25 7 26 6 27 5 28 4 29 3 30 2 31 1 32
REMARK H PARENT
REMARK Flexibility Score: inf
ROOT
ATOM      1  C   UNL     1      23.055  71.610  11.601  1.00  0.00     0.000 C 
ENDROOT
BRANCH   1   2
ATOM      2  C   UNL     1      24.558  71.267  11.658  1.00  0.00     0.000 C 
BRANCH   2   3
ATOM      3  C   UNL     1      25.301  71.920  12.846  1.00  0.00     0.000 C 
BRANCH   3   4
ATOM      4  C   UNL     1      26.834  71.897  12.697  1.00  0.00     0.000 C 
BRANCH   4   5
ATOM      5  C   UNL     1      27.298  70.941  11.583  1.00  0.00     0.000 C 
BRANCH   5   6
ATOM      6  C   UNL     1      28.412  71.548  10.715  1.00  0.00     0.000 C 
BRANCH   6   7
ATOM      7  C   UNL     1      28.372  71.048   9.263  1.00  0.00     0.000 C 
BRANCH   7   8
ATOM      8  C   UNL     1      27.014  71.351   8.614  1.00  0.00     0.000 C 
BRANCH   8   9
ATOM      9  C   UNL     1      26.814  72.846   8.318  1.00  0.00     0.000 C 
BRANCH   9  10
ATOM     10  C   UNL     1      25.425  73.356   8.744  1.00  0.00     0.000 C 
BRANCH  10  11
ATOM     11  C   UNL     1      25.491  74.275   9.978  1.00  0.00     0.000 C 
BRANCH  11  12
ATOM     12  C   UNL     1      26.420  75.492   9.802  1.00  0.00     0.000 C 
BRANCH  12  13
ATOM     13  C   UNL     1      25.661  76.828   9.886  1.00  0.00     0.006 C 
BRANCH  13  14
ATOM     14  C   UNL     1      26.078  77.655  11.109  1.00  0.00     0.053 C 
BRANCH  14  15
ATOM     15  C   UNL     1      24.917  78.386  11.710  1.00  0.00     0.041 C 
ATOM     16  O   UNL     1      24.939  78.728  12.922  1.00  0.00    -0.550 OA
ATOM     17  O   UNL     1      23.818  78.713  10.923  1.00  0.00    -0.550 OA
ENDBRANCH  14  15
ENDBRANCH  13  14
ENDBRANCH  12  13
ENDBRANCH  11  12
ENDBRANCH  10  11
ENDBRANCH   9  10
ENDBRANCH   8   9
ENDBRANCH   7   8
ENDBRANCH   6   7
ENDBRANCH   5   6
ENDBRANCH   4   5
ENDBRANCH   3   4
ENDBRANCH   2   3
ENDBRANCH   1   2
BRANCH   1  18
ATOM     18  C   UNL     1      22.446  71.620  10.189  1.00  0.00     0.000 C 
BRANCH  18  19
ATOM     19  C   UNL     1      21.386  72.721  10.006  1.00  0.00     0.000 C 
BRANCH  19  20
ATOM     20  C   UNL     1      20.694  73.097  11.332  1.00  0.00     0.000 C 
BRANCH  20  21
ATOM     21  C   UNL     1      20.856  74.579  11.721  1.00  0.00     0.000 C 
BRANCH  21  22
ATOM     22  C   UNL     1      22.215  75.202  11.363  1.00  0.00     0.000 C 
BRANCH  22  23
ATOM     23  C   UNL     1      23.169  75.275  12.569  1.00  0.00     0.000 C 
BRANCH  23  24
ATOM     24  C   UNL     1      22.441  75.177  13.923  1.00  0.00    -0.000 C 
BRANCH  24  25
ATOM     25  C   UNL     1      23.168  74.355  15.006  1.00  0.00    -0.000 C 
BRANCH  25  26
ATOM     26  C   UNL     1      22.742  72.879  15.028  1.00  0.00    -0.000 C 
BRANCH  26  27
ATOM     27  C   UNL     1      21.212  72.742  15.071  1.00  0.00    -0.000 C 
BRANCH  27  28
ATOM     28  C   UNL     1      20.735  71.351  14.620  1.00  0.00    -0.000 C 
BRANCH  28  29
ATOM     29  C   UNL     1      21.734  70.239  14.989  1.00  0.00    -0.000 C 
BRANCH  29  30
ATOM     30  C   UNL     1      21.303  69.447  16.233  1.00  0.00    -0.000 C 
BRANCH  30  31
ATOM     31  C   UNL     1      21.306  70.306  17.505  1.00  0.00    -0.003 C 
ATOM     32  C   UNL     1      22.681  70.306  18.166  1.00  0.00     0.004 C 
ENDBRANCH  30  31
ENDBRANCH  29  30
ENDBRANCH  28  29
ENDBRANCH  27  28
ENDBRANCH  26  27
ENDBRANCH  25  26
ENDBRANCH  24  25
ENDBRANCH  23  24
ENDBRANCH  22  23
ENDBRANCH  21  22
ENDBRANCH  20  21
ENDBRANCH  19  20
ENDBRANCH  18  19
ENDBRANCH   1  18
TORSDOF 28
ENDMDL
MODEL 5
REMARK VINA RESULT:    -2.800      2.201      7.091
REMARK INTER + INTRA:         -12.647
REMARK INTER:                  -6.558
REMARK INTRA:                  -6.089
REMARK UNBOUND:                -5.265
REMARK SMILES CCCCCCCCCCCCCCCCCCCCCCCCCCCCCC(=O)[O-]
REMARK SMILES IDX 16 1 17 2 18 3 19 4 20 5 21 6 22 7 23 8 24 9 25 10 26 11
REMARK SMILES IDX 27 12 28 13 29 14 30 15 31 16 32 17 15 18 14 19 13 20 12 21
REMARK SMILES IDX 11 22 10 23 9 24 8 25 7 26 6 27 5 28 4 29 3 30 2 31 1 32
REMARK H PARENT
REMARK Flexibility Score: inf
ROOT
ATOM      1  C   UNL     1      26.379  72.008  13.227  1.00  0.00     0.000 C 
ENDROOT
BRANCH   1   2
ATOM      2  C   UNL     1      27.601  71.271  12.641  1.00  0.00     0.000 C 
BRANCH   2   3
ATOM      3  C   UNL     1      28.136  71.896  11.332  1.00  0.00     0.000 C 
BRANCH   3   4
ATOM      4  C   UNL     1      27.690  71.140  10.066  1.00  0.00     0.000 C 
BRANCH   4   5
ATOM      5  C   UNL     1      26.840  72.019   9.131  1.00  0.00     0.000 C 
BRANCH   5   6
ATOM      6  C   UNL     1      26.590  73.421   9.709  1.00  0.00     0.000 C 
BRANCH   6   7
ATOM      7  C   UNL     1      25.240  74.011   9.275  1.00  0.00     0.000 C 
BRANCH   7   8
ATOM      8  C   UNL     1      24.491  74.613  10.472  1.00  0.00     0.000 C 
BRANCH   8   9
ATOM      9  C   UNL     1      23.037  74.124  10.574  1.00  0.00     0.000 C 
BRANCH   9  10
ATOM     10  C   UNL     1      22.595  73.310   9.345  1.00  0.00     0.000 C 
BRANCH  10  11
ATOM     11  C   UNL     1      22.296  71.839   9.693  1.00  0.00     0.000 C 
BRANCH  11  12
ATOM     12  C   UNL     1      23.203  70.828   8.966  1.00  0.00     0.000 C 
BRANCH  12  13
ATOM     13  C   UNL     1      23.894  69.854   9.937  1.00  0.00     0.006 C 
BRANCH  13  14
ATOM     14  C   UNL     1      24.318  68.551   9.246  1.00  0.00     0.053 C 
BRANCH  14  15
ATOM     15  C   UNL     1      23.499  67.385   9.709  1.00  0.00     0.041 C 
ATOM     16  O   UNL     1      24.057  66.394  10.252  1.00  0.00    -0.550 OA
ATOM     17  O   UNL     1      22.118  67.402   9.563  1.00  0.00    -0.550 OA
ENDBRANCH  14  15
ENDBRANCH  13  14
ENDBRANCH  12  13
ENDBRANCH  11  12
ENDBRANCH  10  11
ENDBRANCH   9  10
ENDBRANCH   8   9
ENDBRANCH   7   8
ENDBRANCH   6   7
ENDBRANCH   5   6
ENDBRANCH   4   5
ENDBRANCH   3   4
ENDBRANCH   2   3
ENDBRANCH   1   2
BRANCH   1  18
ATOM     18  C   UNL     1      25.042  71.706  12.527  1.00  0.00     0.000 C 
BRANCH  18  19
ATOM     19  C   UNL     1      23.823  72.063  13.395  1.00  0.00     0.000 C 
BRANCH  19  20
ATOM     20  C   UNL     1      24.225  72.697  14.743  1.00  0.00     0.000 C 
BRANCH  20  21
ATOM     21  C   UNL     1      23.199  73.710  15.285  1.00  0.00     0.000 C 
BRANCH  21  22
ATOM     22  C   UNL     1      22.034  74.031  14.335  1.00  0.00     0.000 C 
BRANCH  22  23
ATOM     23  C   UNL     1      20.659  73.757  14.970  1.00  0.00     0.000 C 
BRANCH  23  24
ATOM     24  C   UNL     1      19.612  73.260  13.956  1.00  0.00    -0.000 C 
BRANCH  24  25
ATOM     25  C   UNL     1      20.184  72.683  12.645  1.00  0.00    -0.000 C 
BRANCH  25  26
ATOM     26  C   UNL     1      19.765  71.227  12.395  1.00  0.00    -0.000 C 
BRANCH  26  27
ATOM     27  C   UNL     1      20.886  70.250  12.782  1.00  0.00    -0.000 C 
BRANCH  27  28
ATOM     28  C   UNL     1      20.370  69.067  13.619  1.00  0.00    -0.000 C 
BRANCH  28  29
ATOM     29  C   UNL     1      20.363  69.373  15.127  1.00  0.00    -0.000 C 
BRANCH  29  30
ATOM     30  C   UNL     1      21.709  69.921  15.625  1.00  0.00    -0.000 C 
BRANCH  30  31
ATOM     31  C   UNL     1      21.564  70.763  16.900  1.00  0.00    -0.003 C 
ATOM     32  C   UNL     1      22.640  70.405  17.921  1.00  0.00     0.004 C 
ENDBRANCH  30  31
ENDBRANCH  29  30
ENDBRANCH  28  29
ENDBRANCH  27  28
ENDBRANCH  26  27
ENDBRANCH  25  26
ENDBRANCH  24  25
ENDBRANCH  23  24
ENDBRANCH  22  23
ENDBRANCH  21  22
ENDBRANCH  20  21
ENDBRANCH  19  20
ENDBRANCH  18  19
ENDBRANCH   1  18
TORSDOF 28
ENDMDL
MODEL 6
REMARK VINA RESULT:    -2.790      1.734      3.671
REMARK INTER + INTRA:         -12.621
REMARK INTER:                  -7.536
REMARK INTRA:                  -5.085
REMARK UNBOUND:                -5.265
REMARK SMILES CCCCCCCCCCCCCCCCCCCCCCCCCCCCCC(=O)[O-]
REMARK SMILES IDX 16 1 17 2 18 3 19 4 20 5 21 6 22 7 23 8 24 9 25 10 26 11
REMARK SMILES IDX 27 12 28 13 29 14 30 15 31 16 32 17 15 18 14 19 13 20 12 21
REMARK SMILES IDX 11 22 10 23 9 24 8 25 7 26 6 27 5 28 4 29 3 30 2 31 1 32
REMARK H PARENT
REMARK Flexibility Score: inf
ROOT
ATOM      1  C   UNL     1      26.458  71.999  12.758  1.00  0.00     0.000 C 
ENDROOT
BRANCH   1   2
ATOM      2  C   UNL     1      25.063  71.738  12.152  1.00  0.00     0.000 C 
BRANCH   2   3
ATOM      3  C   UNL     1      23.919  71.764  13.191  1.00  0.00     0.000 C 
BRANCH   3   4
ATOM      4  C   UNL     1      24.231  72.631  14.426  1.00  0.00     0.000 C 
BRANCH   4   5
ATOM      5  C   UNL     1      22.976  73.322  14.987  1.00  0.00     0.000 C 
BRANCH   5   6
ATOM      6  C   UNL     1      21.684  72.826  14.318  1.00  0.00     0.000 C 
BRANCH   6   7
ATOM      7  C   UNL     1      20.422  73.469  14.912  1.00  0.00     0.000 C 
BRANCH   7   8
ATOM      8  C   UNL     1      19.711  72.503  15.870  1.00  0.00     0.000 C 
BRANCH   8   9
ATOM      9  C   UNL     1      20.042  71.028  15.586  1.00  0.00     0.000 C 
BRANCH   9  10
ATOM     10  C   UNL     1      20.439  70.253  16.855  1.00  0.00     0.000 C 
BRANCH  10  11
ATOM     11  C   UNL     1      21.600  70.924  17.614  1.00  0.00     0.000 C 
BRANCH  11  12
ATOM     12  C   UNL     1      22.730  69.954  18.011  1.00  0.00     0.000 C 
BRANCH  12  13
ATOM     13  C   UNL     1      22.432  68.502  17.596  1.00  0.00     0.006 C 
BRANCH  13  14
ATOM     14  C   UNL     1      22.551  67.528  18.776  1.00  0.00     0.053 C 
BRANCH  14  15
ATOM     15  C   UNL     1      21.232  66.903  19.116  1.00  0.00     0.041 C 
ATOM     16  O   UNL     1      20.208  67.622  19.258  1.00  0.00    -0.550 OA
ATOM     17  O   UNL     1      21.130  65.524  19.252  1.00  0.00    -0.550 OA
ENDBRANCH  14  15
ENDBRANCH  13  14
ENDBRANCH  12  13
ENDBRANCH  11  12
ENDBRANCH  10  11
ENDBRANCH   9  10
ENDBRANCH   8   9
ENDBRANCH   7   8
ENDBRANCH   6   7
ENDBRANCH   5   6
ENDBRANCH   4   5
ENDBRANCH   3   4
ENDBRANCH   2   3
ENDBRANCH   1   2
BRANCH   1  18
ATOM     18  C   UNL     1      27.474  72.634  11.793  1.00  0.00     0.000 C 
BRANCH  18  19
ATOM     19  C   UNL     1      28.581  71.654  11.366  1.00  0.00     0.000 C 
BRANCH  19  20
ATOM     20  C   UNL     1      28.361  71.102   9.942  1.00  0.00     0.000 C 
BRANCH  20  21
ATOM     21  C   UNL     1      27.457  71.986   9.064  1.00  0.00     0.000 C 
BRANCH  21  22
ATOM     22  C   UNL     1      26.200  71.292   8.515  1.00  0.00     0.000 C 
BRANCH  22  23
ATOM     23  C   UNL     1      24.972  72.220   8.492  1.00  0.00     0.000 C 
BRANCH  23  24
ATOM     24  C   UNL     1      25.301  73.668   8.901  1.00  0.00    -0.000 C 
BRANCH  24  25
ATOM     25  C   UNL     1      24.426  74.754   8.246  1.00  0.00    -0.000 C 
BRANCH  25  26
ATOM     26  C   UNL     1      23.813  75.729   9.263  1.00  0.00    -0.000 C 
BRANCH  26  27
ATOM     27  C   UNL     1      24.316  75.439  10.685  1.00  0.00    -0.000 C 
BRANCH  27  28
ATOM     28  C   UNL     1      23.181  75.019  11.634  1.00  0.00    -0.000 C 
BRANCH  28  29
ATOM     29  C   UNL     1      21.788  75.247  11.022  1.00  0.00    -0.000 C 
BRANCH  29  30
ATOM     30  C   UNL     1      20.981  73.946  10.889  1.00  0.00    -0.000 C 
BRANCH  30  31
ATOM     31  C   UNL     1      21.852  72.755  10.467  1.00  0.00    -0.003 C 
ATOM     32  C   UNL     1      20.993  71.578  10.016  1.00  0.00     0.004 C 
ENDBRANCH  30  31
ENDBRANCH  29  30
ENDBRANCH  28  29
ENDBRANCH  27  28
ENDBRANCH  26  27
ENDBRANCH  25  26
ENDBRANCH  24  25
ENDBRANCH  23  24
ENDBRANCH  22  23
ENDBRANCH  21  22
ENDBRANCH  20  21
ENDBRANCH  19  20
ENDBRANCH  18  19
ENDBRANCH   1  18
TORSDOF 28
ENDMDL
MODEL 7
REMARK VINA RESULT:    -2.773      2.547      5.678
REMARK INTER + INTRA:         -12.575
REMARK INTER:                  -7.749
REMARK INTRA:                  -4.826
REMARK UNBOUND:                -5.265
REMARK SMILES CCCCCCCCCCCCCCCCCCCCCCCCCCCCCC(=O)[O-]
REMARK SMILES IDX 16 1 17 2 18 3 19 4 20 5 21 6 22 7 23 8 24 9 25 10 26 11
REMARK SMILES IDX 27 12 28 13 29 14 30 15 31 16 32 17 15 18 14 19 13 20 12 21
REMARK SMILES IDX 11 22 10 23 9 24 8 25 7 26 6 27 5 28 4 29 3 30 2 31 1 32
REMARK H PARENT
REMARK Flexibility Score: inf
ROOT
ATOM      1  C   UNL     1      21.826  69.974  16.915  1.00  0.00     0.000 C 
ENDROOT
BRANCH   1   2
ATOM      2  C   UNL     1      22.319  69.852  18.372  1.00  0.00     0.000 C 
BRANCH   2   3
ATOM      3  C   UNL     1      22.414  68.395  18.878  1.00  0.00     0.000 C 
BRANCH   3   4
ATOM      4  C   UNL     1      22.775  67.385  17.772  1.00  0.00     0.000 C 
BRANCH   4   5
ATOM      5  C   UNL     1      22.341  65.951  18.126  1.00  0.00     0.000 C 
BRANCH   5   6
ATOM      6  C   UNL     1      21.173  65.922  19.125  1.00  0.00     0.000 C 
BRANCH   6   7
ATOM      7  C   UNL     1      19.812  65.723  18.442  1.00  0.00     0.000 C 
BRANCH   7   8
ATOM      8  C   UNL     1      19.023  67.040  18.392  1.00  0.00     0.000 C 
BRANCH   8   9
ATOM      9  C   UNL     1      19.053  67.701  17.004  1.00  0.00     0.000 C 
BRANCH   9  10
ATOM     10  C   UNL     1      19.411  66.711  15.881  1.00  0.00     0.000 C 
BRANCH  10  11
ATOM     11  C   UNL     1      20.386  67.318  14.854  1.00  0.00     0.000 C 
BRANCH  11  12
ATOM     12  C   UNL     1      19.796  68.492  14.050  1.00  0.00     0.000 C 
BRANCH  12  13
ATOM     13  C   UNL     1      20.884  69.376  13.415  1.00  0.00     0.006 C 
BRANCH  13  14
ATOM     14  C   UNL     1      20.547  69.760  11.968  1.00  0.00     0.053 C 
BRANCH  14  15
ATOM     15  C   UNL     1      21.288  68.912  10.980  1.00  0.00     0.041 C 
ATOM     16  O   UNL     1      22.368  69.320  10.477  1.00  0.00    -0.550 OA
ATOM     17  O   UNL     1      20.799  67.658  10.634  1.00  0.00    -0.550 OA
ENDBRANCH  14  15
ENDBRANCH  13  14
ENDBRANCH  12  13
ENDBRANCH  11  12
ENDBRANCH  10  11
ENDBRANCH   9  10
ENDBRANCH   8   9
ENDBRANCH   7   8
ENDBRANCH   6   7
ENDBRANCH   5   6
ENDBRANCH   4   5
ENDBRANCH   3   4
ENDBRANCH   2   3
ENDBRANCH   1   2
BRANCH   1  18
ATOM     18  C   UNL     1      20.904  71.176  16.642  1.00  0.00     0.000 C 
BRANCH  18  19
ATOM     19  C   UNL     1      21.485  72.144  15.596  1.00  0.00     0.000 C 
BRANCH  19  20
ATOM     20  C   UNL     1      23.018  72.027  15.473  1.00  0.00     0.000 C 
BRANCH  20  21
ATOM     21  C   UNL     1      23.617  72.866  14.329  1.00  0.00     0.000 C 
BRANCH  21  22
ATOM     22  C   UNL     1      22.712  73.029  13.096  1.00  0.00     0.000 C 
BRANCH  22  23
ATOM     23  C   UNL     1      23.384  72.542  11.800  1.00  0.00     0.000 C 
BRANCH  23  24
ATOM     24  C   UNL     1      23.592  73.666  10.767  1.00  0.00    -0.000 C 
BRANCH  24  25
ATOM     25  C   UNL     1      25.058  74.076  10.524  1.00  0.00    -0.000 C 
BRANCH  25  26
ATOM     26  C   UNL     1      25.571  73.680   9.131  1.00  0.00    -0.000 C 
BRANCH  26  27
ATOM     27  C   UNL     1      26.647  72.587   9.224  1.00  0.00    -0.000 C 
BRANCH  27  28
ATOM     28  C   UNL     1      26.046  71.171   9.226  1.00  0.00    -0.000 C 
BRANCH  28  29
ATOM     29  C   UNL     1      26.008  70.550  10.634  1.00  0.00    -0.000 C 
BRANCH  29  30
ATOM     30  C   UNL     1      27.267  70.871  11.455  1.00  0.00    -0.000 C 
BRANCH  30  31
ATOM     31  C   UNL     1      26.944  71.619  12.755  1.00  0.00    -0.003 C 
ATOM     32  C   UNL     1      28.170  72.358  13.283  1.00  0.00     0.004 C 
ENDBRANCH  30  31
ENDBRANCH  29  30
ENDBRANCH  28  29
ENDBRANCH  27  28
ENDBRANCH  26  27
ENDBRANCH  25  26
ENDBRANCH  24  25
ENDBRANCH  23  24
ENDBRANCH  22  23
ENDBRANCH  21  22
ENDBRANCH  20  21
ENDBRANCH  19  20
ENDBRANCH  18  19
ENDBRANCH   1  18
TORSDOF 28
ENDMDL
MODEL 8
REMARK VINA RESULT:    -2.764      3.135      6.086
REMARK INTER + INTRA:         -12.554
REMARK INTER:                  -7.291
REMARK INTRA:                  -5.263
REMARK UNBOUND:                -5.265
REMARK SMILES CCCCCCCCCCCCCCCCCCCCCCCCCCCCCC(=O)[O-]
REMARK SMILES IDX 16 1 17 2 18 3 19 4 20 5 21 6 22 7 23 8 24 9 25 10 26 11
REMARK SMILES IDX 27 12 28 13 29 14 30 15 31 16 32 17 15 18 14 19 13 20 12 21
REMARK SMILES IDX 11 22 10 23 9 24 8 25 7 26 6 27 5 28 4 29 3 30 2 31 1 32
REMARK H PARENT
REMARK Flexibility Score: inf
ROOT
ATOM      1  C   UNL     1      28.700  71.790  11.069  1.00  0.00     0.000 C 
ENDROOT
BRANCH   1   2
ATOM      2  C   UNL     1      27.708  71.844  12.249  1.00  0.00     0.000 C 
BRANCH   2   3
ATOM      3  C   UNL     1      26.311  71.271  11.915  1.00  0.00     0.000 C 
BRANCH   3   4
ATOM      4  C   UNL     1      25.157  72.043  12.582  1.00  0.00     0.000 C 
BRANCH   4   5
ATOM      5  C   UNL     1      23.780  71.606  12.052  1.00  0.00     0.000 C 
BRANCH   5   6
ATOM      6  C   UNL     1      23.185  72.616  11.058  1.00  0.00     0.000 C 
BRANCH   6   7
ATOM      7  C   UNL     1      23.325  74.070  11.533  1.00  0.00     0.000 C 
BRANCH   7   8
ATOM      8  C   UNL     1      21.970  74.793  11.498  1.00  0.00     0.000 C 
BRANCH   8   9
ATOM      9  C   UNL     1      21.420  75.100  12.901  1.00  0.00     0.000 C 
BRANCH   9  10
ATOM     10  C   UNL     1      20.398  74.054  13.380  1.00  0.00     0.000 C 
BRANCH  10  11
ATOM     11  C   UNL     1      20.998  73.075  14.407  1.00  0.00     0.000 C 
BRANCH  11  12
ATOM     12  C   UNL     1      22.356  73.525  14.979  1.00  0.00     0.000 C 
BRANCH  12  13
ATOM     13  C   UNL     1      23.123  72.372  15.651  1.00  0.00     0.006 C 
BRANCH  13  14
ATOM     14  C   UNL     1      22.303  71.075  15.687  1.00  0.00     0.053 C 
BRANCH  14  15
ATOM     15  C   UNL     1      22.106  70.581  17.087  1.00  0.00     0.041 C 
ATOM     16  O   UNL     1      23.064  70.591  17.905  1.00  0.00    -0.550 OA
ATOM     17  O   UNL     1      20.856  70.132  17.497  1.00  0.00    -0.550 OA
ENDBRANCH  14  15
ENDBRANCH  13  14
ENDBRANCH  12  13
ENDBRANCH  11  12
ENDBRANCH  10  11
ENDBRANCH   9  10
ENDBRANCH   8   9
ENDBRANCH   7   8
ENDBRANCH   6   7
ENDBRANCH   5   6
ENDBRANCH   4   5
ENDBRANCH   3   4
ENDBRANCH   2   3
ENDBRANCH   1   2
BRANCH   1  18
ATOM     18  C   UNL     1      28.262  70.898   9.894  1.00  0.00     0.000 C 
BRANCH  18  19
ATOM     19  C   UNL     1      28.792  71.398   8.539  1.00  0.00     0.000 C 
BRANCH  19  20
ATOM     20  C   UNL     1      27.945  72.552   7.965  1.00  0.00     0.000 C 
BRANCH  20  21
ATOM     21  C   UNL     1      26.441  72.435   8.276  1.00  0.00     0.000 C 
BRANCH  21  22
ATOM     22  C   UNL     1      25.761  73.743   8.712  1.00  0.00     0.000 C 
BRANCH  22  23
ATOM     23  C   UNL     1      26.507  74.443   9.862  1.00  0.00     0.000 C 
BRANCH  23  24
ATOM     24  C   UNL     1      26.140  75.932  10.003  1.00  0.00    -0.000 C 
BRANCH  24  25
ATOM     25  C   UNL     1      25.222  76.494   8.899  1.00  0.00    -0.000 C 
BRANCH  25  26
ATOM     26  C   UNL     1      23.971  77.192   9.454  1.00  0.00    -0.000 C 
BRANCH  26  27
ATOM     27  C   UNL     1      24.332  78.169  10.583  1.00  0.00    -0.000 C 
BRANCH  27  28
ATOM     28  C   UNL     1      23.305  78.149  11.727  1.00  0.00    -0.000 C 
BRANCH  28  29
ATOM     29  C   UNL     1      23.965  77.977  13.107  1.00  0.00    -0.000 C 
BRANCH  29  30
ATOM     30  C   UNL     1      24.922  79.128  13.452  1.00  0.00    -0.000 C 
BRANCH  30  31
ATOM     31  C   UNL     1      24.213  80.489  13.491  1.00  0.00    -0.003 C 
ATOM     32  C   UNL     1      24.907  81.496  12.579  1.00  0.00     0.004 C 
ENDBRANCH  30  31
ENDBRANCH  29  30
ENDBRANCH  28  29
ENDBRANCH  27  28
ENDBRANCH  26  27
ENDBRANCH  25  26
ENDBRANCH  24  25
ENDBRANCH  23  24
ENDBRANCH  22  23
ENDBRANCH  21  22
ENDBRANCH  20  21
ENDBRANCH  19  20
ENDBRANCH  18  19
ENDBRANCH   1  18
TORSDOF 28
ENDMDL
MODEL 9
REMARK VINA RESULT:    -2.758      1.546      3.916
REMARK INTER + INTRA:         -12.538
REMARK INTER:                  -6.914
REMARK INTRA:                  -5.625
REMARK UNBOUND:                -5.265
REMARK SMILES CCCCCCCCCCCCCCCCCCCCCCCCCCCCCC(=O)[O-]
REMARK SMILES IDX 16 1 17 2 18 3 19 4 20 5 21 6 22 7 23 8 24 9 25 10 26 11
REMARK SMILES IDX 27 12 28 13 29 14 30 15 31 16 32 17 15 18 14 19 13 20 12 21
REMARK SMILES IDX 11 22 10 23 9 24 8 25 7 26 6 27 5 28 4 29 3 30 2 31 1 32
REMARK H PARENT
REMARK Flexibility Score: inf
ROOT
ATOM      1  C   UNL     1      22.948  71.631  13.815  1.00  0.00     0.000 C 
ENDROOT
BRANCH   1   2
ATOM      2  C   UNL     1      23.642  73.005  13.709  1.00  0.00     0.000 C 
BRANCH   2   3
ATOM      3  C   UNL     1      22.931  74.125  14.501  1.00  0.00     0.000 C 
BRANCH   3   4
ATOM      4  C   UNL     1      21.433  74.255  14.167  1.00  0.00     0.000 C 
BRANCH   4   5
ATOM      5  C   UNL     1      20.535  73.925  15.373  1.00  0.00     0.000 C 
BRANCH   5   6
ATOM      6  C   UNL     1      19.177  73.340  14.952  1.00  0.00     0.000 C 
BRANCH   6   7
ATOM      7  C   UNL     1      19.118  72.995  13.456  1.00  0.00     0.000 C 
BRANCH   7   8
ATOM      8  C   UNL     1      18.716  71.528  13.246  1.00  0.00     0.000 C 
BRANCH   8   9
ATOM      9  C   UNL     1      18.224  70.852  14.536  1.00  0.00     0.000 C 
BRANCH   9  10
ATOM     10  C   UNL     1      18.768  69.421  14.703  1.00  0.00     0.000 C 
BRANCH  10  11
ATOM     11  C   UNL     1      20.253  69.401  15.109  1.00  0.00     0.000 C 
BRANCH  11  12
ATOM     12  C   UNL     1      20.493  69.633  16.613  1.00  0.00     0.000 C 
BRANCH  12  13
ATOM     13  C   UNL     1      21.889  70.212  16.904  1.00  0.00     0.006 C 
BRANCH  13  14
ATOM     14  C   UNL     1      22.377  69.864  18.317  1.00  0.00     0.053 C 
BRANCH  14  15
ATOM     15  C   UNL     1      22.361  68.386  18.563  1.00  0.00     0.041 C 
ATOM     16  O   UNL     1      21.642  67.902  19.476  1.00  0.00    -0.550 OA
ATOM     17  O   UNL     1      23.123  67.540  17.766  1.00  0.00    -0.550 OA
ENDBRANCH  14  15
ENDBRANCH  13  14
ENDBRANCH  12  13
ENDBRANCH  11  12
ENDBRANCH  10  11
ENDBRANCH   9  10
ENDBRANCH   8   9
ENDBRANCH   7   8
ENDBRANCH   6   7
ENDBRANCH   5   6
ENDBRANCH   4   5
ENDBRANCH   3   4
ENDBRANCH   2   3
ENDBRANCH   1   2
BRANCH   1  18
ATOM     18  C   UNL     1      22.240  71.162  12.531  1.00  0.00     0.000 C 
BRANCH  18  19
ATOM     19  C   UNL     1      23.142  71.257  11.287  1.00  0.00     0.000 C 
BRANCH  19  20
ATOM     20  C   UNL     1      22.406  71.857  10.072  1.00  0.00     0.000 C 
BRANCH  20  21
ATOM     21  C   UNL     1      21.342  72.907  10.444  1.00  0.00     0.000 C 
BRANCH  21  22
ATOM     22  C   UNL     1      21.599  74.320   9.893  1.00  0.00     0.000 C 
BRANCH  22  23
ATOM     23  C   UNL     1      22.572  75.129  10.769  1.00  0.00     0.000 C 
BRANCH  23  24
ATOM     24  C   UNL     1      23.949  75.336  10.112  1.00  0.00    -0.000 C 
BRANCH  24  25
ATOM     25  C   UNL     1      25.061  74.384  10.592  1.00  0.00    -0.000 C 
BRANCH  25  26
ATOM     26  C   UNL     1      26.045  73.996   9.478  1.00  0.00    -0.000 C 
BRANCH  26  27
ATOM     27  C   UNL     1      25.941  72.501   9.139  1.00  0.00    -0.000 C 
BRANCH  27  28
ATOM     28  C   UNL     1      27.150  71.699   9.649  1.00  0.00    -0.000 C 
BRANCH  28  29
ATOM     29  C   UNL     1      26.784  70.761  10.813  1.00  0.00    -0.000 C 
BRANCH  29  30
ATOM     30  C   UNL     1      26.730  71.491  12.165  1.00  0.00    -0.000 C 
BRANCH  30  31
ATOM     31  C   UNL     1      28.019  72.267  12.466  1.00  0.00    -0.003 C 
ATOM     32  C   UNL     1      28.310  72.291  13.963  1.00  0.00     0.004 C 
ENDBRANCH  30  31
ENDBRANCH  29  30
ENDBRANCH  28  29
ENDBRANCH  27  28
ENDBRANCH  26  27
ENDBRANCH  25  26
ENDBRANCH  24  25
ENDBRANCH  23  24
ENDBRANCH  22  23
ENDBRANCH  21  22
ENDBRANCH  20  21
ENDBRANCH  19  20
ENDBRANCH  18  19
ENDBRANCH   1  18
TORSDOF 28
ENDMDL
