MODEL 1
REMARK VINA RESULT:    -3.761      0.000      0.000
REMARK INTER + INTRA:          -4.091
REMARK INTER:                  -4.091
REMARK INTRA:                   0.000
REMARK UNBOUND:                 0.000
REMARK SMILES [NH3+]CC(=O)[O-]
REMARK SMILES IDX 2 1 1 2 3 6 4 7 5 8
REMARK H PARENT 1 3 1 4 1 5
REMARK Flexibility Score: inf
ROOT
ATOM      1  C   UNL     1      -2.593  -0.535  -3.860  1.00  0.00     0.312 C 
ENDROOT
BRANCH   1   2
ATOM      2  N   UNL     1      -1.388   0.234  -4.165  1.00  0.00    -0.353 N 
ATOM      3  H   UNL     1      -1.605   1.253  -4.090  1.00  0.00     0.344 HD
ATOM      4  H   UNL     1      -0.631  -0.003  -3.481  1.00  0.00     0.344 HD
ATOM      5  H   UNL     1      -1.065   0.024  -5.137  1.00  0.00     0.344 HD
ENDBRANCH   1   2
BRANCH   1   6
ATOM      6  C   UNL     1      -2.625  -0.917  -2.412  1.00  0.00     0.096 C 
ATOM      7  O   UNL     1      -3.352  -1.870  -2.025  1.00  0.00    -0.544 OA
ATOM      8  O   UNL     1      -1.813  -0.254  -1.501  1.00  0.00    -0.544 OA
ENDBRANCH   1   6
TORSDOF 2
ENDMDL
MODEL 2
REMARK VINA RESULT:    -3.710      2.365      2.408
REMARK INTER + INTRA:          -4.036
REMARK INTER:                  -4.036
REMARK INTRA:                   0.000
REMARK UNBOUND:                 0.000
REMARK SMILES [NH3+]CC(=O)[O-]
REMARK SMILES IDX 2 1 1 2 3 6 4 7 5 8
REMARK H PARENT 1 3 1 4 1 5
REMARK Flexibility Score: inf
ROOT
ATOM      1  C   UNL     1      -3.206  -1.960  -3.117  1.00  0.00     0.312 C 
ENDROOT
BRANCH   1   2
ATOM      2  N   UNL     1      -4.025  -2.717  -2.172  1.00  0.00    -0.353 N 
ATOM      3  H   UNL     1      -3.735  -3.720  -2.196  1.00  0.00     0.344 HD
ATOM      4  H   UNL     1      -3.886  -2.347  -1.202  1.00  0.00     0.344 HD
ATOM      5  H   UNL     1      -5.034  -2.648  -2.436  1.00  0.00     0.344 HD
ENDBRANCH   1   2
BRANCH   1   6
ATOM      6  C   UNL     1      -2.959  -0.572  -2.609  1.00  0.00     0.096 C 
ATOM      7  O   UNL     1      -3.700   0.377  -2.978  1.00  0.00    -0.544 OA
ATOM      8  O   UNL     1      -1.945  -0.339  -1.690  1.00  0.00    -0.544 OA
ENDBRANCH   1   6
TORSDOF 2
ENDMDL
MODEL 3
REMARK VINA RESULT:    -3.679      1.588      1.588
REMARK INTER + INTRA:          -4.001
REMARK INTER:                  -4.001
REMARK INTRA:                   0.000
REMARK UNBOUND:                 0.000
REMARK SMILES [NH3+]CC(=O)[O-]
REMARK SMILES IDX 2 1 1 2 3 6 4 7 5 8
REMARK H PARENT 1 3 1 4 1 5
REMARK Flexibility Score: inf
ROOT
ATOM      1  C   UNL     1      -4.044  -0.345  -3.376  1.00  0.00     0.312 C 
ENDROOT
BRANCH   1   2
ATOM      2  N   UNL     1      -4.088   1.072  -3.018  1.00  0.00    -0.353 N 
ATOM      3  H   UNL     1      -4.737   1.568  -3.669  1.00  0.00     0.344 HD
ATOM      4  H   UNL     1      -4.440   1.183  -2.039  1.00  0.00     0.344 HD
ATOM      5  H   UNL     1      -3.134   1.492  -3.102  1.00  0.00     0.344 HD
ENDBRANCH   1   2
BRANCH   1   6
ATOM      6  C   UNL     1      -3.032  -1.070  -2.541  1.00  0.00     0.096 C 
ATOM      7  O   UNL     1      -3.038  -2.328  -2.491  1.00  0.00    -0.544 OA
ATOM      8  O   UNL     1      -2.053  -0.356  -1.863  1.00  0.00    -0.544 OA
ENDBRANCH   1   6
TORSDOF 2
ENDMDL
MODEL 4
REMARK VINA RESULT:    -3.678      2.374      2.596
REMARK INTER + INTRA:          -4.001
REMARK INTER:                  -4.001
REMARK INTRA:                   0.000
REMARK UNBOUND:                 0.000
REMARK SMILES [NH3+]CC(=O)[O-]
REMARK SMILES IDX 2 1 1 2 3 6 4 7 5 8
REMARK H PARENT 1 3 1 4 1 5
REMARK Flexibility Score: inf
ROOT
ATOM      1  C   UNL     1      -3.098  -2.031  -3.078  1.00  0.00     0.312 C 
ENDROOT
BRANCH   1   2
ATOM      2  N   UNL     1      -4.041  -2.759  -2.232  1.00  0.00    -0.353 N 
ATOM      3  H   UNL     1      -4.196  -2.220  -1.350  1.00  0.00     0.344 HD
ATOM      4  H   UNL     1      -4.957  -2.867  -2.728  1.00  0.00     0.344 HD
ATOM      5  H   UNL     1      -3.655  -3.700  -1.992  1.00  0.00     0.344 HD
ENDBRANCH   1   2
BRANCH   1   6
ATOM      6  C   UNL     1      -2.906  -0.633  -2.575  1.00  0.00     0.096 C 
ATOM      7  O   UNL     1      -1.961  -0.368  -1.786  1.00  0.00    -0.544 OA
ATOM      8  O   UNL     1      -3.740   0.385  -3.020  1.00  0.00    -0.544 OA
ENDBRANCH   1   6
TORSDOF 2
ENDMDL
MODEL 5
REMARK VINA RESULT:    -3.664      1.695      2.187
REMARK INTER + INTRA:          -3.985
REMARK INTER:                  -3.985
REMARK INTRA:                   0.000
REMARK UNBOUND:                 0.000
REMARK SMILES [NH3+]CC(=O)[O-]
REMARK SMILES IDX 2 1 1 2 3 6 4 7 5 8
REMARK H PARENT 1 3 1 4 1 5
REMARK Flexibility Score: inf
ROOT
ATOM      1  C   UNL     1      -4.190  -0.298  -3.395  1.00  0.00     0.312 C 
ENDROOT
BRANCH   1   2
ATOM      2  N   UNL     1      -4.245   1.125  -3.066  1.00  0.00    -0.353 N 
ATOM      3  H   UNL     1      -5.114   1.316  -2.518  1.00  0.00     0.344 HD
ATOM      4  H   UNL     1      -3.415   1.391  -2.487  1.00  0.00     0.344 HD
ATOM      5  H   UNL     1      -4.262   1.696  -3.942  1.00  0.00     0.344 HD
ENDBRANCH   1   2
BRANCH   1   6
ATOM      6  C   UNL     1      -3.175  -0.999  -2.545  1.00  0.00     0.096 C 
ATOM      7  O   UNL     1      -2.413  -0.335  -1.793  1.00  0.00    -0.544 OA
ATOM      8  O   UNL     1      -3.108  -2.386  -2.545  1.00  0.00    -0.544 OA
ENDBRANCH   1   6
TORSDOF 2
ENDMDL
MODEL 6
REMARK VINA RESULT:    -3.605      7.542      7.862
REMARK INTER + INTRA:          -3.921
REMARK INTER:                  -3.921
REMARK INTRA:                   0.000
REMARK UNBOUND:                 0.000
REMARK SMILES [NH3+]CC(=O)[O-]
REMARK SMILES IDX 2 1 1 2 3 6 4 7 5 8
REMARK H PARENT 1 3 1 4 1 5
REMARK Flexibility Score: inf
ROOT
ATOM      1  C   UNL     1      -0.605   3.013   2.982  1.00  0.00     0.312 C 
ENDROOT
BRANCH   1   2
ATOM      2  N   UNL     1      -0.481   1.790   2.191  1.00  0.00    -0.353 N 
ATOM      3  H   UNL     1       0.410   1.308   2.445  1.00  0.00     0.344 HD
ATOM      4  H   UNL     1      -1.283   1.149   2.396  1.00  0.00     0.344 HD
ATOM      5  H   UNL     1      -0.464   2.023   1.172  1.00  0.00     0.344 HD
ENDBRANCH   1   2
BRANCH   1   6
ATOM      6  C   UNL     1       0.745   3.511   3.401  1.00  0.00     0.096 C 
ATOM      7  O   UNL     1       1.188   3.245   4.549  1.00  0.00    -0.544 OA
ATOM      8  O   UNL     1       1.531   4.223   2.505  1.00  0.00    -0.544 OA
ENDBRANCH   1   6
TORSDOF 2
ENDMDL
MODEL 7
REMARK VINA RESULT:    -3.242      3.315      3.754
REMARK INTER + INTRA:          -3.526
REMARK INTER:                  -3.526
REMARK INTRA:                   0.000
REMARK UNBOUND:                 0.000
REMARK SMILES [NH3+]CC(=O)[O-]
REMARK SMILES IDX 2 1 1 2 3 6 4 7 5 8
REMARK H PARENT 1 3 1 4 1 5
REMARK Flexibility Score: inf
ROOT
ATOM      1  C   UNL     1      -3.182  -3.955  -3.022  1.00  0.00     0.312 C 
ENDROOT
BRANCH   1   2
ATOM      2  N   UNL     1      -3.677  -4.849  -1.977  1.00  0.00    -0.353 N 
ATOM      3  H   UNL     1      -2.927  -4.989  -1.264  1.00  0.00     0.344 HD
ATOM      4  H   UNL     1      -4.514  -4.426  -1.511  1.00  0.00     0.344 HD
ATOM      5  H   UNL     1      -3.932  -5.775  -2.389  1.00  0.00     0.344 HD
ENDBRANCH   1   2
BRANCH   1   6
ATOM      6  C   UNL     1      -3.757  -2.581  -2.859  1.00  0.00     0.096 C 
ATOM      7  O   UNL     1      -3.201  -1.749  -2.095  1.00  0.00    -0.544 OA
ATOM      8  O   UNL     1      -4.877  -2.206  -3.590  1.00  0.00    -0.544 OA
ENDBRANCH   1   6
TORSDOF 2
ENDMDL
MODEL 8
REMARK VINA RESULT:    -3.219      9.091      9.617
REMARK INTER + INTRA:          -3.501
REMARK INTER:                  -3.501
REMARK INTRA:                   0.000
REMARK UNBOUND:                 0.000
REMARK SMILES [NH3+]CC(=O)[O-]
REMARK SMILES IDX 2 1 1 2 3 6 4 7 5 8
REMARK H PARENT 1 3 1 4 1 5
REMARK Flexibility Score: inf
ROOT
ATOM      1  C   UNL     1       3.444   6.475   0.576  1.00  0.00     0.312 C 
ENDROOT
BRANCH   1   2
ATOM      2  N   UNL     1       4.852   6.796   0.349  1.00  0.00    -0.353 N 
ATOM      3  H   UNL     1       5.359   5.927   0.067  1.00  0.00     0.344 HD
ATOM      4  H   UNL     1       4.939   7.502  -0.419  1.00  0.00     0.344 HD
ATOM      5  H   UNL     1       5.280   7.171   1.226  1.00  0.00     0.344 HD
ENDBRANCH   1   2
BRANCH   1   6
ATOM      6  C   UNL     1       3.312   5.239   1.412  1.00  0.00     0.096 C 
ATOM      7  O   UNL     1       3.740   5.228   2.596  1.00  0.00    -0.544 OA
ATOM      8  O   UNL     1       2.670   4.120   0.899  1.00  0.00    -0.544 OA
ENDBRANCH   1   6
TORSDOF 2
ENDMDL
MODEL 9
REMARK VINA RESULT:    -3.181     11.541     11.677
REMARK INTER + INTRA:          -3.459
REMARK INTER:                  -3.459
REMARK INTRA:                   0.000
REMARK UNBOUND:                 0.000
REMARK SMILES [NH3+]CC(=O)[O-]
REMARK SMILES IDX 2 1 1 2 3 6 4 7 5 8
REMARK H PARENT 1 3 1 4 1 5
REMARK Flexibility Score: inf
ROOT
ATOM      1  C   UNL     1       8.993   0.627  -3.685  1.00  0.00     0.312 C 
ENDROOT
BRANCH   1   2
ATOM      2  N   UNL     1       9.390   0.755  -2.284  1.00  0.00    -0.353 N 
ATOM      3  H   UNL     1       8.774   0.148  -1.698  1.00  0.00     0.344 HD
ATOM      4  H   UNL     1      10.383   0.445  -2.165  1.00  0.00     0.344 HD
ATOM      5  H   UNL     1       9.289   1.747  -1.972  1.00  0.00     0.344 HD
ENDBRANCH   1   2
BRANCH   1   6
ATOM      6  C   UNL     1       8.636   1.964  -4.258  1.00  0.00     0.096 C 
ATOM      7  O   UNL     1       8.656   2.144  -5.504  1.00  0.00    -0.544 OA
ATOM      8  O   UNL     1       8.233   2.994  -3.418  1.00  0.00    -0.544 OA
ENDBRANCH   1   6
TORSDOF 2
ENDMDL
