MODEL 1
REMARK VINA RESULT:    -5.030      0.000      0.000
REMARK INTER + INTRA:          -7.951
REMARK INTER:                  -7.677
REMARK INTRA:                  -0.275
REMARK UNBOUND:                -0.275
REMARK SMILES CCCCCCCCCCC(=O)[O-]
REMARK SMILES IDX 7 1 8 2 9 3 10 4 11 5 12 6 13 7 6 8 5 9 4 10 3 11 2 12 1 13
REMARK H PARENT
REMARK Flexibility Score: inf
ROOT
ATOM      1  C   UNL     1       5.680  42.747  44.192  1.00  0.00     0.000 C 
ENDROOT
BRANCH   1   2
ATOM      2  C   UNL     1       5.951  42.018  45.519  1.00  0.00     0.000 C 
BRANCH   2   3
ATOM      3  C   UNL     1       4.820  42.212  46.546  1.00  0.00     0.006 C 
BRANCH   3   4
ATOM      4  C   UNL     1       5.252  42.000  48.006  1.00  0.00     0.053 C 
BRANCH   4   5
ATOM      5  C   UNL     1       6.111  40.782  48.167  1.00  0.00     0.041 C 
ATOM      6  O   UNL     1       5.629  39.637  47.972  1.00  0.00    -0.550 OA
ATOM      7  O   UNL     1       7.435  40.913  48.566  1.00  0.00    -0.550 OA
ENDBRANCH   4   5
ENDBRANCH   3   4
ENDBRANCH   2   3
ENDBRANCH   1   2
BRANCH   1   8
ATOM      8  C   UNL     1       6.440  44.081  44.077  1.00  0.00     0.000 C 
BRANCH   8   9
ATOM      9  C   UNL     1       7.354  44.202  42.844  1.00  0.00    -0.000 C 
BRANCH   9  10
ATOM     10  C   UNL     1       7.407  45.627  42.275  1.00  0.00    -0.000 C 
BRANCH  10  11
ATOM     11  C   UNL     1       7.901  45.619  40.819  1.00  0.00    -0.000 C 
BRANCH  11  12
ATOM     12  C   UNL     1       7.978  47.029  40.214  1.00  0.00    -0.003 C 
ATOM     13  C   UNL     1       7.631  48.124  41.223  1.00  0.00     0.004 C 
ENDBRANCH  11  12
ENDBRANCH  10  11
ENDBRANCH   9  10
ENDBRANCH   8   9
ENDBRANCH   1   8
TORSDOF 9
ENDMDL
MODEL 2
REMARK VINA RESULT:    -4.885      3.559      7.265
REMARK INTER + INTRA:          -7.729
REMARK INTER:                  -7.325
REMARK INTRA:                  -0.404
REMARK UNBOUND:                -0.275
REMARK SMILES CCCCCCCCCCC(=O)[O-]
REMARK SMILES IDX 7 1 8 2 9 3 10 4 11 5 12 6 13 7 6 8 5 9 4 10 3 11 2 12 1 13
REMARK H PARENT
REMARK Flexibility Score: inf
ROOT
ATOM      1  C   UNL     1       5.938  41.854  45.385  1.00  0.00     0.000 C 
ENDROOT
BRANCH   1   2
ATOM      2  C   UNL     1       5.862  42.570  44.026  1.00  0.00     0.000 C 
BRANCH   2   3
ATOM      3  C   UNL     1       6.385  44.016  44.086  1.00  0.00     0.006 C 
BRANCH   3   4
ATOM      4  C   UNL     1       7.725  44.231  43.365  1.00  0.00     0.053 C 
BRANCH   4   5
ATOM      5  C   UNL     1       7.539  44.755  41.974  1.00  0.00     0.041 C 
ATOM      6  O   UNL     1       7.775  44.017  40.982  1.00  0.00    -0.550 OA
ATOM      7  O   UNL     1       7.137  46.070  41.774  1.00  0.00    -0.550 OA
ENDBRANCH   4   5
ENDBRANCH   3   4
ENDBRANCH   2   3
ENDBRANCH   1   2
BRANCH   1   8
ATOM      8  C   UNL     1       4.985  42.458  46.433  1.00  0.00     0.000 C 
BRANCH   8   9
ATOM      9  C   UNL     1       5.210  41.964  47.874  1.00  0.00    -0.000 C 
BRANCH   9  10
ATOM     10  C   UNL     1       6.074  40.697  47.946  1.00  0.00    -0.000 C 
BRANCH  10  11
ATOM     11  C   UNL     1       7.386  40.968  48.699  1.00  0.00    -0.000 C 
BRANCH  11  12
ATOM     12  C   UNL     1       8.425  39.855  48.495  1.00  0.00    -0.003 C 
ATOM     13  C   UNL     1       9.813  40.241  49.007  1.00  0.00     0.004 C 
ENDBRANCH  11  12
ENDBRANCH  10  11
ENDBRANCH   9  10
ENDBRANCH   8   9
ENDBRANCH   1   8
TORSDOF 9
ENDMDL
MODEL 3
REMARK VINA RESULT:    -4.809      1.757      2.674
REMARK INTER + INTRA:          -7.614
REMARK INTER:                  -7.017
REMARK INTRA:                  -0.597
REMARK UNBOUND:                -0.275
REMARK SMILES CCCCCCCCCCC(=O)[O-]
REMARK SMILES IDX 7 1 8 2 9 3 10 4 11 5 12 6 13 7 6 8 5 9 4 10 3 11 2 12 1 13
REMARK H PARENT
REMARK Flexibility Score: inf
ROOT
ATOM      1  C   UNL     1       6.320  42.930  43.471  1.00  0.00     0.000 C 
ENDROOT
BRANCH   1   2
ATOM      2  C   UNL     1       5.287  42.558  44.548  1.00  0.00     0.000 C 
BRANCH   2   3
ATOM      3  C   UNL     1       5.940  42.141  45.878  1.00  0.00     0.006 C 
BRANCH   3   4
ATOM      4  C   UNL     1       4.985  42.170  47.083  1.00  0.00     0.053 C 
BRANCH   4   5
ATOM      5  C   UNL     1       5.620  41.605  48.317  1.00  0.00     0.041 C 
ATOM      6  O   UNL     1       6.104  40.443  48.306  1.00  0.00    -0.550 OA
ATOM      7  O   UNL     1       5.645  42.349  49.490  1.00  0.00    -0.550 OA
ENDBRANCH   4   5
ENDBRANCH   3   4
ENDBRANCH   2   3
ENDBRANCH   1   2
BRANCH   1   8
ATOM      8  C   UNL     1       6.992  44.291  43.731  1.00  0.00     0.000 C 
BRANCH   8   9
ATOM      9  C   UNL     1       7.510  45.009  42.472  1.00  0.00    -0.000 C 
BRANCH   9  10
ATOM     10  C   UNL     1       7.759  44.054  41.296  1.00  0.00    -0.000 C 
BRANCH  10  11
ATOM     11  C   UNL     1       9.255  43.980  40.955  1.00  0.00    -0.000 C 
BRANCH  11  12
ATOM     12  C   UNL     1       9.922  42.707  41.499  1.00  0.00    -0.003 C 
ATOM     13  C   UNL     1       9.016  41.480  41.407  1.00  0.00     0.004 C 
ENDBRANCH  11  12
ENDBRANCH  10  11
ENDBRANCH   9  10
ENDBRANCH   8   9
ENDBRANCH   1   8
TORSDOF 9
ENDMDL
MODEL 4
REMARK VINA RESULT:    -4.797     10.748     11.927
REMARK INTER + INTRA:          -7.595
REMARK INTER:                  -6.730
REMARK INTRA:                  -0.865
REMARK UNBOUND:                -0.275
REMARK SMILES CCCCCCCCCCC(=O)[O-]
REMARK SMILES IDX 7 1 8 2 9 3 10 4 11 5 12 6 13 7 6 8 5 9 4 10 3 11 2 12 1 13
REMARK H PARENT
REMARK Flexibility Score: inf
ROOT
ATOM      1  C   UNL     1       8.354  33.029  45.955  1.00  0.00     0.000 C 
ENDROOT
BRANCH   1   2
ATOM      2  C   UNL     1       7.151  32.107  45.694  1.00  0.00     0.000 C 
BRANCH   2   3
ATOM      3  C   UNL     1       7.028  31.694  44.216  1.00  0.00     0.006 C 
BRANCH   3   4
ATOM      4  C   UNL     1       7.085  30.175  43.981  1.00  0.00     0.053 C 
BRANCH   4   5
ATOM      5  C   UNL     1       6.041  29.444  44.768  1.00  0.00     0.041 C 
ATOM      6  O   UNL     1       6.375  28.541  45.578  1.00  0.00    -0.550 OA
ATOM      7  O   UNL     1       4.696  29.738  44.581  1.00  0.00    -0.550 OA
ENDBRANCH   4   5
ENDBRANCH   3   4
ENDBRANCH   2   3
ENDBRANCH   1   2
BRANCH   1   8
ATOM      8  C   UNL     1       9.321  33.104  44.758  1.00  0.00     0.000 C 
BRANCH   8   9
ATOM      9  C   UNL     1       9.968  34.483  44.534  1.00  0.00    -0.000 C 
BRANCH   9  10
ATOM     10  C   UNL     1      10.568  34.643  43.130  1.00  0.00    -0.000 C 
BRANCH  10  11
ATOM     11  C   UNL     1      10.589  33.298  42.385  1.00  0.00    -0.000 C 
BRANCH  11  12
ATOM     12  C   UNL     1       9.935  33.382  40.997  1.00  0.00    -0.003 C 
ATOM     13  C   UNL     1       8.459  32.985  41.015  1.00  0.00     0.004 C 
ENDBRANCH  11  12
ENDBRANCH  10  11
ENDBRANCH   9  10
ENDBRANCH   8   9
ENDBRANCH   1   8
TORSDOF 9
ENDMDL
MODEL 5
REMARK VINA RESULT:    -4.726      3.843      6.955
REMARK INTER + INTRA:          -7.488
REMARK INTER:                  -7.068
REMARK INTRA:                  -0.420
REMARK UNBOUND:                -0.275
REMARK SMILES CCCCCCCCCCC(=O)[O-]
REMARK SMILES IDX 7 1 8 2 9 3 10 4 11 5 12 6 13 7 6 8 5 9 4 10 3 11 2 12 1 13
REMARK H PARENT
REMARK Flexibility Score: inf
ROOT
ATOM      1  C   UNL     1       5.447  42.251  48.322  1.00  0.00     0.000 C 
ENDROOT
BRANCH   1   2
ATOM      2  C   UNL     1       4.884  41.707  46.998  1.00  0.00     0.000 C 
BRANCH   2   3
ATOM      3  C   UNL     1       5.446  42.442  45.767  1.00  0.00     0.006 C 
BRANCH   3   4
ATOM      4  C   UNL     1       6.035  41.512  44.694  1.00  0.00     0.053 C 
BRANCH   4   5
ATOM      5  C   UNL     1       6.631  42.276  43.552  1.00  0.00     0.041 C 
ATOM      6  O   UNL     1       6.412  43.510  43.433  1.00  0.00    -0.550 OA
ATOM      7  O   UNL     1       7.399  41.619  42.600  1.00  0.00    -0.550 OA
ENDBRANCH   4   5
ENDBRANCH   3   4
ENDBRANCH   2   3
ENDBRANCH   1   2
BRANCH   1   8
ATOM      8  C   UNL     1       6.445  41.286  48.989  1.00  0.00     0.000 C 
BRANCH   8   9
ATOM      9  C   UNL     1       7.486  40.671  48.036  1.00  0.00    -0.000 C 
BRANCH   9  10
ATOM     10  C   UNL     1       8.717  40.117  48.769  1.00  0.00    -0.000 C 
BRANCH  10  11
ATOM     11  C   UNL     1       9.904  39.960  47.806  1.00  0.00    -0.000 C 
BRANCH  11  12
ATOM     12  C   UNL     1      11.247  40.321  48.461  1.00  0.00    -0.003 C 
ATOM     13  C   UNL     1      11.115  40.609  49.957  1.00  0.00     0.004 C 
ENDBRANCH  11  12
ENDBRANCH  10  11
ENDBRANCH   9  10
ENDBRANCH   8   9
ENDBRANCH   1   8
TORSDOF 9
ENDMDL
MODEL 6
REMARK VINA RESULT:    -4.663      2.169      3.696
REMARK INTER + INTRA:          -7.391
REMARK INTER:                  -6.566
REMARK INTRA:                  -0.825
REMARK UNBOUND:                -0.275
REMARK SMILES CCCCCCCCCCC(=O)[O-]
REMARK SMILES IDX 7 1 8 2 9 3 10 4 11 5 12 6 13 7 6 8 5 9 4 10 3 11 2 12 1 13
REMARK H PARENT
REMARK Flexibility Score: inf
ROOT
ATOM      1  C   UNL     1       5.823  42.527  44.061  1.00  0.00     0.000 C 
ENDROOT
BRANCH   1   2
ATOM      2  C   UNL     1       6.109  42.361  45.563  1.00  0.00     0.000 C 
BRANCH   2   3
ATOM      3  C   UNL     1       4.828  42.167  46.395  1.00  0.00     0.006 C 
BRANCH   3   4
ATOM      4  C   UNL     1       5.062  42.148  47.914  1.00  0.00     0.053 C 
BRANCH   4   5
ATOM      5  C   UNL     1       5.968  41.029  48.330  1.00  0.00     0.041 C 
ATOM      6  O   UNL     1       7.020  41.273  48.976  1.00  0.00    -0.550 OA
ATOM      7  O   UNL     1       5.666  39.721  47.975  1.00  0.00    -0.550 OA
ENDBRANCH   4   5
ENDBRANCH   3   4
ENDBRANCH   2   3
ENDBRANCH   1   2
BRANCH   1   8
ATOM      8  C   UNL     1       6.696  43.611  43.402  1.00  0.00     0.000 C 
BRANCH   8   9
ATOM      9  C   UNL     1       7.448  43.156  42.138  1.00  0.00    -0.000 C 
BRANCH   9  10
ATOM     10  C   UNL     1       7.405  41.635  41.929  1.00  0.00    -0.000 C 
BRANCH  10  11
ATOM     11  C   UNL     1       8.824  41.057  41.814  1.00  0.00    -0.000 C 
BRANCH  11  12
ATOM     12  C   UNL     1       9.488  40.844  43.184  1.00  0.00    -0.003 C 
ATOM     13  C   UNL     1       8.660  39.951  44.109  1.00  0.00     0.004 C 
ENDBRANCH  11  12
ENDBRANCH  10  11
ENDBRANCH   9  10
ENDBRANCH   8   9
ENDBRANCH   1   8
TORSDOF 9
ENDMDL
MODEL 7
REMARK VINA RESULT:    -4.659     10.853     13.440
REMARK INTER + INTRA:          -7.385
REMARK INTER:                  -6.576
REMARK INTRA:                  -0.809
REMARK UNBOUND:                -0.275
REMARK SMILES CCCCCCCCCCC(=O)[O-]
REMARK SMILES IDX 7 1 8 2 9 3 10 4 11 5 12 6 13 7 6 8 5 9 4 10 3 11 2 12 1 13
REMARK H PARENT
REMARK Flexibility Score: inf
ROOT
ATOM      1  C   UNL     1       9.377  33.638  44.650  1.00  0.00     0.000 C 
ENDROOT
BRANCH   1   2
ATOM      2  C   UNL     1      10.548  33.529  43.660  1.00  0.00     0.000 C 
BRANCH   2   3
ATOM      3  C   UNL     1      10.256  34.217  42.314  1.00  0.00     0.006 C 
BRANCH   3   4
ATOM      4  C   UNL     1      10.121  33.249  41.128  1.00  0.00     0.053 C 
BRANCH   4   5
ATOM      5  C   UNL     1       8.748  32.653  41.041  1.00  0.00     0.041 C 
ATOM      6  O   UNL     1       7.738  33.399  40.958  1.00  0.00    -0.550 OA
ATOM      7  O   UNL     1       8.584  31.275  41.086  1.00  0.00    -0.550 OA
ENDBRANCH   4   5
ENDBRANCH   3   4
ENDBRANCH   2   3
ENDBRANCH   1   2
BRANCH   1   8
ATOM      8  C   UNL     1       8.653  32.297  44.870  1.00  0.00     0.000 C 
BRANCH   8   9
ATOM      9  C   UNL     1       7.210  32.244  44.335  1.00  0.00    -0.000 C 
BRANCH   9  10
ATOM     10  C   UNL     1       6.453  30.982  44.775  1.00  0.00    -0.000 C 
BRANCH  10  11
ATOM     11  C   UNL     1       6.929  29.753  43.984  1.00  0.00    -0.000 C 
BRANCH  11  12
ATOM     12  C   UNL     1       7.504  28.654  44.891  1.00  0.00    -0.003 C 
ATOM     13  C   UNL     1       7.254  28.922  46.375  1.00  0.00     0.004 C 
ENDBRANCH  11  12
ENDBRANCH  10  11
ENDBRANCH   9  10
ENDBRANCH   8   9
ENDBRANCH   1   8
TORSDOF 9
ENDMDL
MODEL 8
REMARK VINA RESULT:    -4.641      1.912      3.189
REMARK INTER + INTRA:          -7.357
REMARK INTER:                  -6.789
REMARK INTRA:                  -0.568
REMARK UNBOUND:                -0.275
REMARK SMILES CCCCCCCCCCC(=O)[O-]
REMARK SMILES IDX 7 1 8 2 9 3 10 4 11 5 12 6 13 7 6 8 5 9 4 10 3 11 2 12 1 13
REMARK H PARENT
REMARK Flexibility Score: inf
ROOT
ATOM      1  C   UNL     1       5.360  41.865  47.211  1.00  0.00     0.000 C 
ENDROOT
BRANCH   1   2
ATOM      2  C   UNL     1       5.306  40.328  47.182  1.00  0.00     0.000 C 
BRANCH   2   3
ATOM      3  C   UNL     1       6.466  39.678  47.957  1.00  0.00     0.006 C 
BRANCH   3   4
ATOM      4  C   UNL     1       7.428  40.683  48.611  1.00  0.00     0.053 C 
BRANCH   4   5
ATOM      5  C   UNL     1       8.863  40.317  48.384  1.00  0.00     0.041 C 
ATOM      6  O   UNL     1       9.235  39.877  47.265  1.00  0.00    -0.550 OA
ATOM      7  O   UNL     1       9.782  40.431  49.419  1.00  0.00    -0.550 OA
ENDBRANCH   4   5
ENDBRANCH   3   4
ENDBRANCH   2   3
ENDBRANCH   1   2
BRANCH   1   8
ATOM      8  C   UNL     1       5.486  42.486  45.808  1.00  0.00     0.000 C 
BRANCH   8   9
ATOM      9  C   UNL     1       6.100  41.560  44.743  1.00  0.00    -0.000 C 
BRANCH   9  10
ATOM     10  C   UNL     1       6.835  42.326  43.633  1.00  0.00    -0.000 C 
BRANCH  10  11
ATOM     11  C   UNL     1       6.404  43.801  43.606  1.00  0.00    -0.000 C 
BRANCH  11  12
ATOM     12  C   UNL     1       7.488  44.722  43.026  1.00  0.00    -0.003 C 
ATOM     13  C   UNL     1       7.538  44.686  41.498  1.00  0.00     0.004 C 
ENDBRANCH  11  12
ENDBRANCH  10  11
ENDBRANCH   9  10
ENDBRANCH   8   9
ENDBRANCH   1   8
TORSDOF 9
ENDMDL
