MODEL 1
REMARK VINA RESULT:    -2.973      0.000      0.000
REMARK INTER + INTRA:          -4.082
REMARK INTER:                  -3.582
REMARK INTRA:                  -0.500
REMARK UNBOUND:                -0.500
REMARK SMILES NC(=O)C[C@@H]([NH3+])C(=O)[O-]
REMARK SMILES IDX 4 1 5 2 6 3 7 7 8 8 9 9 2 10 3 11 1 12
REMARK H PARENT 6 4 6 5 6 6 1 13 1 14
REMARK Flexibility Score: inf
ROOT
ATOM      1  C   UNL     1     145.961 154.814 162.950  1.00  0.00     0.171 C 
ENDROOT
BRANCH   1   2
ATOM      2  C   UNL     1     144.819 154.391 163.897  1.00  0.00     0.237 C 
BRANCH   2   3
ATOM      3  N   UNL     1     143.840 155.476 164.036  1.00  0.00    -0.350 N 
ATOM      4  H   UNL     1     143.849 155.837 165.019  1.00  0.00     0.345 HD
ATOM      5  H   UNL     1     142.878 155.138 163.801  1.00  0.00     0.345 HD
ATOM      6  H   UNL     1     144.091 156.264 163.396  1.00  0.00     0.345 HD
ENDBRANCH   2   3
BRANCH   2   7
ATOM      7  C   UNL     1     144.139 153.142 163.398  1.00  0.00     0.100 C 
ATOM      8  O   UNL     1     143.916 152.185 164.185  1.00  0.00    -0.544 OA
ATOM      9  O   UNL     1     143.764 153.033 162.064  1.00  0.00    -0.544 OA
ENDBRANCH   2   7
ENDBRANCH   1   2
BRANCH   1  10
ATOM     10  C   UNL     1     145.536 155.927 162.036  1.00  0.00     0.223 C 
ATOM     11  O   UNL     1     145.689 157.125 162.396  1.00  0.00    -0.275 OA
ATOM     12  N   UNL     1     144.996 155.640 160.746  1.00  0.00    -0.369 N 
ATOM     13  H   UNL     1     144.880 154.654 160.423  1.00  0.00     0.159 HD
ATOM     14  H   UNL     1     144.716 156.417 160.107  1.00  0.00     0.159 HD
ENDBRANCH   1  10
TORSDOF 4
ENDMDL
MODEL 2
REMARK VINA RESULT:    -2.945     20.692     21.850
REMARK INTER + INTRA:          -4.049
REMARK INTER:                  -3.808
REMARK INTRA:                  -0.241
REMARK UNBOUND:                -0.500
REMARK SMILES NC(=O)C[C@@H]([NH3+])C(=O)[O-]
REMARK SMILES IDX 4 1 5 2 6 3 7 7 8 8 9 9 2 10 3 11 1 12
REMARK H PARENT 6 4 6 5 6 6 1 13 1 14
REMARK Flexibility Score: inf
ROOT
ATOM      1  C   UNL     1     143.223 138.867 148.336  1.00  0.00     0.171 C 
ENDROOT
BRANCH   1   2
ATOM      2  C   UNL     1     144.751 138.940 148.143  1.00  0.00     0.237 C 
BRANCH   2   3
ATOM      3  N   UNL     1     145.085 139.828 147.023  1.00  0.00    -0.350 N 
ATOM      4  H   UNL     1     144.718 140.790 147.211  1.00  0.00     0.345 HD
ATOM      5  H   UNL     1     144.671 139.470 146.132  1.00  0.00     0.345 HD
ATOM      6  H   UNL     1     146.123 139.890 146.917  1.00  0.00     0.345 HD
ENDBRANCH   2   3
BRANCH   2   7
ATOM      7  C   UNL     1     145.430 139.419 149.401  1.00  0.00     0.100 C 
ATOM      8  O   UNL     1     145.637 140.648 149.579  1.00  0.00    -0.544 OA
ATOM      9  O   UNL     1     145.843 138.508 150.366  1.00  0.00    -0.544 OA
ENDBRANCH   2   7
ENDBRANCH   1   2
BRANCH   1  10
ATOM     10  C   UNL     1     142.575 138.007 147.289  1.00  0.00     0.223 C 
ATOM     11  O   UNL     1     143.018 138.016 146.110  1.00  0.00    -0.275 OA
ATOM     12  N   UNL     1     141.486 137.149 147.630  1.00  0.00    -0.369 N 
ATOM     13  H   UNL     1     141.118 137.113 148.606  1.00  0.00     0.159 HD
ATOM     14  H   UNL     1     141.047 136.540 146.903  1.00  0.00     0.159 HD
ENDBRANCH   1  10
TORSDOF 4
ENDMDL
MODEL 3
REMARK VINA RESULT:    -2.935     21.445     22.010
REMARK INTER + INTRA:          -4.037
REMARK INTER:                  -3.701
REMARK INTRA:                  -0.335
REMARK UNBOUND:                -0.500
REMARK SMILES NC(=O)C[C@@H]([NH3+])C(=O)[O-]
REMARK SMILES IDX 4 1 5 2 6 3 7 7 8 8 9 9 2 10 3 11 1 12
REMARK H PARENT 6 4 6 5 6 6 1 13 1 14
REMARK Flexibility Score: inf
ROOT
ATOM      1  C   UNL     1     143.543 139.458 148.362  1.00  0.00     0.171 C 
ENDROOT
BRANCH   1   2
ATOM      2  C   UNL     1     145.007 139.075 148.659  1.00  0.00     0.237 C 
BRANCH   2   3
ATOM      3  N   UNL     1     145.220 137.642 148.427  1.00  0.00    -0.350 N 
ATOM      4  H   UNL     1     146.230 137.463 148.217  1.00  0.00     0.345 HD
ATOM      5  H   UNL     1     144.636 137.307 147.626  1.00  0.00     0.345 HD
ATOM      6  H   UNL     1     144.964 137.102 149.285  1.00  0.00     0.345 HD
ENDBRANCH   2   3
BRANCH   2   7
ATOM      7  C   UNL     1     145.957 139.882 147.812  1.00  0.00     0.100 C 
ATOM      8  O   UNL     1     147.191 139.877 148.065  1.00  0.00    -0.544 OA
ATOM      9  O   UNL     1     145.478 140.647 146.755  1.00  0.00    -0.544 OA
ENDBRANCH   2   7
ENDBRANCH   1   2
BRANCH   1  10
ATOM     10  C   UNL     1     142.848 138.398 147.557  1.00  0.00     0.223 C 
ATOM     11  O   UNL     1     143.275 138.103 146.408  1.00  0.00    -0.275 OA
ATOM     12  N   UNL     1     141.730 137.694 148.098  1.00  0.00    -0.369 N 
ATOM     13  H   UNL     1     141.374 137.910 149.055  1.00  0.00     0.159 HD
ATOM     14  H   UNL     1     141.258 136.946 147.541  1.00  0.00     0.159 HD
ENDBRANCH   1  10
TORSDOF 4
ENDMDL
MODEL 4
REMARK VINA RESULT:    -2.899     10.422     11.342
REMARK INTER + INTRA:          -3.993
REMARK INTER:                  -3.712
REMARK INTRA:                  -0.281
REMARK UNBOUND:                -0.500
REMARK SMILES NC(=O)C[C@@H]([NH3+])C(=O)[O-]
REMARK SMILES IDX 4 1 5 2 6 3 7 7 8 8 9 9 2 10 3 11 1 12
REMARK H PARENT 6 4 6 5 6 6 1 13 1 14
REMARK Flexibility Score: inf
ROOT
ATOM      1  C   UNL     1     154.102 154.799 159.067  1.00  0.00     0.171 C 
ENDROOT
BRANCH   1   2
ATOM      2  C   UNL     1     154.911 154.254 157.872  1.00  0.00     0.237 C 
BRANCH   2   3
ATOM      3  N   UNL     1     155.883 155.254 157.413  1.00  0.00    -0.350 N 
ATOM      4  H   UNL     1     155.391 156.009 156.882  1.00  0.00     0.345 HD
ATOM      5  H   UNL     1     156.604 154.812 156.797  1.00  0.00     0.345 HD
ATOM      6  H   UNL     1     156.358 155.690 158.236  1.00  0.00     0.345 HD
ENDBRANCH   2   3
BRANCH   2   7
ATOM      7  C   UNL     1     155.620 152.976 158.239  1.00  0.00     0.100 C 
ATOM      8  O   UNL     1     155.703 152.623 159.445  1.00  0.00    -0.544 OA
ATOM      9  O   UNL     1     156.196 152.185 157.253  1.00  0.00    -0.544 OA
ENDBRANCH   2   7
ENDBRANCH   1   2
BRANCH   1  10
ATOM     10  C   UNL     1     153.971 156.294 159.010  1.00  0.00     0.223 C 
ATOM     11  O   UNL     1     153.540 156.845 157.962  1.00  0.00    -0.275 OA
ATOM     12  N   UNL     1     154.294 157.093 160.148  1.00  0.00    -0.369 N 
ATOM     13  H   UNL     1     154.634 156.653 161.032  1.00  0.00     0.159 HD
ATOM     14  H   UNL     1     154.187 158.131 160.110  1.00  0.00     0.159 HD
ENDBRANCH   1  10
TORSDOF 4
ENDMDL
MODEL 5
REMARK VINA RESULT:    -2.873      8.626      9.858
REMARK INTER + INTRA:          -3.961
REMARK INTER:                  -3.638
REMARK INTRA:                  -0.322
REMARK UNBOUND:                -0.500
REMARK SMILES NC(=O)C[C@@H]([NH3+])C(=O)[O-]
REMARK SMILES IDX 4 1 5 2 6 3 7 7 8 8 9 9 2 10 3 11 1 12
REMARK H PARENT 6 4 6 5 6 6 1 13 1 14
REMARK Flexibility Score: inf
ROOT
ATOM      1  C   UNL     1     153.368 154.900 158.799  1.00  0.00     0.171 C 
ENDROOT
BRANCH   1   2
ATOM      2  C   UNL     1     153.031 155.925 159.902  1.00  0.00     0.237 C 
BRANCH   2   3
ATOM      3  N   UNL     1     154.123 156.894 160.051  1.00  0.00    -0.350 N 
ATOM      4  H   UNL     1     154.731 156.877 159.200  1.00  0.00     0.345 HD
ATOM      5  H   UNL     1     154.702 156.672 160.893  1.00  0.00     0.345 HD
ATOM      6  H   UNL     1     153.729 157.858 160.152  1.00  0.00     0.345 HD
ENDBRANCH   2   3
BRANCH   2   7
ATOM      7  C   UNL     1     151.742 156.642 159.595  1.00  0.00     0.100 C 
ATOM      8  O   UNL     1     151.544 157.124 158.448  1.00  0.00    -0.544 OA
ATOM      9  O   UNL     1     150.769 156.787 160.576  1.00  0.00    -0.544 OA
ENDBRANCH   2   7
ENDBRANCH   1   2
BRANCH   1  10
ATOM     10  C   UNL     1     154.576 155.315 158.010  1.00  0.00     0.223 C 
ATOM     11  O   UNL     1     154.539 156.365 157.314  1.00  0.00    -0.275 OA
ATOM     12  N   UNL     1     155.780 154.550 158.072  1.00  0.00    -0.369 N 
ATOM     13  H   UNL     1     155.836 153.689 158.659  1.00  0.00     0.159 HD
ATOM     14  H   UNL     1     156.623 154.850 157.533  1.00  0.00     0.159 HD
ENDBRANCH   1  10
TORSDOF 4
ENDMDL
MODEL 6
REMARK VINA RESULT:    -2.818     23.092     23.664
REMARK INTER + INTRA:          -3.895
REMARK INTER:                  -3.574
REMARK INTRA:                  -0.322
REMARK UNBOUND:                -0.500
REMARK SMILES NC(=O)C[C@@H]([NH3+])C(=O)[O-]
REMARK SMILES IDX 4 1 5 2 6 3 7 7 8 8 9 9 2 10 3 11 1 12
REMARK H PARENT 6 4 6 5 6 6 1 13 1 14
REMARK Flexibility Score: inf
ROOT
ATOM      1  C   UNL     1     159.730 138.689 153.378  1.00  0.00     0.171 C 
ENDROOT
BRANCH   1   2
ATOM      2  C   UNL     1     159.188 137.245 153.338  1.00  0.00     0.237 C 
BRANCH   2   3
ATOM      3  N   UNL     1     158.618 136.876 154.639  1.00  0.00    -0.350 N 
ATOM      4  H   UNL     1     158.200 135.918 154.584  1.00  0.00     0.345 HD
ATOM      5  H   UNL     1     157.880 137.559 154.927  1.00  0.00     0.345 HD
ATOM      6  H   UNL     1     159.371 136.862 155.365  1.00  0.00     0.345 HD
ENDBRANCH   2   3
BRANCH   2   7
ATOM      7  C   UNL     1     158.150 137.089 152.257  1.00  0.00     0.100 C 
ATOM      8  O   UNL     1     156.939 136.926 152.562  1.00  0.00    -0.544 OA
ATOM      9  O   UNL     1     158.522 137.110 150.918  1.00  0.00    -0.544 OA
ENDBRANCH   2   7
ENDBRANCH   1   2
BRANCH   1  10
ATOM     10  C   UNL     1     159.124 139.475 154.505  1.00  0.00     0.223 C 
ATOM     11  O   UNL     1     157.897 139.760 154.481  1.00  0.00    -0.275 OA
ATOM     12  N   UNL     1     159.921 139.869 155.623  1.00  0.00    -0.369 N 
ATOM     13  H   UNL     1     160.935 139.625 155.669  1.00  0.00     0.159 HD
ATOM     14  H   UNL     1     159.493 140.403 156.412  1.00  0.00     0.159 HD
ENDBRANCH   1  10
TORSDOF 4
ENDMDL
MODEL 7
REMARK VINA RESULT:    -2.814      1.830      4.347
REMARK INTER + INTRA:          -3.890
REMARK INTER:                  -3.622
REMARK INTRA:                  -0.268
REMARK UNBOUND:                -0.500
REMARK SMILES NC(=O)C[C@@H]([NH3+])C(=O)[O-]
REMARK SMILES IDX 4 1 5 2 6 3 7 7 8 8 9 9 2 10 3 11 1 12
REMARK H PARENT 6 4 6 5 6 6 1 13 1 14
REMARK Flexibility Score: inf
ROOT
ATOM      1  C   UNL     1     145.515 156.244 162.430  1.00  0.00     0.171 C 
ENDROOT
BRANCH   1   2
ATOM      2  C   UNL     1     146.166 155.654 161.163  1.00  0.00     0.237 C 
BRANCH   2   3
ATOM      3  N   UNL     1     145.153 155.423 160.126  1.00  0.00    -0.350 N 
ATOM      4  H   UNL     1     144.737 154.470 160.243  1.00  0.00     0.345 HD
ATOM      5  H   UNL     1     145.576 155.500 159.172  1.00  0.00     0.345 HD
ATOM      6  H   UNL     1     144.386 156.127 160.217  1.00  0.00     0.345 HD
ENDBRANCH   2   3
BRANCH   2   7
ATOM      7  C   UNL     1     147.245 156.566 160.637  1.00  0.00     0.100 C 
ATOM      8  O   UNL     1     148.044 157.125 161.433  1.00  0.00    -0.544 OA
ATOM      9  O   UNL     1     147.357 156.806 159.273  1.00  0.00    -0.544 OA
ENDBRANCH   2   7
ENDBRANCH   1   2
BRANCH   1  10
ATOM     10  C   UNL     1     144.682 155.223 163.150  1.00  0.00     0.223 C 
ATOM     11  O   UNL     1     144.747 154.011 162.812  1.00  0.00    -0.275 OA
ATOM     12  N   UNL     1     143.845 155.609 164.241  1.00  0.00    -0.369 N 
ATOM     13  H   UNL     1     143.793 156.606 164.548  1.00  0.00     0.159 HD
ATOM     14  H   UNL     1     143.278 154.894 164.749  1.00  0.00     0.159 HD
ENDBRANCH   1  10
TORSDOF 4
ENDMDL
MODEL 8
REMARK VINA RESULT:    -2.802     22.672     23.407
REMARK INTER + INTRA:          -3.876
REMARK INTER:                  -3.458
REMARK INTRA:                  -0.417
REMARK UNBOUND:                -0.500
REMARK SMILES NC(=O)C[C@@H]([NH3+])C(=O)[O-]
REMARK SMILES IDX 4 1 5 2 6 3 7 7 8 8 9 9 2 10 3 11 1 12
REMARK H PARENT 6 4 6 5 6 6 1 13 1 14
REMARK Flexibility Score: inf
ROOT
ATOM      1  C   UNL     1     160.013 138.302 152.868  1.00  0.00     0.171 C 
ENDROOT
BRANCH   1   2
ATOM      2  C   UNL     1     159.690 139.797 152.671  1.00  0.00     0.237 C 
BRANCH   2   3
ATOM      3  N   UNL     1     158.705 139.971 151.596  1.00  0.00    -0.350 N 
ATOM      4  H   UNL     1     157.872 140.491 151.958  1.00  0.00     0.345 HD
ATOM      5  H   UNL     1     158.397 139.043 151.223  1.00  0.00     0.345 HD
ATOM      6  H   UNL     1     159.125 140.529 150.818  1.00  0.00     0.345 HD
ENDBRANCH   2   3
BRANCH   2   7
ATOM      7  C   UNL     1     159.174 140.410 153.947  1.00  0.00     0.100 C 
ATOM      8  O   UNL     1     158.260 141.276 153.909  1.00  0.00    -0.544 OA
ATOM      9  O   UNL     1     159.711 140.035 155.173  1.00  0.00    -0.544 OA
ENDBRANCH   2   7
ENDBRANCH   1   2
BRANCH   1  10
ATOM     10  C   UNL     1     158.796 137.523 153.277  1.00  0.00     0.223 C 
ATOM     11  O   UNL     1     157.907 137.257 152.425  1.00  0.00    -0.275 OA
ATOM     12  N   UNL     1     158.656 137.049 154.617  1.00  0.00    -0.369 N 
ATOM     13  H   UNL     1     159.392 137.242 155.332  1.00  0.00     0.159 HD
ATOM     14  H   UNL     1     157.816 136.494 154.894  1.00  0.00     0.159 HD
ENDBRANCH   1  10
TORSDOF 4
ENDMDL
MODEL 9
REMARK VINA RESULT:    -2.760     23.069     23.511
REMARK INTER + INTRA:          -3.826
REMARK INTER:                  -3.412
REMARK INTRA:                  -0.413
REMARK UNBOUND:                -0.500
REMARK SMILES NC(=O)C[C@@H]([NH3+])C(=O)[O-]
REMARK SMILES IDX 4 1 5 2 6 3 7 7 8 8 9 9 2 10 3 11 1 12
REMARK H PARENT 6 4 6 5 6 6 1 13 1 14
REMARK Flexibility Score: inf
ROOT
ATOM      1  C   UNL     1     159.477 137.834 152.628  1.00  0.00     0.171 C 
ENDROOT
BRANCH   1   2
ATOM      2  C   UNL     1     158.512 136.948 153.443  1.00  0.00     0.237 C 
BRANCH   2   3
ATOM      3  N   UNL     1     158.625 137.250 154.875  1.00  0.00    -0.350 N 
ATOM      4  H   UNL     1     158.067 138.105 155.102  1.00  0.00     0.345 HD
ATOM      5  H   UNL     1     159.624 137.409 155.141  1.00  0.00     0.345 HD
ATOM      6  H   UNL     1     158.245 136.453 155.436  1.00  0.00     0.345 HD
ENDBRANCH   2   3
BRANCH   2   7
ATOM      7  C   UNL     1     157.089 137.140 152.985  1.00  0.00     0.100 C 
ATOM      8  O   UNL     1     156.179 137.362 153.827  1.00  0.00    -0.544 OA
ATOM      9  O   UNL     1     156.769 137.059 151.636  1.00  0.00    -0.544 OA
ENDBRANCH   2   7
ENDBRANCH   1   2
BRANCH   1  10
ATOM     10  C   UNL     1     159.041 139.271 152.628  1.00  0.00     0.223 C 
ATOM     11  O   UNL     1     159.151 139.958 153.678  1.00  0.00    -0.275 OA
ATOM     12  N   UNL     1     158.538 139.874 151.436  1.00  0.00    -0.369 N 
ATOM     13  H   UNL     1     158.458 139.326 150.551  1.00  0.00     0.159 HD
ATOM     14  H   UNL     1     158.250 140.878 151.435  1.00  0.00     0.159 HD
ENDBRANCH   1  10
TORSDOF 4
ENDMDL
