MODEL 1
REMARK VINA RESULT:    -4.318      0.000      0.000
REMARK INTER + INTRA:          -5.633
REMARK INTER:                  -5.201
REMARK INTRA:                  -0.432
REMARK UNBOUND:                -0.432
REMARK SMILES NC(=O)C[C@@H]([NH3+])C(=O)[O-]
REMARK SMILES IDX 4 1 5 2 6 3 7 7 8 8 9 9 2 10 3 11 1 12
REMARK H PARENT 6 4 6 5 6 6 1 13 1 14
REMARK Flexibility Score: inf
ROOT
ATOM      1  C   UNL     1       9.624  14.612  21.866  1.00  0.00     0.171 C 
ENDROOT
BRANCH   1   2
ATOM      2  C   UNL     1       9.767  15.453  20.582  1.00  0.00     0.237 C 
BRANCH   2   3
ATOM      3  N   UNL     1      10.456  16.717  20.871  1.00  0.00    -0.350 N 
ATOM      4  H   UNL     1      11.493  16.596  20.804  1.00  0.00     0.345 HD
ATOM      5  H   UNL     1      10.211  17.041  21.834  1.00  0.00     0.345 HD
ATOM      6  H   UNL     1      10.150  17.451  20.192  1.00  0.00     0.345 HD
ENDBRANCH   2   3
BRANCH   2   7
ATOM      7  C   UNL     1      10.514  14.689  19.520  1.00  0.00     0.100 C 
ATOM      8  O   UNL     1      11.136  15.307  18.616  1.00  0.00    -0.544 OA
ATOM      9  O   UNL     1      10.514  13.299  19.524  1.00  0.00    -0.544 OA
ENDBRANCH   2   7
ENDBRANCH   1   2
BRANCH   1  10
ATOM     10  C   UNL     1      10.907  14.568  22.645  1.00  0.00     0.223 C 
ATOM     11  O   UNL     1      11.253  15.559  23.341  1.00  0.00    -0.275 OA
ATOM     12  N   UNL     1      11.754  13.421  22.575  1.00  0.00    -0.369 N 
ATOM     13  H   UNL     1      11.489  12.598  21.990  1.00  0.00     0.159 HD
ATOM     14  H   UNL     1      12.653  13.397  23.106  1.00  0.00     0.159 HD
ENDBRANCH   1  10
TORSDOF 4
ENDMDL
MODEL 2
REMARK VINA RESULT:    -4.314      0.231      1.103
REMARK INTER + INTRA:          -5.629
REMARK INTER:                  -5.201
REMARK INTRA:                  -0.427
REMARK UNBOUND:                -0.432
REMARK SMILES NC(=O)C[C@@H]([NH3+])C(=O)[O-]
REMARK SMILES IDX 4 1 5 2 6 3 7 7 8 8 9 9 2 10 3 11 1 12
REMARK H PARENT 6 4 6 5 6 6 1 13 1 14
REMARK Flexibility Score: inf
ROOT
ATOM      1  C   UNL     1       9.595  14.670  21.850  1.00  0.00     0.171 C 
ENDROOT
BRANCH   1   2
ATOM      2  C   UNL     1       9.812  15.540  20.596  1.00  0.00     0.237 C 
BRANCH   2   3
ATOM      3  N   UNL     1      10.565  16.753  20.935  1.00  0.00    -0.350 N 
ATOM      4  H   UNL     1      10.371  17.042  21.922  1.00  0.00     0.345 HD
ATOM      5  H   UNL     1      10.293  17.530  20.291  1.00  0.00     0.345 HD
ATOM      6  H   UNL     1      11.590  16.579  20.823  1.00  0.00     0.345 HD
ENDBRANCH   2   3
BRANCH   2   7
ATOM      7  C   UNL     1      10.536  14.766  19.524  1.00  0.00     0.100 C 
ATOM      8  O   UNL     1      10.514  13.507  19.528  1.00  0.00    -0.544 OA
ATOM      9  O   UNL     1      11.240  15.435  18.529  1.00  0.00    -0.544 OA
ENDBRANCH   2   7
ENDBRANCH   1   2
BRANCH   1  10
ATOM     10  C   UNL     1      10.809  14.663  22.735  1.00  0.00     0.223 C 
ATOM     11  O   UNL     1      10.911  15.505  23.667  1.00  0.00    -0.275 OA
ATOM     12  N   UNL     1      11.864  13.730  22.504  1.00  0.00    -0.369 N 
ATOM     13  H   UNL     1      11.802  13.037  21.725  1.00  0.00     0.159 HD
ATOM     14  H   UNL     1      12.714  13.735  23.111  1.00  0.00     0.159 HD
ENDBRANCH   1  10
TORSDOF 4
ENDMDL
MODEL 3
REMARK VINA RESULT:    -4.138      1.867      2.156
REMARK INTER + INTRA:          -5.416
REMARK INTER:                  -4.949
REMARK INTRA:                  -0.467
REMARK UNBOUND:                -0.432
REMARK SMILES NC(=O)C[C@@H]([NH3+])C(=O)[O-]
REMARK SMILES IDX 4 1 5 2 6 3 7 7 8 8 9 9 2 10 3 11 1 12
REMARK H PARENT 6 4 6 5 6 6 1 13 1 14
REMARK Flexibility Score: inf
ROOT
ATOM      1  C   UNL     1      10.282  12.987  20.453  1.00  0.00     0.171 C 
ENDROOT
BRANCH   1   2
ATOM      2  C   UNL     1       9.727  14.373  20.068  1.00  0.00     0.237 C 
BRANCH   2   3
ATOM      3  N   UNL     1       8.887  14.906  21.146  1.00  0.00    -0.350 N 
ATOM      4  H   UNL     1       9.167  15.886  21.381  1.00  0.00     0.345 HD
ATOM      5  H   UNL     1       8.983  14.309  21.999  1.00  0.00     0.345 HD
ATOM      6  H   UNL     1       7.883  14.897  20.852  1.00  0.00     0.345 HD
ENDBRANCH   2   3
BRANCH   2   7
ATOM      7  C   UNL     1      10.846  15.334  19.761  1.00  0.00     0.100 C 
ATOM      8  O   UNL     1      11.355  16.027  20.682  1.00  0.00    -0.544 OA
ATOM      9  O   UNL     1      11.318  15.470  18.461  1.00  0.00    -0.544 OA
ENDBRANCH   2   7
ENDBRANCH   1   2
BRANCH   1  10
ATOM     10  C   UNL     1      10.451  12.852  21.939  1.00  0.00     0.223 C 
ATOM     11  O   UNL     1       9.540  12.320  22.628  1.00  0.00    -0.275 OA
ATOM     12  N   UNL     1      11.623  13.354  22.581  1.00  0.00    -0.369 N 
ATOM     13  H   UNL     1      12.380  13.812  22.026  1.00  0.00     0.159 HD
ATOM     14  H   UNL     1      11.733  13.271  23.616  1.00  0.00     0.159 HD
ENDBRANCH   1  10
TORSDOF 4
ENDMDL
MODEL 4
REMARK VINA RESULT:    -4.096      1.889      3.455
REMARK INTER + INTRA:          -5.366
REMARK INTER:                  -5.148
REMARK INTRA:                  -0.218
REMARK UNBOUND:                -0.432
REMARK SMILES NC(=O)C[C@@H]([NH3+])C(=O)[O-]
REMARK SMILES IDX 4 1 5 2 6 3 7 7 8 8 9 9 2 10 3 11 1 12
REMARK H PARENT 6 4 6 5 6 6 1 13 1 14
REMARK Flexibility Score: inf
ROOT
ATOM      1  C   UNL     1      10.449  15.258  20.912  1.00  0.00     0.171 C 
ENDROOT
BRANCH   1   2
ATOM      2  C   UNL     1      11.185  14.596  22.094  1.00  0.00     0.237 C 
BRANCH   2   3
ATOM      3  N   UNL     1      11.547  15.600  23.100  1.00  0.00    -0.350 N 
ATOM      4  H   UNL     1      11.594  15.168  24.052  1.00  0.00     0.345 HD
ATOM      5  H   UNL     1      10.837  16.367  23.107  1.00  0.00     0.345 HD
ATOM      6  H   UNL     1      12.477  16.018  22.867  1.00  0.00     0.345 HD
ENDBRANCH   2   3
BRANCH   2   7
ATOM      7  C   UNL     1      10.336  13.520  22.720  1.00  0.00     0.100 C 
ATOM      8  O   UNL     1       9.759  13.729  23.819  1.00  0.00    -0.544 OA
ATOM      9  O   UNL     1      10.193  12.286  22.094  1.00  0.00    -0.544 OA
ENDBRANCH   2   7
ENDBRANCH   1   2
BRANCH   1  10
ATOM     10  C   UNL     1      10.893  14.689  19.595  1.00  0.00     0.223 C 
ATOM     11  O   UNL     1      11.223  15.463  18.656  1.00  0.00    -0.275 OA
ATOM     12  N   UNL     1      10.909  13.277  19.387  1.00  0.00    -0.369 N 
ATOM     13  H   UNL     1      10.622  12.624  20.150  1.00  0.00     0.159 HD
ATOM     14  H   UNL     1      11.204  12.883  18.467  1.00  0.00     0.159 HD
ENDBRANCH   1  10
TORSDOF 4
ENDMDL
MODEL 5
REMARK VINA RESULT:    -4.063      1.592      3.532
REMARK INTER + INTRA:          -5.327
REMARK INTER:                  -5.209
REMARK INTRA:                  -0.118
REMARK UNBOUND:                -0.432
REMARK SMILES NC(=O)C[C@@H]([NH3+])C(=O)[O-]
REMARK SMILES IDX 4 1 5 2 6 3 7 7 8 8 9 9 2 10 3 11 1 12
REMARK H PARENT 6 4 6 5 6 6 1 13 1 14
REMARK Flexibility Score: inf
ROOT
ATOM      1  C   UNL     1       9.877  15.414  20.585  1.00  0.00     0.171 C 
ENDROOT
BRANCH   1   2
ATOM      2  C   UNL     1      10.680  16.529  21.282  1.00  0.00     0.237 C 
BRANCH   2   3
ATOM      3  N   UNL     1       9.892  17.765  21.349  1.00  0.00    -0.350 N 
ATOM      4  H   UNL     1       9.732  18.047  22.343  1.00  0.00     0.345 HD
ATOM      5  H   UNL     1       8.967  17.621  20.881  1.00  0.00     0.345 HD
ATOM      6  H   UNL     1      10.394  18.535  20.849  1.00  0.00     0.345 HD
ENDBRANCH   2   3
BRANCH   2   7
ATOM      7  C   UNL     1      11.096  16.106  22.667  1.00  0.00     0.100 C 
ATOM      8  O   UNL     1      10.876  14.931  23.063  1.00  0.00    -0.544 OA
ATOM      9  O   UNL     1      11.715  17.012  23.521  1.00  0.00    -0.544 OA
ENDBRANCH   2   7
ENDBRANCH   1   2
BRANCH   1  10
ATOM     10  C   UNL     1      10.689  14.725  19.525  1.00  0.00     0.223 C 
ATOM     11  O   UNL     1      11.207  15.399  18.595  1.00  0.00    -0.275 OA
ATOM     12  N   UNL     1      10.849  13.307  19.547  1.00  0.00    -0.369 N 
ATOM     13  H   UNL     1      10.412  12.734  20.302  1.00  0.00     0.159 HD
ATOM     14  H   UNL     1      11.402  12.828  18.802  1.00  0.00     0.159 HD
ENDBRANCH   1  10
TORSDOF 4
ENDMDL
MODEL 6
REMARK VINA RESULT:    -4.004      1.639      3.930
REMARK INTER + INTRA:          -5.255
REMARK INTER:                  -5.001
REMARK INTRA:                  -0.253
REMARK UNBOUND:                -0.432
REMARK SMILES NC(=O)C[C@@H]([NH3+])C(=O)[O-]
REMARK SMILES IDX 4 1 5 2 6 3 7 7 8 8 9 9 2 10 3 11 1 12
REMARK H PARENT 6 4 6 5 6 6 1 13 1 14
REMARK Flexibility Score: inf
ROOT
ATOM      1  C   UNL     1      11.103  14.951  21.042  1.00  0.00     0.171 C 
ENDROOT
BRANCH   1   2
ATOM      2  C   UNL     1      10.408  13.894  21.922  1.00  0.00     0.237 C 
BRANCH   2   3
ATOM      3  N   UNL     1      11.402  13.028  22.566  1.00  0.00    -0.350 N 
ATOM      4  H   UNL     1      11.317  12.045  22.217  1.00  0.00     0.345 HD
ATOM      5  H   UNL     1      11.261  13.036  23.602  1.00  0.00     0.345 HD
ATOM      6  H   UNL     1      12.366  13.382  22.365  1.00  0.00     0.345 HD
ENDBRANCH   2   3
BRANCH   2   7
ATOM      7  C   UNL     1       9.541  14.550  22.965  1.00  0.00     0.100 C 
ATOM      8  O   UNL     1       9.863  14.495  24.181  1.00  0.00    -0.544 OA
ATOM      9  O   UNL     1       8.375  15.211  22.595  1.00  0.00    -0.544 OA
ENDBRANCH   2   7
ENDBRANCH   1   2
BRANCH   1  10
ATOM     10  C   UNL     1      10.436  15.082  19.702  1.00  0.00     0.223 C 
ATOM     11  O   UNL     1      11.136  15.219  18.664  1.00  0.00    -0.275 OA
ATOM     12  N   UNL     1       9.013  15.088  19.603  1.00  0.00    -0.369 N 
ATOM     13  H   UNL     1       8.419  14.992  20.457  1.00  0.00     0.159 HD
ATOM     14  H   UNL     1       8.550  15.193  18.673  1.00  0.00     0.159 HD
ENDBRANCH   1  10
TORSDOF 4
ENDMDL
MODEL 7
REMARK VINA RESULT:    -3.981      1.449      3.707
REMARK INTER + INTRA:          -5.227
REMARK INTER:                  -4.816
REMARK INTRA:                  -0.411
REMARK UNBOUND:                -0.432
REMARK SMILES NC(=O)C[C@@H]([NH3+])C(=O)[O-]
REMARK SMILES IDX 4 1 5 2 6 3 7 7 8 8 9 9 2 10 3 11 1 12
REMARK H PARENT 6 4 6 5 6 6 1 13 1 14
REMARK Flexibility Score: inf
ROOT
ATOM      1  C   UNL     1       9.778  14.978  20.849  1.00  0.00     0.171 C 
ENDROOT
BRANCH   1   2
ATOM      2  C   UNL     1      10.562  15.046  22.174  1.00  0.00     0.237 C 
BRANCH   2   3
ATOM      3  N   UNL     1      11.778  14.228  22.093  1.00  0.00    -0.350 N 
ATOM      4  H   UNL     1      12.581  14.715  22.555  1.00  0.00     0.345 HD
ATOM      5  H   UNL     1      12.018  14.048  21.091  1.00  0.00     0.345 HD
ATOM      6  H   UNL     1      11.619  13.306  22.561  1.00  0.00     0.345 HD
ENDBRANCH   2   3
BRANCH   2   7
ATOM      7  C   UNL     1      10.919  16.469  22.515  1.00  0.00     0.100 C 
ATOM      8  O   UNL     1      11.600  16.722  23.544  1.00  0.00    -0.544 OA
ATOM      9  O   UNL     1      10.492  17.514  21.704  1.00  0.00    -0.544 OA
ENDBRANCH   2   7
ENDBRANCH   1   2
BRANCH   1  10
ATOM     10  C   UNL     1      10.695  14.827  19.670  1.00  0.00     0.223 C 
ATOM     11  O   UNL     1      10.863  13.692  19.147  1.00  0.00    -0.275 OA
ATOM     12  N   UNL     1      11.404  15.954  19.158  1.00  0.00    -0.369 N 
ATOM     13  H   UNL     1      11.288  16.898  19.590  1.00  0.00     0.159 HD
ATOM     14  H   UNL     1      12.052  15.845  18.346  1.00  0.00     0.159 HD
ENDBRANCH   1  10
TORSDOF 4
ENDMDL
MODEL 8
REMARK VINA RESULT:    -3.961      1.591      2.201
REMARK INTER + INTRA:          -5.203
REMARK INTER:                  -4.713
REMARK INTRA:                  -0.491
REMARK UNBOUND:                -0.432
REMARK SMILES NC(=O)C[C@@H]([NH3+])C(=O)[O-]
REMARK SMILES IDX 4 1 5 2 6 3 7 7 8 8 9 9 2 10 3 11 1 12
REMARK H PARENT 6 4 6 5 6 6 1 13 1 14
REMARK Flexibility Score: inf
ROOT
ATOM      1  C   UNL     1       9.410  14.974  22.068  1.00  0.00     0.171 C 
ENDROOT
BRANCH   1   2
ATOM      2  C   UNL     1      10.748  14.765  21.332  1.00  0.00     0.237 C 
BRANCH   2   3
ATOM      3  N   UNL     1      11.743  14.171  22.232  1.00  0.00    -0.350 N 
ATOM      4  H   UNL     1      12.508  14.854  22.438  1.00  0.00     0.345 HD
ATOM      5  H   UNL     1      12.155  13.317  21.791  1.00  0.00     0.345 HD
ATOM      6  H   UNL     1      11.285  13.887  23.129  1.00  0.00     0.345 HD
ENDBRANCH   2   3
BRANCH   2   7
ATOM      7  C   UNL     1      10.562  13.891  20.119  1.00  0.00     0.100 C 
ATOM      8  O   UNL     1      10.121  12.718  20.245  1.00  0.00    -0.544 OA
ATOM      9  O   UNL     1      10.886  14.368  18.853  1.00  0.00    -0.544 OA
ENDBRANCH   2   7
ENDBRANCH   1   2
BRANCH   1  10
ATOM     10  C   UNL     1       9.271  14.041  23.238  1.00  0.00     0.223 C 
ATOM     11  O   UNL     1       9.703  14.386  24.370  1.00  0.00    -0.275 OA
ATOM     12  N   UNL     1       8.683  12.752  23.066  1.00  0.00    -0.369 N 
ATOM     13  H   UNL     1       8.335  12.446  22.131  1.00  0.00     0.159 HD
ATOM     14  H   UNL     1       8.599  12.100  23.877  1.00  0.00     0.159 HD
ENDBRANCH   1  10
TORSDOF 4
ENDMDL
MODEL 9
REMARK VINA RESULT:    -3.923      1.830      2.786
REMARK INTER + INTRA:          -5.158
REMARK INTER:                  -4.980
REMARK INTRA:                  -0.178
REMARK UNBOUND:                -0.432
REMARK SMILES NC(=O)C[C@@H]([NH3+])C(=O)[O-]
REMARK SMILES IDX 4 1 5 2 6 3 7 7 8 8 9 9 2 10 3 11 1 12
REMARK H PARENT 6 4 6 5 6 6 1 13 1 14
REMARK Flexibility Score: inf
ROOT
ATOM      1  C   UNL     1      10.310  16.057  22.301  1.00  0.00     0.171 C 
ENDROOT
BRANCH   1   2
ATOM      2  C   UNL     1      11.021  15.221  21.219  1.00  0.00     0.237 C 
BRANCH   2   3
ATOM      3  N   UNL     1      11.099  13.813  21.626  1.00  0.00    -0.350 N 
ATOM      4  H   UNL     1      10.743  13.189  20.866  1.00  0.00     0.345 HD
ATOM      5  H   UNL     1      10.528  13.662  22.489  1.00  0.00     0.345 HD
ATOM      6  H   UNL     1      12.091  13.560  21.843  1.00  0.00     0.345 HD
ENDBRANCH   2   3
BRANCH   2   7
ATOM      7  C   UNL     1      10.309  15.337  19.896  1.00  0.00     0.100 C 
ATOM      8  O   UNL     1       9.076  15.591  19.861  1.00  0.00    -0.544 OA
ATOM      9  O   UNL     1      11.005  15.155  18.706  1.00  0.00    -0.544 OA
ENDBRANCH   2   7
ENDBRANCH   1   2
BRANCH   1  10
ATOM     10  C   UNL     1      10.671  17.511  22.204  1.00  0.00     0.223 C 
ATOM     11  O   UNL     1      11.682  17.949  22.816  1.00  0.00    -0.275 OA
ATOM     12  N   UNL     1       9.856  18.409  21.452  1.00  0.00    -0.369 N 
ATOM     13  H   UNL     1       9.005  18.065  20.953  1.00  0.00     0.159 HD
ATOM     14  H   UNL     1      10.100  19.422  21.396  1.00  0.00     0.159 HD
ENDBRANCH   1  10
TORSDOF 4
ENDMDL
