MODEL 1
REMARK VINA RESULT:    -4.786      0.000      0.000
REMARK INTER + INTRA:          -6.853
REMARK INTER:                  -6.465
REMARK INTRA:                  -0.388
REMARK UNBOUND:                -0.388
REMARK SMILES CCCCCCC=CC(=O)[O-]
REMARK SMILES IDX 5 1 6 2 7 3 8 4 9 5 10 6 11 7 4 8 3 9 2 10 1 11
REMARK H PARENT
REMARK Flexibility Score: inf
ROOT
ATOM      1  C   UNL     1      46.648  47.423  36.411  1.00  0.00     0.004 C 
ENDROOT
BRANCH   1   2
ATOM      2  C   UNL     1      45.308  47.597  35.680  1.00  0.00     0.027 C 
BRANCH   2   3
ATOM      3  C   UNL     1      44.903  46.329  34.984  1.00  0.00    -0.025 C 
ATOM      4  C   UNL     1      45.799  45.561  34.354  1.00  0.00     0.020 C 
BRANCH   4   5
ATOM      5  C   UNL     1      45.424  44.323  33.655  1.00  0.00     0.064 C 
ATOM      6  O   UNL     1      44.866  44.357  32.525  1.00  0.00    -0.545 OA
ATOM      7  O   UNL     1      45.688  43.095  34.248  1.00  0.00    -0.545 OA
ENDBRANCH   4   5
ENDBRANCH   2   3
ENDBRANCH   1   2
BRANCH   1   8
ATOM      8  C   UNL     1      47.673  48.503  36.029  1.00  0.00     0.000 C 
BRANCH   8   9
ATOM      9  C   UNL     1      47.094  49.551  35.062  1.00  0.00    -0.000 C 
BRANCH   9  10
ATOM     10  C   UNL     1      48.152  50.554  34.580  1.00  0.00    -0.003 C 
ATOM     11  C   UNL     1      49.356  50.639  35.518  1.00  0.00     0.004 C 
ENDBRANCH   9  10
ENDBRANCH   8   9
ENDBRANCH   1   8
TORSDOF 6
ENDMDL
MODEL 2
REMARK VINA RESULT:    -4.739      4.565      6.574
REMARK INTER + INTRA:          -6.790
REMARK INTER:                  -6.406
REMARK INTRA:                  -0.383
REMARK UNBOUND:                -0.388
REMARK SMILES CCCCCCC=CC(=O)[O-]
REMARK SMILES IDX 5 1 6 2 7 3 8 4 9 5 10 6 11 7 4 8 3 9 2 10 1 11
REMARK H PARENT
REMARK Flexibility Score: inf
ROOT
ATOM      1  C   UNL     1      48.280  48.970  34.000  1.00  0.00     0.004 C 
ENDROOT
BRANCH   1   2
ATOM      2  C   UNL     1      47.970  50.300  34.705  1.00  0.00     0.027 C 
BRANCH   2   3
ATOM      3  C   UNL     1      49.206  50.882  35.328  1.00  0.00    -0.025 C 
ATOM      4  C   UNL     1      49.968  50.169  36.164  1.00  0.00     0.020 C 
BRANCH   4   5
ATOM      5  C   UNL     1      51.175  50.723  36.797  1.00  0.00     0.064 C 
ATOM      6  O   UNL     1      51.101  51.671  37.625  1.00  0.00    -0.545 OA
ATOM      7  O   UNL     1      52.419  50.192  36.479  1.00  0.00    -0.545 OA
ENDBRANCH   4   5
ENDBRANCH   2   3
ENDBRANCH   1   2
BRANCH   1   8
ATOM      8  C   UNL     1      47.245  47.879  34.317  1.00  0.00     0.000 C 
BRANCH   8   9
ATOM      9  C   UNL     1      46.212  48.332  35.364  1.00  0.00    -0.000 C 
BRANCH   9  10
ATOM     10  C   UNL     1      45.115  47.282  35.600  1.00  0.00    -0.003 C 
ATOM     11  C   UNL     1      45.326  46.013  34.775  1.00  0.00     0.004 C 
ENDBRANCH   9  10
ENDBRANCH   8   9
ENDBRANCH   1   8
TORSDOF 6
ENDMDL
MODEL 3
REMARK VINA RESULT:    -4.659      0.403      1.005
REMARK INTER + INTRA:          -6.681
REMARK INTER:                  -6.279
REMARK INTRA:                  -0.402
REMARK UNBOUND:                -0.388
REMARK SMILES CCCCCCC=CC(=O)[O-]
REMARK SMILES IDX 5 1 6 2 7 3 8 4 9 5 10 6 11 7 4 8 3 9 2 10 1 11
REMARK H PARENT
REMARK Flexibility Score: inf
ROOT
ATOM      1  C   UNL     1      46.789  47.455  36.472  1.00  0.00     0.004 C 
ENDROOT
BRANCH   1   2
ATOM      2  C   UNL     1      45.410  47.592  35.809  1.00  0.00     0.027 C 
BRANCH   2   3
ATOM      3  C   UNL     1      45.090  46.388  34.970  1.00  0.00    -0.025 C 
ATOM      4  C   UNL     1      46.056  45.620  34.454  1.00  0.00     0.020 C 
BRANCH   4   5
ATOM      5  C   UNL     1      45.768  44.444  33.619  1.00  0.00     0.064 C 
ATOM      6  O   UNL     1      45.524  43.321  34.136  1.00  0.00    -0.545 OA
ATOM      7  O   UNL     1      45.765  44.572  32.235  1.00  0.00    -0.545 OA
ENDBRANCH   4   5
ENDBRANCH   2   3
ENDBRANCH   1   2
BRANCH   1   8
ATOM      8  C   UNL     1      47.744  48.597  36.089  1.00  0.00     0.000 C 
BRANCH   8   9
ATOM      9  C   UNL     1      47.352  49.275  34.764  1.00  0.00    -0.000 C 
BRANCH   9  10
ATOM     10  C   UNL     1      47.887  50.711  34.658  1.00  0.00    -0.003 C 
ATOM     11  C   UNL     1      49.227  50.896  35.370  1.00  0.00     0.004 C 
ENDBRANCH   9  10
ENDBRANCH   8   9
ENDBRANCH   1   8
TORSDOF 6
ENDMDL
MODEL 4
REMARK VINA RESULT:    -4.626      2.473      3.980
REMARK INTER + INTRA:          -6.636
REMARK INTER:                  -6.363
REMARK INTRA:                  -0.273
REMARK UNBOUND:                -0.388
REMARK SMILES CCCCCCC=CC(=O)[O-]
REMARK SMILES IDX 5 1 6 2 7 3 8 4 9 5 10 6 11 7 4 8 3 9 2 10 1 11
REMARK H PARENT
REMARK Flexibility Score: inf
ROOT
ATOM      1  C   UNL     1      49.001  50.920  35.256  1.00  0.00     0.004 C 
ENDROOT
BRANCH   1   2
ATOM      2  C   UNL     1      47.674  50.436  34.652  1.00  0.00     0.027 C 
BRANCH   2   3
ATOM      3  C   UNL     1      47.340  49.049  35.119  1.00  0.00    -0.025 C 
ATOM      4  C   UNL     1      46.083  48.690  35.399  1.00  0.00     0.020 C 
BRANCH   4   5
ATOM      5  C   UNL     1      45.734  47.341  35.870  1.00  0.00     0.064 C 
ATOM      6  O   UNL     1      46.412  46.768  36.765  1.00  0.00    -0.545 OA
ATOM      7  O   UNL     1      44.639  46.686  35.320  1.00  0.00    -0.545 OA
ENDBRANCH   4   5
ENDBRANCH   2   3
ENDBRANCH   1   2
BRANCH   1   8
ATOM      8  C   UNL     1      49.721  49.820  36.054  1.00  0.00     0.000 C 
BRANCH   8   9
ATOM      9  C   UNL     1      51.168  50.204  36.414  1.00  0.00    -0.000 C 
BRANCH   9  10
ATOM     10  C   UNL     1      51.236  51.343  37.442  1.00  0.00    -0.003 C 
ATOM     11  C   UNL     1      52.122  51.004  38.640  1.00  0.00     0.004 C 
ENDBRANCH   9  10
ENDBRANCH   8   9
ENDBRANCH   1   8
TORSDOF 6
ENDMDL
MODEL 5
REMARK VINA RESULT:    -4.572      3.277      5.722
REMARK INTER + INTRA:          -6.564
REMARK INTER:                  -6.220
REMARK INTRA:                  -0.344
REMARK UNBOUND:                -0.388
REMARK SMILES CCCCCCC=CC(=O)[O-]
REMARK SMILES IDX 5 1 6 2 7 3 8 4 9 5 10 6 11 7 4 8 3 9 2 10 1 11
REMARK H PARENT
REMARK Flexibility Score: inf
ROOT
ATOM      1  C   UNL     1      45.071  46.513  35.123  1.00  0.00     0.004 C 
ENDROOT
BRANCH   1   2
ATOM      2  C   UNL     1      45.425  47.859  35.774  1.00  0.00     0.027 C 
BRANCH   2   3
ATOM      3  C   UNL     1      46.797  48.313  35.366  1.00  0.00    -0.025 C 
ATOM      4  C   UNL     1      47.038  49.582  35.020  1.00  0.00     0.020 C 
BRANCH   4   5
ATOM      5  C   UNL     1      48.370  50.047  34.604  1.00  0.00     0.064 C 
ATOM      6  O   UNL     1      48.938  51.008  35.191  1.00  0.00    -0.545 OA
ATOM      7  O   UNL     1      49.015  49.417  33.547  1.00  0.00    -0.545 OA
ENDBRANCH   4   5
ENDBRANCH   2   3
ENDBRANCH   1   2
BRANCH   1   8
ATOM      8  C   UNL     1      46.314  45.733  34.666  1.00  0.00     0.000 C 
BRANCH   8   9
ATOM      9  C   UNL     1      46.176  45.190  33.232  1.00  0.00    -0.000 C 
BRANCH   9  10
ATOM     10  C   UNL     1      45.002  44.209  33.087  1.00  0.00    -0.003 C 
ATOM     11  C   UNL     1      45.285  42.851  33.729  1.00  0.00     0.004 C 
ENDBRANCH   9  10
ENDBRANCH   8   9
ENDBRANCH   1   8
TORSDOF 6
ENDMDL
MODEL 6
REMARK VINA RESULT:    -4.498      8.144      9.788
REMARK INTER + INTRA:          -6.464
REMARK INTER:                  -5.943
REMARK INTRA:                  -0.521
REMARK UNBOUND:                -0.388
REMARK SMILES CCCCCCC=CC(=O)[O-]
REMARK SMILES IDX 5 1 6 2 7 3 8 4 9 5 10 6 11 7 4 8 3 9 2 10 1 11
REMARK H PARENT
REMARK Flexibility Score: inf
ROOT
ATOM      1  C   UNL     1      39.867  48.587  32.370  1.00  0.00     0.004 C 
ENDROOT
BRANCH   1   2
ATOM      2  C   UNL     1      40.236  49.871  31.611  1.00  0.00     0.027 C 
BRANCH   2   3
ATOM      3  C   UNL     1      40.604  50.975  32.560  1.00  0.00    -0.025 C 
ATOM      4  C   UNL     1      40.048  51.067  33.773  1.00  0.00     0.020 C 
BRANCH   4   5
ATOM      5  C   UNL     1      40.382  52.146  34.714  1.00  0.00     0.064 C 
ATOM      6  O   UNL     1      40.485  53.341  34.326  1.00  0.00    -0.545 OA
ATOM      7  O   UNL     1      40.586  51.846  36.055  1.00  0.00    -0.545 OA
ENDBRANCH   4   5
ENDBRANCH   2   3
ENDBRANCH   1   2
BRANCH   1   8
ATOM      8  C   UNL     1      38.491  48.036  31.963  1.00  0.00     0.000 C 
BRANCH   8   9
ATOM      9  C   UNL     1      37.488  49.150  31.615  1.00  0.00    -0.000 C 
BRANCH   9  10
ATOM     10  C   UNL     1      36.881  48.978  30.215  1.00  0.00    -0.003 C 
ATOM     11  C   UNL     1      37.432  49.985  29.205  1.00  0.00     0.004 C 
ENDBRANCH   9  10
ENDBRANCH   8   9
ENDBRANCH   1   8
TORSDOF 6
ENDMDL
MODEL 7
REMARK VINA RESULT:    -4.467      7.535      9.367
REMARK INTER + INTRA:          -6.422
REMARK INTER:                  -6.137
REMARK INTRA:                  -0.284
REMARK UNBOUND:                -0.388
REMARK SMILES CCCCCCC=CC(=O)[O-]
REMARK SMILES IDX 5 1 6 2 7 3 8 4 9 5 10 6 11 7 4 8 3 9 2 10 1 11
REMARK H PARENT
REMARK Flexibility Score: inf
ROOT
ATOM      1  C   UNL     1      39.954  51.216  32.585  1.00  0.00     0.004 C 
ENDROOT
BRANCH   1   2
ATOM      2  C   UNL     1      40.894  51.239  33.800  1.00  0.00     0.027 C 
BRANCH   2   3
ATOM      3  C   UNL     1      41.553  52.580  33.949  1.00  0.00    -0.025 C 
ATOM      4  C   UNL     1      42.835  52.692  34.315  1.00  0.00     0.020 C 
BRANCH   4   5
ATOM      5  C   UNL     1      43.498  53.995  34.480  1.00  0.00     0.064 C 
ATOM      6  O   UNL     1      43.609  54.796  33.513  1.00  0.00    -0.545 OA
ATOM      7  O   UNL     1      44.009  54.349  35.722  1.00  0.00    -0.545 OA
ENDBRANCH   4   5
ENDBRANCH   2   3
ENDBRANCH   1   2
BRANCH   1   8
ATOM      8  C   UNL     1      40.259  50.053  31.626  1.00  0.00     0.000 C 
BRANCH   8   9
ATOM      9  C   UNL     1      39.892  48.684  32.225  1.00  0.00    -0.000 C 
BRANCH   9  10
ATOM     10  C   UNL     1      38.392  48.557  32.528  1.00  0.00    -0.003 C 
ATOM     11  C   UNL     1      37.528  48.624  31.268  1.00  0.00     0.004 C 
ENDBRANCH   9  10
ENDBRANCH   8   9
ENDBRANCH   1   8
TORSDOF 6
ENDMDL
MODEL 8
REMARK VINA RESULT:    -4.332      6.369      6.976
REMARK INTER + INTRA:          -6.239
REMARK INTER:                  -5.954
REMARK INTRA:                  -0.285
REMARK UNBOUND:                -0.388
REMARK SMILES CCCCCCC=CC(=O)[O-]
REMARK SMILES IDX 5 1 6 2 7 3 8 4 9 5 10 6 11 7 4 8 3 9 2 10 1 11
REMARK H PARENT
REMARK Flexibility Score: inf
ROOT
ATOM      1  C   UNL     1      41.566  51.929  35.024  1.00  0.00     0.004 C 
ENDROOT
BRANCH   1   2
ATOM      2  C   UNL     1      41.317  51.812  33.512  1.00  0.00     0.027 C 
BRANCH   2   3
ATOM      3  C   UNL     1      40.241  50.808  33.217  1.00  0.00    -0.025 C 
ATOM      4  C   UNL     1      40.210  50.137  32.060  1.00  0.00     0.020 C 
BRANCH   4   5
ATOM      5  C   UNL     1      39.159  49.158  31.743  1.00  0.00     0.064 C 
ATOM      6  O   UNL     1      38.287  49.400  30.866  1.00  0.00    -0.545 OA
ATOM      7  O   UNL     1      39.126  47.946  32.421  1.00  0.00    -0.545 OA
ENDBRANCH   4   5
ENDBRANCH   2   3
ENDBRANCH   1   2
BRANCH   1   8
ATOM      8  C   UNL     1      43.061  51.884  35.381  1.00  0.00     0.000 C 
BRANCH   8   9
ATOM      9  C   UNL     1      43.878  52.955  34.637  1.00  0.00    -0.000 C 
BRANCH   9  10
ATOM     10  C   UNL     1      43.513  54.381  35.075  1.00  0.00    -0.003 C 
ATOM     11  C   UNL     1      43.887  54.666  36.529  1.00  0.00     0.004 C 
ENDBRANCH   9  10
ENDBRANCH   8   9
ENDBRANCH   1   8
TORSDOF 6
ENDMDL
