MODEL 1
REMARK VINA RESULT:    -4.556      0.000      0.000
REMARK INTER + INTRA:          -7.072
REMARK INTER:                  -6.420
REMARK INTRA:                  -0.652
REMARK UNBOUND:                -0.652
REMARK SMILES C=CCCCCCCC(=O)[O-]
REMARK SMILES IDX 6 1 7 2 8 3 9 4 10 5 11 6 5 7 4 8 3 9 2 10 1 11
REMARK H PARENT
REMARK Flexibility Score: inf
ROOT
ATOM      1  C   UNL     1      14.750  16.574  26.108  1.00  0.00     0.000 C 
ENDROOT
BRANCH   1   2
ATOM      2  C   UNL     1      14.715  16.758  27.632  1.00  0.00     0.006 C 
BRANCH   2   3
ATOM      3  C   UNL     1      15.311  15.556  28.376  1.00  0.00     0.053 C 
BRANCH   3   4
ATOM      4  C   UNL     1      14.384  15.044  29.437  1.00  0.00     0.041 C 
ATOM      5  O   UNL     1      13.192  15.445  29.483  1.00  0.00    -0.550 OA
ATOM      6  O   UNL     1      14.847  14.149  30.393  1.00  0.00    -0.550 OA
ENDBRANCH   3   4
ENDBRANCH   2   3
ENDBRANCH   1   2
BRANCH   1   7
ATOM      7  C   UNL     1      14.070  15.262  25.696  1.00  0.00     0.000 C 
BRANCH   7   8
ATOM      8  C   UNL     1      12.541  15.385  25.783  1.00  0.00     0.004 C 
BRANCH   8   9
ATOM      9  C   UNL     1      11.958  16.183  24.608  1.00  0.00     0.027 C 
BRANCH   9  10
ATOM     10  C   UNL     1      11.374  17.502  25.041  1.00  0.00    -0.035 C 
ATOM     11  C   UNL     1      11.254  17.828  26.332  1.00  0.00     0.004 C 
ENDBRANCH   9  10
ENDBRANCH   8   9
ENDBRANCH   7   8
ENDBRANCH   1   7
TORSDOF 7
ENDMDL
MODEL 2
REMARK VINA RESULT:    -4.435      2.547      5.261
REMARK INTER + INTRA:          -6.901
REMARK INTER:                  -6.535
REMARK INTRA:                  -0.366
REMARK UNBOUND:                -0.652
REMARK SMILES C=CCCCCCCC(=O)[O-]
REMARK SMILES IDX 6 1 7 2 8 3 9 4 10 5 11 6 5 7 4 8 3 9 2 10 1 11
REMARK H PARENT
REMARK Flexibility Score: inf
ROOT
ATOM      1  C   UNL     1      14.056  17.288  28.213  1.00  0.00     0.000 C 
ENDROOT
BRANCH   1   2
ATOM      2  C   UNL     1      13.099  17.698  27.084  1.00  0.00     0.006 C 
BRANCH   2   3
ATOM      3  C   UNL     1      13.678  17.397  25.696  1.00  0.00     0.053 C 
BRANCH   3   4
ATOM      4  C   UNL     1      13.227  16.063  25.183  1.00  0.00     0.041 C 
ATOM      5  O   UNL     1      13.879  15.023  25.464  1.00  0.00    -0.550 OA
ATOM      6  O   UNL     1      12.106  15.972  24.368  1.00  0.00    -0.550 OA
ENDBRANCH   3   4
ENDBRANCH   2   3
ENDBRANCH   1   2
BRANCH   1   7
ATOM      7  C   UNL     1      13.578  16.001  28.899  1.00  0.00     0.000 C 
BRANCH   7   8
ATOM      8  C   UNL     1      14.652  14.906  28.822  1.00  0.00     0.004 C 
BRANCH   8   9
ATOM      9  C   UNL     1      15.434  14.769  30.137  1.00  0.00     0.027 C 
BRANCH   9  10
ATOM     10  C   UNL     1      15.007  13.568  30.938  1.00  0.00    -0.035 C 
ATOM     11  C   UNL     1      14.741  13.652  32.245  1.00  0.00     0.004 C 
ENDBRANCH   9  10
ENDBRANCH   8   9
ENDBRANCH   7   8
ENDBRANCH   1   7
TORSDOF 7
ENDMDL
MODEL 3
REMARK VINA RESULT:    -4.404      3.013      5.424
REMARK INTER + INTRA:          -6.857
REMARK INTER:                  -6.470
REMARK INTRA:                  -0.388
REMARK UNBOUND:                -0.652
REMARK SMILES C=CCCCCCCC(=O)[O-]
REMARK SMILES IDX 6 1 7 2 8 3 9 4 10 5 11 6 5 7 4 8 3 9 2 10 1 11
REMARK H PARENT
REMARK Flexibility Score: inf
ROOT
ATOM      1  C   UNL     1      13.272  16.100  28.017  1.00  0.00     0.000 C 
ENDROOT
BRANCH   1   2
ATOM      2  C   UNL     1      12.628  15.444  26.787  1.00  0.00     0.006 C 
BRANCH   2   3
ATOM      3  C   UNL     1      13.533  15.515  25.550  1.00  0.00     0.053 C 
BRANCH   3   4
ATOM      4  C   UNL     1      13.086  16.579  24.594  1.00  0.00     0.041 C 
ATOM      5  O   UNL     1      12.024  16.432  23.935  1.00  0.00    -0.550 OA
ATOM      6  O   UNL     1      13.860  17.717  24.407  1.00  0.00    -0.550 OA
ENDBRANCH   3   4
ENDBRANCH   2   3
ENDBRANCH   1   2
BRANCH   1   7
ATOM      7  C   UNL     1      14.802  16.093  27.907  1.00  0.00     0.000 C 
BRANCH   7   8
ATOM      8  C   UNL     1      15.416  15.053  28.856  1.00  0.00     0.004 C 
BRANCH   8   9
ATOM      9  C   UNL     1      14.470  14.696  30.013  1.00  0.00     0.027 C 
BRANCH   9  10
ATOM     10  C   UNL     1      15.071  13.687  30.955  1.00  0.00    -0.035 C 
ATOM     11  C   UNL     1      14.738  13.647  32.249  1.00  0.00     0.004 C 
ENDBRANCH   9  10
ENDBRANCH   8   9
ENDBRANCH   7   8
ENDBRANCH   1   7
TORSDOF 7
ENDMDL
MODEL 4
REMARK VINA RESULT:    -4.379      1.742      2.516
REMARK INTER + INTRA:          -6.822
REMARK INTER:                  -6.504
REMARK INTRA:                  -0.318
REMARK UNBOUND:                -0.652
REMARK SMILES C=CCCCCCCC(=O)[O-]
REMARK SMILES IDX 6 1 7 2 8 3 9 4 10 5 11 6 5 7 4 8 3 9 2 10 1 11
REMARK H PARENT
REMARK Flexibility Score: inf
ROOT
ATOM      1  C   UNL     1      13.624  15.634  28.276  1.00  0.00     0.000 C 
ENDROOT
BRANCH   1   2
ATOM      2  C   UNL     1      13.769  15.170  29.733  1.00  0.00     0.006 C 
BRANCH   2   3
ATOM      3  C   UNL     1      15.109  14.470  29.989  1.00  0.00     0.053 C 
BRANCH   3   4
ATOM      4  C   UNL     1      15.023  13.506  31.133  1.00  0.00     0.041 C 
ATOM      5  O   UNL     1      14.560  13.879  32.242  1.00  0.00    -0.550 OA
ATOM      6  O   UNL     1      15.484  12.204  30.983  1.00  0.00    -0.550 OA
ENDBRANCH   3   4
ENDBRANCH   2   3
ENDBRANCH   1   2
BRANCH   1   7
ATOM      7  C   UNL     1      14.039  17.103  28.122  1.00  0.00     0.000 C 
BRANCH   7   8
ATOM      8  C   UNL     1      13.579  17.666  26.769  1.00  0.00     0.004 C 
BRANCH   8   9
ATOM      9  C   UNL     1      12.049  17.770  26.676  1.00  0.00     0.027 C 
BRANCH   9  10
ATOM     10  C   UNL     1      11.535  17.463  25.295  1.00  0.00    -0.035 C 
ATOM     11  C   UNL     1      12.041  16.468  24.560  1.00  0.00     0.004 C 
ENDBRANCH   9  10
ENDBRANCH   8   9
ENDBRANCH   7   8
ENDBRANCH   1   7
TORSDOF 7
ENDMDL
MODEL 5
REMARK VINA RESULT:    -4.368      2.704      5.286
REMARK INTER + INTRA:          -6.807
REMARK INTER:                  -6.462
REMARK INTRA:                  -0.345
REMARK UNBOUND:                -0.652
REMARK SMILES C=CCCCCCCC(=O)[O-]
REMARK SMILES IDX 6 1 7 2 8 3 9 4 10 5 11 6 5 7 4 8 3 9 2 10 1 11
REMARK H PARENT
REMARK Flexibility Score: inf
ROOT
ATOM      1  C   UNL     1      14.747  16.758  27.583  1.00  0.00     0.000 C 
ENDROOT
BRANCH   1   2
ATOM      2  C   UNL     1      14.351  15.863  26.400  1.00  0.00     0.006 C 
BRANCH   2   3
ATOM      3  C   UNL     1      13.903  16.678  25.180  1.00  0.00     0.053 C 
BRANCH   3   4
ATOM      4  C   UNL     1      12.413  16.672  25.023  1.00  0.00     0.041 C 
ATOM      5  O   UNL     1      11.855  15.806  24.300  1.00  0.00    -0.550 OA
ATOM      6  O   UNL     1      11.643  17.643  25.651  1.00  0.00    -0.550 OA
ENDBRANCH   3   4
ENDBRANCH   2   3
ENDBRANCH   1   2
BRANCH   1   7
ATOM      7  C   UNL     1      13.756  16.606  28.744  1.00  0.00     0.000 C 
BRANCH   7   8
ATOM      8  C   UNL     1      13.761  15.169  29.286  1.00  0.00     0.004 C 
BRANCH   8   9
ATOM      9  C   UNL     1      15.112  14.791  29.912  1.00  0.00     0.027 C 
BRANCH   9  10
ATOM     10  C   UNL     1      15.010  13.594  30.820  1.00  0.00    -0.035 C 
ATOM     11  C   UNL     1      14.747  13.720  32.124  1.00  0.00     0.004 C 
ENDBRANCH   9  10
ENDBRANCH   8   9
ENDBRANCH   7   8
ENDBRANCH   1   7
TORSDOF 7
ENDMDL
MODEL 6
REMARK VINA RESULT:    -4.351      1.634      2.344
REMARK INTER + INTRA:          -6.783
REMARK INTER:                  -6.462
REMARK INTRA:                  -0.320
REMARK UNBOUND:                -0.652
REMARK SMILES C=CCCCCCCC(=O)[O-]
REMARK SMILES IDX 6 1 7 2 8 3 9 4 10 5 11 6 5 7 4 8 3 9 2 10 1 11
REMARK H PARENT
REMARK Flexibility Score: inf
ROOT
ATOM      1  C   UNL     1      14.777  15.998  27.768  1.00  0.00     0.000 C 
ENDROOT
BRANCH   1   2
ATOM      2  C   UNL     1      15.133  14.786  28.642  1.00  0.00     0.006 C 
BRANCH   2   3
ATOM      3  C   UNL     1      14.459  14.844  30.018  1.00  0.00     0.053 C 
BRANCH   3   4
ATOM      4  C   UNL     1      14.873  13.697  30.889  1.00  0.00     0.041 C 
ATOM      5  O   UNL     1      15.230  12.606  30.372  1.00  0.00    -0.550 OA
ATOM      6  O   UNL     1      14.834  13.822  32.272  1.00  0.00    -0.550 OA
ENDBRANCH   3   4
ENDBRANCH   2   3
ENDBRANCH   1   2
BRANCH   1   7
ATOM      7  C   UNL     1      13.292  16.359  27.908  1.00  0.00     0.000 C 
BRANCH   7   8
ATOM      8  C   UNL     1      13.003  17.741  27.303  1.00  0.00     0.004 C 
BRANCH   8   9
ATOM      9  C   UNL     1      11.727  17.741  26.447  1.00  0.00     0.027 C 
BRANCH   9  10
ATOM     10  C   UNL     1      12.018  17.549  24.983  1.00  0.00    -0.035 C 
ATOM     11  C   UNL     1      12.031  16.337  24.421  1.00  0.00     0.004 C 
ENDBRANCH   9  10
ENDBRANCH   8   9
ENDBRANCH   7   8
ENDBRANCH   1   7
TORSDOF 7
ENDMDL
MODEL 7
REMARK VINA RESULT:    -3.941      3.078      5.369
REMARK INTER + INTRA:          -6.206
REMARK INTER:                  -5.835
REMARK INTRA:                  -0.371
REMARK UNBOUND:                -0.652
REMARK SMILES C=CCCCCCCC(=O)[O-]
REMARK SMILES IDX 6 1 7 2 8 3 9 4 10 5 11 6 5 7 4 8 3 9 2 10 1 11
REMARK H PARENT
REMARK Flexibility Score: inf
ROOT
ATOM      1  C   UNL     1      12.513  15.500  26.530  1.00  0.00     0.000 C 
ENDROOT
BRANCH   1   2
ATOM      2  C   UNL     1      12.479  15.730  25.012  1.00  0.00     0.006 C 
BRANCH   2   3
ATOM      3  C   UNL     1      12.266  17.207  24.654  1.00  0.00     0.053 C 
BRANCH   3   4
ATOM      4  C   UNL     1      13.395  17.746  23.828  1.00  0.00     0.041 C 
ATOM      5  O   UNL     1      13.190  18.125  22.645  1.00  0.00    -0.550 OA
ATOM      6  O   UNL     1      14.679  17.800  24.354  1.00  0.00    -0.550 OA
ENDBRANCH   3   4
ENDBRANCH   2   3
ENDBRANCH   1   2
BRANCH   1   7
ATOM      7  C   UNL     1      12.757  16.816  27.281  1.00  0.00     0.000 C 
BRANCH   7   8
ATOM      8  C   UNL     1      14.004  16.718  28.171  1.00  0.00     0.004 C 
BRANCH   8   9
ATOM      9  C   UNL     1      13.759  15.852  29.416  1.00  0.00     0.027 C 
BRANCH   9  10
ATOM     10  C   UNL     1      14.781  14.756  29.564  1.00  0.00    -0.035 C 
ATOM     11  C   UNL     1      14.811  13.962  30.639  1.00  0.00     0.004 C 
ENDBRANCH   9  10
ENDBRANCH   8   9
ENDBRANCH   7   8
ENDBRANCH   1   7
TORSDOF 7
ENDMDL
MODEL 8
REMARK VINA RESULT:    -2.116      2.012      3.374
REMARK INTER + INTRA:          -3.634
REMARK INTER:                  -3.332
REMARK INTRA:                  -0.301
REMARK UNBOUND:                -0.652
REMARK SMILES C=CCCCCCCC(=O)[O-]
REMARK SMILES IDX 6 1 7 2 8 3 9 4 10 5 11 6 5 7 4 8 3 9 2 10 1 11
REMARK H PARENT
REMARK Flexibility Score: inf
ROOT
ATOM      1  C   UNL     1      15.382  14.787  29.322  1.00  0.00     0.000 C 
ENDROOT
BRANCH   1   2
ATOM      2  C   UNL     1      14.990  13.380  29.797  1.00  0.00     0.006 C 
BRANCH   2   3
ATOM      3  C   UNL     1      15.647  13.014  31.134  1.00  0.00     0.053 C 
BRANCH   3   4
ATOM      4  C   UNL     1      14.827  13.476  32.300  1.00  0.00     0.041 C 
ATOM      5  O   UNL     1      14.072  12.669  32.903  1.00  0.00    -0.550 OA
ATOM      6  O   UNL     1      14.873  14.805  32.702  1.00  0.00    -0.550 OA
ENDBRANCH   3   4
ENDBRANCH   2   3
ENDBRANCH   1   2
BRANCH   1   7
ATOM      7  C   UNL     1      14.139  15.661  29.108  1.00  0.00     0.000 C 
BRANCH   7   8
ATOM      8  C   UNL     1      13.629  15.545  27.664  1.00  0.00     0.004 C 
BRANCH   8   9
ATOM      9  C   UNL     1      14.643  16.090  26.646  1.00  0.00     0.027 C 
BRANCH   9  10
ATOM     10  C   UNL     1      14.034  16.307  25.287  1.00  0.00    -0.035 C 
ATOM     11  C   UNL     1      12.783  15.929  25.008  1.00  0.00     0.004 C 
ENDBRANCH   9  10
ENDBRANCH   8   9
ENDBRANCH   7   8
ENDBRANCH   1   7
TORSDOF 7
ENDMDL
