MODEL 1
REMARK VINA RESULT:    -5.614      0.000      0.000
REMARK INTER + INTRA:         -10.354
REMARK INTER:                  -9.552
REMARK INTRA:                  -0.801
REMARK UNBOUND:                -0.801
REMARK SMILES CCCCCCCCCCCCCC(=O)[O-]
REMARK SMILES IDX 8 1 9 2 10 3 11 4 12 5 13 6 14 7 15 8 16 9 7 10 6 11 5 12
REMARK SMILES IDX 4 13 3 14 2 15 1 16
REMARK H PARENT
REMARK Flexibility Score: inf
ROOT
ATOM      1  C   UNL     1      24.064 -12.278  15.839  1.00  0.00     0.000 C 
ENDROOT
BRANCH   1   2
ATOM      2  C   UNL     1      23.143 -12.348  17.074  1.00  0.00     0.000 C 
BRANCH   2   3
ATOM      3  C   UNL     1      23.817 -12.863  18.357  1.00  0.00     0.000 C 
BRANCH   3   4
ATOM      4  C   UNL     1      22.832 -13.555  19.312  1.00  0.00     0.000 C 
BRANCH   4   5
ATOM      5  C   UNL     1      22.780 -12.833  20.664  1.00  0.00     0.006 C 
BRANCH   5   6
ATOM      6  C   UNL     1      22.464 -11.346  20.482  1.00  0.00     0.053 C 
BRANCH   6   7
ATOM      7  C   UNL     1      23.392 -10.509  21.304  1.00  0.00     0.041 C 
ATOM      8  O   UNL     1      23.264 -10.465  22.555  1.00  0.00    -0.550 OA
ATOM      9  O   UNL     1      24.368  -9.740  20.683  1.00  0.00    -0.550 OA
ENDBRANCH   6   7
ENDBRANCH   5   6
ENDBRANCH   4   5
ENDBRANCH   3   4
ENDBRANCH   2   3
ENDBRANCH   1   2
BRANCH   1  10
ATOM     10  C   UNL     1      25.275 -11.332  15.976  1.00  0.00     0.000 C 
BRANCH  10  11
ATOM     11  C   UNL     1      26.164 -11.236  14.723  1.00  0.00    -0.000 C 
BRANCH  11  12
ATOM     12  C   UNL     1      27.613 -10.836  15.053  1.00  0.00    -0.000 C 
BRANCH  12  13
ATOM     13  C   UNL     1      27.699  -9.499  15.805  1.00  0.00    -0.000 C 
BRANCH  13  14
ATOM     14  C   UNL     1      28.957  -9.393  16.680  1.00  0.00    -0.000 C 
BRANCH  14  15
ATOM     15  C   UNL     1      28.597  -8.989  18.114  1.00  0.00    -0.003 C 
ATOM     16  C   UNL     1      27.405  -9.788  18.630  1.00  0.00     0.004 C 
ENDBRANCH  14  15
ENDBRANCH  13  14
ENDBRANCH  12  13
ENDBRANCH  11  12
ENDBRANCH  10  11
ENDBRANCH   1  10
TORSDOF 12
ENDMDL
MODEL 2
REMARK VINA RESULT:    -5.604      2.323      5.832
REMARK INTER + INTRA:         -10.337
REMARK INTER:                  -9.417
REMARK INTRA:                  -0.920
REMARK UNBOUND:                -0.801
REMARK SMILES CCCCCCCCCCCCCC(=O)[O-]
REMARK SMILES IDX 8 1 9 2 10 3 11 4 12 5 13 6 14 7 15 8 16 9 7 10 6 11 5 12
REMARK SMILES IDX 4 13 3 14 2 15 1 16
REMARK H PARENT
REMARK Flexibility Score: inf
ROOT
ATOM      1  C   UNL     1      25.463 -10.862  15.918  1.00  0.00     0.000 C 
ENDROOT
BRANCH   1   2
ATOM      2  C   UNL     1      26.443 -10.863  14.727  1.00  0.00     0.000 C 
BRANCH   2   3
ATOM      3  C   UNL     1      27.927 -10.997  15.109  1.00  0.00     0.000 C 
BRANCH   3   4
ATOM      4  C   UNL     1      28.133 -11.324  16.595  1.00  0.00     0.000 C 
BRANCH   4   5
ATOM      5  C   UNL     1      28.903 -10.203  17.304  1.00  0.00     0.006 C 
BRANCH   5   6
ATOM      6  C   UNL     1      27.955  -9.311  18.110  1.00  0.00     0.053 C 
BRANCH   6   7
ATOM      7  C   UNL     1      28.062  -7.889  17.658  1.00  0.00     0.041 C 
ATOM      8  O   UNL     1      27.971  -6.950  18.491  1.00  0.00    -0.550 OA
ATOM      9  O   UNL     1      28.215  -7.599  16.307  1.00  0.00    -0.550 OA
ENDBRANCH   6   7
ENDBRANCH   5   6
ENDBRANCH   4   5
ENDBRANCH   3   4
ENDBRANCH   2   3
ENDBRANCH   1   2
BRANCH   1  10
ATOM     10  C   UNL     1      24.240 -11.789  15.763  1.00  0.00     0.000 C 
BRANCH  10  11
ATOM     11  C   UNL     1      24.104 -12.867  16.854  1.00  0.00    -0.000 C 
BRANCH  11  12
ATOM     12  C   UNL     1      23.910 -12.268  18.258  1.00  0.00    -0.000 C 
BRANCH  12  13
ATOM     13  C   UNL     1      22.659 -12.814  18.964  1.00  0.00    -0.000 C 
BRANCH  13  14
ATOM     14  C   UNL     1      22.636 -12.482  20.464  1.00  0.00    -0.000 C 
BRANCH  14  15
ATOM     15  C   UNL     1      23.023 -11.020  20.710  1.00  0.00    -0.003 C 
ATOM     16  C   UNL     1      23.107 -10.714  22.201  1.00  0.00     0.004 C 
ENDBRANCH  14  15
ENDBRANCH  13  14
ENDBRANCH  12  13
ENDBRANCH  11  12
ENDBRANCH  10  11
ENDBRANCH   1  10
TORSDOF 12
ENDMDL
MODEL 3
REMARK VINA RESULT:    -5.541      1.022      2.661
REMARK INTER + INTRA:         -10.229
REMARK INTER:                  -9.049
REMARK INTRA:                  -1.180
REMARK UNBOUND:                -0.801
REMARK SMILES CCCCCCCCCCCCCC(=O)[O-]
REMARK SMILES IDX 8 1 9 2 10 3 11 4 12 5 13 6 14 7 15 8 16 9 7 10 6 11 5 12
REMARK SMILES IDX 4 13 3 14 2 15 1 16
REMARK H PARENT
REMARK Flexibility Score: inf
ROOT
ATOM      1  C   UNL     1      26.026 -11.384  17.289  1.00  0.00     0.000 C 
ENDROOT
BRANCH   1   2
ATOM      2  C   UNL     1      25.018 -11.532  16.132  1.00  0.00     0.000 C 
BRANCH   2   3
ATOM      3  C   UNL     1      23.765 -12.360  16.466  1.00  0.00     0.000 C 
BRANCH   3   4
ATOM      4  C   UNL     1      23.794 -12.940  17.888  1.00  0.00     0.000 C 
BRANCH   4   5
ATOM      5  C   UNL     1      22.607 -12.430  18.714  1.00  0.00     0.006 C 
BRANCH   5   6
ATOM      6  C   UNL     1      22.813 -12.712  20.205  1.00  0.00     0.053 C 
BRANCH   6   7
ATOM      7  C   UNL     1      22.994 -11.434  20.960  1.00  0.00     0.041 C 
ATOM      8  O   UNL     1      23.285 -10.373  20.349  1.00  0.00    -0.550 OA
ATOM      9  O   UNL     1      22.888 -11.424  22.345  1.00  0.00    -0.550 OA
ENDBRANCH   6   7
ENDBRANCH   5   6
ENDBRANCH   4   5
ENDBRANCH   3   4
ENDBRANCH   2   3
ENDBRANCH   1   2
BRANCH   1  10
ATOM     10  C   UNL     1      25.943 -10.055  18.067  1.00  0.00     0.000 C 
BRANCH  10  11
ATOM     11  C   UNL     1      27.262  -9.605  18.721  1.00  0.00    -0.000 C 
BRANCH  11  12
ATOM     12  C   UNL     1      27.897  -8.398  18.007  1.00  0.00    -0.000 C 
BRANCH  12  13
ATOM     13  C   UNL     1      29.420  -8.537  17.854  1.00  0.00    -0.000 C 
BRANCH  13  14
ATOM     14  C   UNL     1      29.816  -9.691  16.920  1.00  0.00    -0.000 C 
BRANCH  14  15
ATOM     15  C   UNL     1      29.033  -9.627  15.604  1.00  0.00    -0.003 C 
ATOM     16  C   UNL     1      28.970 -10.995  14.933  1.00  0.00     0.004 C 
ENDBRANCH  14  15
ENDBRANCH  13  14
ENDBRANCH  12  13
ENDBRANCH  11  12
ENDBRANCH  10  11
ENDBRANCH   1  10
TORSDOF 12
ENDMDL
MODEL 4
REMARK VINA RESULT:    -5.504      1.949      5.727
REMARK INTER + INTRA:         -10.167
REMARK INTER:                  -9.146
REMARK INTRA:                  -1.021
REMARK UNBOUND:                -0.801
REMARK SMILES CCCCCCCCCCCCCC(=O)[O-]
REMARK SMILES IDX 8 1 9 2 10 3 11 4 12 5 13 6 14 7 15 8 16 9 7 10 6 11 5 12
REMARK SMILES IDX 4 13 3 14 2 15 1 16
REMARK H PARENT
REMARK Flexibility Score: inf
ROOT
ATOM      1  C   UNL     1      24.124 -13.083  17.054  1.00  0.00     0.000 C 
ENDROOT
BRANCH   1   2
ATOM      2  C   UNL     1      24.045 -12.177  15.808  1.00  0.00     0.000 C 
BRANCH   2   3
ATOM      3  C   UNL     1      24.982 -10.957  15.833  1.00  0.00     0.000 C 
BRANCH   3   4
ATOM      4  C   UNL     1      26.149 -11.080  14.842  1.00  0.00     0.000 C 
BRANCH   4   5
ATOM      5  C   UNL     1      27.423 -10.446  15.413  1.00  0.00     0.006 C 
BRANCH   5   6
ATOM      6  C   UNL     1      27.392 -10.431  16.943  1.00  0.00     0.053 C 
BRANCH   6   7
ATOM      7  C   UNL     1      27.758  -9.077  17.462  1.00  0.00     0.041 C 
ATOM      8  O   UNL     1      27.449  -8.742  18.635  1.00  0.00    -0.550 OA
ATOM      9  O   UNL     1      28.399  -8.165  16.632  1.00  0.00    -0.550 OA
ENDBRANCH   6   7
ENDBRANCH   5   6
ENDBRANCH   4   5
ENDBRANCH   3   4
ENDBRANCH   2   3
ENDBRANCH   1   2
BRANCH   1  10
ATOM     10  C   UNL     1      23.123 -12.743  18.177  1.00  0.00     0.000 C 
BRANCH  10  11
ATOM     11  C   UNL     1      23.062 -13.771  19.321  1.00  0.00    -0.000 C 
BRANCH  11  12
ATOM     12  C   UNL     1      22.696 -13.134  20.673  1.00  0.00    -0.000 C 
BRANCH  12  13
ATOM     13  C   UNL     1      22.411 -11.628  20.557  1.00  0.00    -0.000 C 
BRANCH  13  14
ATOM     14  C   UNL     1      22.917 -10.836  21.772  1.00  0.00    -0.000 C 
BRANCH  14  15
ATOM     15  C   UNL     1      24.084  -9.921  21.385  1.00  0.00    -0.003 C 
ATOM     16  C   UNL     1      24.322  -9.939  19.878  1.00  0.00     0.004 C 
ENDBRANCH  14  15
ENDBRANCH  13  14
ENDBRANCH  12  13
ENDBRANCH  11  12
ENDBRANCH  10  11
ENDBRANCH   1  10
TORSDOF 12
ENDMDL
MODEL 5
REMARK VINA RESULT:    -5.348      3.131      6.559
REMARK INTER + INTRA:          -9.900
REMARK INTER:                  -9.080
REMARK INTRA:                  -0.820
REMARK UNBOUND:                -0.801
REMARK SMILES CCCCCCCCCCCCCC(=O)[O-]
REMARK SMILES IDX 8 1 9 2 10 3 11 4 12 5 13 6 14 7 15 8 16 9 7 10 6 11 5 12
REMARK SMILES IDX 4 13 3 14 2 15 1 16
REMARK H PARENT
REMARK Flexibility Score: inf
ROOT
ATOM      1  C   UNL     1      25.946 -11.172  16.269  1.00  0.00     0.000 C 
ENDROOT
BRANCH   1   2
ATOM      2  C   UNL     1      25.996 -10.373  17.587  1.00  0.00     0.000 C 
BRANCH   2   3
ATOM      3  C   UNL     1      27.411 -10.090  18.122  1.00  0.00     0.000 C 
BRANCH   3   4
ATOM      4  C   UNL     1      28.174  -9.062  17.274  1.00  0.00     0.000 C 
BRANCH   4   5
ATOM      5  C   UNL     1      29.681  -9.135  17.547  1.00  0.00     0.006 C 
BRANCH   5   6
ATOM      6  C   UNL     1      30.446  -9.571  16.294  1.00  0.00     0.053 C 
BRANCH   6   7
ATOM      7  C   UNL     1      29.989 -10.923  15.846  1.00  0.00     0.041 C 
ATOM      8  O   UNL     1      30.168 -11.929  16.581  1.00  0.00    -0.550 OA
ATOM      9  O   UNL     1      29.408 -11.081  14.593  1.00  0.00    -0.550 OA
ENDBRANCH   6   7
ENDBRANCH   5   6
ENDBRANCH   4   5
ENDBRANCH   3   4
ENDBRANCH   2   3
ENDBRANCH   1   2
BRANCH   1  10
ATOM     10  C   UNL     1      24.531 -11.481  15.741  1.00  0.00     0.000 C 
BRANCH  10  11
ATOM     11  C   UNL     1      23.880 -12.743  16.337  1.00  0.00    -0.000 C 
BRANCH  11  12
ATOM     12  C   UNL     1      23.004 -12.435  17.564  1.00  0.00    -0.000 C 
BRANCH  12  13
ATOM     13  C   UNL     1      23.489 -13.158  18.831  1.00  0.00    -0.000 C 
BRANCH  13  14
ATOM     14  C   UNL     1      22.695 -12.752  20.082  1.00  0.00    -0.000 C 
BRANCH  14  15
ATOM     15  C   UNL     1      23.035 -11.320  20.509  1.00  0.00    -0.003 C 
ATOM     16  C   UNL     1      22.902 -11.147  22.018  1.00  0.00     0.004 C 
ENDBRANCH  14  15
ENDBRANCH  13  14
ENDBRANCH  12  13
ENDBRANCH  11  12
ENDBRANCH  10  11
ENDBRANCH   1  10
TORSDOF 12
ENDMDL
MODEL 6
REMARK VINA RESULT:    -5.317      3.434      6.885
REMARK INTER + INTRA:          -9.849
REMARK INTER:                  -9.185
REMARK INTRA:                  -0.664
REMARK UNBOUND:                -0.801
REMARK SMILES CCCCCCCCCCCCCC(=O)[O-]
REMARK SMILES IDX 8 1 9 2 10 3 11 4 12 5 13 6 14 7 15 8 16 9 7 10 6 11 5 12
REMARK SMILES IDX 4 13 3 14 2 15 1 16
REMARK H PARENT
REMARK Flexibility Score: inf
ROOT
ATOM      1  C   UNL     1      25.230 -11.244  15.382  1.00  0.00     0.000 C 
ENDROOT
BRANCH   1   2
ATOM      2  C   UNL     1      26.679 -10.814  15.078  1.00  0.00     0.000 C 
BRANCH   2   3
ATOM      3  C   UNL     1      27.571 -10.620  16.316  1.00  0.00     0.000 C 
BRANCH   3   4
ATOM      4  C   UNL     1      28.880 -11.420  16.240  1.00  0.00     0.000 C 
BRANCH   4   5
ATOM      5  C   UNL     1      29.925 -10.684  15.392  1.00  0.00     0.006 C 
BRANCH   5   6
ATOM      6  C   UNL     1      30.847  -9.835  16.272  1.00  0.00     0.053 C 
BRANCH   6   7
ATOM      7  C   UNL     1      30.519  -8.383  16.124  1.00  0.00     0.041 C 
ATOM      8  O   UNL     1      29.766  -7.995  15.194  1.00  0.00    -0.550 OA
ATOM      9  O   UNL     1      31.086  -7.451  16.985  1.00  0.00    -0.550 OA
ENDBRANCH   6   7
ENDBRANCH   5   6
ENDBRANCH   4   5
ENDBRANCH   3   4
ENDBRANCH   2   3
ENDBRANCH   1   2
BRANCH   1  10
ATOM     10  C   UNL     1      24.901 -11.435  16.877  1.00  0.00     0.000 C 
BRANCH  10  11
ATOM     11  C   UNL     1      23.999 -12.643  17.191  1.00  0.00    -0.000 C 
BRANCH  11  12
ATOM     12  C   UNL     1      22.943 -12.331  18.266  1.00  0.00    -0.000 C 
BRANCH  12  13
ATOM     13  C   UNL     1      22.952 -13.352  19.415  1.00  0.00    -0.000 C 
BRANCH  13  14
ATOM     14  C   UNL     1      22.692 -12.703  20.783  1.00  0.00    -0.000 C 
BRANCH  14  15
ATOM     15  C   UNL     1      23.017 -11.205  20.751  1.00  0.00    -0.003 C 
ATOM     16  C   UNL     1      23.058 -10.620  22.159  1.00  0.00     0.004 C 
ENDBRANCH  14  15
ENDBRANCH  13  14
ENDBRANCH  12  13
ENDBRANCH  11  12
ENDBRANCH  10  11
ENDBRANCH   1  10
TORSDOF 12
ENDMDL
MODEL 7
REMARK VINA RESULT:    -5.258      1.394      2.291
REMARK INTER + INTRA:          -9.748
REMARK INTER:                  -8.916
REMARK INTRA:                  -0.832
REMARK UNBOUND:                -0.801
REMARK SMILES CCCCCCCCCCCCCC(=O)[O-]
REMARK SMILES IDX 8 1 9 2 10 3 11 4 12 5 13 6 14 7 15 8 16 9 7 10 6 11 5 12
REMARK SMILES IDX 4 13 3 14 2 15 1 16
REMARK H PARENT
REMARK Flexibility Score: inf
ROOT
ATOM      1  C   UNL     1      25.945 -11.093  14.989  1.00  0.00     0.000 C 
ENDROOT
BRANCH   1   2
ATOM      2  C   UNL     1      24.702 -11.630  15.728  1.00  0.00     0.000 C 
BRANCH   2   3
ATOM      3  C   UNL     1      24.868 -11.783  17.250  1.00  0.00     0.000 C 
BRANCH   3   4
ATOM      4  C   UNL     1      24.051 -12.949  17.825  1.00  0.00     0.000 C 
BRANCH   4   5
ATOM      5  C   UNL     1      22.769 -12.444  18.497  1.00  0.00     0.006 C 
BRANCH   5   6
ATOM      6  C   UNL     1      22.774 -12.757  19.996  1.00  0.00     0.053 C 
BRANCH   6   7
ATOM      7  C   UNL     1      22.968 -11.505  20.792  1.00  0.00     0.041 C 
ATOM      8  O   UNL     1      23.373 -10.454  20.231  1.00  0.00    -0.550 OA
ATOM      9  O   UNL     1      22.749 -11.513  22.164  1.00  0.00    -0.550 OA
ENDBRANCH   6   7
ENDBRANCH   5   6
ENDBRANCH   4   5
ENDBRANCH   3   4
ENDBRANCH   2   3
ENDBRANCH   1   2
BRANCH   1  10
ATOM     10  C   UNL     1      26.991 -10.397  15.884  1.00  0.00     0.000 C 
BRANCH  10  11
ATOM     11  C   UNL     1      28.280 -11.205  16.119  1.00  0.00    -0.000 C 
BRANCH  11  12
ATOM     12  C   UNL     1      29.335 -10.971  15.024  1.00  0.00    -0.000 C 
BRANCH  12  13
ATOM     13  C   UNL     1      30.496 -10.085  15.503  1.00  0.00    -0.000 C 
BRANCH  13  14
ATOM     14  C   UNL     1      30.213  -8.587  15.315  1.00  0.00    -0.000 C 
BRANCH  14  15
ATOM     15  C   UNL     1      30.273  -7.845  16.655  1.00  0.00    -0.003 C 
ATOM     16  C   UNL     1      30.649  -8.789  17.792  1.00  0.00     0.004 C 
ENDBRANCH  14  15
ENDBRANCH  13  14
ENDBRANCH  12  13
ENDBRANCH  11  12
ENDBRANCH  10  11
ENDBRANCH   1  10
TORSDOF 12
ENDMDL
MODEL 8
REMARK VINA RESULT:    -5.150      3.327      6.856
REMARK INTER + INTRA:          -9.565
REMARK INTER:                  -8.514
REMARK INTRA:                  -1.051
REMARK UNBOUND:                -0.801
REMARK SMILES CCCCCCCCCCCCCC(=O)[O-]
REMARK SMILES IDX 8 1 9 2 10 3 11 4 12 5 13 6 14 7 15 8 16 9 7 10 6 11 5 12
REMARK SMILES IDX 4 13 3 14 2 15 1 16
REMARK H PARENT
REMARK Flexibility Score: inf
ROOT
ATOM      1  C   UNL     1      24.914  -9.749  19.412  1.00  0.00     0.000 C 
ENDROOT
BRANCH   1   2
ATOM      2  C   UNL     1      26.445  -9.613  19.533  1.00  0.00     0.000 C 
BRANCH   2   3
ATOM      3  C   UNL     1      27.208  -9.661  18.197  1.00  0.00     0.000 C 
BRANCH   3   4
ATOM      4  C   UNL     1      27.007 -10.983  17.443  1.00  0.00     0.000 C 
BRANCH   4   5
ATOM      5  C   UNL     1      28.317 -11.453  16.799  1.00  0.00     0.006 C 
BRANCH   5   6
ATOM      6  C   UNL     1      28.546 -10.763  15.452  1.00  0.00     0.053 C 
BRANCH   6   7
ATOM      7  C   UNL     1      29.775  -9.911  15.503  1.00  0.00     0.041 C 
ATOM      8  O   UNL     1      29.682  -8.660  15.401  1.00  0.00    -0.550 OA
ATOM      9  O   UNL     1      31.027 -10.502  15.615  1.00  0.00    -0.550 OA
ENDBRANCH   6   7
ENDBRANCH   5   6
ENDBRANCH   4   5
ENDBRANCH   3   4
ENDBRANCH   2   3
ENDBRANCH   1   2
BRANCH   1  10
ATOM     10  C   UNL     1      24.176 -10.069  20.728  1.00  0.00     0.000 C 
BRANCH  10  11
ATOM     11  C   UNL     1      22.800 -10.736  20.552  1.00  0.00    -0.000 C 
BRANCH  11  12
ATOM     12  C   UNL     1      22.772 -12.183  21.073  1.00  0.00    -0.000 C 
BRANCH  12  13
ATOM     13  C   UNL     1      22.807 -13.220  19.939  1.00  0.00    -0.000 C 
BRANCH  13  14
ATOM     14  C   UNL     1      22.648 -12.582  18.551  1.00  0.00    -0.000 C 
BRANCH  14  15
ATOM     15  C   UNL     1      23.864 -12.879  17.667  1.00  0.00    -0.003 C 
ATOM     16  C   UNL     1      23.551 -12.628  16.195  1.00  0.00     0.004 C 
ENDBRANCH  14  15
ENDBRANCH  13  14
ENDBRANCH  12  13
ENDBRANCH  11  12
ENDBRANCH  10  11
ENDBRANCH   1  10
TORSDOF 12
ENDMDL
MODEL 9
REMARK VINA RESULT:    -5.059      2.890      6.829
REMARK INTER + INTRA:          -9.410
REMARK INTER:                  -8.817
REMARK INTRA:                  -0.593
REMARK UNBOUND:                -0.801
REMARK SMILES CCCCCCCCCCCCCC(=O)[O-]
REMARK SMILES IDX 8 1 9 2 10 3 11 4 12 5 13 6 14 7 15 8 16 9 7 10 6 11 5 12
REMARK SMILES IDX 4 13 3 14 2 15 1 16
REMARK H PARENT
REMARK Flexibility Score: inf
ROOT
ATOM      1  C   UNL     1      26.793 -11.076  16.966  1.00  0.00     0.000 C 
ENDROOT
BRANCH   1   2
ATOM      2  C   UNL     1      27.700 -10.711  15.774  1.00  0.00     0.000 C 
BRANCH   2   3
ATOM      3  C   UNL     1      29.203 -10.945  16.006  1.00  0.00     0.000 C 
BRANCH   3   4
ATOM      4  C   UNL     1      30.080  -9.835  15.407  1.00  0.00     0.000 C 
BRANCH   4   5
ATOM      5  C   UNL     1      31.341  -9.616  16.250  1.00  0.00     0.006 C 
BRANCH   5   6
ATOM      6  C   UNL     1      30.991  -9.041  17.625  1.00  0.00     0.053 C 
BRANCH   6   7
ATOM      7  C   UNL     1      30.302  -7.721  17.480  1.00  0.00     0.041 C 
ATOM      8  O   UNL     1      29.116  -7.578  17.877  1.00  0.00    -0.550 OA
ATOM      9  O   UNL     1      30.954  -6.661  16.861  1.00  0.00    -0.550 OA
ENDBRANCH   6   7
ENDBRANCH   5   6
ENDBRANCH   4   5
ENDBRANCH   3   4
ENDBRANCH   2   3
ENDBRANCH   1   2
BRANCH   1  10
ATOM     10  C   UNL     1      25.296 -10.760  16.773  1.00  0.00     0.000 C 
BRANCH  10  11
ATOM     11  C   UNL     1      24.581 -11.634  15.727  1.00  0.00    -0.000 C 
BRANCH  11  12
ATOM     12  C   UNL     1      23.646 -12.677  16.364  1.00  0.00    -0.000 C 
BRANCH  12  13
ATOM     13  C   UNL     1      23.882 -12.837  17.875  1.00  0.00    -0.000 C 
BRANCH  13  14
ATOM     14  C   UNL     1      22.636 -12.499  18.706  1.00  0.00    -0.000 C 
BRANCH  14  15
ATOM     15  C   UNL     1      22.715 -13.136  20.098  1.00  0.00    -0.003 C 
ATOM     16  C   UNL     1      22.619 -12.081  21.195  1.00  0.00     0.004 C 
ENDBRANCH  14  15
ENDBRANCH  13  14
ENDBRANCH  12  13
ENDBRANCH  11  12
ENDBRANCH  10  11
ENDBRANCH   1  10
TORSDOF 12
ENDMDL
