MODEL 1
REMARK VINA RESULT:    -3.492      0.000      0.000
REMARK INTER + INTRA:          -4.109
REMARK INTER:                  -3.900
REMARK INTRA:                  -0.209
REMARK UNBOUND:                -0.209
REMARK SMILES O=C([O-])c1ccccc1C(=O)[O-]
REMARK SMILES IDX 4 1 9 2 5 3 8 4 6 5 7 6 2 7 1 8 3 9 10 10 11 11 12 12
REMARK H PARENT
REMARK Flexibility Score: inf
ROOT
ATOM      1  C   UNL     1     -10.773  30.030   9.025  1.00  0.00     0.006 A 
ATOM      2  C   UNL     1     -11.408  29.918  10.294  1.00  0.00     0.006 A 
ATOM      3  C   UNL     1     -11.546  30.368   7.900  1.00  0.00     0.010 A 
ATOM      4  C   UNL     1     -12.780  30.213  10.400  1.00  0.00     0.010 A 
ATOM      5  C   UNL     1     -12.909  30.636   8.025  1.00  0.00     0.001 A 
ATOM      6  C   UNL     1     -13.522  30.570   9.275  1.00  0.00     0.001 A 
ENDROOT
BRANCH   1   7
ATOM      7  C   UNL     1      -9.311  29.872   8.838  1.00  0.00     0.072 C 
ATOM      8  O   UNL     1      -8.520  30.808   9.126  1.00  0.00    -0.545 OA
ATOM      9  O   UNL     1      -8.803  28.707   8.274  1.00  0.00    -0.545 OA
ENDBRANCH   1   7
BRANCH   2  10
ATOM     10  C   UNL     1     -10.709  29.436  11.508  1.00  0.00     0.072 C 
ATOM     11  O   UNL     1     -10.278  30.248  12.369  1.00  0.00    -0.545 OA
ATOM     12  O   UNL     1     -10.461  28.079  11.677  1.00  0.00    -0.545 OA
ENDBRANCH   2  10
TORSDOF 2
ENDMDL
MODEL 2
REMARK VINA RESULT:    -3.469      0.112      2.879
REMARK INTER + INTRA:          -4.084
REMARK INTER:                  -3.881
REMARK INTRA:                  -0.203
REMARK UNBOUND:                -0.209
REMARK SMILES O=C([O-])c1ccccc1C(=O)[O-]
REMARK SMILES IDX 4 1 9 2 5 3 8 4 6 5 7 6 2 7 1 8 3 9 10 10 11 11 12 12
REMARK H PARENT
REMARK Flexibility Score: inf
ROOT
ATOM      1  C   UNL     1     -11.394  29.919  10.394  1.00  0.00     0.006 A 
ATOM      2  C   UNL     1     -10.751  30.009   9.127  1.00  0.00     0.006 A 
ATOM      3  C   UNL     1     -12.758  30.249  10.494  1.00  0.00     0.010 A 
ATOM      4  C   UNL     1     -11.513  30.361   7.997  1.00  0.00     0.010 A 
ATOM      5  C   UNL     1     -13.488  30.617   9.364  1.00  0.00     0.001 A 
ATOM      6  C   UNL     1     -12.870  30.661   8.117  1.00  0.00     0.001 A 
ENDROOT
BRANCH   1   7
ATOM      7  C   UNL     1     -10.710  29.426  11.613  1.00  0.00     0.072 C 
ATOM      8  O   UNL     1     -10.302  30.230  12.492  1.00  0.00    -0.545 OA
ATOM      9  O   UNL     1     -10.450  28.069  11.765  1.00  0.00    -0.545 OA
ENDBRANCH   1   7
BRANCH   2  10
ATOM     10  C   UNL     1      -9.294  29.815   8.944  1.00  0.00     0.072 C 
ATOM     11  O   UNL     1      -8.480  30.729   9.240  1.00  0.00    -0.545 OA
ATOM     12  O   UNL     1      -8.813  28.640   8.378  1.00  0.00    -0.545 OA
ENDBRANCH   2  10
TORSDOF 2
ENDMDL
MODEL 3
REMARK VINA RESULT:    -3.350     20.420     20.816
REMARK INTER + INTRA:          -3.951
REMARK INTER:                  -3.840
REMARK INTRA:                  -0.111
REMARK UNBOUND:                -0.209
REMARK SMILES O=C([O-])c1ccccc1C(=O)[O-]
REMARK SMILES IDX 4 1 9 2 5 3 8 4 6 5 7 6 2 7 1 8 3 9 10 10 11 11 12 12
REMARK H PARENT
REMARK Flexibility Score: inf
ROOT
ATOM      1  C   UNL     1      -0.653  12.200   6.363  1.00  0.00     0.006 A 
ATOM      2  C   UNL     1      -1.392  11.557   7.396  1.00  0.00     0.006 A 
ATOM      3  C   UNL     1      -1.119  12.123   5.038  1.00  0.00     0.010 A 
ATOM      4  C   UNL     1      -2.604  10.920   7.073  1.00  0.00     0.010 A 
ATOM      5  C   UNL     1      -2.313  11.467   4.738  1.00  0.00     0.001 A 
ATOM      6  C   UNL     1      -3.060  10.876   5.756  1.00  0.00     0.001 A 
ENDROOT
BRANCH   1   7
ATOM      7  C   UNL     1       0.560  13.011   6.623  1.00  0.00     0.072 C 
ATOM      8  O   UNL     1       0.469  14.230   6.920  1.00  0.00    -0.545 OA
ATOM      9  O   UNL     1       1.822  12.444   6.473  1.00  0.00    -0.545 OA
ENDBRANCH   1   7
BRANCH   2  10
ATOM     10  C   UNL     1      -0.914  11.466   8.795  1.00  0.00     0.072 C 
ATOM     11  O   UNL     1      -1.578  11.972   9.738  1.00  0.00    -0.545 OA
ATOM     12  O   UNL     1       0.313  10.875   9.074  1.00  0.00    -0.545 OA
ENDBRANCH   2  10
TORSDOF 2
ENDMDL
MODEL 4
REMARK VINA RESULT:    -3.342     20.456     21.041
REMARK INTER + INTRA:          -3.943
REMARK INTER:                  -3.863
REMARK INTRA:                  -0.080
REMARK UNBOUND:                -0.209
REMARK SMILES O=C([O-])c1ccccc1C(=O)[O-]
REMARK SMILES IDX 4 1 9 2 5 3 8 4 6 5 7 6 2 7 1 8 3 9 10 10 11 11 12 12
REMARK H PARENT
REMARK Flexibility Score: inf
ROOT
ATOM      1  C   UNL     1      -1.337  11.534   7.367  1.00  0.00     0.006 A 
ATOM      2  C   UNL     1      -0.584  12.198   6.357  1.00  0.00     0.006 A 
ATOM      3  C   UNL     1      -2.544  10.903   7.016  1.00  0.00     0.010 A 
ATOM      4  C   UNL     1      -1.033  12.147   5.025  1.00  0.00     0.010 A 
ATOM      5  C   UNL     1      -2.982  10.884   5.692  1.00  0.00     0.001 A 
ATOM      6  C   UNL     1      -2.222  11.495   4.696  1.00  0.00     0.001 A 
ENDROOT
BRANCH   1   7
ATOM      7  C   UNL     1      -0.877  11.416   8.770  1.00  0.00     0.072 C 
ATOM      8  O   UNL     1       0.228  10.877   9.043  1.00  0.00    -0.545 OA
ATOM      9  O   UNL     1      -1.697  11.840   9.810  1.00  0.00    -0.545 OA
ENDBRANCH   1   7
BRANCH   2  10
ATOM     10  C   UNL     1       0.625  13.004   6.649  1.00  0.00     0.072 C 
ATOM     11  O   UNL     1       0.527  14.213   6.985  1.00  0.00    -0.545 OA
ATOM     12  O   UNL     1       1.888  12.447   6.487  1.00  0.00    -0.545 OA
ENDBRANCH   2  10
TORSDOF 2
ENDMDL
MODEL 5
REMARK VINA RESULT:    -3.338     20.573     21.152
REMARK INTER + INTRA:          -3.937
REMARK INTER:                  -3.729
REMARK INTRA:                  -0.208
REMARK UNBOUND:                -0.209
REMARK SMILES O=C([O-])c1ccccc1C(=O)[O-]
REMARK SMILES IDX 4 1 9 2 5 3 8 4 6 5 7 6 2 7 1 8 3 9 10 10 11 11 12 12
REMARK H PARENT
REMARK Flexibility Score: inf
ROOT
ATOM      1  C   UNL     1      -0.209  12.096   7.102  1.00  0.00     0.006 A 
ATOM      2  C   UNL     1      -1.258  11.771   6.197  1.00  0.00     0.006 A 
ATOM      3  C   UNL     1      -0.385  11.840   8.474  1.00  0.00     0.010 A 
ATOM      4  C   UNL     1      -2.416  11.141   6.690  1.00  0.00     0.010 A 
ATOM      5  C   UNL     1      -1.551  11.234   8.944  1.00  0.00     0.001 A 
ATOM      6  C   UNL     1      -2.559  10.875   8.051  1.00  0.00     0.001 A 
ENDROOT
BRANCH   1   7
ATOM      7  C   UNL     1       1.099  12.635   6.662  1.00  0.00     0.072 C 
ATOM      8  O   UNL     1       1.285  13.876   6.565  1.00  0.00    -0.545 OA
ATOM      9  O   UNL     1       2.118  11.767   6.283  1.00  0.00    -0.545 OA
ENDBRANCH   1   7
BRANCH   2  10
ATOM     10  C   UNL     1      -1.224  12.126   4.759  1.00  0.00     0.072 C 
ATOM     11  O   UNL     1      -0.993  11.249   3.884  1.00  0.00    -0.545 OA
ATOM     12  O   UNL     1      -1.379  13.449   4.364  1.00  0.00    -0.545 OA
ENDBRANCH   2  10
TORSDOF 2
ENDMDL
MODEL 6
REMARK VINA RESULT:    -3.325     20.434     21.090
REMARK INTER + INTRA:          -3.923
REMARK INTER:                  -3.718
REMARK INTRA:                  -0.205
REMARK UNBOUND:                -0.209
REMARK SMILES O=C([O-])c1ccccc1C(=O)[O-]
REMARK SMILES IDX 4 1 9 2 5 3 8 4 6 5 7 6 2 7 1 8 3 9 10 10 11 11 12 12
REMARK H PARENT
REMARK Flexibility Score: inf
ROOT
ATOM      1  C   UNL     1      -1.216  11.856   6.295  1.00  0.00     0.006 A 
ATOM      2  C   UNL     1      -0.133  12.099   7.187  1.00  0.00     0.006 A 
ATOM      3  C   UNL     1      -2.374  11.223   6.782  1.00  0.00     0.010 A 
ATOM      4  C   UNL     1      -0.277  11.760   8.545  1.00  0.00     0.010 A 
ATOM      5  C   UNL     1      -2.485  10.875   8.128  1.00  0.00     0.001 A 
ATOM      6  C   UNL     1      -1.443  11.154   9.010  1.00  0.00     0.001 A 
ENDROOT
BRANCH   1   7
ATOM      7  C   UNL     1      -1.213  12.300   4.881  1.00  0.00     0.072 C 
ATOM      8  O   UNL     1      -1.002  11.480   3.949  1.00  0.00    -0.545 OA
ATOM      9  O   UNL     1      -1.375  13.647   4.574  1.00  0.00    -0.545 OA
ENDBRANCH   1   7
BRANCH   2  10
ATOM     10  C   UNL     1       1.175  12.634   6.742  1.00  0.00     0.072 C 
ATOM     11  O   UNL     1       1.369  13.876   6.657  1.00  0.00    -0.545 OA
ATOM     12  O   UNL     1       2.185  11.765   6.348  1.00  0.00    -0.545 OA
ENDBRANCH   2  10
TORSDOF 2
ENDMDL
MODEL 7
REMARK VINA RESULT:    -3.314     20.249     20.851
REMARK INTER + INTRA:          -3.911
REMARK INTER:                  -3.982
REMARK INTRA:                   0.070
REMARK UNBOUND:                -0.209
REMARK SMILES O=C([O-])c1ccccc1C(=O)[O-]
REMARK SMILES IDX 4 1 9 2 5 3 8 4 6 5 7 6 2 7 1 8 3 9 10 10 11 11 12 12
REMARK H PARENT
REMARK Flexibility Score: inf
ROOT
ATOM      1  C   UNL     1       0.026  12.717   7.980  1.00  0.00     0.006 A 
ATOM      2  C   UNL     1      -1.054  11.796   7.878  1.00  0.00     0.006 A 
ATOM      3  C   UNL     1       0.430  13.160   9.253  1.00  0.00     0.010 A 
ATOM      4  C   UNL     1      -1.645  11.303   9.056  1.00  0.00     0.010 A 
ATOM      5  C   UNL     1      -0.185  12.674  10.407  1.00  0.00     0.001 A 
ATOM      6  C   UNL     1      -1.213  11.738  10.308  1.00  0.00     0.001 A 
ENDROOT
BRANCH   1   7
ATOM      7  C   UNL     1       0.800  13.188   6.807  1.00  0.00     0.072 C 
ATOM      8  O   UNL     1       0.329  14.063   6.034  1.00  0.00    -0.545 OA
ATOM      9  O   UNL     1       2.031  12.614   6.509  1.00  0.00    -0.545 OA
ENDBRANCH   1   7
BRANCH   2  10
ATOM     10  C   UNL     1      -1.640  11.378   6.583  1.00  0.00     0.072 C 
ATOM     11  O   UNL     1      -2.885  11.412   6.397  1.00  0.00    -0.545 OA
ATOM     12  O   UNL     1      -0.821  10.876   5.579  1.00  0.00    -0.545 OA
ENDBRANCH   2  10
TORSDOF 2
ENDMDL
MODEL 8
REMARK VINA RESULT:    -3.261     20.244     20.936
REMARK INTER + INTRA:          -3.852
REMARK INTER:                  -3.992
REMARK INTRA:                   0.140
REMARK UNBOUND:                -0.209
REMARK SMILES O=C([O-])c1ccccc1C(=O)[O-]
REMARK SMILES IDX 4 1 9 2 5 3 8 4 6 5 7 6 2 7 1 8 3 9 10 10 11 11 12 12
REMARK H PARENT
REMARK Flexibility Score: inf
ROOT
ATOM      1  C   UNL     1      -1.128  11.731   7.858  1.00  0.00     0.006 A 
ATOM      2  C   UNL     1      -0.058  12.663   7.970  1.00  0.00     0.006 A 
ATOM      3  C   UNL     1      -1.730  11.236   9.028  1.00  0.00     0.010 A 
ATOM      4  C   UNL     1       0.324  13.115   9.247  1.00  0.00     0.010 A 
ATOM      5  C   UNL     1      -1.321  11.681  10.285  1.00  0.00     0.001 A 
ATOM      6  C   UNL     1      -0.304  12.628  10.394  1.00  0.00     0.001 A 
ENDROOT
BRANCH   1   7
ATOM      7  C   UNL     1      -1.691  11.302   6.555  1.00  0.00     0.072 C 
ATOM      8  O   UNL     1      -2.936  11.256   6.375  1.00  0.00    -0.545 OA
ATOM      9  O   UNL     1      -0.844  10.876   5.538  1.00  0.00    -0.545 OA
ENDBRANCH   1   7
BRANCH   2  10
ATOM     10  C   UNL     1       0.728  13.137   6.806  1.00  0.00     0.072 C 
ATOM     11  O   UNL     1       0.242  13.970   5.996  1.00  0.00    -0.545 OA
ATOM     12  O   UNL     1       1.990  12.612   6.559  1.00  0.00    -0.545 OA
ENDBRANCH   2  10
TORSDOF 2
ENDMDL
MODEL 9
REMARK VINA RESULT:    -3.180      2.167      3.043
REMARK INTER + INTRA:          -3.761
REMARK INTER:                  -3.698
REMARK INTRA:                  -0.063
REMARK UNBOUND:                -0.209
REMARK SMILES O=C([O-])c1ccccc1C(=O)[O-]
REMARK SMILES IDX 4 1 9 2 5 3 8 4 6 5 7 6 2 7 1 8 3 9 10 10 11 11 12 12
REMARK H PARENT
REMARK Flexibility Score: inf
ROOT
ATOM      1  C   UNL     1     -10.341  29.386  11.520  1.00  0.00     0.006 A 
ATOM      2  C   UNL     1     -11.570  30.020  11.857  1.00  0.00     0.006 A 
ATOM      3  C   UNL     1     -10.100  29.029  10.181  1.00  0.00     0.010 A 
ATOM      4  C   UNL     1     -12.481  30.333  10.832  1.00  0.00     0.010 A 
ATOM      5  C   UNL     1     -11.027  29.330   9.184  1.00  0.00     0.001 A 
ATOM      6  C   UNL     1     -12.210  29.991   9.507  1.00  0.00     0.001 A 
ENDROOT
BRANCH   1   7
ATOM      7  C   UNL     1      -9.263  29.139  12.506  1.00  0.00     0.072 C 
ATOM      8  O   UNL     1      -9.291  28.125  13.252  1.00  0.00    -0.545 OA
ATOM      9  O   UNL     1      -8.239  30.067  12.666  1.00  0.00    -0.545 OA
ENDBRANCH   1   7
BRANCH   2  10
ATOM     10  C   UNL     1     -11.973  30.310  13.253  1.00  0.00     0.072 C 
ATOM     11  O   UNL     1     -11.320  31.125  13.957  1.00  0.00    -0.545 OA
ATOM     12  O   UNL     1     -13.043  29.631  13.824  1.00  0.00    -0.545 OA
ENDBRANCH   2  10
TORSDOF 2
ENDMDL
