MODEL 1
REMARK VINA RESULT:    -4.369      0.000      0.000
REMARK INTER + INTRA:          -4.369
REMARK INTER:                  -4.369
REMARK INTRA:                   0.000
REMARK UNBOUND:                 0.000
REMARK SMILES CC(C)=C1CC[C@H](C)CC1=O
REMARK SMILES IDX 8 1 7 2 6 3 5 4 4 5 2 6 1 7 3 8 10 9 11 10 9 11
REMARK H PARENT
REMARK Flexibility Score: inf
ROOT
ATOM      1  C   UNL     1     -24.877  -7.043  -8.414  1.00  0.00     0.008 C 
ATOM      2  C   UNL     1     -24.235  -8.419  -8.623  1.00  0.00    -0.006 C 
ATOM      3  C   UNL     1     -23.176  -8.357  -9.736  1.00  0.00     0.008 C 
ATOM      4  C   UNL     1     -22.595  -9.746 -10.029  1.00  0.00     0.039 C 
ATOM      5  C   UNL     1     -22.085 -10.442  -8.775  1.00  0.00    -0.006 C 
ATOM      6  C   UNL     1     -21.025 -11.301  -8.821  1.00  0.00    -0.070 C 
ATOM      7  C   UNL     1     -20.322 -11.610 -10.124  1.00  0.00     0.039 C 
ATOM      8  C   UNL     1     -20.474 -11.954  -7.574  1.00  0.00     0.039 C 
ATOM      9  C   UNL     1     -22.882 -10.220  -7.532  1.00  0.00     0.159 C 
ATOM     10  O   UNL     1     -22.978 -11.113  -6.646  1.00  0.00    -0.295 OA
ATOM     11  C   UNL     1     -23.597  -8.918  -7.319  1.00  0.00     0.084 C 
ENDROOT
TORSDOF 0
ENDMDL
MODEL 2
REMARK VINA RESULT:    -4.108      2.169      3.730
REMARK INTER + INTRA:          -4.108
REMARK INTER:                  -4.108
REMARK INTRA:                   0.000
REMARK UNBOUND:                 0.000
REMARK SMILES CC(C)=C1CC[C@H](C)CC1=O
REMARK SMILES IDX 8 1 7 2 6 3 5 4 4 5 2 6 1 7 3 8 10 9 11 10 9 11
REMARK H PARENT
REMARK Flexibility Score: inf
ROOT
ATOM      1  C   UNL     1     -24.844 -11.663  -4.015  1.00  0.00     0.008 C 
ATOM      2  C   UNL     1     -23.964 -10.953  -5.050  1.00  0.00    -0.006 C 
ATOM      3  C   UNL     1     -23.485 -11.946  -6.122  1.00  0.00     0.008 C 
ATOM      4  C   UNL     1     -22.521 -11.277  -7.110  1.00  0.00     0.039 C 
ATOM      5  C   UNL     1     -23.092  -9.999  -7.710  1.00  0.00    -0.006 C 
ATOM      6  C   UNL     1     -22.774  -9.606  -8.977  1.00  0.00    -0.070 C 
ATOM      7  C   UNL     1     -21.825 -10.414  -9.834  1.00  0.00     0.039 C 
ATOM      8  C   UNL     1     -23.379  -8.370  -9.603  1.00  0.00     0.039 C 
ATOM      9  C   UNL     1     -23.917  -9.157  -6.793  1.00  0.00     0.159 C 
ATOM     10  O   UNL     1     -23.941  -7.901  -6.901  1.00  0.00    -0.295 OA
ATOM     11  C   UNL     1     -24.733  -9.800  -5.710  1.00  0.00     0.084 C 
ENDROOT
TORSDOF 0
ENDMDL
MODEL 3
REMARK VINA RESULT:    -4.093      2.359      4.631
REMARK INTER + INTRA:          -4.093
REMARK INTER:                  -4.093
REMARK INTRA:                   0.000
REMARK UNBOUND:                 0.000
REMARK SMILES CC(C)=C1CC[C@H](C)CC1=O
REMARK SMILES IDX 8 1 7 2 6 3 5 4 4 5 2 6 1 7 3 8 10 9 11 10 9 11
REMARK H PARENT
REMARK Flexibility Score: inf
ROOT
ATOM      1  C   UNL     1     -20.983 -11.215  -9.315  1.00  0.00     0.008 C 
ATOM      2  C   UNL     1     -22.227 -11.202  -8.420  1.00  0.00    -0.006 C 
ATOM      3  C   UNL     1     -21.997 -12.058  -7.163  1.00  0.00     0.008 C 
ATOM      4  C   UNL     1     -23.266 -12.140  -6.305  1.00  0.00     0.039 C 
ATOM      5  C   UNL     1     -23.842 -10.768  -5.981  1.00  0.00    -0.006 C 
ATOM      6  C   UNL     1     -24.500 -10.534  -4.808  1.00  0.00    -0.070 C 
ATOM      7  C   UNL     1     -24.701 -11.632  -3.789  1.00  0.00     0.039 C 
ATOM      8  C   UNL     1     -25.026  -9.162  -4.451  1.00  0.00     0.039 C 
ATOM      9  C   UNL     1     -23.744  -9.744  -7.064  1.00  0.00     0.159 C 
ATOM     10  O   UNL     1     -24.625  -8.853  -7.204  1.00  0.00    -0.295 OA
ATOM     11  C   UNL     1     -22.585  -9.765  -8.017  1.00  0.00     0.084 C 
ENDROOT
TORSDOF 0
ENDMDL
MODEL 4
REMARK VINA RESULT:    -3.987      1.652      4.316
REMARK INTER + INTRA:          -3.987
REMARK INTER:                  -3.987
REMARK INTRA:                   0.000
REMARK UNBOUND:                 0.000
REMARK SMILES CC(C)=C1CC[C@H](C)CC1=O
REMARK SMILES IDX 8 1 7 2 6 3 5 4 4 5 2 6 1 7 3 8 10 9 11 10 9 11
REMARK H PARENT
REMARK Flexibility Score: inf
ROOT
ATOM      1  C   UNL     1     -19.848 -12.218  -8.627  1.00  0.00     0.008 C 
ATOM      2  C   UNL     1     -20.927 -11.445  -7.861  1.00  0.00    -0.006 C 
ATOM      3  C   UNL     1     -21.739 -10.559  -8.819  1.00  0.00     0.008 C 
ATOM      4  C   UNL     1     -22.757  -9.701  -8.056  1.00  0.00     0.039 C 
ATOM      5  C   UNL     1     -23.642 -10.528  -7.132  1.00  0.00    -0.006 C 
ATOM      6  C   UNL     1     -24.932 -10.164  -6.873  1.00  0.00    -0.070 C 
ATOM      7  C   UNL     1     -25.532  -8.915  -7.479  1.00  0.00     0.039 C 
ATOM      8  C   UNL     1     -25.836 -11.007  -6.003  1.00  0.00     0.039 C 
ATOM      9  C   UNL     1     -22.979 -11.677  -6.447  1.00  0.00     0.159 C 
ATOM     10  O   UNL     1     -23.335 -12.046  -5.295  1.00  0.00    -0.295 OA
ATOM     11  C   UNL     1     -21.862 -12.415  -7.124  1.00  0.00     0.084 C 
ENDROOT
TORSDOF 0
ENDMDL
MODEL 5
REMARK VINA RESULT:    -3.964      1.810      2.398
REMARK INTER + INTRA:          -3.964
REMARK INTER:                  -3.964
REMARK INTRA:                   0.000
REMARK UNBOUND:                 0.000
REMARK SMILES CC(C)=C1CC[C@H](C)CC1=O
REMARK SMILES IDX 8 1 7 2 6 3 5 4 4 5 2 6 1 7 3 8 10 9 11 10 9 11
REMARK H PARENT
REMARK Flexibility Score: inf
ROOT
ATOM      1  C   UNL     1     -25.785  -7.438  -4.914  1.00  0.00     0.008 C 
ATOM      2  C   UNL     1     -25.245  -8.502  -5.876  1.00  0.00    -0.006 C 
ATOM      3  C   UNL     1     -24.211  -7.889  -6.834  1.00  0.00     0.008 C 
ATOM      4  C   UNL     1     -23.734  -8.914  -7.870  1.00  0.00     0.039 C 
ATOM      5  C   UNL     1     -23.245 -10.207  -7.231  1.00  0.00    -0.006 C 
ATOM      6  C   UNL     1     -22.248 -10.947  -7.799  1.00  0.00    -0.070 C 
ATOM      7  C   UNL     1     -21.599 -10.523  -9.097  1.00  0.00     0.039 C 
ATOM      8  C   UNL     1     -21.715 -12.201  -7.144  1.00  0.00     0.039 C 
ATOM      9  C   UNL     1     -23.996 -10.667  -6.024  1.00  0.00     0.159 C 
ATOM     10  O   UNL     1     -24.132 -11.893  -5.765  1.00  0.00    -0.295 OA
ATOM     11  C   UNL     1     -24.613  -9.663  -5.095  1.00  0.00     0.084 C 
ENDROOT
TORSDOF 0
ENDMDL
MODEL 6
REMARK VINA RESULT:    -3.937      1.978      3.566
REMARK INTER + INTRA:          -3.937
REMARK INTER:                  -3.937
REMARK INTRA:                   0.000
REMARK UNBOUND:                 0.000
REMARK SMILES CC(C)=C1CC[C@H](C)CC1=O
REMARK SMILES IDX 8 1 7 2 6 3 5 4 4 5 2 6 1 7 3 8 10 9 11 10 9 11
REMARK H PARENT
REMARK Flexibility Score: inf
ROOT
ATOM      1  C   UNL     1     -24.324 -11.577  -4.033  1.00  0.00     0.008 C 
ATOM      2  C   UNL     1     -24.284 -11.321  -5.544  1.00  0.00    -0.006 C 
ATOM      3  C   UNL     1     -24.253  -9.812  -5.836  1.00  0.00     0.008 C 
ATOM      4  C   UNL     1     -24.316  -9.534  -7.343  1.00  0.00     0.039 C 
ATOM      5  C   UNL     1     -23.257 -10.303  -8.123  1.00  0.00    -0.006 C 
ATOM      6  C   UNL     1     -22.704  -9.791  -9.261  1.00  0.00    -0.070 C 
ATOM      7  C   UNL     1     -23.131  -8.446  -9.805  1.00  0.00     0.039 C 
ATOM      8  C   UNL     1     -21.611 -10.518 -10.011  1.00  0.00     0.039 C 
ATOM      9  C   UNL     1     -22.956 -11.682  -7.635  1.00  0.00     0.159 C 
ATOM     10  O   UNL     1     -22.617 -12.599  -8.431  1.00  0.00    -0.295 OA
ATOM     11  C   UNL     1     -23.059 -12.002  -6.173  1.00  0.00     0.084 C 
ENDROOT
TORSDOF 0
ENDMDL
MODEL 7
REMARK VINA RESULT:    -3.823      1.586      2.413
REMARK INTER + INTRA:          -3.823
REMARK INTER:                  -3.823
REMARK INTRA:                   0.000
REMARK UNBOUND:                 0.000
REMARK SMILES CC(C)=C1CC[C@H](C)CC1=O
REMARK SMILES IDX 8 1 7 2 6 3 5 4 4 5 2 6 1 7 3 8 10 9 11 10 9 11
REMARK H PARENT
REMARK Flexibility Score: inf
ROOT
ATOM      1  C   UNL     1     -24.780  -4.393  -8.294  1.00  0.00     0.008 C 
ATOM      2  C   UNL     1     -24.658  -5.894  -8.580  1.00  0.00    -0.006 C 
ATOM      3  C   UNL     1     -23.563  -6.158  -9.626  1.00  0.00     0.008 C 
ATOM      4  C   UNL     1     -23.495  -7.644 -10.000  1.00  0.00     0.039 C 
ATOM      5  C   UNL     1     -23.369  -8.548  -8.780  1.00  0.00    -0.006 C 
ATOM      6  C   UNL     1     -22.685  -9.728  -8.840  1.00  0.00    -0.070 C 
ATOM      7  C   UNL     1     -22.040 -10.197 -10.124  1.00  0.00     0.039 C 
ATOM      8  C   UNL     1     -22.505 -10.605  -7.622  1.00  0.00     0.039 C 
ATOM      9  C   UNL     1     -24.129  -8.122  -7.567  1.00  0.00     0.159 C 
ATOM     10  O   UNL     1     -24.607  -8.968  -6.763  1.00  0.00    -0.295 OA
ATOM     11  C   UNL     1     -24.345  -6.663  -7.288  1.00  0.00     0.084 C 
ENDROOT
TORSDOF 0
ENDMDL
MODEL 8
REMARK VINA RESULT:    -3.813     13.280     15.446
REMARK INTER + INTRA:          -3.813
REMARK INTER:                  -3.813
REMARK INTRA:                   0.000
REMARK UNBOUND:                 0.000
REMARK SMILES CC(C)=C1CC[C@H](C)CC1=O
REMARK SMILES IDX 8 1 7 2 6 3 5 4 4 5 2 6 1 7 3 8 10 9 11 10 9 11
REMARK H PARENT
REMARK Flexibility Score: inf
ROOT
ATOM      1  C   UNL     1     -10.125 -11.272  -5.952  1.00  0.00     0.008 C 
ATOM      2  C   UNL     1      -9.173 -12.146  -5.127  1.00  0.00    -0.006 C 
ATOM      3  C   UNL     1      -9.462 -11.990  -3.625  1.00  0.00     0.008 C 
ATOM      4  C   UNL     1      -8.454 -12.777  -2.778  1.00  0.00     0.039 C 
ATOM      5  C   UNL     1      -8.346 -14.235  -3.205  1.00  0.00    -0.006 C 
ATOM      6  C   UNL     1      -8.065 -15.219  -2.302  1.00  0.00    -0.070 C 
ATOM      7  C   UNL     1      -7.832 -14.901  -0.842  1.00  0.00     0.039 C 
ATOM      8  C   UNL     1      -8.011 -16.676  -2.704  1.00  0.00     0.039 C 
ATOM      9  C   UNL     1      -8.447 -14.498  -4.672  1.00  0.00     0.159 C 
ATOM     10  O   UNL     1      -7.819 -15.448  -5.212  1.00  0.00    -0.295 OA
ATOM     11  C   UNL     1      -9.304 -13.620  -5.536  1.00  0.00     0.084 C 
ENDROOT
TORSDOF 0
ENDMDL
MODEL 9
REMARK VINA RESULT:    -3.757      1.758      3.003
REMARK INTER + INTRA:          -3.757
REMARK INTER:                  -3.757
REMARK INTRA:                   0.000
REMARK UNBOUND:                 0.000
REMARK SMILES CC(C)=C1CC[C@H](C)CC1=O
REMARK SMILES IDX 8 1 7 2 6 3 5 4 4 5 2 6 1 7 3 8 10 9 11 10 9 11
REMARK H PARENT
REMARK Flexibility Score: inf
ROOT
ATOM      1  C   UNL     1     -24.214  -6.750  -9.927  1.00  0.00     0.008 C 
ATOM      2  C   UNL     1     -23.678  -7.661  -8.817  1.00  0.00    -0.006 C 
ATOM      3  C   UNL     1     -24.801  -8.031  -7.833  1.00  0.00     0.008 C 
ATOM      4  C   UNL     1     -24.262  -8.858  -6.659  1.00  0.00     0.039 C 
ATOM      5  C   UNL     1     -23.463 -10.071  -7.117  1.00  0.00    -0.006 C 
ATOM      6  C   UNL     1     -23.443 -11.224  -6.388  1.00  0.00    -0.070 C 
ATOM      7  C   UNL     1     -24.200 -11.341  -5.083  1.00  0.00     0.039 C 
ATOM      8  C   UNL     1     -22.700 -12.453  -6.861  1.00  0.00     0.039 C 
ATOM      9  C   UNL     1     -22.622  -9.879  -8.336  1.00  0.00     0.159 C 
ATOM     10  O   UNL     1     -21.531 -10.494  -8.483  1.00  0.00    -0.295 OA
ATOM     11  C   UNL     1     -23.065  -8.935  -9.415  1.00  0.00     0.084 C 
ENDROOT
TORSDOF 0
ENDMDL
