MODEL 1
REMARK VINA RESULT:    -5.134      0.000      0.000
REMARK INTER + INTRA:          -5.985
REMARK INTER:                  -5.885
REMARK INTRA:                  -0.100
REMARK UNBOUND:                -0.100
REMARK SMILES COc1ccc(C(C)=O)cc1O
REMARK SMILES IDX 6 1 10 2 11 3 3 4 4 5 5 6 7 7 8 8 9 9 12 10 2 12 1 13
REMARK H PARENT 12 11
REMARK Flexibility Score: inf
ROOT
ATOM      1  C   UNL     1       7.430  -2.332  48.179  1.00  0.00     0.021 A 
ATOM      2  C   UNL     1       7.142  -1.102  47.561  1.00  0.00     0.062 A 
ATOM      3  C   UNL     1       6.240  -1.030  46.491  1.00  0.00     0.158 A 
ATOM      4  C   UNL     1       5.610  -2.189  46.021  1.00  0.00     0.160 A 
ATOM      5  C   UNL     1       5.893  -3.422  46.635  1.00  0.00     0.051 A 
ATOM      6  C   UNL     1       6.793  -3.492  47.701  1.00  0.00     0.016 A 
ENDROOT
BRANCH   1   7
ATOM      7  C   UNL     1       8.391  -2.389  49.315  1.00  0.00     0.159 C 
ATOM      8  C   UNL     1       9.826  -2.777  49.121  1.00  0.00     0.093 C 
ATOM      9  O   UNL     1       8.000  -2.105  50.481  1.00  0.00    -0.295 OA
ENDBRANCH   1   7
BRANCH   3  10
ATOM     10  O   UNL     1       5.964   0.195  45.886  1.00  0.00    -0.504 OA
ATOM     11  H   UNL     1       6.134   0.352  44.900  1.00  0.00     0.293 HD
ENDBRANCH   3  10
BRANCH   4  12
ATOM     12  O   UNL     1       4.712  -2.077  44.947  1.00  0.00    -0.493 OA
ATOM     13  C   UNL     1       4.382  -3.138  44.057  1.00  0.00     0.278 C 
ENDBRANCH   4  12
TORSDOF 3
ENDMDL
MODEL 2
REMARK VINA RESULT:    -4.836      2.416      4.676
REMARK INTER + INTRA:          -5.643
REMARK INTER:                  -5.527
REMARK INTRA:                  -0.116
REMARK UNBOUND:                -0.100
REMARK SMILES COc1ccc(C(C)=O)cc1O
REMARK SMILES IDX 6 1 10 2 11 3 3 4 4 5 5 6 7 7 8 8 9 9 12 10 2 12 1 13
REMARK H PARENT 12 11
REMARK Flexibility Score: inf
ROOT
ATOM      1  C   UNL     1       5.672  -2.243  47.719  1.00  0.00     0.021 A 
ATOM      2  C   UNL     1       5.846  -1.901  49.073  1.00  0.00     0.062 A 
ATOM      3  C   UNL     1       5.671  -2.857  50.083  1.00  0.00     0.158 A 
ATOM      4  C   UNL     1       5.318  -4.172  49.755  1.00  0.00     0.160 A 
ATOM      5  C   UNL     1       5.144  -4.520  48.403  1.00  0.00     0.051 A 
ATOM      6  C   UNL     1       5.318  -3.566  47.398  1.00  0.00     0.016 A 
ENDROOT
BRANCH   1   7
ATOM      7  C   UNL     1       5.863  -1.213  46.661  1.00  0.00     0.159 C 
ATOM      8  C   UNL     1       6.694   0.014  46.888  1.00  0.00     0.093 C 
ATOM      9  O   UNL     1       5.316  -1.365  45.534  1.00  0.00    -0.295 OA
ENDBRANCH   1   7
BRANCH   3  10
ATOM     10  O   UNL     1       5.846  -2.506  51.420  1.00  0.00    -0.504 OA
ATOM     11  H   UNL     1       5.413  -3.035  52.169  1.00  0.00     0.293 HD
ENDBRANCH   3  10
BRANCH   4  12
ATOM     12  O   UNL     1       5.152  -5.102  50.793  1.00  0.00    -0.493 OA
ATOM     13  C   UNL     1       6.089  -6.124  51.119  1.00  0.00     0.278 C 
ENDBRANCH   4  12
TORSDOF 3
ENDMDL
MODEL 3
REMARK VINA RESULT:    -4.796      1.038      2.067
REMARK INTER + INTRA:          -5.597
REMARK INTER:                  -5.501
REMARK INTRA:                  -0.096
REMARK UNBOUND:                -0.100
REMARK SMILES COc1ccc(C(C)=O)cc1O
REMARK SMILES IDX 6 1 10 2 11 3 3 4 4 5 5 6 7 7 8 8 9 9 12 10 2 12 1 13
REMARK H PARENT 12 11
REMARK Flexibility Score: inf
ROOT
ATOM      1  C   UNL     1       7.433  -2.277  48.075  1.00  0.00     0.021 A 
ATOM      2  C   UNL     1       6.792  -3.445  47.622  1.00  0.00     0.062 A 
ATOM      3  C   UNL     1       5.884  -3.398  46.556  1.00  0.00     0.158 A 
ATOM      4  C   UNL     1       5.600  -2.180  45.925  1.00  0.00     0.160 A 
ATOM      5  C   UNL     1       6.237  -1.009  46.373  1.00  0.00     0.051 A 
ATOM      6  C   UNL     1       7.142  -1.058  47.436  1.00  0.00     0.016 A 
ENDROOT
BRANCH   1   7
ATOM      7  C   UNL     1       8.396  -2.347  49.208  1.00  0.00     0.159 C 
ATOM      8  C   UNL     1       9.846  -2.667  48.999  1.00  0.00     0.093 C 
ATOM      9  O   UNL     1       7.994  -2.133  50.385  1.00  0.00    -0.295 OA
ENDBRANCH   1   7
BRANCH   3  10
ATOM     10  O   UNL     1       5.256  -4.562  46.116  1.00  0.00    -0.504 OA
ATOM     11  H   UNL     1       4.892  -4.646  45.174  1.00  0.00     0.293 HD
ENDBRANCH   3  10
BRANCH   4  12
ATOM     12  O   UNL     1       4.684  -2.173  44.860  1.00  0.00    -0.493 OA
ATOM     13  C   UNL     1       4.332  -1.017  44.107  1.00  0.00     0.278 C 
ENDBRANCH   4  12
TORSDOF 3
ENDMDL
MODEL 4
REMARK VINA RESULT:    -4.778      1.527      5.080
REMARK INTER + INTRA:          -5.577
REMARK INTER:                  -5.476
REMARK INTRA:                  -0.101
REMARK UNBOUND:                -0.100
REMARK SMILES COc1ccc(C(C)=O)cc1O
REMARK SMILES IDX 6 1 10 2 11 3 3 4 4 5 5 6 7 7 8 8 9 9 12 10 2 12 1 13
REMARK H PARENT 12 11
REMARK Flexibility Score: inf
ROOT
ATOM      1  C   UNL     1       5.394  -2.074  45.969  1.00  0.00     0.021 A 
ATOM      2  C   UNL     1       5.461  -3.263  46.718  1.00  0.00     0.062 A 
ATOM      3  C   UNL     1       6.047  -3.277  47.991  1.00  0.00     0.158 A 
ATOM      4  C   UNL     1       6.576  -2.101  48.536  1.00  0.00     0.160 A 
ATOM      5  C   UNL     1       6.512  -0.909  47.792  1.00  0.00     0.051 A 
ATOM      6  C   UNL     1       5.929  -0.897  46.524  1.00  0.00     0.016 A 
ENDROOT
BRANCH   1   7
ATOM      7  C   UNL     1       4.768  -2.079  44.618  1.00  0.00     0.159 C 
ATOM      8  C   UNL     1       4.410  -3.354  43.914  1.00  0.00     0.093 C 
ATOM      9  O   UNL     1       4.526  -0.986  44.036  1.00  0.00    -0.295 OA
ENDBRANCH   1   7
BRANCH   3  10
ATOM     10  O   UNL     1       6.107  -4.462  48.723  1.00  0.00    -0.504 OA
ATOM     11  H   UNL     1       5.353  -5.138  48.703  1.00  0.00     0.293 HD
ENDBRANCH   3  10
BRANCH   4  12
ATOM     12  O   UNL     1       7.155  -2.154  49.815  1.00  0.00    -0.493 OA
ATOM     13  C   UNL     1       6.459  -1.884  51.027  1.00  0.00     0.278 C 
ENDBRANCH   4  12
TORSDOF 3
ENDMDL
MODEL 5
REMARK VINA RESULT:    -4.730     12.000     13.691
REMARK INTER + INTRA:          -5.521
REMARK INTER:                  -5.396
REMARK INTRA:                  -0.125
REMARK UNBOUND:                -0.100
REMARK SMILES COc1ccc(C(C)=O)cc1O
REMARK SMILES IDX 6 1 10 2 11 3 3 4 4 5 5 6 7 7 8 8 9 9 12 10 2 12 1 13
REMARK H PARENT 12 11
REMARK Flexibility Score: inf
ROOT
ATOM      1  C   UNL     1       4.188  11.361  48.221  1.00  0.00     0.021 A 
ATOM      2  C   UNL     1       4.260  11.097  46.841  1.00  0.00     0.062 A 
ATOM      3  C   UNL     1       5.453  10.646  46.258  1.00  0.00     0.158 A 
ATOM      4  C   UNL     1       6.594  10.452  47.047  1.00  0.00     0.160 A 
ATOM      5  C   UNL     1       6.527  10.715  48.427  1.00  0.00     0.051 A 
ATOM      6  C   UNL     1       5.339  11.165  49.006  1.00  0.00     0.016 A 
ENDROOT
BRANCH   1   7
ATOM      7  C   UNL     1       2.912  11.840  48.822  1.00  0.00     0.159 C 
ATOM      8  C   UNL     1       2.849  13.076  49.668  1.00  0.00     0.093 C 
ATOM      9  O   UNL     1       1.846  11.197  48.622  1.00  0.00    -0.295 OA
ENDBRANCH   1   7
BRANCH   3  10
ATOM     10  O   UNL     1       5.512  10.387  44.890  1.00  0.00    -0.504 OA
ATOM     11  H   UNL     1       4.722   9.998  44.388  1.00  0.00     0.293 HD
ENDBRANCH   3  10
BRANCH   4  12
ATOM     12  O   UNL     1       7.769   9.999  46.428  1.00  0.00    -0.493 OA
ATOM     13  C   UNL     1       8.208   8.645  46.422  1.00  0.00     0.278 C 
ENDBRANCH   4  12
TORSDOF 3
ENDMDL
MODEL 6
REMARK VINA RESULT:    -4.687     12.870     14.703
REMARK INTER + INTRA:          -5.472
REMARK INTER:                  -5.377
REMARK INTRA:                  -0.095
REMARK UNBOUND:                -0.100
REMARK SMILES COc1ccc(C(C)=O)cc1O
REMARK SMILES IDX 6 1 10 2 11 3 3 4 4 5 5 6 7 7 8 8 9 9 12 10 2 12 1 13
REMARK H PARENT 12 11
REMARK Flexibility Score: inf
ROOT
ATOM      1  C   UNL     1       1.945  10.381  47.660  1.00  0.00     0.021 A 
ATOM      2  C   UNL     1       1.728  11.195  48.788  1.00  0.00     0.062 A 
ATOM      3  C   UNL     1       2.648  12.192  49.140  1.00  0.00     0.158 A 
ATOM      4  C   UNL     1       3.800  12.392  48.370  1.00  0.00     0.160 A 
ATOM      5  C   UNL     1       4.022  11.582  47.242  1.00  0.00     0.051 A 
ATOM      6  C   UNL     1       3.105  10.588  46.892  1.00  0.00     0.016 A 
ENDROOT
BRANCH   1   7
ATOM      7  C   UNL     1       0.957   9.327  47.302  1.00  0.00     0.159 C 
ATOM      8  C   UNL     1       0.313   8.456  48.340  1.00  0.00     0.093 C 
ATOM      9  O   UNL     1       0.641   9.149  46.093  1.00  0.00    -0.295 OA
ENDBRANCH   1   7
BRANCH   3  10
ATOM     10  O   UNL     1       2.422  12.992  50.259  1.00  0.00    -0.504 OA
ATOM     11  H   UNL     1       3.184  13.440  50.755  1.00  0.00     0.293 HD
ENDBRANCH   3  10
BRANCH   4  12
ATOM     12  O   UNL     1       4.698  13.401  48.754  1.00  0.00    -0.493 OA
ATOM     13  C   UNL     1       6.008  13.563  48.220  1.00  0.00     0.278 C 
ENDBRANCH   4  12
TORSDOF 3
ENDMDL
MODEL 7
REMARK VINA RESULT:    -4.623      1.894      2.103
REMARK INTER + INTRA:          -5.399
REMARK INTER:                  -5.294
REMARK INTRA:                  -0.104
REMARK UNBOUND:                -0.100
REMARK SMILES COc1ccc(C(C)=O)cc1O
REMARK SMILES IDX 6 1 10 2 11 3 3 4 4 5 5 6 7 7 8 8 9 9 12 10 2 12 1 13
REMARK H PARENT 12 11
REMARK Flexibility Score: inf
ROOT
ATOM      1  C   UNL     1       5.960  -2.483  49.371  1.00  0.00     0.021 A 
ATOM      2  C   UNL     1       6.819  -1.655  48.625  1.00  0.00     0.062 A 
ATOM      3  C   UNL     1       6.704  -1.572  47.231  1.00  0.00     0.158 A 
ATOM      4  C   UNL     1       5.727  -2.317  46.558  1.00  0.00     0.160 A 
ATOM      5  C   UNL     1       4.865  -3.146  47.299  1.00  0.00     0.051 A 
ATOM      6  C   UNL     1       4.982  -3.228  48.688  1.00  0.00     0.016 A 
ENDROOT
BRANCH   1   7
ATOM      7  C   UNL     1       6.098  -2.558  50.851  1.00  0.00     0.159 C 
ATOM      8  C   UNL     1       6.619  -1.406  51.659  1.00  0.00     0.093 C 
ATOM      9  O   UNL     1       5.770  -3.614  51.458  1.00  0.00    -0.295 OA
ENDBRANCH   1   7
BRANCH   3  10
ATOM     10  O   UNL     1       7.561  -0.748  46.502  1.00  0.00    -0.504 OA
ATOM     11  H   UNL     1       7.791  -0.944  45.535  1.00  0.00     0.293 HD
ENDBRANCH   3  10
BRANCH   4  12
ATOM     12  O   UNL     1       5.641  -2.208  45.161  1.00  0.00    -0.493 OA
ATOM     13  C   UNL     1       4.432  -1.991  44.441  1.00  0.00     0.278 C 
ENDBRANCH   4  12
TORSDOF 3
ENDMDL
MODEL 8
REMARK VINA RESULT:    -4.599      8.375     10.080
REMARK INTER + INTRA:          -5.371
REMARK INTER:                  -5.261
REMARK INTRA:                  -0.111
REMARK UNBOUND:                -0.100
REMARK SMILES COc1ccc(C(C)=O)cc1O
REMARK SMILES IDX 6 1 10 2 11 3 3 4 4 5 5 6 7 7 8 8 9 9 12 10 2 12 1 13
REMARK H PARENT 12 11
REMARK Flexibility Score: inf
ROOT
ATOM      1  C   UNL     1       7.640   5.984  53.290  1.00  0.00     0.021 A 
ATOM      2  C   UNL     1       6.419   5.308  53.115  1.00  0.00     0.062 A 
ATOM      3  C   UNL     1       6.330   3.924  53.314  1.00  0.00     0.158 A 
ATOM      4  C   UNL     1       7.463   3.191  53.691  1.00  0.00     0.160 A 
ATOM      5  C   UNL     1       8.686   3.861  53.867  1.00  0.00     0.051 A 
ATOM      6  C   UNL     1       8.774   5.241  53.668  1.00  0.00     0.016 A 
ENDROOT
BRANCH   1   7
ATOM      7  C   UNL     1       7.716   7.455  53.074  1.00  0.00     0.159 C 
ATOM      8  C   UNL     1       8.845   8.089  52.317  1.00  0.00     0.093 C 
ATOM      9  O   UNL     1       6.810   8.203  53.535  1.00  0.00    -0.295 OA
ENDBRANCH   1   7
BRANCH   3  10
ATOM     10  O   UNL     1       5.114   3.265  53.137  1.00  0.00    -0.504 OA
ATOM     11  H   UNL     1       4.248   3.775  53.006  1.00  0.00     0.293 HD
ENDBRANCH   3  10
BRANCH   4  12
ATOM     12  O   UNL     1       7.334   1.806  53.881  1.00  0.00    -0.493 OA
ATOM     13  C   UNL     1       8.387   0.950  54.311  1.00  0.00     0.278 C 
ENDBRANCH   4  12
TORSDOF 3
ENDMDL
MODEL 9
REMARK VINA RESULT:    -4.514      2.782      3.848
REMARK INTER + INTRA:          -5.274
REMARK INTER:                  -5.153
REMARK INTRA:                  -0.122
REMARK UNBOUND:                -0.100
REMARK SMILES COc1ccc(C(C)=O)cc1O
REMARK SMILES IDX 6 1 10 2 11 3 3 4 4 5 5 6 7 7 8 8 9 9 12 10 2 12 1 13
REMARK H PARENT 12 11
REMARK Flexibility Score: inf
ROOT
ATOM      1  C   UNL     1       5.116  -3.966  49.480  1.00  0.00     0.021 A 
ATOM      2  C   UNL     1       4.958  -3.946  48.082  1.00  0.00     0.062 A 
ATOM      3  C   UNL     1       5.254  -2.792  47.343  1.00  0.00     0.158 A 
ATOM      4  C   UNL     1       5.715  -1.639  47.990  1.00  0.00     0.160 A 
ATOM      5  C   UNL     1       5.875  -1.653  49.387  1.00  0.00     0.051 A 
ATOM      6  C   UNL     1       5.579  -2.803  50.123  1.00  0.00     0.016 A 
ENDROOT
BRANCH   1   7
ATOM      7  C   UNL     1       4.796  -5.200  50.248  1.00  0.00     0.159 C 
ATOM      8  C   UNL     1       5.863  -6.027  50.902  1.00  0.00     0.093 C 
ATOM      9  O   UNL     1       3.597  -5.574  50.362  1.00  0.00    -0.295 OA
ENDBRANCH   1   7
BRANCH   3  10
ATOM     10  O   UNL     1       5.094  -2.785  45.958  1.00  0.00    -0.504 OA
ATOM     11  H   UNL     1       4.259  -2.408  45.522  1.00  0.00     0.293 HD
ENDBRANCH   3  10
BRANCH   4  12
ATOM     12  O   UNL     1       6.002  -0.503  47.216  1.00  0.00    -0.493 OA
ATOM     13  C   UNL     1       7.314  -0.078  46.864  1.00  0.00     0.278 C 
ENDBRANCH   4  12
TORSDOF 3
ENDMDL
