MODEL 1
REMARK VINA RESULT:    -3.962      0.000      0.000
REMARK INTER + INTRA:          -6.246
REMARK INTER:                  -5.583
REMARK INTRA:                  -0.663
REMARK UNBOUND:                -0.663
REMARK SMILES CCCCCCCCC(=O)[O-]
REMARK SMILES IDX 6 1 7 2 8 3 9 4 10 5 11 6 5 7 4 8 3 9 2 10 1 11
REMARK H PARENT
REMARK Flexibility Score: inf
ROOT
ATOM      1  C   UNL     1      -8.753  26.137  24.752  1.00  0.00     0.000 C 
ENDROOT
BRANCH   1   2
ATOM      2  C   UNL     1      -9.117  27.478  25.417  1.00  0.00     0.006 C 
BRANCH   2   3
ATOM      3  C   UNL     1     -10.041  28.372  24.573  1.00  0.00     0.053 C 
BRANCH   3   4
ATOM      4  C   UNL     1      -9.273  29.226  23.612  1.00  0.00     0.041 C 
ATOM      5  O   UNL     1      -8.623  30.222  24.028  1.00  0.00    -0.550 OA
ATOM      6  O   UNL     1      -9.244  28.901  22.261  1.00  0.00    -0.550 OA
ENDBRANCH   3   4
ENDBRANCH   2   3
ENDBRANCH   1   2
BRANCH   1   7
ATOM      7  C   UNL     1      -7.272  26.052  24.356  1.00  0.00     0.000 C 
BRANCH   7   8
ATOM      8  C   UNL     1      -7.113  26.030  22.831  1.00  0.00    -0.000 C 
BRANCH   8   9
ATOM      9  C   UNL     1      -8.354  25.424  22.157  1.00  0.00    -0.000 C 
BRANCH   9  10
ATOM     10  C   UNL     1      -8.129  23.974  21.702  1.00  0.00    -0.003 C 
ATOM     11  C   UNL     1      -9.095  22.991  22.364  1.00  0.00     0.004 C 
ENDBRANCH   9  10
ENDBRANCH   8   9
ENDBRANCH   7   8
ENDBRANCH   1   7
TORSDOF 7
ENDMDL
MODEL 2
REMARK VINA RESULT:    -3.955      2.021      4.380
REMARK INTER + INTRA:          -6.236
REMARK INTER:                  -5.612
REMARK INTRA:                  -0.624
REMARK UNBOUND:                -0.663
REMARK SMILES CCCCCCCCC(=O)[O-]
REMARK SMILES IDX 6 1 7 2 8 3 9 4 10 5 11 6 5 7 4 8 3 9 2 10 1 11
REMARK H PARENT
REMARK Flexibility Score: inf
ROOT
ATOM      1  C   UNL     1      -7.092  25.735  22.472  1.00  0.00     0.000 C 
ENDROOT
BRANCH   1   2
ATOM      2  C   UNL     1      -7.969  24.619  21.874  1.00  0.00     0.006 C 
BRANCH   2   3
ATOM      3  C   UNL     1      -8.482  24.910  20.455  1.00  0.00     0.053 C 
BRANCH   3   4
ATOM      4  C   UNL     1      -9.345  26.134  20.409  1.00  0.00     0.041 C 
ATOM      5  O   UNL     1     -10.478  26.132  20.958  1.00  0.00    -0.550 OA
ATOM      6  O   UNL     1      -8.881  27.289  19.791  1.00  0.00    -0.550 OA
ENDBRANCH   3   4
ENDBRANCH   2   3
ENDBRANCH   1   2
BRANCH   1   7
ATOM      7  C   UNL     1      -7.402  26.007  23.951  1.00  0.00     0.000 C 
BRANCH   7   8
ATOM      8  C   UNL     1      -8.770  26.684  24.109  1.00  0.00    -0.000 C 
BRANCH   8   9
ATOM      9  C   UNL     1      -8.676  27.905  25.038  1.00  0.00    -0.000 C 
BRANCH   9  10
ATOM     10  C   UNL     1      -9.038  29.216  24.325  1.00  0.00    -0.003 C 
ATOM     11  C   UNL     1      -9.481  29.000  22.878  1.00  0.00     0.004 C 
ENDBRANCH   9  10
ENDBRANCH   8   9
ENDBRANCH   7   8
ENDBRANCH   1   7
TORSDOF 7
ENDMDL
MODEL 3
REMARK VINA RESULT:    -3.937      1.176      1.936
REMARK INTER + INTRA:          -6.212
REMARK INTER:                  -5.647
REMARK INTRA:                  -0.564
REMARK UNBOUND:                -0.663
REMARK SMILES CCCCCCCCC(=O)[O-]
REMARK SMILES IDX 6 1 7 2 8 3 9 4 10 5 11 6 5 7 4 8 3 9 2 10 1 11
REMARK H PARENT
REMARK Flexibility Score: inf
ROOT
ATOM      1  C   UNL     1      -7.601  26.483  24.735  1.00  0.00     0.000 C 
ENDROOT
BRANCH   1   2
ATOM      2  C   UNL     1      -8.640  27.538  25.156  1.00  0.00     0.006 C 
BRANCH   2   3
ATOM      3  C   UNL     1      -9.665  27.887  24.064  1.00  0.00     0.053 C 
BRANCH   3   4
ATOM      4  C   UNL     1      -9.331  29.172  23.370  1.00  0.00     0.041 C 
ATOM      5  O   UNL     1      -9.705  29.367  22.183  1.00  0.00    -0.550 OA
ATOM      6  O   UNL     1      -8.639  30.169  24.047  1.00  0.00    -0.550 OA
ENDBRANCH   3   4
ENDBRANCH   2   3
ENDBRANCH   1   2
BRANCH   1   7
ATOM      7  C   UNL     1      -8.138  25.506  23.679  1.00  0.00     0.000 C 
BRANCH   7   8
ATOM      8  C   UNL     1      -7.300  25.570  22.396  1.00  0.00    -0.000 C 
BRANCH   8   9
ATOM      9  C   UNL     1      -8.032  24.893  21.226  1.00  0.00    -0.000 C 
BRANCH   9  10
ATOM     10  C   UNL     1      -9.346  25.601  20.865  1.00  0.00    -0.003 C 
ATOM     11  C   UNL     1      -9.149  26.740  19.865  1.00  0.00     0.004 C 
ENDBRANCH   9  10
ENDBRANCH   8   9
ENDBRANCH   7   8
ENDBRANCH   1   7
TORSDOF 7
ENDMDL
MODEL 4
REMARK VINA RESULT:    -3.899      2.040      4.372
REMARK INTER + INTRA:          -6.158
REMARK INTER:                  -5.470
REMARK INTRA:                  -0.687
REMARK UNBOUND:                -0.663
REMARK SMILES CCCCCCCCC(=O)[O-]
REMARK SMILES IDX 6 1 7 2 8 3 9 4 10 5 11 6 5 7 4 8 3 9 2 10 1 11
REMARK H PARENT
REMARK Flexibility Score: inf
ROOT
ATOM      1  C   UNL     1      -7.330  25.969  24.034  1.00  0.00     0.000 C 
ENDROOT
BRANCH   1   2
ATOM      2  C   UNL     1      -7.269  25.822  22.502  1.00  0.00     0.006 C 
BRANCH   2   3
ATOM      3  C   UNL     1      -8.594  25.386  21.856  1.00  0.00     0.053 C 
BRANCH   3   4
ATOM      4  C   UNL     1      -8.681  25.797  20.418  1.00  0.00     0.041 C 
ATOM      5  O   UNL     1      -8.744  27.016  20.109  1.00  0.00    -0.550 OA
ATOM      6  O   UNL     1      -8.655  24.834  19.417  1.00  0.00    -0.550 OA
ENDBRANCH   3   4
ENDBRANCH   2   3
ENDBRANCH   1   2
BRANCH   1   7
ATOM      7  C   UNL     1      -8.717  25.645  24.608  1.00  0.00     0.000 C 
BRANCH   7   8
ATOM      8  C   UNL     1      -9.389  26.908  25.163  1.00  0.00    -0.000 C 
BRANCH   8   9
ATOM      9  C   UNL     1      -8.494  28.141  24.963  1.00  0.00    -0.000 C 
BRANCH   9  10
ATOM     10  C   UNL     1      -9.235  29.304  24.286  1.00  0.00    -0.003 C 
ATOM     11  C   UNL     1      -9.666  28.978  22.857  1.00  0.00     0.004 C 
ENDBRANCH   9  10
ENDBRANCH   8   9
ENDBRANCH   7   8
ENDBRANCH   1   7
TORSDOF 7
ENDMDL
MODEL 5
REMARK VINA RESULT:    -3.837      2.668      5.092
REMARK INTER + INTRA:          -6.069
REMARK INTER:                  -5.486
REMARK INTRA:                  -0.583
REMARK UNBOUND:                -0.663
REMARK SMILES CCCCCCCCC(=O)[O-]
REMARK SMILES IDX 6 1 7 2 8 3 9 4 10 5 11 6 5 7 4 8 3 9 2 10 1 11
REMARK H PARENT
REMARK Flexibility Score: inf
ROOT
ATOM      1  C   UNL     1      -6.988  25.942  22.700  1.00  0.00     0.000 C 
ENDROOT
BRANCH   1   2
ATOM      2  C   UNL     1      -8.301  25.709  21.929  1.00  0.00     0.006 C 
BRANCH   2   3
ATOM      3  C   UNL     1      -8.415  24.320  21.281  1.00  0.00     0.053 C 
BRANCH   3   4
ATOM      4  C   UNL     1      -9.162  23.354  22.148  1.00  0.00     0.041 C 
ATOM      5  O   UNL     1     -10.286  23.666  22.623  1.00  0.00    -0.550 OA
ATOM      6  O   UNL     1      -8.633  22.095  22.403  1.00  0.00    -0.550 OA
ENDBRANCH   3   4
ENDBRANCH   2   3
ENDBRANCH   1   2
BRANCH   1   7
ATOM      7  C   UNL     1      -7.192  25.989  24.221  1.00  0.00     0.000 C 
BRANCH   7   8
ATOM      8  C   UNL     1      -8.665  26.239  24.570  1.00  0.00    -0.000 C 
BRANCH   8   9
ATOM      9  C   UNL     1      -8.844  27.604  25.253  1.00  0.00    -0.000 C 
BRANCH   9  10
ATOM     10  C   UNL     1      -9.628  28.600  24.386  1.00  0.00    -0.003 C 
ATOM     11  C   UNL     1      -8.820  29.851  24.046  1.00  0.00     0.004 C 
ENDBRANCH   9  10
ENDBRANCH   8   9
ENDBRANCH   7   8
ENDBRANCH   1   7
TORSDOF 7
ENDMDL
MODEL 6
REMARK VINA RESULT:    -3.780      1.652      3.893
REMARK INTER + INTRA:          -5.989
REMARK INTER:                  -5.367
REMARK INTRA:                  -0.623
REMARK UNBOUND:                -0.663
REMARK SMILES CCCCCCCCC(=O)[O-]
REMARK SMILES IDX 6 1 7 2 8 3 9 4 10 5 11 6 5 7 4 8 3 9 2 10 1 11
REMARK H PARENT
REMARK Flexibility Score: inf
ROOT
ATOM      1  C   UNL     1      -7.004  26.006  23.290  1.00  0.00     0.000 C 
ENDROOT
BRANCH   1   2
ATOM      2  C   UNL     1      -7.689  25.245  22.139  1.00  0.00     0.006 C 
BRANCH   2   3
ATOM      3  C   UNL     1      -9.099  25.753  21.796  1.00  0.00     0.053 C 
BRANCH   3   4
ATOM      4  C   UNL     1      -9.067  27.085  21.113  1.00  0.00     0.041 C 
ATOM      5  O   UNL     1      -8.864  27.157  19.872  1.00  0.00    -0.550 OA
ATOM      6  O   UNL     1      -9.296  28.246  21.841  1.00  0.00    -0.550 OA
ENDBRANCH   3   4
ENDBRANCH   2   3
ENDBRANCH   1   2
BRANCH   1   7
ATOM      7  C   UNL     1      -7.769  25.892  24.617  1.00  0.00     0.000 C 
BRANCH   7   8
ATOM      8  C   UNL     1      -8.228  27.271  25.106  1.00  0.00    -0.000 C 
BRANCH   8   9
ATOM      9  C   UNL     1      -9.749  27.301  25.318  1.00  0.00    -0.000 C 
BRANCH   9  10
ATOM     10  C   UNL     1     -10.277  26.025  25.990  1.00  0.00    -0.003 C 
ATOM     11  C   UNL     1     -10.967  26.301  27.325  1.00  0.00     0.004 C 
ENDBRANCH   9  10
ENDBRANCH   8   9
ENDBRANCH   7   8
ENDBRANCH   1   7
TORSDOF 7
ENDMDL
MODEL 7
REMARK VINA RESULT:    -3.711      2.459      2.964
REMARK INTER + INTRA:          -5.892
REMARK INTER:                  -5.380
REMARK INTRA:                  -0.512
REMARK UNBOUND:                -0.663
REMARK SMILES CCCCCCCCC(=O)[O-]
REMARK SMILES IDX 6 1 7 2 8 3 9 4 10 5 11 6 5 7 4 8 3 9 2 10 1 11
REMARK H PARENT
REMARK Flexibility Score: inf
ROOT
ATOM      1  C   UNL     1      -7.344  26.020  24.022  1.00  0.00     0.000 C 
ENDROOT
BRANCH   1   2
ATOM      2  C   UNL     1      -8.523  26.897  24.484  1.00  0.00     0.006 C 
BRANCH   2   3
ATOM      3  C   UNL     1      -9.759  26.106  24.942  1.00  0.00     0.053 C 
BRANCH   3   4
ATOM      4  C   UNL     1     -10.018  26.267  26.408  1.00  0.00     0.041 C 
ATOM      5  O   UNL     1      -9.513  27.232  27.039  1.00  0.00    -0.550 OA
ATOM      6  O   UNL     1     -10.849  25.371  27.070  1.00  0.00    -0.550 OA
ENDBRANCH   3   4
ENDBRANCH   2   3
ENDBRANCH   1   2
BRANCH   1   7
ATOM      7  C   UNL     1      -7.248  25.910  22.493  1.00  0.00     0.000 C 
BRANCH   7   8
ATOM      8  C   UNL     1      -7.802  24.566  22.003  1.00  0.00    -0.000 C 
BRANCH   8   9
ATOM      9  C   UNL     1      -9.229  24.727  21.455  1.00  0.00    -0.000 C 
BRANCH   9  10
ATOM     10  C   UNL     1     -10.033  23.420  21.512  1.00  0.00    -0.003 C 
ATOM     11  C   UNL     1      -9.252  22.273  22.155  1.00  0.00     0.004 C 
ENDBRANCH   9  10
ENDBRANCH   8   9
ENDBRANCH   7   8
ENDBRANCH   1   7
TORSDOF 7
ENDMDL
MODEL 8
REMARK VINA RESULT:    -3.645      1.706      2.925
REMARK INTER + INTRA:          -5.800
REMARK INTER:                  -5.345
REMARK INTRA:                  -0.455
REMARK UNBOUND:                -0.663
REMARK SMILES CCCCCCCCC(=O)[O-]
REMARK SMILES IDX 6 1 7 2 8 3 9 4 10 5 11 6 5 7 4 8 3 9 2 10 1 11
REMARK H PARENT
REMARK Flexibility Score: inf
ROOT
ATOM      1  C   UNL     1      -7.331  25.883  22.469  1.00  0.00     0.000 C 
ENDROOT
BRANCH   1   2
ATOM      2  C   UNL     1      -7.122  25.992  23.992  1.00  0.00     0.006 C 
BRANCH   2   3
ATOM      3  C   UNL     1      -8.413  25.865  24.817  1.00  0.00     0.053 C 
BRANCH   3   4
ATOM      4  C   UNL     1      -8.767  27.146  25.507  1.00  0.00     0.041 C 
ATOM      5  O   UNL     1      -9.309  27.125  26.644  1.00  0.00    -0.550 OA
ATOM      6  O   UNL     1      -8.465  28.364  24.911  1.00  0.00    -0.550 OA
ENDBRANCH   3   4
ENDBRANCH   2   3
ENDBRANCH   1   2
BRANCH   1   7
ATOM      7  C   UNL     1      -8.786  25.576  22.088  1.00  0.00     0.000 C 
BRANCH   7   8
ATOM      8  C   UNL     1      -8.875  24.294  21.250  1.00  0.00    -0.000 C 
BRANCH   8   9
ATOM      9  C   UNL     1      -8.970  23.053  22.151  1.00  0.00    -0.000 C 
BRANCH   9  10
ATOM     10  C   UNL     1     -10.238  22.228  21.887  1.00  0.00    -0.003 C 
ATOM     11  C   UNL     1     -10.583  22.133  20.401  1.00  0.00     0.004 C 
ENDBRANCH   9  10
ENDBRANCH   8   9
ENDBRANCH   7   8
ENDBRANCH   1   7
TORSDOF 7
ENDMDL
MODEL 9
REMARK VINA RESULT:    -3.619      3.832      5.592
REMARK INTER + INTRA:          -5.763
REMARK INTER:                  -5.111
REMARK INTRA:                  -0.652
REMARK UNBOUND:                -0.663
REMARK SMILES CCCCCCCCC(=O)[O-]
REMARK SMILES IDX 6 1 7 2 8 3 9 4 10 5 11 6 5 7 4 8 3 9 2 10 1 11
REMARK H PARENT
REMARK Flexibility Score: inf
ROOT
ATOM      1  C   UNL     1      -8.108  23.875  21.747  1.00  0.00     0.000 C 
ENDROOT
BRANCH   1   2
ATOM      2  C   UNL     1      -9.278  22.947  22.127  1.00  0.00     0.006 C 
BRANCH   2   3
ATOM      3  C   UNL     1     -10.579  23.221  21.356  1.00  0.00     0.053 C 
BRANCH   3   4
ATOM      4  C   UNL     1     -10.736  22.312  20.177  1.00  0.00     0.041 C 
ATOM      5  O   UNL     1     -10.510  22.737  19.013  1.00  0.00    -0.550 OA
ATOM      6  O   UNL     1     -11.099  20.984  20.366  1.00  0.00    -0.550 OA
ENDBRANCH   3   4
ENDBRANCH   2   3
ENDBRANCH   1   2
BRANCH   1   7
ATOM      7  C   UNL     1      -8.578  25.218  21.169  1.00  0.00     0.000 C 
BRANCH   7   8
ATOM      8  C   UNL     1      -8.079  26.389  22.024  1.00  0.00    -0.000 C 
BRANCH   8   9
ATOM      9  C   UNL     1      -7.129  25.897  23.128  1.00  0.00    -0.000 C 
BRANCH   9  10
ATOM     10  C   UNL     1      -7.580  26.329  24.531  1.00  0.00    -0.003 C 
ATOM     11  C   UNL     1      -8.855  25.619  24.986  1.00  0.00     0.004 C 
ENDBRANCH   9  10
ENDBRANCH   8   9
ENDBRANCH   7   8
ENDBRANCH   1   7
TORSDOF 7
ENDMDL
