MODEL 1
REMARK VINA RESULT:    -5.169      0.000      0.000
REMARK INTER + INTRA:          -6.308
REMARK INTER:                  -6.076
REMARK INTRA:                  -0.232
REMARK UNBOUND:                -0.232
REMARK SMILES O=C([O-])C=Cc1ccc(O)c(O)c1
REMARK SMILES IDX 6 1 13 2 7 3 11 4 8 5 9 6 5 7 4 8 2 9 1 10 3 11 12 12 10 14
REMARK H PARENT 12 13 10 15
REMARK Flexibility Score: inf
ROOT
ATOM      1  C   UNL     1       3.789  10.603   4.614  1.00  0.00    -0.022 A 
ATOM      2  C   UNL     1       4.273  11.901   4.395  1.00  0.00     0.058 A 
ATOM      3  C   UNL     1       4.381   9.525   3.934  1.00  0.00     0.012 A 
ATOM      4  C   UNL     1       5.368  12.118   3.547  1.00  0.00     0.157 A 
ATOM      5  C   UNL     1       5.473   9.739   3.089  1.00  0.00     0.051 A 
ATOM      6  C   UNL     1       5.971  11.034   2.896  1.00  0.00     0.157 A 
ENDROOT
BRANCH   1   7
ATOM      7  C   UNL     1       2.602  10.408   5.471  1.00  0.00     0.010 C 
ATOM      8  C   UNL     1       2.611  10.357   6.813  1.00  0.00     0.025 C 
BRANCH   8   9
ATOM      9  C   UNL     1       3.765  10.662   7.681  1.00  0.00     0.064 C 
ATOM     10  O   UNL     1       4.605   9.778   7.995  1.00  0.00    -0.545 OA
ATOM     11  O   UNL     1       3.966  11.969   8.104  1.00  0.00    -0.545 OA
ENDBRANCH   8   9
ENDBRANCH   1   7
BRANCH   4  12
ATOM     12  O   UNL     1       5.859  13.406   3.345  1.00  0.00    -0.504 OA
ATOM     13  H   UNL     1       5.316  14.112   2.862  1.00  0.00     0.293 HD
ENDBRANCH   4  12
BRANCH   6  14
ATOM     14  O   UNL     1       7.062  11.253   2.055  1.00  0.00    -0.504 OA
ATOM     15  H   UNL     1       7.195  10.713   1.208  1.00  0.00     0.293 HD
ENDBRANCH   6  14
TORSDOF 4
ENDMDL
MODEL 2
REMARK VINA RESULT:    -4.925      1.922      3.219
REMARK INTER + INTRA:          -6.021
REMARK INTER:                  -5.782
REMARK INTRA:                  -0.238
REMARK UNBOUND:                -0.232
REMARK SMILES O=C([O-])C=Cc1ccc(O)c(O)c1
REMARK SMILES IDX 6 1 13 2 7 3 11 4 8 5 9 6 5 7 4 8 2 9 1 10 3 11 12 12 10 14
REMARK H PARENT 12 13 10 15
REMARK Flexibility Score: inf
ROOT
ATOM      1  C   UNL     1       4.556   9.451   3.813  1.00  0.00    -0.022 A 
ATOM      2  C   UNL     1       5.616   9.759   2.948  1.00  0.00     0.058 A 
ATOM      3  C   UNL     1       3.977  10.474   4.582  1.00  0.00     0.012 A 
ATOM      4  C   UNL     1       6.061  11.082   2.811  1.00  0.00     0.157 A 
ATOM      5  C   UNL     1       4.418  11.793   4.447  1.00  0.00     0.051 A 
ATOM      6  C   UNL     1       5.458  12.101   3.560  1.00  0.00     0.157 A 
ENDROOT
BRANCH   1   7
ATOM      7  C   UNL     1       4.142   8.042   3.976  1.00  0.00     0.010 C 
ATOM      8  C   UNL     1       4.828   7.102   4.647  1.00  0.00     0.025 C 
BRANCH   8   9
ATOM      9  C   UNL     1       6.017   7.337   5.488  1.00  0.00     0.064 C 
ATOM     10  O   UNL     1       7.177   7.063   5.080  1.00  0.00    -0.545 OA
ATOM     11  O   UNL     1       5.860   7.937   6.730  1.00  0.00    -0.545 OA
ENDBRANCH   8   9
ENDBRANCH   1   7
BRANCH   4  12
ATOM     12  O   UNL     1       7.101  11.389   1.937  1.00  0.00    -0.504 OA
ATOM     13  H   UNL     1       8.070  11.342   2.227  1.00  0.00     0.293 HD
ENDBRANCH   4  12
BRANCH   6  14
ATOM     14  O   UNL     1       5.901  13.415   3.420  1.00  0.00    -0.504 OA
ATOM     15  H   UNL     1       6.882  13.633   3.292  1.00  0.00     0.293 HD
ENDBRANCH   6  14
TORSDOF 4
ENDMDL
MODEL 3
REMARK VINA RESULT:    -4.853      3.553      5.694
REMARK INTER + INTRA:          -5.936
REMARK INTER:                  -5.834
REMARK INTRA:                  -0.102
REMARK UNBOUND:                -0.232
REMARK SMILES O=C([O-])C=Cc1ccc(O)c(O)c1
REMARK SMILES IDX 6 1 13 2 7 3 11 4 8 5 9 6 5 7 4 8 2 9 1 10 3 11 12 12 10 14
REMARK H PARENT 12 13 10 15
REMARK Flexibility Score: inf
ROOT
ATOM      1  C   UNL     1       5.973   7.731   2.295  1.00  0.00    -0.022 A 
ATOM      2  C   UNL     1       6.725   8.855   1.922  1.00  0.00     0.058 A 
ATOM      3  C   UNL     1       4.869   7.896   3.149  1.00  0.00     0.012 A 
ATOM      4  C   UNL     1       6.350  10.136   2.352  1.00  0.00     0.157 A 
ATOM      5  C   UNL     1       4.494   9.172   3.579  1.00  0.00     0.051 A 
ATOM      6  C   UNL     1       5.231  10.295   3.179  1.00  0.00     0.157 A 
ENDROOT
BRANCH   1   7
ATOM      7  C   UNL     1       6.418   6.388   1.871  1.00  0.00     0.010 C 
ATOM      8  C   UNL     1       5.668   5.492   1.209  1.00  0.00     0.025 C 
BRANCH   8   9
ATOM      9  C   UNL     1       4.335   5.744   0.629  1.00  0.00     0.064 C 
ATOM     10  O   UNL     1       3.295   5.234   1.123  1.00  0.00    -0.545 OA
ATOM     11  O   UNL     1       4.218   6.617  -0.445  1.00  0.00    -0.545 OA
ENDBRANCH   8   9
ENDBRANCH   1   7
BRANCH   4  12
ATOM     12  O   UNL     1       7.088  11.253   1.964  1.00  0.00    -0.504 OA
ATOM     13  H   UNL     1       8.066  11.182   1.713  1.00  0.00     0.293 HD
ENDBRANCH   4  12
BRANCH   6  14
ATOM     14  O   UNL     1       4.860  11.569   3.603  1.00  0.00    -0.504 OA
ATOM     15  H   UNL     1       5.264  12.403   3.191  1.00  0.00     0.293 HD
ENDBRANCH   6  14
TORSDOF 4
ENDMDL
MODEL 4
REMARK VINA RESULT:    -4.715      4.122      6.187
REMARK INTER + INTRA:          -5.774
REMARK INTER:                  -6.062
REMARK INTRA:                   0.288
REMARK UNBOUND:                -0.232
REMARK SMILES O=C([O-])C=Cc1ccc(O)c(O)c1
REMARK SMILES IDX 6 1 13 2 7 3 11 4 8 5 9 6 5 7 4 8 2 9 1 10 3 11 12 12 10 14
REMARK H PARENT 12 13 10 15
REMARK Flexibility Score: inf
ROOT
ATOM      1  C   UNL     1       5.738   6.878   1.880  1.00  0.00    -0.022 A 
ATOM      2  C   UNL     1       4.990   7.902   2.477  1.00  0.00     0.058 A 
ATOM      3  C   UNL     1       6.936   7.198   1.219  1.00  0.00     0.012 A 
ATOM      4  C   UNL     1       5.456   9.225   2.463  1.00  0.00     0.157 A 
ATOM      5  C   UNL     1       7.403   8.514   1.203  1.00  0.00     0.051 A 
ATOM      6  C   UNL     1       6.666   9.531   1.827  1.00  0.00     0.157 A 
ENDROOT
BRANCH   1   7
ATOM      7  C   UNL     1       5.199   5.502   1.864  1.00  0.00     0.010 C 
ATOM      8  C   UNL     1       4.240   5.051   1.039  1.00  0.00     0.025 C 
BRANCH   8   9
ATOM      9  C   UNL     1       3.680   5.783  -0.113  1.00  0.00     0.064 C 
ATOM     10  O   UNL     1       4.303   6.732  -0.657  1.00  0.00    -0.545 OA
ATOM     11  O   UNL     1       2.468   5.370  -0.652  1.00  0.00    -0.545 OA
ENDBRANCH   8   9
ENDBRANCH   1   7
BRANCH   4  12
ATOM     12  O   UNL     1       4.721  10.239   3.074  1.00  0.00    -0.504 OA
ATOM     13  H   UNL     1       5.122  11.152   3.252  1.00  0.00     0.293 HD
ENDBRANCH   4  12
BRANCH   6  14
ATOM     14  O   UNL     1       7.128  10.846   1.816  1.00  0.00    -0.504 OA
ATOM     15  H   UNL     1       6.489  11.632   1.790  1.00  0.00     0.293 HD
ENDBRANCH   6  14
TORSDOF 4
ENDMDL
MODEL 5
REMARK VINA RESULT:    -4.649      4.676      6.567
REMARK INTER + INTRA:          -5.697
REMARK INTER:                  -5.432
REMARK INTRA:                  -0.265
REMARK UNBOUND:                -0.232
REMARK SMILES O=C([O-])C=Cc1ccc(O)c(O)c1
REMARK SMILES IDX 6 1 13 2 7 3 11 4 8 5 9 6 5 7 4 8 2 9 1 10 3 11 12 12 10 14
REMARK H PARENT 12 13 10 15
REMARK Flexibility Score: inf
ROOT
ATOM      1  C   UNL     1       5.978   6.911   0.858  1.00  0.00    -0.022 A 
ATOM      2  C   UNL     1       4.761   6.920   0.161  1.00  0.00     0.058 A 
ATOM      3  C   UNL     1       6.235   5.882   1.780  1.00  0.00     0.012 A 
ATOM      4  C   UNL     1       3.831   5.885   0.341  1.00  0.00     0.157 A 
ATOM      5  C   UNL     1       5.311   4.851   1.960  1.00  0.00     0.051 A 
ATOM      6  C   UNL     1       4.108   4.847   1.240  1.00  0.00     0.157 A 
ENDROOT
BRANCH   1   7
ATOM      7  C   UNL     1       6.917   8.040   0.689  1.00  0.00     0.010 C 
ATOM      8  C   UNL     1       6.962   9.137   1.462  1.00  0.00     0.025 C 
BRANCH   8   9
ATOM      9  C   UNL     1       6.215   9.339   2.718  1.00  0.00     0.064 C 
ATOM     10  O   UNL     1       5.042   9.799   2.721  1.00  0.00    -0.545 OA
ATOM     11  O   UNL     1       6.793   8.949   3.919  1.00  0.00    -0.545 OA
ENDBRANCH   8   9
ENDBRANCH   1   7
BRANCH   4  12
ATOM     12  O   UNL     1       2.631   5.885  -0.367  1.00  0.00    -0.504 OA
ATOM     13  H   UNL     1       2.606   5.744  -1.369  1.00  0.00     0.293 HD
ENDBRANCH   4  12
BRANCH   6  14
ATOM     14  O   UNL     1       3.184   3.819   1.415  1.00  0.00    -0.504 OA
ATOM     15  H   UNL     1       3.185   3.240   2.247  1.00  0.00     0.293 HD
ENDBRANCH   6  14
TORSDOF 4
ENDMDL
MODEL 6
REMARK VINA RESULT:    -4.638      4.857      6.806
REMARK INTER + INTRA:          -5.684
REMARK INTER:                  -5.489
REMARK INTRA:                  -0.195
REMARK UNBOUND:                -0.232
REMARK SMILES O=C([O-])C=Cc1ccc(O)c(O)c1
REMARK SMILES IDX 6 1 13 2 7 3 11 4 8 5 9 6 5 7 4 8 2 9 1 10 3 11 12 12 10 14
REMARK H PARENT 12 13 10 15
REMARK Flexibility Score: inf
ROOT
ATOM      1  C   UNL     1       5.619   6.870   0.635  1.00  0.00    -0.022 A 
ATOM      2  C   UNL     1       5.673   5.854   1.600  1.00  0.00     0.058 A 
ATOM      3  C   UNL     1       4.545   6.901  -0.271  1.00  0.00     0.012 A 
ATOM      4  C   UNL     1       4.641   4.909   1.696  1.00  0.00     0.157 A 
ATOM      5  C   UNL     1       3.517   5.960  -0.178  1.00  0.00     0.051 A 
ATOM      6  C   UNL     1       3.560   4.964   0.807  1.00  0.00     0.157 A 
ENDROOT
BRANCH   1   7
ATOM      7  C   UNL     1       6.743   7.822   0.522  1.00  0.00     0.010 C 
ATOM      8  C   UNL     1       6.958   8.872   1.332  1.00  0.00     0.025 C 
BRANCH   8   9
ATOM      9  C   UNL     1       6.225   9.164   2.579  1.00  0.00     0.064 C 
ATOM     10  O   UNL     1       5.107   9.743   2.565  1.00  0.00    -0.545 OA
ATOM     11  O   UNL     1       6.749   8.730   3.790  1.00  0.00    -0.545 OA
ENDBRANCH   8   9
ENDBRANCH   1   7
BRANCH   4  12
ATOM     12  O   UNL     1       4.687   3.911   2.668  1.00  0.00    -0.504 OA
ATOM     13  H   UNL     1       3.852   3.603   3.152  1.00  0.00     0.293 HD
ENDBRANCH   4  12
BRANCH   6  14
ATOM     14  O   UNL     1       2.535   4.025   0.906  1.00  0.00    -0.504 OA
ATOM     15  H   UNL     1       1.974   3.938   1.746  1.00  0.00     0.293 HD
ENDBRANCH   6  14
TORSDOF 4
ENDMDL
MODEL 7
REMARK VINA RESULT:    -4.637      3.692      4.983
REMARK INTER + INTRA:          -5.683
REMARK INTER:                  -5.389
REMARK INTRA:                  -0.293
REMARK UNBOUND:                -0.232
REMARK SMILES O=C([O-])C=Cc1ccc(O)c(O)c1
REMARK SMILES IDX 6 1 13 2 7 3 11 4 8 5 9 6 5 7 4 8 2 9 1 10 3 11 12 12 10 14
REMARK H PARENT 12 13 10 15
REMARK Flexibility Score: inf
ROOT
ATOM      1  C   UNL     1       5.387   7.199   2.025  1.00  0.00    -0.022 A 
ATOM      2  C   UNL     1       4.790   8.276   2.696  1.00  0.00     0.058 A 
ATOM      3  C   UNL     1       6.554   7.420   1.273  1.00  0.00     0.012 A 
ATOM      4  C   UNL     1       5.377   9.549   2.663  1.00  0.00     0.157 A 
ATOM      5  C   UNL     1       7.141   8.687   1.239  1.00  0.00     0.051 A 
ATOM      6  C   UNL     1       6.557   9.754   1.936  1.00  0.00     0.157 A 
ENDROOT
BRANCH   1   7
ATOM      7  C   UNL     1       4.720   5.881   2.033  1.00  0.00     0.010 C 
ATOM      8  C   UNL     1       5.023   4.861   2.853  1.00  0.00     0.025 C 
BRANCH   8   9
ATOM      9  C   UNL     1       5.943   4.924   4.005  1.00  0.00     0.064 C 
ATOM     10  O   UNL     1       7.119   4.480   3.933  1.00  0.00    -0.545 OA
ATOM     11  O   UNL     1       5.523   5.548   5.173  1.00  0.00    -0.545 OA
ENDBRANCH   8   9
ENDBRANCH   1   7
BRANCH   4  12
ATOM     12  O   UNL     1       4.792  10.613   3.346  1.00  0.00    -0.504 OA
ATOM     13  H   UNL     1       3.813  10.843   3.232  1.00  0.00     0.293 HD
ENDBRANCH   4  12
BRANCH   6  14
ATOM     14  O   UNL     1       7.139  11.020   1.906  1.00  0.00    -0.504 OA
ATOM     15  H   UNL     1       7.154  11.577   1.060  1.00  0.00     0.293 HD
ENDBRANCH   6  14
TORSDOF 4
ENDMDL
MODEL 8
REMARK VINA RESULT:    -4.637      9.028     10.740
REMARK INTER + INTRA:          -5.682
REMARK INTER:                  -5.796
REMARK INTRA:                   0.114
REMARK UNBOUND:                -0.232
REMARK SMILES O=C([O-])C=Cc1ccc(O)c(O)c1
REMARK SMILES IDX 6 1 13 2 7 3 11 4 8 5 9 6 5 7 4 8 2 9 1 10 3 11 12 12 10 14
REMARK H PARENT 12 13 10 15
REMARK Flexibility Score: inf
ROOT
ATOM      1  C   UNL     1       3.811   2.537  -0.357  1.00  0.00    -0.022 A 
ATOM      2  C   UNL     1       4.537   2.252  -1.522  1.00  0.00     0.058 A 
ATOM      3  C   UNL     1       2.476   2.109  -0.257  1.00  0.00     0.012 A 
ATOM      4  C   UNL     1       3.957   1.503  -2.557  1.00  0.00     0.157 A 
ATOM      5  C   UNL     1       1.897   1.362  -1.286  1.00  0.00     0.051 A 
ATOM      6  C   UNL     1       2.636   1.055  -2.436  1.00  0.00     0.157 A 
ENDROOT
BRANCH   1   7
ATOM      7  C   UNL     1       4.428   3.372   0.694  1.00  0.00     0.010 C 
ATOM      8  C   UNL     1       4.452   4.715   0.707  1.00  0.00     0.025 C 
BRANCH   8   9
ATOM      9  C   UNL     1       3.720   5.600  -0.219  1.00  0.00     0.064 C 
ATOM     10  O   UNL     1       2.556   5.323  -0.613  1.00  0.00    -0.545 OA
ATOM     11  O   UNL     1       4.301   6.799  -0.611  1.00  0.00    -0.545 OA
ENDBRANCH   8   9
ENDBRANCH   1   7
BRANCH   4  12
ATOM     12  O   UNL     1       4.687   1.204  -3.705  1.00  0.00    -0.504 OA
ATOM     13  H   UNL     1       5.394   0.479  -3.711  1.00  0.00     0.293 HD
ENDBRANCH   4  12
BRANCH   6  14
ATOM     14  O   UNL     1       2.063   0.308  -3.464  1.00  0.00    -0.504 OA
ATOM     15  H   UNL     1       2.568  -0.445  -3.918  1.00  0.00     0.293 HD
ENDBRANCH   6  14
TORSDOF 4
ENDMDL
MODEL 9
REMARK VINA RESULT:    -4.625      2.258      4.858
REMARK INTER + INTRA:          -5.668
REMARK INTER:                  -5.439
REMARK INTRA:                  -0.229
REMARK UNBOUND:                -0.232
REMARK SMILES O=C([O-])C=Cc1ccc(O)c(O)c1
REMARK SMILES IDX 6 1 13 2 7 3 11 4 8 5 9 6 5 7 4 8 2 9 1 10 3 11 12 12 10 14
REMARK H PARENT 12 13 10 15
REMARK Flexibility Score: inf
ROOT
ATOM      1  C   UNL     1       5.876   9.564   3.833  1.00  0.00    -0.022 A 
ATOM      2  C   UNL     1       6.215  10.860   3.416  1.00  0.00     0.058 A 
ATOM      3  C   UNL     1       4.637   9.345   4.459  1.00  0.00     0.012 A 
ATOM      4  C   UNL     1       5.307  11.917   3.572  1.00  0.00     0.157 A 
ATOM      5  C   UNL     1       3.731  10.397   4.615  1.00  0.00     0.051 A 
ATOM      6  C   UNL     1       4.062  11.684   4.170  1.00  0.00     0.157 A 
ENDROOT
BRANCH   1   7
ATOM      7  C   UNL     1       6.871   8.479   3.704  1.00  0.00     0.010 C 
ATOM      8  C   UNL     1       7.043   7.707   2.619  1.00  0.00     0.025 C 
BRANCH   8   9
ATOM      9  C   UNL     1       6.405   7.910   1.305  1.00  0.00     0.064 C 
ATOM     10  O   UNL     1       5.191   7.634   1.113  1.00  0.00    -0.545 OA
ATOM     11  O   UNL     1       7.141   8.482   0.276  1.00  0.00    -0.545 OA
ENDBRANCH   8   9
ENDBRANCH   1   7
BRANCH   4  12
ATOM     12  O   UNL     1       5.637  13.200   3.139  1.00  0.00    -0.504 OA
ATOM     13  H   UNL     1       4.974  13.964   3.191  1.00  0.00     0.293 HD
ENDBRANCH   4  12
BRANCH   6  14
ATOM     14  O   UNL     1       3.160  12.736   4.321  1.00  0.00    -0.504 OA
ATOM     15  H   UNL     1       2.264  12.605   4.776  1.00  0.00     0.293 HD
ENDBRANCH   6  14
TORSDOF 4
ENDMDL
