MODEL 1
REMARK VINA RESULT:    -3.399      0.000      0.000
REMARK INTER + INTRA:          -6.546
REMARK INTER:                  -5.386
REMARK INTRA:                  -1.161
REMARK UNBOUND:                -1.161
REMARK SMILES CCCCCCCCCCCC(=O)[O-]
REMARK SMILES IDX 7 1 8 2 9 3 10 4 11 5 12 6 13 7 14 8 6 9 5 10 4 11 3 12 2 13
REMARK SMILES IDX 1 14
REMARK H PARENT
REMARK Flexibility Score: inf
ROOT
ATOM      1  C   UNL     1      33.876 -45.278  -1.665  1.00  0.00     0.000 C 
ENDROOT
BRANCH   1   2
ATOM      2  C   UNL     1      34.432 -46.622  -1.182  1.00  0.00     0.000 C 
BRANCH   2   3
ATOM      3  C   UNL     1      33.305 -47.647  -0.987  1.00  0.00     0.000 C 
BRANCH   3   4
ATOM      4  C   UNL     1      33.203 -48.155   0.463  1.00  0.00     0.006 C 
BRANCH   4   5
ATOM      5  C   UNL     1      32.823 -49.639   0.588  1.00  0.00     0.053 C 
BRANCH   5   6
ATOM      6  C   UNL     1      33.567 -50.319   1.694  1.00  0.00     0.041 C 
ATOM      7  O   UNL     1      34.702 -49.902   2.045  1.00  0.00    -0.550 OA
ATOM      8  O   UNL     1      32.993 -51.393   2.363  1.00  0.00    -0.550 OA
ENDBRANCH   5   6
ENDBRANCH   4   5
ENDBRANCH   3   4
ENDBRANCH   2   3
ENDBRANCH   1   2
BRANCH   1   9
ATOM      9  C   UNL     1      34.720 -44.110  -1.135  1.00  0.00     0.000 C 
BRANCH   9  10
ATOM     10  C   UNL     1      34.021 -43.339  -0.005  1.00  0.00    -0.000 C 
BRANCH  10  11
ATOM     11  C   UNL     1      32.714 -44.014   0.449  1.00  0.00    -0.000 C 
BRANCH  11  12
ATOM     12  C   UNL     1      32.848 -44.717   1.812  1.00  0.00    -0.000 C 
BRANCH  12  13
ATOM     13  C   UNL     1      34.225 -44.560   2.483  1.00  0.00    -0.003 C 
ATOM     14  C   UNL     1      34.845 -45.894   2.896  1.00  0.00     0.004 C 
ENDBRANCH  12  13
ENDBRANCH  11  12
ENDBRANCH  10  11
ENDBRANCH   9  10
ENDBRANCH   1   9
TORSDOF 10
ENDMDL
MODEL 2
REMARK VINA RESULT:    -3.383      2.689      4.057
REMARK INTER + INTRA:          -6.521
REMARK INTER:                  -5.441
REMARK INTRA:                  -1.080
REMARK UNBOUND:                -1.161
REMARK SMILES CCCCCCCCCCCC(=O)[O-]
REMARK SMILES IDX 7 1 8 2 9 3 10 4 11 5 12 6 13 7 14 8 6 9 5 10 4 11 3 12 2 13
REMARK SMILES IDX 1 14
REMARK H PARENT
REMARK Flexibility Score: inf
ROOT
ATOM      1  C   UNL     1      32.937 -49.575   0.463  1.00  0.00     0.000 C 
ENDROOT
BRANCH   1   2
ATOM      2  C   UNL     1      33.420 -50.318   1.713  1.00  0.00     0.000 C 
BRANCH   2   3
ATOM      3  C   UNL     1      34.864 -49.928   2.062  1.00  0.00     0.000 C 
BRANCH   3   4
ATOM      4  C   UNL     1      35.575 -50.984   2.929  1.00  0.00     0.006 C 
BRANCH   4   5
ATOM      5  C   UNL     1      36.174 -50.433   4.233  1.00  0.00     0.053 C 
BRANCH   5   6
ATOM      6  C   UNL     1      36.935 -51.478   4.988  1.00  0.00     0.041 C 
ATOM      7  O   UNL     1      38.083 -51.224   5.439  1.00  0.00    -0.550 OA
ATOM      8  O   UNL     1      36.363 -52.721   5.225  1.00  0.00    -0.550 OA
ENDBRANCH   5   6
ENDBRANCH   4   5
ENDBRANCH   3   4
ENDBRANCH   2   3
ENDBRANCH   1   2
BRANCH   1   9
ATOM      9  C   UNL     1      33.928 -48.474   0.058  1.00  0.00     0.000 C 
BRANCH   9  10
ATOM     10  C   UNL     1      33.288 -47.077   0.048  1.00  0.00    -0.000 C 
BRANCH  10  11
ATOM     11  C   UNL     1      34.169 -46.019   0.737  1.00  0.00    -0.000 C 
BRANCH  11  12
ATOM     12  C   UNL     1      33.904 -45.916   2.250  1.00  0.00    -0.000 C 
BRANCH  12  13
ATOM     13  C   UNL     1      35.058 -46.411   3.140  1.00  0.00    -0.003 C 
ATOM     14  C   UNL     1      36.400 -46.459   2.410  1.00  0.00     0.004 C 
ENDBRANCH  12  13
ENDBRANCH  11  12
ENDBRANCH  10  11
ENDBRANCH   9  10
ENDBRANCH   1   9
TORSDOF 10
ENDMDL
MODEL 3
REMARK VINA RESULT:    -3.355      2.797      3.867
REMARK INTER + INTRA:          -6.476
REMARK INTER:                  -5.158
REMARK INTRA:                  -1.318
REMARK UNBOUND:                -1.161
REMARK SMILES CCCCCCCCCCCC(=O)[O-]
REMARK SMILES IDX 7 1 8 2 9 3 10 4 11 5 12 6 13 7 14 8 6 9 5 10 4 11 3 12 2 13
REMARK SMILES IDX 1 14
REMARK H PARENT
REMARK Flexibility Score: inf
ROOT
ATOM      1  C   UNL     1      33.629 -46.585   0.292  1.00  0.00     0.000 C 
ENDROOT
BRANCH   1   2
ATOM      2  C   UNL     1      33.101 -47.968   0.692  1.00  0.00     0.000 C 
BRANCH   2   3
ATOM      3  C   UNL     1      33.692 -49.064  -0.207  1.00  0.00     0.000 C 
BRANCH   3   4
ATOM      4  C   UNL     1      34.541 -48.498  -1.361  1.00  0.00     0.006 C 
BRANCH   4   5
ATOM      5  C   UNL     1      34.110 -48.979  -2.756  1.00  0.00     0.053 C 
BRANCH   5   6
ATOM      6  C   UNL     1      32.646 -48.779  -2.994  1.00  0.00     0.041 C 
ATOM      7  O   UNL     1      32.173 -47.616  -3.095  1.00  0.00    -0.550 OA
ATOM      8  O   UNL     1      31.808 -49.878  -3.139  1.00  0.00    -0.550 OA
ENDBRANCH   5   6
ENDBRANCH   4   5
ENDBRANCH   3   4
ENDBRANCH   2   3
ENDBRANCH   1   2
BRANCH   1   9
ATOM      9  C   UNL     1      33.263 -45.530   1.345  1.00  0.00     0.000 C 
BRANCH   9  10
ATOM     10  C   UNL     1      34.265 -45.483   2.509  1.00  0.00    -0.000 C 
BRANCH  10  11
ATOM     11  C   UNL     1      35.718 -45.688   2.046  1.00  0.00    -0.000 C 
BRANCH  11  12
ATOM     12  C   UNL     1      36.414 -46.857   2.768  1.00  0.00    -0.000 C 
BRANCH  12  13
ATOM     13  C   UNL     1      35.483 -47.725   3.632  1.00  0.00    -0.003 C 
ATOM     14  C   UNL     1      35.465 -49.192   3.206  1.00  0.00     0.004 C 
ENDBRANCH  12  13
ENDBRANCH  11  12
ENDBRANCH  10  11
ENDBRANCH   9  10
ENDBRANCH   1   9
TORSDOF 10
ENDMDL
MODEL 4
REMARK VINA RESULT:    -3.352      1.042      2.852
REMARK INTER + INTRA:          -6.472
REMARK INTER:                  -5.286
REMARK INTRA:                  -1.186
REMARK UNBOUND:                -1.161
REMARK SMILES CCCCCCCCCCCC(=O)[O-]
REMARK SMILES IDX 7 1 8 2 9 3 10 4 11 5 12 6 13 7 14 8 6 9 5 10 4 11 3 12 2 13
REMARK SMILES IDX 1 14
REMARK H PARENT
REMARK Flexibility Score: inf
ROOT
ATOM      1  C   UNL     1      34.417 -46.085   2.477  1.00  0.00     0.000 C 
ENDROOT
BRANCH   1   2
ATOM      2  C   UNL     1      33.603 -46.821   1.406  1.00  0.00     0.000 C 
BRANCH   2   3
ATOM      3  C   UNL     1      34.511 -47.330   0.277  1.00  0.00     0.000 C 
BRANCH   3   4
ATOM      4  C   UNL     1      34.463 -48.861   0.115  1.00  0.00     0.006 C 
BRANCH   4   5
ATOM      5  C   UNL     1      33.229 -49.525   0.747  1.00  0.00     0.053 C 
BRANCH   5   6
ATOM      6  C   UNL     1      33.599 -50.463   1.854  1.00  0.00     0.041 C 
ATOM      7  O   UNL     1      32.808 -51.379   2.199  1.00  0.00    -0.550 OA
ATOM      8  O   UNL     1      34.834 -50.348   2.479  1.00  0.00    -0.550 OA
ENDBRANCH   5   6
ENDBRANCH   4   5
ENDBRANCH   3   4
ENDBRANCH   2   3
ENDBRANCH   1   2
BRANCH   1   9
ATOM      9  C   UNL     1      34.078 -44.587   2.494  1.00  0.00     0.000 C 
BRANCH   9  10
ATOM     10  C   UNL     1      35.141 -43.733   1.785  1.00  0.00    -0.000 C 
BRANCH  10  11
ATOM     11  C   UNL     1      34.561 -42.926   0.610  1.00  0.00    -0.000 C 
BRANCH  11  12
ATOM     12  C   UNL     1      34.612 -43.694  -0.724  1.00  0.00    -0.000 C 
BRANCH  12  13
ATOM     13  C   UNL     1      33.243 -44.166  -1.246  1.00  0.00    -0.003 C 
ATOM     14  C   UNL     1      32.072 -43.636  -0.420  1.00  0.00     0.004 C 
ENDBRANCH  12  13
ENDBRANCH  11  12
ENDBRANCH  10  11
ENDBRANCH   9  10
ENDBRANCH   1   9
TORSDOF 10
ENDMDL
MODEL 5
REMARK VINA RESULT:    -3.342      3.196      5.169
REMARK INTER + INTRA:          -6.456
REMARK INTER:                  -5.660
REMARK INTRA:                  -0.796
REMARK UNBOUND:                -1.161
REMARK SMILES CCCCCCCCCCCC(=O)[O-]
REMARK SMILES IDX 7 1 8 2 9 3 10 4 11 5 12 6 13 7 14 8 6 9 5 10 4 11 3 12 2 13
REMARK SMILES IDX 1 14
REMARK H PARENT
REMARK Flexibility Score: inf
ROOT
ATOM      1  C   UNL     1      35.383 -49.623   2.125  1.00  0.00     0.000 C 
ENDROOT
BRANCH   1   2
ATOM      2  C   UNL     1      35.434 -48.850   3.447  1.00  0.00     0.000 C 
BRANCH   2   3
ATOM      3  C   UNL     1      36.865 -48.386   3.759  1.00  0.00     0.000 C 
BRANCH   3   4
ATOM      4  C   UNL     1      37.560 -49.262   4.817  1.00  0.00     0.006 C 
BRANCH   4   5
ATOM      5  C   UNL     1      36.639 -50.294   5.488  1.00  0.00     0.053 C 
BRANCH   5   6
ATOM      6  C   UNL     1      36.976 -51.696   5.085  1.00  0.00     0.041 C 
ATOM      7  O   UNL     1      36.075 -52.573   5.027  1.00  0.00    -0.550 OA
ATOM      8  O   UNL     1      38.281 -52.026   4.739  1.00  0.00    -0.550 OA
ENDBRANCH   5   6
ENDBRANCH   4   5
ENDBRANCH   3   4
ENDBRANCH   2   3
ENDBRANCH   1   2
BRANCH   1   9
ATOM      9  C   UNL     1      33.962 -50.132   1.839  1.00  0.00     0.000 C 
BRANCH   9  10
ATOM     10  C   UNL     1      33.380 -49.562   0.537  1.00  0.00    -0.000 C 
BRANCH  10  11
ATOM     11  C   UNL     1      34.008 -48.210   0.152  1.00  0.00    -0.000 C 
BRANCH  11  12
ATOM     12  C   UNL     1      33.138 -47.009   0.565  1.00  0.00    -0.000 C 
BRANCH  12  13
ATOM     13  C   UNL     1      33.726 -46.148   1.697  1.00  0.00    -0.003 C 
ATOM     14  C   UNL     1      33.222 -44.706   1.677  1.00  0.00     0.004 C 
ENDBRANCH  12  13
ENDBRANCH  11  12
ENDBRANCH  10  11
ENDBRANCH   9  10
ENDBRANCH   1   9
TORSDOF 10
ENDMDL
MODEL 6
REMARK VINA RESULT:    -3.341      2.111      3.806
REMARK INTER + INTRA:          -6.456
REMARK INTER:                  -5.103
REMARK INTRA:                  -1.353
REMARK UNBOUND:                -1.161
REMARK SMILES CCCCCCCCCCCC(=O)[O-]
REMARK SMILES IDX 7 1 8 2 9 3 10 4 11 5 12 6 13 7 14 8 6 9 5 10 4 11 3 12 2 13
REMARK SMILES IDX 1 14
REMARK H PARENT
REMARK Flexibility Score: inf
ROOT
ATOM      1  C   UNL     1      35.893 -45.917   2.302  1.00  0.00     0.000 C 
ENDROOT
BRANCH   1   2
ATOM      2  C   UNL     1      36.544 -47.164   2.913  1.00  0.00     0.000 C 
BRANCH   2   3
ATOM      3  C   UNL     1      35.480 -48.149   3.418  1.00  0.00     0.000 C 
BRANCH   3   4
ATOM      4  C   UNL     1      35.989 -49.602   3.473  1.00  0.00     0.006 C 
BRANCH   4   5
ATOM      5  C   UNL     1      35.030 -50.632   2.854  1.00  0.00     0.053 C 
BRANCH   5   6
ATOM      6  C   UNL     1      35.265 -52.011   3.386  1.00  0.00     0.041 C 
ATOM      7  O   UNL     1      36.431 -52.389   3.673  1.00  0.00    -0.550 OA
ATOM      8  O   UNL     1      34.192 -52.867   3.600  1.00  0.00    -0.550 OA
ENDBRANCH   5   6
ENDBRANCH   4   5
ENDBRANCH   3   4
ENDBRANCH   2   3
ENDBRANCH   1   2
BRANCH   1   9
ATOM      9  C   UNL     1      34.372 -45.930   2.514  1.00  0.00     0.000 C 
BRANCH   9  10
ATOM     10  C   UNL     1      33.611 -45.226   1.381  1.00  0.00    -0.000 C 
BRANCH  10  11
ATOM     11  C   UNL     1      33.289 -46.172   0.210  1.00  0.00    -0.000 C 
BRANCH  11  12
ATOM     12  C   UNL     1      33.227 -47.650   0.637  1.00  0.00    -0.000 C 
BRANCH  12  13
ATOM     13  C   UNL     1      33.817 -48.639  -0.384  1.00  0.00    -0.003 C 
ATOM     14  C   UNL     1      35.339 -48.743  -0.308  1.00  0.00     0.004 C 
ENDBRANCH  12  13
ENDBRANCH  11  12
ENDBRANCH  10  11
ENDBRANCH   9  10
ENDBRANCH   1   9
TORSDOF 10
ENDMDL
MODEL 7
REMARK VINA RESULT:    -3.283      1.367      3.278
REMARK INTER + INTRA:          -6.362
REMARK INTER:                  -5.015
REMARK INTRA:                  -1.347
REMARK UNBOUND:                -1.161
REMARK SMILES CCCCCCCCCCCC(=O)[O-]
REMARK SMILES IDX 7 1 8 2 9 3 10 4 11 5 12 6 13 7 14 8 6 9 5 10 4 11 3 12 2 13
REMARK SMILES IDX 1 14
REMARK H PARENT
REMARK Flexibility Score: inf
ROOT
ATOM      1  C   UNL     1      34.339 -43.867   1.098  1.00  0.00     0.000 C 
ENDROOT
BRANCH   1   2
ATOM      2  C   UNL     1      33.298 -44.860   1.627  1.00  0.00     0.000 C 
BRANCH   2   3
ATOM      3  C   UNL     1      33.963 -46.170   2.073  1.00  0.00     0.000 C 
BRANCH   3   4
ATOM      4  C   UNL     1      34.289 -47.107   0.896  1.00  0.00     0.006 C 
BRANCH   4   5
ATOM      5  C   UNL     1      33.125 -48.019   0.473  1.00  0.00     0.053 C 
BRANCH   5   6
ATOM      6  C   UNL     1      33.279 -49.411   1.002  1.00  0.00     0.041 C 
ATOM      7  O   UNL     1      32.334 -50.236   0.898  1.00  0.00    -0.550 OA
ATOM      8  O   UNL     1      34.479 -49.807   1.579  1.00  0.00    -0.550 OA
ENDBRANCH   5   6
ENDBRANCH   4   5
ENDBRANCH   3   4
ENDBRANCH   2   3
ENDBRANCH   1   2
BRANCH   1   9
ATOM      9  C   UNL     1      33.835 -43.164  -0.170  1.00  0.00     0.000 C 
BRANCH   9  10
ATOM     10  C   UNL     1      32.452 -43.663  -0.614  1.00  0.00    -0.000 C 
BRANCH  10  11
ATOM     11  C   UNL     1      32.449 -44.187  -2.062  1.00  0.00    -0.000 C 
BRANCH  11  12
ATOM     12  C   UNL     1      31.954 -45.641  -2.169  1.00  0.00    -0.000 C 
BRANCH  12  13
ATOM     13  C   UNL     1      32.880 -46.578  -2.964  1.00  0.00    -0.003 C 
ATOM     14  C   UNL     1      34.363 -46.266  -2.764  1.00  0.00     0.004 C 
ENDBRANCH  12  13
ENDBRANCH  11  12
ENDBRANCH  10  11
ENDBRANCH   9  10
ENDBRANCH   1   9
TORSDOF 10
ENDMDL
MODEL 8
REMARK VINA RESULT:    -3.243      2.639      4.274
REMARK INTER + INTRA:          -6.299
REMARK INTER:                  -5.051
REMARK INTRA:                  -1.248
REMARK UNBOUND:                -1.161
REMARK SMILES CCCCCCCCCCCC(=O)[O-]
REMARK SMILES IDX 7 1 8 2 9 3 10 4 11 5 12 6 13 7 14 8 6 9 5 10 4 11 3 12 2 13
REMARK SMILES IDX 1 14
REMARK H PARENT
REMARK Flexibility Score: inf
ROOT
ATOM      1  C   UNL     1      35.011 -49.400   1.811  1.00  0.00     0.000 C 
ENDROOT
BRANCH   1   2
ATOM      2  C   UNL     1      33.739 -49.546   0.967  1.00  0.00     0.000 C 
BRANCH   2   3
ATOM      3  C   UNL     1      33.167 -48.172   0.590  1.00  0.00     0.000 C 
BRANCH   3   4
ATOM      4  C   UNL     1      33.850 -47.559  -0.647  1.00  0.00     0.006 C 
BRANCH   4   5
ATOM      5  C   UNL     1      34.069 -48.549  -1.803  1.00  0.00     0.053 C 
BRANCH   5   6
ATOM      6  C   UNL     1      33.027 -48.409  -2.868  1.00  0.00     0.041 C 
ATOM      7  O   UNL     1      33.068 -47.441  -3.672  1.00  0.00    -0.550 OA
ATOM      8  O   UNL     1      32.030 -49.368  -2.996  1.00  0.00    -0.550 OA
ENDBRANCH   5   6
ENDBRANCH   4   5
ENDBRANCH   3   4
ENDBRANCH   2   3
ENDBRANCH   1   2
BRANCH   1   9
ATOM      9  C   UNL     1      34.834 -48.327   2.894  1.00  0.00     0.000 C 
BRANCH   9  10
ATOM     10  C   UNL     1      36.105 -47.492   3.112  1.00  0.00    -0.000 C 
BRANCH  10  11
ATOM     11  C   UNL     1      35.987 -46.073   2.527  1.00  0.00    -0.000 C 
BRANCH  11  12
ATOM     12  C   UNL     1      34.627 -45.416   2.825  1.00  0.00    -0.000 C 
BRANCH  12  13
ATOM     13  C   UNL     1      34.121 -44.460   1.730  1.00  0.00    -0.003 C 
ATOM     14  C   UNL     1      32.615 -44.559   1.497  1.00  0.00     0.004 C 
ENDBRANCH  12  13
ENDBRANCH  11  12
ENDBRANCH  10  11
ENDBRANCH   9  10
ENDBRANCH   1   9
TORSDOF 10
ENDMDL
MODEL 9
REMARK VINA RESULT:    -3.212      2.376      3.820
REMARK INTER + INTRA:          -6.251
REMARK INTER:                  -5.026
REMARK INTRA:                  -1.224
REMARK UNBOUND:                -1.161
REMARK SMILES CCCCCCCCCCCC(=O)[O-]
REMARK SMILES IDX 7 1 8 2 9 3 10 4 11 5 12 6 13 7 14 8 6 9 5 10 4 11 3 12 2 13
REMARK SMILES IDX 1 14
REMARK H PARENT
REMARK Flexibility Score: inf
ROOT
ATOM      1  C   UNL     1      35.126 -47.200   1.683  1.00  0.00     0.000 C 
ENDROOT
BRANCH   1   2
ATOM      2  C   UNL     1      34.228 -48.439   1.591  1.00  0.00     0.000 C 
BRANCH   2   3
ATOM      3  C   UNL     1      33.249 -48.324   0.414  1.00  0.00     0.000 C 
BRANCH   3   4
ATOM      4  C   UNL     1      33.883 -47.673  -0.830  1.00  0.00     0.006 C 
BRANCH   4   5
ATOM      5  C   UNL     1      32.958 -47.618  -2.056  1.00  0.00     0.053 C 
BRANCH   5   6
ATOM      6  C   UNL     1      33.034 -48.870  -2.874  1.00  0.00     0.041 C 
ATOM      7  O   UNL     1      31.987 -49.515  -3.144  1.00  0.00    -0.550 OA
ATOM      8  O   UNL     1      34.257 -49.306  -3.368  1.00  0.00    -0.550 OA
ENDBRANCH   5   6
ENDBRANCH   4   5
ENDBRANCH   3   4
ENDBRANCH   2   3
ENDBRANCH   1   2
BRANCH   1   9
ATOM      9  C   UNL     1      34.732 -46.322   2.879  1.00  0.00     0.000 C 
BRANCH   9  10
ATOM     10  C   UNL     1      34.243 -44.929   2.454  1.00  0.00    -0.000 C 
BRANCH  10  11
ATOM     11  C   UNL     1      32.874 -44.972   1.752  1.00  0.00    -0.000 C 
BRANCH  11  12
ATOM     12  C   UNL     1      32.791 -44.017   0.547  1.00  0.00    -0.000 C 
BRANCH  12  13
ATOM     13  C   UNL     1      33.999 -44.078  -0.405  1.00  0.00    -0.003 C 
ATOM     14  C   UNL     1      34.754 -42.753  -0.502  1.00  0.00     0.004 C 
ENDBRANCH  12  13
ENDBRANCH  11  12
ENDBRANCH  10  11
ENDBRANCH   9  10
ENDBRANCH   1   9
TORSDOF 10
ENDMDL
