MODEL 1
REMARK VINA RESULT:    -5.275      0.000      0.000
REMARK INTER + INTRA:          -5.275
REMARK INTER:                  -5.275
REMARK INTRA:                   0.000
REMARK UNBOUND:                 0.000
REMARK SMILES C=C1CCC[C@@]2(C)CC(=O)C(=C(C)C)C[C@H]12
REMARK SMILES IDX 13 1 12 2 11 3 15 4 16 5 2 6 1 7 3 8 4 9 5 10 6 11 8 12 9 13
REMARK SMILES IDX 10 14 7 15 14 16
REMARK H PARENT
REMARK Flexibility Score: inf
ROOT
ATOM      1  C   UNL     1       9.239 -28.726  18.701  1.00  0.00     0.039 C 
ATOM      2  C   UNL     1       8.176 -29.642  18.139  1.00  0.00    -0.070 C 
ATOM      3  C   UNL     1       8.166 -29.988  16.817  1.00  0.00    -0.006 C 
ATOM      4  C   UNL     1       9.238 -29.482  15.862  1.00  0.00     0.047 C 
ATOM      5  C   UNL     1       9.531 -30.474  14.708  1.00  0.00     0.025 C 
ATOM      6  C   UNL     1      10.572 -30.001  13.693  1.00  0.00    -0.073 C 
ATOM      7  C   UNL     1      11.202 -28.812  13.757  1.00  0.00     0.008 C 
ATOM      8  C   UNL     1      10.919 -30.973  12.590  1.00  0.00     0.031 C 
ATOM      9  C   UNL     1       9.649 -31.444  11.875  1.00  0.00     0.005 C 
ATOM     10  C   UNL     1       8.599 -31.967  12.870  1.00  0.00     0.008 C 
ATOM     11  C   UNL     1       8.230 -30.930  13.973  1.00  0.00    -0.018 C 
ATOM     12  C   UNL     1       7.302 -31.625  14.998  1.00  0.00     0.088 C 
ATOM     13  C   UNL     1       7.052 -30.770  16.207  1.00  0.00     0.159 C 
ATOM     14  O   UNL     1       5.883 -30.720  16.678  1.00  0.00    -0.295 OA
ATOM     15  C   UNL     1       7.480 -29.731  13.329  1.00  0.00     0.012 C 
ATOM     16  C   UNL     1       7.154 -30.184  19.111  1.00  0.00     0.039 C 
ENDROOT
TORSDOF 0
ENDMDL
MODEL 2
REMARK VINA RESULT:    -5.112      1.220      1.478
REMARK INTER + INTRA:          -5.112
REMARK INTER:                  -5.112
REMARK INTRA:                   0.000
REMARK UNBOUND:                 0.000
REMARK SMILES C=C1CCC[C@@]2(C)CC(=O)C(=C(C)C)C[C@H]12
REMARK SMILES IDX 13 1 12 2 11 3 15 4 16 5 2 6 1 7 3 8 4 9 5 10 6 11 8 12 9 13
REMARK SMILES IDX 10 14 7 15 14 16
REMARK H PARENT
REMARK Flexibility Score: inf
ROOT
ATOM      1  C   UNL     1      10.382 -27.952  17.228  1.00  0.00     0.039 C 
ATOM      2  C   UNL     1       9.257 -28.925  17.495  1.00  0.00    -0.070 C 
ATOM      3  C   UNL     1       8.690 -29.648  16.484  1.00  0.00    -0.006 C 
ATOM      4  C   UNL     1       9.184 -29.520  15.050  1.00  0.00     0.047 C 
ATOM      5  C   UNL     1       9.014 -30.827  14.236  1.00  0.00     0.025 C 
ATOM      6  C   UNL     1       9.456 -30.746  12.775  1.00  0.00    -0.073 C 
ATOM      7  C   UNL     1       9.952 -29.634  12.199  1.00  0.00     0.008 C 
ATOM      8  C   UNL     1       9.355 -32.022  11.974  1.00  0.00     0.031 C 
ATOM      9  C   UNL     1       7.942 -32.604  12.075  1.00  0.00     0.005 C 
ATOM     10  C   UNL     1       7.486 -32.739  13.537  1.00  0.00     0.008 C 
ATOM     11  C   UNL     1       7.563 -31.399  14.328  1.00  0.00    -0.018 C 
ATOM     12  C   UNL     1       7.242 -31.696  15.813  1.00  0.00     0.088 C 
ATOM     13  C   UNL     1       7.486 -30.505  16.695  1.00  0.00     0.159 C 
ATOM     14  O   UNL     1       6.648 -30.243  17.599  1.00  0.00    -0.295 OA
ATOM     15  C   UNL     1       6.512 -30.402  13.765  1.00  0.00     0.012 C 
ATOM     16  C   UNL     1       8.818 -29.086  18.932  1.00  0.00     0.039 C 
ENDROOT
TORSDOF 0
ENDMDL
MODEL 3
REMARK VINA RESULT:    -5.040      1.514      2.208
REMARK INTER + INTRA:          -5.040
REMARK INTER:                  -5.040
REMARK INTRA:                   0.000
REMARK UNBOUND:                 0.000
REMARK SMILES C=C1CCC[C@@]2(C)CC(=O)C(=C(C)C)C[C@H]12
REMARK SMILES IDX 13 1 12 2 11 3 15 4 16 5 2 6 1 7 3 8 4 9 5 10 6 11 8 12 9 13
REMARK SMILES IDX 10 14 7 15 14 16
REMARK H PARENT
REMARK Flexibility Score: inf
ROOT
ATOM      1  C   UNL     1      10.418 -27.886  17.123  1.00  0.00     0.039 C 
ATOM      2  C   UNL     1       9.383 -28.800  17.740  1.00  0.00    -0.070 C 
ATOM      3  C   UNL     1       8.620 -29.630  16.968  1.00  0.00    -0.006 C 
ATOM      4  C   UNL     1       8.797 -29.684  15.457  1.00  0.00     0.047 C 
ATOM      5  C   UNL     1       8.467 -31.077  14.863  1.00  0.00     0.025 C 
ATOM      6  C   UNL     1       8.588 -31.180  13.342  1.00  0.00    -0.073 C 
ATOM      7  C   UNL     1       8.940 -30.156  12.543  1.00  0.00     0.008 C 
ATOM      8  C   UNL     1       8.329 -32.543  12.743  1.00  0.00     0.031 C 
ATOM      9  C   UNL     1       6.974 -33.082  13.212  1.00  0.00     0.005 C 
ATOM     10  C   UNL     1       6.841 -33.032  14.743  1.00  0.00     0.008 C 
ATOM     11  C   UNL     1       7.074 -31.607  15.330  1.00  0.00    -0.018 C 
ATOM     12  C   UNL     1       7.080 -31.717  16.875  1.00  0.00     0.088 C 
ATOM     13  C   UNL     1       7.496 -30.433  17.532  1.00  0.00     0.159 C 
ATOM     14  O   UNL     1       6.867 -30.048  18.555  1.00  0.00    -0.295 OA
ATOM     15  C   UNL     1       5.920 -30.666  14.886  1.00  0.00     0.012 C 
ATOM     16  C   UNL     1       9.262 -28.778  19.246  1.00  0.00     0.039 C 
ENDROOT
TORSDOF 0
ENDMDL
MODEL 4
REMARK VINA RESULT:    -4.679      2.447      5.493
REMARK INTER + INTRA:          -4.679
REMARK INTER:                  -4.679
REMARK INTRA:                   0.000
REMARK UNBOUND:                 0.000
REMARK SMILES C=C1CCC[C@@]2(C)CC(=O)C(=C(C)C)C[C@H]12
REMARK SMILES IDX 13 1 12 2 11 3 15 4 16 5 2 6 1 7 3 8 4 9 5 10 6 11 8 12 9 13
REMARK SMILES IDX 10 14 7 15 14 16
REMARK H PARENT
REMARK Flexibility Score: inf
ROOT
ATOM      1  C   UNL     1      10.908 -34.907  12.978  1.00  0.00     0.039 C 
ATOM      2  C   UNL     1      11.096 -33.421  12.772  1.00  0.00    -0.070 C 
ATOM      3  C   UNL     1      10.278 -32.512  13.382  1.00  0.00    -0.006 C 
ATOM      4  C   UNL     1       9.158 -32.959  14.311  1.00  0.00     0.047 C 
ATOM      5  C   UNL     1       8.855 -31.927  15.427  1.00  0.00     0.025 C 
ATOM      6  C   UNL     1       7.711 -32.304  16.368  1.00  0.00    -0.073 C 
ATOM      7  C   UNL     1       6.988 -33.435  16.260  1.00  0.00     0.008 C 
ATOM      8  C   UNL     1       7.433 -31.343  17.500  1.00  0.00     0.031 C 
ATOM      9  C   UNL     1       7.237 -29.924  16.958  1.00  0.00     0.005 C 
ATOM     10  C   UNL     1       8.397 -29.500  16.042  1.00  0.00     0.008 C 
ATOM     11  C   UNL     1       8.635 -30.488  14.860  1.00  0.00    -0.018 C 
ATOM     12  C   UNL     1       9.919 -30.049  14.116  1.00  0.00     0.088 C 
ATOM     13  C   UNL     1      10.347 -31.052  13.084  1.00  0.00     0.159 C 
ATOM     14  O   UNL     1      10.749 -30.632  11.965  1.00  0.00    -0.295 OA
ATOM     15  C   UNL     1       7.429 -30.430  13.883  1.00  0.00     0.012 C 
ATOM     16  C   UNL     1      12.249 -32.992  11.895  1.00  0.00     0.039 C 
ENDROOT
TORSDOF 0
ENDMDL
MODEL 5
REMARK VINA RESULT:    -4.502      1.957      4.712
REMARK INTER + INTRA:          -4.502
REMARK INTER:                  -4.502
REMARK INTRA:                   0.000
REMARK UNBOUND:                 0.000
REMARK SMILES C=C1CCC[C@@]2(C)CC(=O)C(=C(C)C)C[C@H]12
REMARK SMILES IDX 13 1 12 2 11 3 15 4 16 5 2 6 1 7 3 8 4 9 5 10 6 11 8 12 9 13
REMARK SMILES IDX 10 14 7 15 14 16
REMARK H PARENT
REMARK Flexibility Score: inf
ROOT
ATOM      1  C   UNL     1      10.243 -30.034  12.075  1.00  0.00     0.039 C 
ATOM      2  C   UNL     1      10.151 -29.763  13.559  1.00  0.00    -0.070 C 
ATOM      3  C   UNL     1       9.231 -30.403  14.340  1.00  0.00    -0.006 C 
ATOM      4  C   UNL     1       8.276 -31.432  13.750  1.00  0.00     0.047 C 
ATOM      5  C   UNL     1       7.875 -32.531  14.766  1.00  0.00     0.025 C 
ATOM      6  C   UNL     1       6.884 -33.571  14.241  1.00  0.00    -0.073 C 
ATOM      7  C   UNL     1       6.367 -33.559  12.998  1.00  0.00     0.008 C 
ATOM      8  C   UNL     1       6.522 -34.688  15.192  1.00  0.00     0.031 C 
ATOM      9  C   UNL     1       6.041 -34.115  16.529  1.00  0.00     0.005 C 
ATOM     10  C   UNL     1       7.041 -33.097  17.103  1.00  0.00     0.008 C 
ATOM     11  C   UNL     1       7.366 -31.935  16.117  1.00  0.00    -0.018 C 
ATOM     12  C   UNL     1       8.497 -31.078  16.736  1.00  0.00     0.088 C 
ATOM     13  C   UNL     1       9.021 -30.051  15.775  1.00  0.00     0.159 C 
ATOM     14  O   UNL     1       9.262 -28.891  16.205  1.00  0.00    -0.295 OA
ATOM     15  C   UNL     1       6.102 -31.053  15.919  1.00  0.00     0.012 C 
ATOM     16  C   UNL     1      11.146 -28.785  14.140  1.00  0.00     0.039 C 
ENDROOT
TORSDOF 0
ENDMDL
MODEL 6
REMARK VINA RESULT:    -4.462      2.045      3.580
REMARK INTER + INTRA:          -4.462
REMARK INTER:                  -4.462
REMARK INTRA:                   0.000
REMARK UNBOUND:                 0.000
REMARK SMILES C=C1CCC[C@@]2(C)CC(=O)C(=C(C)C)C[C@H]12
REMARK SMILES IDX 13 1 12 2 11 3 15 4 16 5 2 6 1 7 3 8 4 9 5 10 6 11 8 12 9 13
REMARK SMILES IDX 10 14 7 15 14 16
REMARK H PARENT
REMARK Flexibility Score: inf
ROOT
ATOM      1  C   UNL     1       8.826 -29.208  18.389  1.00  0.00     0.039 C 
ATOM      2  C   UNL     1       9.492 -28.805  17.093  1.00  0.00    -0.070 C 
ATOM      3  C   UNL     1       9.250 -29.482  15.931  1.00  0.00    -0.006 C 
ATOM      4  C   UNL     1       8.282 -30.656  15.891  1.00  0.00     0.047 C 
ATOM      5  C   UNL     1       7.576 -30.806  14.520  1.00  0.00     0.025 C 
ATOM      6  C   UNL     1       6.621 -31.995  14.407  1.00  0.00    -0.073 C 
ATOM      7  C   UNL     1       6.393 -32.875  15.401  1.00  0.00     0.008 C 
ATOM      8  C   UNL     1       5.875 -32.131  13.101  1.00  0.00     0.031 C 
ATOM      9  C   UNL     1       6.856 -32.117  11.924  1.00  0.00     0.005 C 
ATOM     10  C   UNL     1       7.801 -30.906  11.987  1.00  0.00     0.008 C 
ATOM     11  C   UNL     1       8.587 -30.813  13.329  1.00  0.00    -0.018 C 
ATOM     12  C   UNL     1       9.370 -29.477  13.339  1.00  0.00     0.088 C 
ATOM     13  C   UNL     1      10.000 -29.199  14.673  1.00  0.00     0.159 C 
ATOM     14  O   UNL     1      11.173 -28.738  14.701  1.00  0.00    -0.295 OA
ATOM     15  C   UNL     1       9.589 -31.997  13.429  1.00  0.00     0.012 C 
ATOM     16  C   UNL     1      10.403 -27.600  17.137  1.00  0.00     0.039 C 
ENDROOT
TORSDOF 0
ENDMDL
MODEL 7
REMARK VINA RESULT:    -4.159      1.508      4.898
REMARK INTER + INTRA:          -4.159
REMARK INTER:                  -4.159
REMARK INTRA:                   0.000
REMARK UNBOUND:                 0.000
REMARK SMILES C=C1CCC[C@@]2(C)CC(=O)C(=C(C)C)C[C@H]12
REMARK SMILES IDX 13 1 12 2 11 3 15 4 16 5 2 6 1 7 3 8 4 9 5 10 6 11 8 12 9 13
REMARK SMILES IDX 10 14 7 15 14 16
REMARK H PARENT
REMARK Flexibility Score: inf
ROOT
ATOM      1  C   UNL     1      11.597 -28.885  13.750  1.00  0.00     0.039 C 
ATOM      2  C   UNL     1      10.264 -29.494  13.380  1.00  0.00    -0.070 C 
ATOM      3  C   UNL     1       9.325 -29.776  14.331  1.00  0.00    -0.006 C 
ATOM      4  C   UNL     1       9.576 -29.466  15.801  1.00  0.00     0.047 C 
ATOM      5  C   UNL     1       8.274 -29.137  16.575  1.00  0.00     0.025 C 
ATOM      6  C   UNL     1       8.459 -28.856  18.067  1.00  0.00    -0.073 C 
ATOM      7  C   UNL     1       9.647 -28.895  18.699  1.00  0.00     0.008 C 
ATOM      8  C   UNL     1       7.215 -28.475  18.834  1.00  0.00     0.031 C 
ATOM      9  C   UNL     1       6.114 -29.517  18.616  1.00  0.00     0.005 C 
ATOM     10  C   UNL     1       5.875 -29.787  17.121  1.00  0.00     0.008 C 
ATOM     11  C   UNL     1       7.167 -30.218  16.363  1.00  0.00    -0.018 C 
ATOM     12  C   UNL     1       6.837 -30.297  14.853  1.00  0.00     0.088 C 
ATOM     13  C   UNL     1       8.064 -30.508  14.014  1.00  0.00     0.159 C 
ATOM     14  O   UNL     1       8.006 -31.324  13.054  1.00  0.00    -0.295 OA
ATOM     15  C   UNL     1       7.622 -31.616  16.864  1.00  0.00     0.012 C 
ATOM     16  C   UNL     1      10.008 -29.740  11.911  1.00  0.00     0.039 C 
ENDROOT
TORSDOF 0
ENDMDL
MODEL 8
REMARK VINA RESULT:    -4.116      1.445      1.824
REMARK INTER + INTRA:          -4.116
REMARK INTER:                  -4.116
REMARK INTRA:                   0.000
REMARK UNBOUND:                 0.000
REMARK SMILES C=C1CCC[C@@]2(C)CC(=O)C(=C(C)C)C[C@H]12
REMARK SMILES IDX 13 1 12 2 11 3 15 4 16 5 2 6 1 7 3 8 4 9 5 10 6 11 8 12 9 13
REMARK SMILES IDX 10 14 7 15 14 16
REMARK H PARENT
REMARK Flexibility Score: inf
ROOT
ATOM      1  C   UNL     1       9.364 -28.751  17.105  1.00  0.00     0.039 C 
ATOM      2  C   UNL     1       8.464 -29.964  17.167  1.00  0.00    -0.070 C 
ATOM      3  C   UNL     1       8.384 -30.841  16.122  1.00  0.00    -0.006 C 
ATOM      4  C   UNL     1       9.216 -30.643  14.863  1.00  0.00     0.047 C 
ATOM      5  C   UNL     1       9.584 -31.980  14.170  1.00  0.00     0.025 C 
ATOM      6  C   UNL     1      10.387 -31.842  12.876  1.00  0.00    -0.073 C 
ATOM      7  C   UNL     1      10.754 -30.663  12.339  1.00  0.00     0.008 C 
ATOM      8  C   UNL     1      10.810 -33.131  12.212  1.00  0.00     0.031 C 
ATOM      9  C   UNL     1       9.597 -34.043  11.997  1.00  0.00     0.005 C 
ATOM     10  C   UNL     1       8.795 -34.236  13.295  1.00  0.00     0.008 C 
ATOM     11  C   UNL     1       8.337 -32.891  13.937  1.00  0.00    -0.018 C 
ATOM     12  C   UNL     1       7.692 -33.207  15.308  1.00  0.00     0.088 C 
ATOM     13  C   UNL     1       7.400 -31.962  16.096  1.00  0.00     0.159 C 
ATOM     14  O   UNL     1       6.305 -31.886  16.717  1.00  0.00    -0.295 OA
ATOM     15  C   UNL     1       7.286 -32.208  13.019  1.00  0.00     0.012 C 
ATOM     16  C   UNL     1       7.690 -30.179  18.447  1.00  0.00     0.039 C 
ENDROOT
TORSDOF 0
ENDMDL
