MODEL 1
REMARK VINA RESULT:    -5.235      0.000      0.000
REMARK INTER + INTRA:         -13.925
REMARK INTER:                 -11.355
REMARK INTRA:                  -2.570
REMARK UNBOUND:                -2.570
REMARK SMILES CCCCCCCCCCCCCCCCCCCCCC(=O)[O-]
REMARK SMILES IDX 12 1 11 2 10 3 9 4 8 5 7 6 6 7 5 8 4 9 3 10 2 11 1 12 13 13
REMARK SMILES IDX 14 14 15 15 16 16 17 17 18 18 19 19 20 20 21 21 22 22 23 23
REMARK SMILES IDX 24 24
REMARK H PARENT
REMARK Flexibility Score: inf
ROOT
ATOM      1  C   UNL     1      -6.564   6.617  -7.727  1.00  0.00     0.000 C 
ENDROOT
BRANCH   1   2
ATOM      2  C   UNL     1      -6.463   6.464  -9.259  1.00  0.00     0.000 C 
BRANCH   2   3
ATOM      3  C   UNL     1      -7.281   7.483 -10.074  1.00  0.00     0.000 C 
BRANCH   3   4
ATOM      4  C   UNL     1      -6.464   8.150 -11.190  1.00  0.00    -0.000 C 
BRANCH   4   5
ATOM      5  C   UNL     1      -6.959   9.580 -11.451  1.00  0.00    -0.000 C 
BRANCH   5   6
ATOM      6  C   UNL     1      -8.101   9.995 -10.510  1.00  0.00    -0.000 C 
BRANCH   6   7
ATOM      7  C   UNL     1      -7.744  11.216  -9.641  1.00  0.00    -0.000 C 
BRANCH   7   8
ATOM      8  C   UNL     1      -6.231  11.324  -9.354  1.00  0.00    -0.000 C 
BRANCH   8   9
ATOM      9  C   UNL     1      -5.759  10.493  -8.146  1.00  0.00    -0.000 C 
BRANCH   9  10
ATOM     10  C   UNL     1      -4.435   9.733  -8.346  1.00  0.00    -0.000 C 
BRANCH  10  11
ATOM     11  C   UNL     1      -3.741   9.288  -7.047  1.00  0.00    -0.003 C 
ATOM     12  C   UNL     1      -3.328   7.815  -7.065  1.00  0.00     0.004 C 
ENDBRANCH  10  11
ENDBRANCH   9  10
ENDBRANCH   8   9
ENDBRANCH   7   8
ENDBRANCH   6   7
ENDBRANCH   5   6
ENDBRANCH   4   5
ENDBRANCH   3   4
ENDBRANCH   2   3
ENDBRANCH   1   2
BRANCH   1  13
ATOM     13  C   UNL     1      -7.703   7.526  -7.229  1.00  0.00     0.000 C 
BRANCH  13  14
ATOM     14  C   UNL     1      -8.748   6.768  -6.391  1.00  0.00     0.000 C 
BRANCH  14  15
ATOM     15  C   UNL     1      -9.791   6.041  -7.254  1.00  0.00     0.000 C 
BRANCH  15  16
ATOM     16  C   UNL     1     -10.853   5.243  -6.473  1.00  0.00     0.000 C 
BRANCH  16  17
ATOM     17  C   UNL     1     -10.433   4.867  -5.036  1.00  0.00     0.000 C 
BRANCH  17  18
ATOM     18  C   UNL     1     -10.441   3.346  -4.794  1.00  0.00     0.000 C 
BRANCH  18  19
ATOM     19  C   UNL     1     -10.903   2.551  -6.026  1.00  0.00     0.000 C 
BRANCH  19  20
ATOM     20  C   UNL     1     -10.109   1.249  -6.226  1.00  0.00     0.006 C 
BRANCH  20  21
ATOM     21  C   UNL     1     -10.820   0.278  -7.181  1.00  0.00     0.053 C 
BRANCH  21  22
ATOM     22  C   UNL     1     -10.331   0.419  -8.591  1.00  0.00     0.041 C 
ATOM     23  O   UNL     1     -10.675   1.412  -9.285  1.00  0.00    -0.550 OA
ATOM     24  O   UNL     1      -9.464  -0.526  -9.123  1.00  0.00    -0.550 OA
ENDBRANCH  21  22
ENDBRANCH  20  21
ENDBRANCH  19  20
ENDBRANCH  18  19
ENDBRANCH  17  18
ENDBRANCH  16  17
ENDBRANCH  15  16
ENDBRANCH  14  15
ENDBRANCH  13  14
ENDBRANCH   1  13
TORSDOF 20
ENDMDL
MODEL 2
REMARK VINA RESULT:    -5.227      0.916      2.932
REMARK INTER + INTRA:         -13.907
REMARK INTER:                 -11.491
REMARK INTRA:                  -2.416
REMARK UNBOUND:                -2.570
REMARK SMILES CCCCCCCCCCCCCCCCCCCCCC(=O)[O-]
REMARK SMILES IDX 12 1 11 2 10 3 9 4 8 5 7 6 6 7 5 8 4 9 3 10 2 11 1 12 13 13
REMARK SMILES IDX 14 14 15 15 16 16 17 17 18 18 19 19 20 20 21 21 22 22 23 23
REMARK SMILES IDX 24 24
REMARK H PARENT
REMARK Flexibility Score: inf
ROOT
ATOM      1  C   UNL     1      -6.237   6.076  -9.137  1.00  0.00     0.000 C 
ENDROOT
BRANCH   1   2
ATOM      2  C   UNL     1      -5.135   6.344  -8.091  1.00  0.00     0.000 C 
BRANCH   2   3
ATOM      3  C   UNL     1      -4.240   7.563  -8.380  1.00  0.00     0.000 C 
BRANCH   3   4
ATOM      4  C   UNL     1      -3.614   8.159  -7.111  1.00  0.00    -0.000 C 
BRANCH   4   5
ATOM      5  C   UNL     1      -3.916   9.661  -7.005  1.00  0.00    -0.000 C 
BRANCH   5   6
ATOM      6  C   UNL     1      -5.153  10.077  -7.816  1.00  0.00    -0.000 C 
BRANCH   6   7
ATOM      7  C   UNL     1      -4.823  11.090  -8.929  1.00  0.00    -0.000 C 
BRANCH   7   8
ATOM      8  C   UNL     1      -6.035  11.961  -9.323  1.00  0.00    -0.000 C 
BRANCH   8   9
ATOM      9  C   UNL     1      -7.399  11.290  -9.075  1.00  0.00    -0.000 C 
BRANCH   9  10
ATOM     10  C   UNL     1      -8.029  10.605 -10.303  1.00  0.00    -0.000 C 
BRANCH  10  11
ATOM     11  C   UNL     1      -7.433   9.231 -10.653  1.00  0.00    -0.003 C 
ATOM     12  C   UNL     1      -6.499   9.275 -11.864  1.00  0.00     0.004 C 
ENDBRANCH  10  11
ENDBRANCH   9  10
ENDBRANCH   8   9
ENDBRANCH   7   8
ENDBRANCH   6   7
ENDBRANCH   5   6
ENDBRANCH   4   5
ENDBRANCH   3   4
ENDBRANCH   2   3
ENDBRANCH   1   2
BRANCH   1  13
ATOM     13  C   UNL     1      -7.682   6.221  -8.625  1.00  0.00     0.000 C 
BRANCH  13  14
ATOM     14  C   UNL     1      -7.781   7.090  -7.358  1.00  0.00     0.000 C 
BRANCH  14  15
ATOM     15  C   UNL     1      -8.968   6.706  -6.462  1.00  0.00     0.000 C 
BRANCH  15  16
ATOM     16  C   UNL     1     -10.132   5.994  -7.177  1.00  0.00     0.000 C 
BRANCH  16  17
ATOM     17  C   UNL     1     -11.051   5.184  -6.237  1.00  0.00     0.000 C 
BRANCH  17  18
ATOM     18  C   UNL     1     -10.309   4.651  -4.998  1.00  0.00     0.000 C 
BRANCH  18  19
ATOM     19  C   UNL     1     -10.510   3.142  -4.788  1.00  0.00     0.000 C 
BRANCH  19  20
ATOM     20  C   UNL     1     -10.991   2.423  -6.061  1.00  0.00     0.006 C 
BRANCH  20  21
ATOM     21  C   UNL     1      -9.989   1.362  -6.540  1.00  0.00     0.053 C 
BRANCH  21  22
ATOM     22  C   UNL     1      -9.633   1.539  -7.986  1.00  0.00     0.041 C 
ATOM     23  O   UNL     1      -9.551   2.693  -8.482  1.00  0.00    -0.550 OA
ATOM     24  O   UNL     1      -9.354   0.430  -8.773  1.00  0.00    -0.550 OA
ENDBRANCH  21  22
ENDBRANCH  20  21
ENDBRANCH  19  20
ENDBRANCH  18  19
ENDBRANCH  17  18
ENDBRANCH  16  17
ENDBRANCH  15  16
ENDBRANCH  14  15
ENDBRANCH  13  14
ENDBRANCH   1  13
TORSDOF 20
ENDMDL
MODEL 3
REMARK VINA RESULT:    -5.098      2.093      3.817
REMARK INTER + INTRA:         -13.628
REMARK INTER:                 -11.010
REMARK INTRA:                  -2.618
REMARK UNBOUND:                -2.570
REMARK SMILES CCCCCCCCCCCCCCCCCCCCCC(=O)[O-]
REMARK SMILES IDX 12 1 11 2 10 3 9 4 8 5 7 6 6 7 5 8 4 9 3 10 2 11 1 12 13 13
REMARK SMILES IDX 14 14 15 15 16 16 17 17 18 18 19 19 20 20 21 21 22 22 23 23
REMARK SMILES IDX 24 24
REMARK H PARENT
REMARK Flexibility Score: inf
ROOT
ATOM      1  C   UNL     1      -6.968   6.025  -9.010  1.00  0.00     0.000 C 
ENDROOT
BRANCH   1   2
ATOM      2  C   UNL     1      -6.422   6.689  -7.728  1.00  0.00     0.000 C 
BRANCH   2   3
ATOM      3  C   UNL     1      -5.002   6.256  -7.321  1.00  0.00     0.000 C 
BRANCH   3   4
ATOM      4  C   UNL     1      -3.987   7.406  -7.378  1.00  0.00    -0.000 C 
BRANCH   4   5
ATOM      5  C   UNL     1      -4.016   8.095  -8.751  1.00  0.00    -0.000 C 
BRANCH   5   6
ATOM      6  C   UNL     1      -4.130   9.624  -8.646  1.00  0.00    -0.000 C 
BRANCH   6   7
ATOM      7  C   UNL     1      -5.062  10.075  -7.507  1.00  0.00    -0.000 C 
BRANCH   7   8
ATOM      8  C   UNL     1      -6.528  10.239  -7.963  1.00  0.00    -0.000 C 
BRANCH   8   9
ATOM      9  C   UNL     1      -6.722  11.258  -9.103  1.00  0.00    -0.000 C 
BRANCH   9  10
ATOM     10  C   UNL     1      -7.712  10.833 -10.203  1.00  0.00    -0.000 C 
BRANCH  10  11
ATOM     11  C   UNL     1      -7.557   9.382 -10.690  1.00  0.00    -0.003 C 
ATOM     12  C   UNL     1      -6.498   9.229 -11.782  1.00  0.00     0.004 C 
ENDBRANCH  10  11
ENDBRANCH   9  10
ENDBRANCH   8   9
ENDBRANCH   7   8
ENDBRANCH   6   7
ENDBRANCH   5   6
ENDBRANCH   4   5
ENDBRANCH   3   4
ENDBRANCH   2   3
ENDBRANCH   1   2
BRANCH   1  13
ATOM     13  C   UNL     1      -8.471   6.233  -9.272  1.00  0.00     0.000 C 
BRANCH  13  14
ATOM     14  C   UNL     1      -9.332   5.999  -8.018  1.00  0.00     0.000 C 
BRANCH  14  15
ATOM     15  C   UNL     1     -10.723   5.434  -8.347  1.00  0.00     0.000 C 
BRANCH  15  16
ATOM     16  C   UNL     1     -10.892   4.886  -9.777  1.00  0.00     0.000 C 
BRANCH  16  17
ATOM     17  C   UNL     1     -10.397   3.435  -9.961  1.00  0.00     0.000 C 
BRANCH  17  18
ATOM     18  C   UNL     1     -10.866   2.501  -8.831  1.00  0.00     0.000 C 
BRANCH  18  19
ATOM     19  C   UNL     1      -9.710   1.721  -8.186  1.00  0.00     0.000 C 
BRANCH  19  20
ATOM     20  C   UNL     1      -9.942   1.440  -6.691  1.00  0.00     0.006 C 
BRANCH  20  21
ATOM     21  C   UNL     1     -10.953   2.415  -6.069  1.00  0.00     0.053 C 
BRANCH  21  22
ATOM     22  C   UNL     1     -10.402   3.092  -4.851  1.00  0.00     0.041 C 
ATOM     23  O   UNL     1     -10.057   2.412  -3.849  1.00  0.00    -0.550 OA
ATOM     24  O   UNL     1     -10.233   4.471  -4.838  1.00  0.00    -0.550 OA
ENDBRANCH  21  22
ENDBRANCH  20  21
ENDBRANCH  19  20
ENDBRANCH  18  19
ENDBRANCH  17  18
ENDBRANCH  16  17
ENDBRANCH  15  16
ENDBRANCH  14  15
ENDBRANCH  13  14
ENDBRANCH   1  13
TORSDOF 20
ENDMDL
MODEL 4
REMARK VINA RESULT:    -5.035      3.172      8.293
REMARK INTER + INTRA:         -13.492
REMARK INTER:                 -10.937
REMARK INTRA:                  -2.555
REMARK UNBOUND:                -2.570
REMARK SMILES CCCCCCCCCCCCCCCCCCCCCC(=O)[O-]
REMARK SMILES IDX 12 1 11 2 10 3 9 4 8 5 7 6 6 7 5 8 4 9 3 10 2 11 1 12 13 13
REMARK SMILES IDX 14 14 15 15 16 16 17 17 18 18 19 19 20 20 21 21 22 22 23 23
REMARK SMILES IDX 24 24
REMARK H PARENT
REMARK Flexibility Score: inf
ROOT
ATOM      1  C   UNL     1      -7.353   6.144  -9.337  1.00  0.00     0.000 C 
ENDROOT
BRANCH   1   2
ATOM      2  C   UNL     1      -8.569   5.264  -8.980  1.00  0.00     0.000 C 
BRANCH   2   3
ATOM      3  C   UNL     1      -9.923   5.996  -8.959  1.00  0.00     0.000 C 
BRANCH   3   4
ATOM      4  C   UNL     1     -10.586   5.987  -7.575  1.00  0.00    -0.000 C 
BRANCH   4   5
ATOM      5  C   UNL     1      -9.562   6.305  -6.474  1.00  0.00    -0.000 C 
BRANCH   5   6
ATOM      6  C   UNL     1      -9.753   5.441  -5.218  1.00  0.00    -0.000 C 
BRANCH   6   7
ATOM      7  C   UNL     1     -10.934   4.460  -5.343  1.00  0.00    -0.000 C 
BRANCH   7   8
ATOM      8  C   UNL     1     -10.520   2.992  -5.098  1.00  0.00    -0.000 C 
BRANCH   8   9
ATOM      9  C   UNL     1     -11.007   2.012  -6.183  1.00  0.00    -0.000 C 
BRANCH   9  10
ATOM     10  C   UNL     1     -10.852   2.506  -7.633  1.00  0.00    -0.000 C 
BRANCH  10  11
ATOM     11  C   UNL     1      -9.710   1.844  -8.424  1.00  0.00    -0.003 C 
ATOM     12  C   UNL     1      -9.410   0.419  -7.960  1.00  0.00     0.004 C 
ENDBRANCH  10  11
ENDBRANCH   9  10
ENDBRANCH   8   9
ENDBRANCH   7   8
ENDBRANCH   6   7
ENDBRANCH   5   6
ENDBRANCH   4   5
ENDBRANCH   3   4
ENDBRANCH   2   3
ENDBRANCH   1   2
BRANCH   1  13
ATOM     13  C   UNL     1      -7.689   7.549  -9.868  1.00  0.00     0.000 C 
BRANCH  13  14
ATOM     14  C   UNL     1      -6.659   8.063 -10.889  1.00  0.00     0.000 C 
BRANCH  14  15
ATOM     15  C   UNL     1      -6.912   9.519 -11.312  1.00  0.00     0.000 C 
BRANCH  15  16
ATOM     16  C   UNL     1      -7.771  10.349 -10.338  1.00  0.00     0.000 C 
BRANCH  16  17
ATOM     17  C   UNL     1      -6.990  10.916  -9.133  1.00  0.00     0.000 C 
BRANCH  17  18
ATOM     18  C   UNL     1      -5.561  11.351  -9.503  1.00  0.00     0.000 C 
BRANCH  18  19
ATOM     19  C   UNL     1      -4.487  10.413  -8.930  1.00  0.00     0.000 C 
BRANCH  19  20
ATOM     20  C   UNL     1      -5.053   9.418  -7.903  1.00  0.00     0.006 C 
BRANCH  20  21
ATOM     21  C   UNL     1      -4.418   8.025  -8.033  1.00  0.00     0.053 C 
BRANCH  21  22
ATOM     22  C   UNL     1      -3.404   7.768  -6.959  1.00  0.00     0.041 C 
ATOM     23  O   UNL     1      -3.345   6.642  -6.399  1.00  0.00    -0.550 OA
ATOM     24  O   UNL     1      -2.499   8.761  -6.607  1.00  0.00    -0.550 OA
ENDBRANCH  21  22
ENDBRANCH  20  21
ENDBRANCH  19  20
ENDBRANCH  18  19
ENDBRANCH  17  18
ENDBRANCH  16  17
ENDBRANCH  15  16
ENDBRANCH  14  15
ENDBRANCH  13  14
ENDBRANCH   1  13
TORSDOF 20
ENDMDL
MODEL 5
REMARK VINA RESULT:    -5.016      2.963      8.177
REMARK INTER + INTRA:         -13.450
REMARK INTER:                 -11.065
REMARK INTRA:                  -2.385
REMARK UNBOUND:                -2.570
REMARK SMILES CCCCCCCCCCCCCCCCCCCCCC(=O)[O-]
REMARK SMILES IDX 12 1 11 2 10 3 9 4 8 5 7 6 6 7 5 8 4 9 3 10 2 11 1 12 13 13
REMARK SMILES IDX 14 14 15 15 16 16 17 17 18 18 19 19 20 20 21 21 22 22 23 23
REMARK SMILES IDX 24 24
REMARK H PARENT
REMARK Flexibility Score: inf
ROOT
ATOM      1  C   UNL     1      -7.158   6.454  -9.441  1.00  0.00     0.000 C 
ENDROOT
BRANCH   1   2
ATOM      2  C   UNL     1      -8.360   5.560  -9.073  1.00  0.00     0.000 C 
BRANCH   2   3
ATOM      3  C   UNL     1      -9.730   6.077  -9.549  1.00  0.00     0.000 C 
BRANCH   3   4
ATOM      4  C   UNL     1     -10.831   5.912  -8.493  1.00  0.00    -0.000 C 
BRANCH   4   5
ATOM      5  C   UNL     1     -10.233   5.877  -7.078  1.00  0.00    -0.000 C 
BRANCH   5   6
ATOM      6  C   UNL     1     -11.118   5.119  -6.077  1.00  0.00    -0.000 C 
BRANCH   6   7
ATOM      7  C   UNL     1     -10.322   4.554  -4.886  1.00  0.00    -0.000 C 
BRANCH   7   8
ATOM      8  C   UNL     1     -10.450   3.021  -4.754  1.00  0.00    -0.000 C 
BRANCH   8   9
ATOM      9  C   UNL     1     -10.833   2.306  -6.065  1.00  0.00    -0.000 C 
BRANCH   9  10
ATOM     10  C   UNL     1     -10.016   1.041  -6.387  1.00  0.00    -0.000 C 
BRANCH  10  11
ATOM     11  C   UNL     1      -9.246   1.090  -7.719  1.00  0.00    -0.003 C 
ATOM     12  C   UNL     1      -9.769   2.165  -8.672  1.00  0.00     0.004 C 
ENDBRANCH  10  11
ENDBRANCH   9  10
ENDBRANCH   8   9
ENDBRANCH   7   8
ENDBRANCH   6   7
ENDBRANCH   5   6
ENDBRANCH   4   5
ENDBRANCH   3   4
ENDBRANCH   2   3
ENDBRANCH   1   2
BRANCH   1  13
ATOM     13  C   UNL     1      -5.815   6.048  -8.805  1.00  0.00     0.000 C 
BRANCH  13  14
ATOM     14  C   UNL     1      -5.686   6.505  -7.342  1.00  0.00     0.000 C 
BRANCH  14  15
ATOM     15  C   UNL     1      -4.228   6.556  -6.859  1.00  0.00     0.000 C 
BRANCH  15  16
ATOM     16  C   UNL     1      -3.362   7.663  -7.489  1.00  0.00     0.000 C 
BRANCH  16  17
ATOM     17  C   UNL     1      -3.483   9.035  -6.793  1.00  0.00     0.000 C 
BRANCH  17  18
ATOM     18  C   UNL     1      -4.382  10.017  -7.568  1.00  0.00     0.000 C 
BRANCH  18  19
ATOM     19  C   UNL     1      -4.555   9.624  -9.044  1.00  0.00     0.000 C 
BRANCH  19  20
ATOM     20  C   UNL     1      -5.544  10.536  -9.790  1.00  0.00     0.006 C 
BRANCH  20  21
ATOM     21  C   UNL     1      -7.000  10.078  -9.614  1.00  0.00     0.053 C 
BRANCH  21  22
ATOM     22  C   UNL     1      -7.634   9.711 -10.922  1.00  0.00     0.041 C 
ATOM     23  O   UNL     1      -6.917   9.389 -11.906  1.00  0.00    -0.550 OA
ATOM     24  O   UNL     1      -9.017   9.685 -11.040  1.00  0.00    -0.550 OA
ENDBRANCH  21  22
ENDBRANCH  20  21
ENDBRANCH  19  20
ENDBRANCH  18  19
ENDBRANCH  17  18
ENDBRANCH  16  17
ENDBRANCH  15  16
ENDBRANCH  14  15
ENDBRANCH  13  14
ENDBRANCH   1  13
TORSDOF 20
ENDMDL
MODEL 6
REMARK VINA RESULT:    -4.989      1.728      3.524
REMARK INTER + INTRA:         -13.392
REMARK INTER:                 -11.063
REMARK INTRA:                  -2.329
REMARK UNBOUND:                -2.570
REMARK SMILES CCCCCCCCCCCCCCCCCCCCCC(=O)[O-]
REMARK SMILES IDX 12 1 11 2 10 3 9 4 8 5 7 6 6 7 5 8 4 9 3 10 2 11 1 12 13 13
REMARK SMILES IDX 14 14 15 15 16 16 17 17 18 18 19 19 20 20 21 21 22 22 23 23
REMARK SMILES IDX 24 24
REMARK H PARENT
REMARK Flexibility Score: inf
ROOT
ATOM      1  C   UNL     1      -5.198   6.290  -8.792  1.00  0.00     0.000 C 
ENDROOT
BRANCH   1   2
ATOM      2  C   UNL     1      -5.101   6.911  -7.383  1.00  0.00     0.000 C 
BRANCH   2   3
ATOM      3  C   UNL     1      -3.670   7.162  -6.875  1.00  0.00     0.000 C 
BRANCH   3   4
ATOM      4  C   UNL     1      -3.242   8.631  -6.994  1.00  0.00    -0.000 C 
BRANCH   4   5
ATOM      5  C   UNL     1      -4.428   9.515  -7.411  1.00  0.00    -0.000 C 
BRANCH   5   6
ATOM      6  C   UNL     1      -4.394   9.891  -8.900  1.00  0.00    -0.000 C 
BRANCH   6   7
ATOM      7  C   UNL     1      -4.975  11.291  -9.175  1.00  0.00    -0.000 C 
BRANCH   7   8
ATOM      8  C   UNL     1      -6.386  11.481  -8.577  1.00  0.00    -0.000 C 
BRANCH   8   9
ATOM      9  C   UNL     1      -7.387  10.375  -8.964  1.00  0.00    -0.000 C 
BRANCH   9  10
ATOM     10  C   UNL     1      -8.079  10.562 -10.327  1.00  0.00    -0.000 C 
BRANCH  10  11
ATOM     11  C   UNL     1      -7.904   9.389 -11.307  1.00  0.00    -0.003 C 
ATOM     12  C   UNL     1      -6.507   9.330 -11.926  1.00  0.00     0.004 C 
ENDBRANCH  10  11
ENDBRANCH   9  10
ENDBRANCH   8   9
ENDBRANCH   7   8
ENDBRANCH   6   7
ENDBRANCH   5   6
ENDBRANCH   4   5
ENDBRANCH   3   4
ENDBRANCH   2   3
ENDBRANCH   1   2
BRANCH   1  13
ATOM     13  C   UNL     1      -6.526   6.535  -9.531  1.00  0.00     0.000 C 
BRANCH  13  14
ATOM     14  C   UNL     1      -7.716   6.723  -8.572  1.00  0.00     0.000 C 
BRANCH  14  15
ATOM     15  C   UNL     1      -9.051   6.271  -9.183  1.00  0.00     0.000 C 
BRANCH  15  16
ATOM     16  C   UNL     1     -10.189   6.025  -8.174  1.00  0.00     0.000 C 
BRANCH  16  17
ATOM     17  C   UNL     1     -10.597   4.543  -8.030  1.00  0.00     0.000 C 
BRANCH  17  18
ATOM     18  C   UNL     1      -9.805   3.615  -8.970  1.00  0.00     0.000 C 
BRANCH  18  19
ATOM     19  C   UNL     1     -10.692   2.563  -9.652  1.00  0.00     0.000 C 
BRANCH  19  20
ATOM     20  C   UNL     1     -10.474   1.147  -9.092  1.00  0.00     0.006 C 
BRANCH  20  21
ATOM     21  C   UNL     1      -9.259   1.075  -8.155  1.00  0.00     0.053 C 
BRANCH  21  22
ATOM     22  C   UNL     1      -9.654   0.745  -6.748  1.00  0.00     0.041 C 
ATOM     23  O   UNL     1     -10.377   1.539  -6.089  1.00  0.00    -0.550 OA
ATOM     24  O   UNL     1      -9.258  -0.458  -6.178  1.00  0.00    -0.550 OA
ENDBRANCH  21  22
ENDBRANCH  20  21
ENDBRANCH  19  20
ENDBRANCH  18  19
ENDBRANCH  17  18
ENDBRANCH  16  17
ENDBRANCH  15  16
ENDBRANCH  14  15
ENDBRANCH  13  14
ENDBRANCH   1  13
TORSDOF 20
ENDMDL
MODEL 7
REMARK VINA RESULT:    -4.972      3.033      8.121
REMARK INTER + INTRA:         -13.355
REMARK INTER:                 -10.914
REMARK INTRA:                  -2.441
REMARK UNBOUND:                -2.570
REMARK SMILES CCCCCCCCCCCCCCCCCCCCCC(=O)[O-]
REMARK SMILES IDX 12 1 11 2 10 3 9 4 8 5 7 6 6 7 5 8 4 9 3 10 2 11 1 12 13 13
REMARK SMILES IDX 14 14 15 15 16 16 17 17 18 18 19 19 20 20 21 21 22 22 23 23
REMARK SMILES IDX 24 24
REMARK H PARENT
REMARK Flexibility Score: inf
ROOT
ATOM      1  C   UNL     1      -7.626   6.437  -9.015  1.00  0.00     0.000 C 
ENDROOT
BRANCH   1   2
ATOM      2  C   UNL     1      -8.819   5.478  -8.818  1.00  0.00     0.000 C 
BRANCH   2   3
ATOM      3  C   UNL     1     -10.161   5.977  -9.384  1.00  0.00     0.000 C 
BRANCH   3   4
ATOM      4  C   UNL     1     -11.085   4.834  -9.827  1.00  0.00    -0.000 C 
BRANCH   4   5
ATOM      5  C   UNL     1     -10.285   3.544 -10.066  1.00  0.00    -0.000 C 
BRANCH   5   6
ATOM      6  C   UNL     1     -11.125   2.275  -9.851  1.00  0.00    -0.000 C 
BRANCH   6   7
ATOM      7  C   UNL     1     -10.373   1.189  -9.059  1.00  0.00    -0.000 C 
BRANCH   7   8
ATOM      8  C   UNL     1      -9.551   1.766  -7.886  1.00  0.00    -0.000 C 
BRANCH   8   9
ATOM      9  C   UNL     1     -10.115   1.424  -6.494  1.00  0.00    -0.000 C 
BRANCH   9  10
ATOM     10  C   UNL     1     -11.067   2.475  -5.893  1.00  0.00    -0.000 C 
BRANCH  10  11
ATOM     11  C   UNL     1     -10.571   3.928  -5.991  1.00  0.00    -0.003 C 
ATOM     12  C   UNL     1     -11.111   4.820  -4.872  1.00  0.00     0.004 C 
ENDBRANCH  10  11
ENDBRANCH   9  10
ENDBRANCH   8   9
ENDBRANCH   7   8
ENDBRANCH   6   7
ENDBRANCH   5   6
ENDBRANCH   4   5
ENDBRANCH   3   4
ENDBRANCH   2   3
ENDBRANCH   1   2
BRANCH   1  13
ATOM     13  C   UNL     1      -7.936   7.718  -9.811  1.00  0.00     0.000 C 
BRANCH  13  14
ATOM     14  C   UNL     1      -6.796   8.118 -10.765  1.00  0.00     0.000 C 
BRANCH  14  15
ATOM     15  C   UNL     1      -6.763   9.625 -11.058  1.00  0.00     0.000 C 
BRANCH  15  16
ATOM     16  C   UNL     1      -7.708  10.486 -10.197  1.00  0.00     0.000 C 
BRANCH  16  17
ATOM     17  C   UNL     1      -6.990  11.331  -9.122  1.00  0.00     0.000 C 
BRANCH  17  18
ATOM     18  C   UNL     1      -5.495  10.984  -8.996  1.00  0.00     0.000 C 
BRANCH  18  19
ATOM     19  C   UNL     1      -5.235   9.819  -8.029  1.00  0.00     0.000 C 
BRANCH  19  20
ATOM     20  C   UNL     1      -3.986   9.002  -8.403  1.00  0.00     0.006 C 
BRANCH  20  21
ATOM     21  C   UNL     1      -4.253   7.490  -8.375  1.00  0.00     0.053 C 
BRANCH  21  22
ATOM     22  C   UNL     1      -3.946   6.890  -7.036  1.00  0.00     0.041 C 
ATOM     23  O   UNL     1      -4.762   6.100  -6.493  1.00  0.00    -0.550 OA
ATOM     24  O   UNL     1      -2.740   7.173  -6.409  1.00  0.00    -0.550 OA
ENDBRANCH  21  22
ENDBRANCH  20  21
ENDBRANCH  19  20
ENDBRANCH  18  19
ENDBRANCH  17  18
ENDBRANCH  16  17
ENDBRANCH  15  16
ENDBRANCH  14  15
ENDBRANCH  13  14
ENDBRANCH   1  13
TORSDOF 20
ENDMDL
MODEL 8
REMARK VINA RESULT:    -4.964      2.961      8.012
REMARK INTER + INTRA:         -13.337
REMARK INTER:                 -10.726
REMARK INTRA:                  -2.611
REMARK UNBOUND:                -2.570
REMARK SMILES CCCCCCCCCCCCCCCCCCCCCC(=O)[O-]
REMARK SMILES IDX 12 1 11 2 10 3 9 4 8 5 7 6 6 7 5 8 4 9 3 10 2 11 1 12 13 13
REMARK SMILES IDX 14 14 15 15 16 16 17 17 18 18 19 19 20 20 21 21 22 22 23 23
REMARK SMILES IDX 24 24
REMARK H PARENT
REMARK Flexibility Score: inf
ROOT
ATOM      1  C   UNL     1      -7.202   7.113  -7.164  1.00  0.00     0.000 C 
ENDROOT
BRANCH   1   2
ATOM      2  C   UNL     1      -8.663   6.732  -7.484  1.00  0.00     0.000 C 
BRANCH   2   3
ATOM      3  C   UNL     1      -8.858   5.913  -8.773  1.00  0.00     0.000 C 
BRANCH   3   4
ATOM      4  C   UNL     1     -10.183   6.224  -9.483  1.00  0.00    -0.000 C 
BRANCH   4   5
ATOM      5  C   UNL     1     -10.928   4.930  -9.844  1.00  0.00    -0.000 C 
BRANCH   5   6
ATOM      6  C   UNL     1     -10.031   3.684  -9.758  1.00  0.00    -0.000 C 
BRANCH   6   7
ATOM      7  C   UNL     1     -10.816   2.372  -9.944  1.00  0.00    -0.000 C 
BRANCH   7   8
ATOM      8  C   UNL     1     -11.124   1.665  -8.606  1.00  0.00    -0.000 C 
BRANCH   8   9
ATOM      9  C   UNL     1     -10.054   1.880  -7.519  1.00  0.00    -0.000 C 
BRANCH   9  10
ATOM     10  C   UNL     1     -10.573   2.457  -6.189  1.00  0.00    -0.000 C 
BRANCH  10  11
ATOM     11  C   UNL     1     -10.965   3.944  -6.238  1.00  0.00    -0.003 C 
ATOM     12  C   UNL     1     -10.464   4.734  -5.028  1.00  0.00     0.004 C 
ENDBRANCH  10  11
ENDBRANCH   9  10
ENDBRANCH   8   9
ENDBRANCH   7   8
ENDBRANCH   6   7
ENDBRANCH   5   6
ENDBRANCH   4   5
ENDBRANCH   3   4
ENDBRANCH   2   3
ENDBRANCH   1   2
BRANCH   1  13
ATOM     13  C   UNL     1      -6.133   6.378  -7.993  1.00  0.00     0.000 C 
BRANCH  13  14
ATOM     14  C   UNL     1      -4.717   6.531  -7.409  1.00  0.00     0.000 C 
BRANCH  14  15
ATOM     15  C   UNL     1      -3.921   7.670  -8.063  1.00  0.00     0.000 C 
BRANCH  15  16
ATOM     16  C   UNL     1      -3.564   8.846  -7.133  1.00  0.00     0.000 C 
BRANCH  16  17
ATOM     17  C   UNL     1      -4.530  10.047  -7.233  1.00  0.00     0.000 C 
BRANCH  17  18
ATOM     18  C   UNL     1      -4.812  10.462  -8.688  1.00  0.00     0.000 C 
BRANCH  18  19
ATOM     19  C   UNL     1      -6.175  11.152  -8.856  1.00  0.00     0.000 C 
BRANCH  19  20
ATOM     20  C   UNL     1      -7.320  10.156  -9.106  1.00  0.00     0.006 C 
BRANCH  20  21
ATOM     21  C   UNL     1      -7.662  10.029 -10.599  1.00  0.00     0.053 C 
BRANCH  21  22
ATOM     22  C   UNL     1      -6.710   9.120 -11.317  1.00  0.00     0.041 C 
ATOM     23  O   UNL     1      -6.029   9.553 -12.284  1.00  0.00    -0.550 OA
ATOM     24  O   UNL     1      -6.546   7.809 -10.891  1.00  0.00    -0.550 OA
ENDBRANCH  21  22
ENDBRANCH  20  21
ENDBRANCH  19  20
ENDBRANCH  18  19
ENDBRANCH  17  18
ENDBRANCH  16  17
ENDBRANCH  15  16
ENDBRANCH  14  15
ENDBRANCH  13  14
ENDBRANCH   1  13
TORSDOF 20
ENDMDL
MODEL 9
REMARK VINA RESULT:    -4.810      1.726      2.605
REMARK INTER + INTRA:         -13.003
REMARK INTER:                 -10.460
REMARK INTRA:                  -2.544
REMARK UNBOUND:                -2.570
REMARK SMILES CCCCCCCCCCCCCCCCCCCCCC(=O)[O-]
REMARK SMILES IDX 12 1 11 2 10 3 9 4 8 5 7 6 6 7 5 8 4 9 3 10 2 11 1 12 13 13
REMARK SMILES IDX 14 14 15 15 16 16 17 17 18 18 19 19 20 20 21 21 22 22 23 23
REMARK SMILES IDX 24 24
REMARK H PARENT
REMARK Flexibility Score: inf
ROOT
ATOM      1  C   UNL     1      -6.507   6.547  -9.200  1.00  0.00     0.000 C 
ENDROOT
BRANCH   1   2
ATOM      2  C   UNL     1      -7.236   7.681  -9.949  1.00  0.00     0.000 C 
BRANCH   2   3
ATOM      3  C   UNL     1      -6.573   8.129 -11.265  1.00  0.00     0.000 C 
BRANCH   3   4
ATOM      4  C   UNL     1      -6.615   9.650 -11.468  1.00  0.00    -0.000 C 
BRANCH   4   5
ATOM      5  C   UNL     1      -5.752  10.367 -10.418  1.00  0.00    -0.000 C 
BRANCH   5   6
ATOM      6  C   UNL     1      -6.537  11.424  -9.625  1.00  0.00    -0.000 C 
BRANCH   6   7
ATOM      7  C   UNL     1      -6.370  11.270  -8.101  1.00  0.00    -0.000 C 
BRANCH   7   8
ATOM      8  C   UNL     1      -5.994   9.833  -7.682  1.00  0.00    -0.000 C 
BRANCH   8   9
ATOM      9  C   UNL     1      -4.595   9.708  -7.048  1.00  0.00    -0.000 C 
BRANCH   9  10
ATOM     10  C   UNL     1      -3.635   8.735  -7.757  1.00  0.00    -0.000 C 
BRANCH  10  11
ATOM     11  C   UNL     1      -2.903   7.754  -6.825  1.00  0.00    -0.003 C 
ATOM     12  C   UNL     1      -3.744   6.528  -6.469  1.00  0.00     0.004 C 
ENDBRANCH  10  11
ENDBRANCH   9  10
ENDBRANCH   8   9
ENDBRANCH   7   8
ENDBRANCH   6   7
ENDBRANCH   5   6
ENDBRANCH   4   5
ENDBRANCH   3   4
ENDBRANCH   2   3
ENDBRANCH   1   2
BRANCH   1  13
ATOM     13  C   UNL     1      -7.008   6.272  -7.770  1.00  0.00     0.000 C 
BRANCH  13  14
ATOM     14  C   UNL     1      -8.333   6.989  -7.455  1.00  0.00     0.000 C 
BRANCH  14  15
ATOM     15  C   UNL     1      -9.519   6.021  -7.321  1.00  0.00     0.000 C 
BRANCH  15  16
ATOM     16  C   UNL     1     -10.519   6.035  -8.493  1.00  0.00     0.000 C 
BRANCH  16  17
ATOM     17  C   UNL     1     -10.061   5.227  -9.726  1.00  0.00     0.000 C 
BRANCH  17  18
ATOM     18  C   UNL     1     -11.121   4.216 -10.200  1.00  0.00     0.000 C 
BRANCH  18  19
ATOM     19  C   UNL     1     -10.738   2.762  -9.886  1.00  0.00     0.000 C 
BRANCH  19  20
ATOM     20  C   UNL     1     -10.951   2.397  -8.406  1.00  0.00     0.006 C 
BRANCH  20  21
ATOM     21  C   UNL     1      -9.714   1.725  -7.791  1.00  0.00     0.053 C 
BRANCH  21  22
ATOM     22  C   UNL     1      -9.999   1.163  -6.431  1.00  0.00     0.041 C 
ATOM     23  O   UNL     1      -9.984  -0.082  -6.244  1.00  0.00    -0.550 OA
ATOM     24  O   UNL     1     -10.242   2.017  -5.363  1.00  0.00    -0.550 OA
ENDBRANCH  21  22
ENDBRANCH  20  21
ENDBRANCH  19  20
ENDBRANCH  18  19
ENDBRANCH  17  18
ENDBRANCH  16  17
ENDBRANCH  15  16
ENDBRANCH  14  15
ENDBRANCH  13  14
ENDBRANCH   1  13
TORSDOF 20
ENDMDL
