MODEL 1
REMARK VINA RESULT:    -4.773      0.000      0.000
REMARK INTER + INTRA:         -10.727
REMARK INTER:                  -8.400
REMARK INTRA:                  -2.328
REMARK UNBOUND:                -2.328
REMARK SMILES CCCCCCCCCCCCCCC(=O)[O-]
REMARK SMILES IDX 9 1 10 2 11 3 12 4 13 5 14 6 15 7 16 8 17 9 8 10 7 11 6 12
REMARK SMILES IDX 5 13 4 14 3 15 2 16 1 17
REMARK H PARENT
REMARK Flexibility Score: inf
ROOT
ATOM      1  C   UNL     1       4.408   3.108  13.390  1.00  0.00     0.000 C 
ENDROOT
BRANCH   1   2
ATOM      2  C   UNL     1       3.578   3.216  14.681  1.00  0.00     0.000 C 
BRANCH   2   3
ATOM      3  C   UNL     1       4.355   2.913  15.977  1.00  0.00     0.000 C 
BRANCH   3   4
ATOM      4  C   UNL     1       4.248   1.443  16.434  1.00  0.00     0.000 C 
BRANCH   4   5
ATOM      5  C   UNL     1       5.619   0.843  16.795  1.00  0.00     0.006 C 
BRANCH   5   6
ATOM      6  C   UNL     1       5.497  -0.550  17.426  1.00  0.00     0.053 C 
BRANCH   6   7
ATOM      7  C   UNL     1       5.576  -0.493  18.921  1.00  0.00     0.041 C 
ATOM      8  O   UNL     1       4.673   0.087  19.581  1.00  0.00    -0.550 OA
ATOM      9  O   UNL     1       6.628  -1.108  19.587  1.00  0.00    -0.550 OA
ENDBRANCH   6   7
ENDBRANCH   5   6
ENDBRANCH   4   5
ENDBRANCH   3   4
ENDBRANCH   2   3
ENDBRANCH   1   2
BRANCH   1  10
ATOM     10  C   UNL     1       4.620   1.671  12.876  1.00  0.00     0.000 C 
BRANCH  10  11
ATOM     11  C   UNL     1       6.048   1.133  13.113  1.00  0.00    -0.000 C 
BRANCH  11  12
ATOM     12  C   UNL     1       6.077  -0.399  13.258  1.00  0.00    -0.000 C 
BRANCH  12  13
ATOM     13  C   UNL     1       4.686  -1.038  13.118  1.00  0.00    -0.000 C 
BRANCH  13  14
ATOM     14  C   UNL     1       4.353  -1.990  14.279  1.00  0.00    -0.000 C 
BRANCH  14  15
ATOM     15  C   UNL     1       2.969  -1.717  14.898  1.00  0.00    -0.000 C 
BRANCH  15  16
ATOM     16  C   UNL     1       2.095  -0.715  14.123  1.00  0.00    -0.003 C 
ATOM     17  C   UNL     1       1.194   0.121  15.032  1.00  0.00     0.004 C 
ENDBRANCH  15  16
ENDBRANCH  14  15
ENDBRANCH  13  14
ENDBRANCH  12  13
ENDBRANCH  11  12
ENDBRANCH  10  11
ENDBRANCH   1  10
TORSDOF 13
ENDMDL
MODEL 2
REMARK VINA RESULT:    -4.612      0.978      2.973
REMARK INTER + INTRA:         -10.445
REMARK INTER:                  -8.475
REMARK INTRA:                  -1.970
REMARK UNBOUND:                -2.328
REMARK SMILES CCCCCCCCCCCCCCC(=O)[O-]
REMARK SMILES IDX 9 1 10 2 11 3 12 4 13 5 14 6 15 7 16 8 17 9 8 10 7 11 6 12
REMARK SMILES IDX 5 13 4 14 3 15 2 16 1 17
REMARK H PARENT
REMARK Flexibility Score: inf
ROOT
ATOM      1  C   UNL     1       6.142   1.376  12.885  1.00  0.00     0.000 C 
ENDROOT
BRANCH   1   2
ATOM      2  C   UNL     1       6.505   0.335  13.959  1.00  0.00     0.000 C 
BRANCH   2   3
ATOM      3  C   UNL     1       5.609  -0.919  13.972  1.00  0.00     0.000 C 
BRANCH   3   4
ATOM      4  C   UNL     1       5.664  -1.705  15.300  1.00  0.00     0.000 C 
BRANCH   4   5
ATOM      5  C   UNL     1       5.725  -0.776  16.525  1.00  0.00     0.006 C 
BRANCH   5   6
ATOM      6  C   UNL     1       5.228  -1.465  17.803  1.00  0.00     0.053 C 
BRANCH   6   7
ATOM      7  C   UNL     1       5.503  -0.640  19.023  1.00  0.00     0.041 C 
ATOM      8  O   UNL     1       4.687   0.249  19.384  1.00  0.00    -0.550 OA
ATOM      9  O   UNL     1       6.644  -0.875  19.780  1.00  0.00    -0.550 OA
ENDBRANCH   6   7
ENDBRANCH   5   6
ENDBRANCH   4   5
ENDBRANCH   3   4
ENDBRANCH   2   3
ENDBRANCH   1   2
BRANCH   1  10
ATOM     10  C   UNL     1       4.674   1.843  12.907  1.00  0.00     0.000 C 
BRANCH  10  11
ATOM     11  C   UNL     1       4.507   3.348  13.214  1.00  0.00    -0.000 C 
BRANCH  11  12
ATOM     12  C   UNL     1       3.812   3.594  14.564  1.00  0.00    -0.000 C 
BRANCH  12  13
ATOM     13  C   UNL     1       4.547   2.935  15.742  1.00  0.00    -0.000 C 
BRANCH  13  14
ATOM     14  C   UNL     1       3.633   2.012  16.567  1.00  0.00    -0.000 C 
BRANCH  14  15
ATOM     15  C   UNL     1       2.372   1.575  15.798  1.00  0.00    -0.000 C 
BRANCH  15  16
ATOM     16  C   UNL     1       2.355   0.098  15.364  1.00  0.00    -0.003 C 
ATOM     17  C   UNL     1       1.060  -0.302  14.655  1.00  0.00     0.004 C 
ENDBRANCH  15  16
ENDBRANCH  14  15
ENDBRANCH  13  14
ENDBRANCH  12  13
ENDBRANCH  11  12
ENDBRANCH  10  11
ENDBRANCH   1  10
TORSDOF 13
ENDMDL
MODEL 3
REMARK VINA RESULT:    -4.561      2.154      4.711
REMARK INTER + INTRA:         -10.355
REMARK INTER:                  -8.449
REMARK INTRA:                  -1.906
REMARK UNBOUND:                -2.328
REMARK SMILES CCCCCCCCCCCCCCC(=O)[O-]
REMARK SMILES IDX 9 1 10 2 11 3 12 4 13 5 14 6 15 7 16 8 17 9 8 10 7 11 6 12
REMARK SMILES IDX 5 13 4 14 3 15 2 16 1 17
REMARK H PARENT
REMARK Flexibility Score: inf
ROOT
ATOM      1  C   UNL     1       5.997   1.397  13.095  1.00  0.00     0.000 C 
ENDROOT
BRANCH   1   2
ATOM      2  C   UNL     1       6.309   0.044  13.758  1.00  0.00     0.000 C 
BRANCH   2   3
ATOM      3  C   UNL     1       5.508  -1.149  13.202  1.00  0.00     0.000 C 
BRANCH   3   4
ATOM      4  C   UNL     1       4.801  -1.983  14.292  1.00  0.00     0.000 C 
BRANCH   4   5
ATOM      5  C   UNL     1       3.272  -1.813  14.256  1.00  0.00     0.006 C 
BRANCH   5   6
ATOM      6  C   UNL     1       2.740  -1.075  15.491  1.00  0.00     0.053 C 
BRANCH   6   7
ATOM      7  C   UNL     1       1.530  -0.251  15.169  1.00  0.00     0.041 C 
ATOM      8  O   UNL     1       1.115   0.611  15.988  1.00  0.00    -0.550 OA
ATOM      9  O   UNL     1       0.881  -0.412  13.952  1.00  0.00    -0.550 OA
ENDBRANCH   6   7
ENDBRANCH   5   6
ENDBRANCH   4   5
ENDBRANCH   3   4
ENDBRANCH   2   3
ENDBRANCH   1   2
BRANCH   1  10
ATOM     10  C   UNL     1       4.499   1.753  13.025  1.00  0.00     0.000 C 
BRANCH  10  11
ATOM     11  C   UNL     1       4.146   3.086  13.720  1.00  0.00    -0.000 C 
BRANCH  11  12
ATOM     12  C   UNL     1       3.571   2.872  15.131  1.00  0.00    -0.000 C 
BRANCH  12  13
ATOM     13  C   UNL     1       4.662   2.710  16.202  1.00  0.00    -0.000 C 
BRANCH  13  14
ATOM     14  C   UNL     1       4.420   1.495  17.114  1.00  0.00    -0.000 C 
BRANCH  14  15
ATOM     15  C   UNL     1       5.707   0.699  17.405  1.00  0.00    -0.000 C 
BRANCH  15  16
ATOM     16  C   UNL     1       5.494  -0.795  17.706  1.00  0.00    -0.003 C 
ATOM     17  C   UNL     1       6.263  -1.273  18.938  1.00  0.00     0.004 C 
ENDBRANCH  15  16
ENDBRANCH  14  15
ENDBRANCH  13  14
ENDBRANCH  12  13
ENDBRANCH  11  12
ENDBRANCH  10  11
ENDBRANCH   1  10
TORSDOF 13
ENDMDL
MODEL 4
REMARK VINA RESULT:    -4.345      2.563      3.683
REMARK INTER + INTRA:          -9.974
REMARK INTER:                  -8.269
REMARK INTRA:                  -1.705
REMARK UNBOUND:                -2.328
REMARK SMILES CCCCCCCCCCCCCCC(=O)[O-]
REMARK SMILES IDX 9 1 10 2 11 3 12 4 13 5 14 6 15 7 16 8 17 9 8 10 7 11 6 12
REMARK SMILES IDX 5 13 4 14 3 15 2 16 1 17
REMARK H PARENT
REMARK Flexibility Score: inf
ROOT
ATOM      1  C   UNL     1       4.471   3.455  13.043  1.00  0.00     0.000 C 
ENDROOT
BRANCH   1   2
ATOM      2  C   UNL     1       3.622   3.375  14.323  1.00  0.00     0.000 C 
BRANCH   2   3
ATOM      3  C   UNL     1       4.430   3.245  15.629  1.00  0.00     0.000 C 
BRANCH   3   4
ATOM      4  C   UNL     1       3.980   2.069  16.522  1.00  0.00     0.000 C 
BRANCH   4   5
ATOM      5  C   UNL     1       2.603   1.518  16.110  1.00  0.00     0.006 C 
BRANCH   5   6
ATOM      6  C   UNL     1       2.685   0.080  15.585  1.00  0.00     0.053 C 
BRANCH   6   7
ATOM      7  C   UNL     1       1.397  -0.358  14.956  1.00  0.00     0.041 C 
ATOM      8  O   UNL     1       0.367   0.359  15.058  1.00  0.00    -0.550 OA
ATOM      9  O   UNL     1       1.343  -1.541  14.231  1.00  0.00    -0.550 OA
ENDBRANCH   6   7
ENDBRANCH   5   6
ENDBRANCH   4   5
ENDBRANCH   3   4
ENDBRANCH   2   3
ENDBRANCH   1   2
BRANCH   1  10
ATOM     10  C   UNL     1       5.512   2.330  12.886  1.00  0.00     0.000 C 
BRANCH  10  11
ATOM     11  C   UNL     1       4.907   0.911  12.960  1.00  0.00    -0.000 C 
BRANCH  11  12
ATOM     12  C   UNL     1       5.949  -0.147  13.363  1.00  0.00    -0.000 C 
BRANCH  12  13
ATOM     13  C   UNL     1       5.312  -1.476  13.800  1.00  0.00    -0.000 C 
BRANCH  13  14
ATOM     14  C   UNL     1       5.916  -2.021  15.106  1.00  0.00    -0.000 C 
BRANCH  14  15
ATOM     15  C   UNL     1       5.960  -0.969  16.230  1.00  0.00    -0.000 C 
BRANCH  15  16
ATOM     16  C   UNL     1       5.498  -1.470  17.609  1.00  0.00    -0.003 C 
ATOM     17  C   UNL     1       5.886  -0.529  18.750  1.00  0.00     0.004 C 
ENDBRANCH  15  16
ENDBRANCH  14  15
ENDBRANCH  13  14
ENDBRANCH  12  13
ENDBRANCH  11  12
ENDBRANCH  10  11
ENDBRANCH   1  10
TORSDOF 13
ENDMDL
MODEL 5
REMARK VINA RESULT:    -4.315      2.234      4.772
REMARK INTER + INTRA:          -9.922
REMARK INTER:                  -8.499
REMARK INTRA:                  -1.423
REMARK UNBOUND:                -2.328
REMARK SMILES CCCCCCCCCCCCCCC(=O)[O-]
REMARK SMILES IDX 9 1 10 2 11 3 12 4 13 5 14 6 15 7 16 8 17 9 8 10 7 11 6 12
REMARK SMILES IDX 5 13 4 14 3 15 2 16 1 17
REMARK H PARENT
REMARK Flexibility Score: inf
ROOT
ATOM      1  C   UNL     1       4.326   3.004  13.748  1.00  0.00     0.000 C 
ENDROOT
BRANCH   1   2
ATOM      2  C   UNL     1       4.954   1.631  13.452  1.00  0.00     0.000 C 
BRANCH   2   3
ATOM      3  C   UNL     1       3.962   0.557  12.963  1.00  0.00     0.000 C 
BRANCH   3   4
ATOM      4  C   UNL     1       4.331  -0.874  13.408  1.00  0.00     0.000 C 
BRANCH   4   5
ATOM      5  C   UNL     1       3.132  -1.624  14.014  1.00  0.00     0.006 C 
BRANCH   5   6
ATOM      6  C   UNL     1       2.704  -1.042  15.367  1.00  0.00     0.053 C 
BRANCH   6   7
ATOM      7  C   UNL     1       1.451  -0.228  15.252  1.00  0.00     0.041 C 
ATOM      8  O   UNL     1       0.580  -0.526  14.393  1.00  0.00    -0.550 OA
ATOM      9  O   UNL     1       1.231   0.838  16.114  1.00  0.00    -0.550 OA
ENDBRANCH   6   7
ENDBRANCH   5   6
ENDBRANCH   4   5
ENDBRANCH   3   4
ENDBRANCH   2   3
ENDBRANCH   1   2
BRANCH   1  10
ATOM     10  C   UNL     1       3.698   3.138  15.150  1.00  0.00     0.000 C 
BRANCH  10  11
ATOM     11  C   UNL     1       4.688   2.860  16.302  1.00  0.00    -0.000 C 
BRANCH  11  12
ATOM     12  C   UNL     1       4.390   1.532  17.018  1.00  0.00    -0.000 C 
BRANCH  12  13
ATOM     13  C   UNL     1       4.331   1.678  18.547  1.00  0.00    -0.000 C 
BRANCH  13  14
ATOM     14  C   UNL     1       4.732   0.388  19.281  1.00  0.00    -0.000 C 
BRANCH  14  15
ATOM     15  C   UNL     1       6.061  -0.202  18.771  1.00  0.00    -0.000 C 
BRANCH  15  16
ATOM     16  C   UNL     1       5.964  -1.631  18.207  1.00  0.00    -0.003 C 
ATOM     17  C   UNL     1       5.987  -1.674  16.679  1.00  0.00     0.004 C 
ENDBRANCH  15  16
ENDBRANCH  14  15
ENDBRANCH  13  14
ENDBRANCH  12  13
ENDBRANCH  11  12
ENDBRANCH  10  11
ENDBRANCH   1  10
TORSDOF 13
ENDMDL
MODEL 6
REMARK VINA RESULT:    -4.311      2.577      4.030
REMARK INTER + INTRA:          -9.915
REMARK INTER:                  -8.305
REMARK INTRA:                  -1.610
REMARK UNBOUND:                -2.328
REMARK SMILES CCCCCCCCCCCCCCC(=O)[O-]
REMARK SMILES IDX 9 1 10 2 11 3 12 4 13 5 14 6 15 7 16 8 17 9 8 10 7 11 6 12
REMARK SMILES IDX 5 13 4 14 3 15 2 16 1 17
REMARK H PARENT
REMARK Flexibility Score: inf
ROOT
ATOM      1  C   UNL     1       5.036   1.991  12.876  1.00  0.00     0.000 C 
ENDROOT
BRANCH   1   2
ATOM      2  C   UNL     1       4.798   3.369  13.516  1.00  0.00     0.000 C 
BRANCH   2   3
ATOM      3  C   UNL     1       3.628   3.425  14.518  1.00  0.00     0.000 C 
BRANCH   3   4
ATOM      4  C   UNL     1       3.815   2.500  15.739  1.00  0.00     0.000 C 
BRANCH   4   5
ATOM      5  C   UNL     1       2.632   1.533  15.925  1.00  0.00     0.006 C 
BRANCH   5   6
ATOM      6  C   UNL     1       2.471   0.574  14.739  1.00  0.00     0.053 C 
BRANCH   6   7
ATOM      7  C   UNL     1       1.246  -0.277  14.873  1.00  0.00     0.041 C 
ATOM      8  O   UNL     1       0.181   0.214  15.332  1.00  0.00    -0.550 OA
ATOM      9  O   UNL     1       1.271  -1.603  14.462  1.00  0.00    -0.550 OA
ENDBRANCH   6   7
ENDBRANCH   5   6
ENDBRANCH   4   5
ENDBRANCH   3   4
ENDBRANCH   2   3
ENDBRANCH   1   2
BRANCH   1  10
ATOM     10  C   UNL     1       6.184   1.176  13.503  1.00  0.00     0.000 C 
BRANCH  10  11
ATOM     11  C   UNL     1       6.159  -0.322  13.125  1.00  0.00    -0.000 C 
BRANCH  11  12
ATOM     12  C   UNL     1       5.820  -1.220  14.327  1.00  0.00    -0.000 C 
BRANCH  12  13
ATOM     13  C   UNL     1       5.892  -0.474  15.669  1.00  0.00    -0.000 C 
BRANCH  13  14
ATOM     14  C   UNL     1       5.076  -1.165  16.775  1.00  0.00    -0.000 C 
BRANCH  14  15
ATOM     15  C   UNL     1       5.931  -1.557  17.994  1.00  0.00    -0.000 C 
BRANCH  15  16
ATOM     16  C   UNL     1       5.900  -0.553  19.161  1.00  0.00    -0.003 C 
ATOM     17  C   UNL     1       4.833   0.528  18.992  1.00  0.00     0.004 C 
ENDBRANCH  15  16
ENDBRANCH  14  15
ENDBRANCH  13  14
ENDBRANCH  12  13
ENDBRANCH  11  12
ENDBRANCH  10  11
ENDBRANCH   1  10
TORSDOF 13
ENDMDL
MODEL 7
REMARK VINA RESULT:    -4.036      2.415      4.116
REMARK INTER + INTRA:          -9.431
REMARK INTER:                  -7.786
REMARK INTRA:                  -1.645
REMARK UNBOUND:                -2.328
REMARK SMILES CCCCCCCCCCCCCCC(=O)[O-]
REMARK SMILES IDX 9 1 10 2 11 3 12 4 13 5 14 6 15 7 16 8 17 9 8 10 7 11 6 12
REMARK SMILES IDX 5 13 4 14 3 15 2 16 1 17
REMARK H PARENT
REMARK Flexibility Score: inf
ROOT
ATOM      1  C   UNL     1       4.334   1.557  18.781  1.00  0.00     0.000 C 
ENDROOT
BRANCH   1   2
ATOM      2  C   UNL     1       4.731   0.150  19.260  1.00  0.00     0.000 C 
BRANCH   2   3
ATOM      3  C   UNL     1       6.034  -0.398  18.646  1.00  0.00     0.000 C 
BRANCH   3   4
ATOM      4  C   UNL     1       5.833  -1.679  17.808  1.00  0.00     0.000 C 
BRANCH   4   5
ATOM      5  C   UNL     1       5.394  -1.369  16.366  1.00  0.00     0.006 C 
BRANCH   5   6
ATOM      6  C   UNL     1       6.317  -2.014  15.325  1.00  0.00     0.053 C 
BRANCH   6   7
ATOM      7  C   UNL     1       6.558  -1.108  14.156  1.00  0.00     0.041 C 
ATOM      8  O   UNL     1       6.411  -1.538  12.981  1.00  0.00    -0.550 OA
ATOM      9  O   UNL     1       6.912   0.219  14.364  1.00  0.00    -0.550 OA
ENDBRANCH   6   7
ENDBRANCH   5   6
ENDBRANCH   4   5
ENDBRANCH   3   4
ENDBRANCH   2   3
ENDBRANCH   1   2
BRANCH   1  10
ATOM     10  C   UNL     1       3.957   1.651  17.289  1.00  0.00     0.000 C 
BRANCH  10  11
ATOM     11  C   UNL     1       5.016   2.372  16.427  1.00  0.00    -0.000 C 
BRANCH  11  12
ATOM     12  C   UNL     1       4.485   2.728  15.028  1.00  0.00    -0.000 C 
BRANCH  12  13
ATOM     13  C   UNL     1       3.247   1.906  14.633  1.00  0.00    -0.000 C 
BRANCH  13  14
ATOM     14  C   UNL     1       3.573   0.800  13.614  1.00  0.00    -0.000 C 
BRANCH  14  15
ATOM     15  C   UNL     1       2.850  -0.526  13.918  1.00  0.00    -0.000 C 
BRANCH  15  16
ATOM     16  C   UNL     1       1.972  -0.513  15.182  1.00  0.00    -0.003 C 
ATOM     17  C   UNL     1       0.505  -0.198  14.888  1.00  0.00     0.004 C 
ENDBRANCH  15  16
ENDBRANCH  14  15
ENDBRANCH  13  14
ENDBRANCH  12  13
ENDBRANCH  11  12
ENDBRANCH  10  11
ENDBRANCH   1  10
TORSDOF 13
ENDMDL
MODEL 8
REMARK VINA RESULT:    -4.033      2.224      5.171
REMARK INTER + INTRA:          -9.426
REMARK INTER:                  -7.613
REMARK INTRA:                  -1.814
REMARK UNBOUND:                -2.328
REMARK SMILES CCCCCCCCCCCCCCC(=O)[O-]
REMARK SMILES IDX 9 1 10 2 11 3 12 4 13 5 14 6 15 7 16 8 17 9 8 10 7 11 6 12
REMARK SMILES IDX 5 13 4 14 3 15 2 16 1 17
REMARK H PARENT
REMARK Flexibility Score: inf
ROOT
ATOM      1  C   UNL     1       5.893  -0.006  17.801  1.00  0.00     0.000 C 
ENDROOT
BRANCH   1   2
ATOM      2  C   UNL     1       5.544  -1.422  17.310  1.00  0.00     0.000 C 
BRANCH   2   3
ATOM      3  C   UNL     1       6.005  -1.740  15.874  1.00  0.00     0.000 C 
BRANCH   3   4
ATOM      4  C   UNL     1       4.907  -1.526  14.810  1.00  0.00     0.000 C 
BRANCH   4   5
ATOM      5  C   UNL     1       3.539  -1.206  15.438  1.00  0.00     0.006 C 
BRANCH   5   6
ATOM      6  C   UNL     1       2.483  -0.848  14.385  1.00  0.00     0.053 C 
BRANCH   6   7
ATOM      7  C   UNL     1       1.352  -0.063  14.975  1.00  0.00     0.041 C 
ATOM      8  O   UNL     1       0.207  -0.111  14.452  1.00  0.00    -0.550 OA
ATOM      9  O   UNL     1       1.553   0.696  16.120  1.00  0.00    -0.550 OA
ENDBRANCH   6   7
ENDBRANCH   5   6
ENDBRANCH   4   5
ENDBRANCH   3   4
ENDBRANCH   2   3
ENDBRANCH   1   2
BRANCH   1  10
ATOM     10  C   UNL     1       4.730   0.750  18.474  1.00  0.00     0.000 C 
BRANCH  10  11
ATOM     11  C   UNL     1       4.323   2.044  17.736  1.00  0.00    -0.000 C 
BRANCH  11  12
ATOM     12  C   UNL     1       4.741   2.026  16.255  1.00  0.00    -0.000 C 
BRANCH  12  13
ATOM     13  C   UNL     1       4.502   3.372  15.552  1.00  0.00    -0.000 C 
BRANCH  13  14
ATOM     14  C   UNL     1       3.655   3.230  14.276  1.00  0.00    -0.000 C 
BRANCH  14  15
ATOM     15  C   UNL     1       4.224   2.190  13.292  1.00  0.00    -0.000 C 
BRANCH  15  16
ATOM     16  C   UNL     1       5.687   2.421  12.875  1.00  0.00    -0.003 C 
ATOM     17  C   UNL     1       6.519   1.138  12.877  1.00  0.00     0.004 C 
ENDBRANCH  15  16
ENDBRANCH  14  15
ENDBRANCH  13  14
ENDBRANCH  12  13
ENDBRANCH  11  12
ENDBRANCH  10  11
ENDBRANCH   1  10
TORSDOF 13
ENDMDL
MODEL 9
REMARK VINA RESULT:    -4.014      1.051      3.739
REMARK INTER + INTRA:          -9.393
REMARK INTER:                  -7.429
REMARK INTRA:                  -1.963
REMARK UNBOUND:                -2.328
REMARK SMILES CCCCCCCCCCCCCCC(=O)[O-]
REMARK SMILES IDX 9 1 10 2 11 3 12 4 13 5 14 6 15 7 16 8 17 9 8 10 7 11 6 12
REMARK SMILES IDX 5 13 4 14 3 15 2 16 1 17
REMARK H PARENT
REMARK Flexibility Score: inf
ROOT
ATOM      1  C   UNL     1       4.343  -0.843  13.022  1.00  0.00     0.000 C 
ENDROOT
BRANCH   1   2
ATOM      2  C   UNL     1       5.637  -0.534  13.794  1.00  0.00     0.000 C 
BRANCH   2   3
ATOM      3  C   UNL     1       6.450  -1.773  14.216  1.00  0.00     0.000 C 
BRANCH   3   4
ATOM      4  C   UNL     1       6.346  -2.099  15.722  1.00  0.00     0.000 C 
BRANCH   4   5
ATOM      5  C   UNL     1       5.815  -0.909  16.541  1.00  0.00     0.006 C 
BRANCH   5   6
ATOM      6  C   UNL     1       4.992  -1.359  17.755  1.00  0.00     0.053 C 
BRANCH   6   7
ATOM      7  C   UNL     1       5.383  -0.619  18.998  1.00  0.00     0.041 C 
ATOM      8  O   UNL     1       4.635   0.282  19.460  1.00  0.00    -0.550 OA
ATOM      9  O   UNL     1       6.557  -0.947  19.663  1.00  0.00    -0.550 OA
ENDBRANCH   6   7
ENDBRANCH   5   6
ENDBRANCH   4   5
ENDBRANCH   3   4
ENDBRANCH   2   3
ENDBRANCH   1   2
BRANCH   1  10
ATOM     10  C   UNL     1       3.559  -2.067  13.537  1.00  0.00     0.000 C 
BRANCH  10  11
ATOM     11  C   UNL     1       2.754  -1.789  14.825  1.00  0.00    -0.000 C 
BRANCH  11  12
ATOM     12  C   UNL     1       1.524  -0.903  14.564  1.00  0.00    -0.000 C 
BRANCH  12  13
ATOM     13  C   UNL     1       1.469   0.328  15.483  1.00  0.00    -0.000 C 
BRANCH  13  14
ATOM     14  C   UNL     1       2.401   1.458  15.014  1.00  0.00    -0.000 C 
BRANCH  14  15
ATOM     15  C   UNL     1       3.499   1.794  16.042  1.00  0.00    -0.000 C 
BRANCH  15  16
ATOM     16  C   UNL     1       4.377   3.006  15.684  1.00  0.00    -0.003 C 
ATOM     17  C   UNL     1       4.608   3.154  14.180  1.00  0.00     0.004 C 
ENDBRANCH  15  16
ENDBRANCH  14  15
ENDBRANCH  13  14
ENDBRANCH  12  13
ENDBRANCH  11  12
ENDBRANCH  10  11
ENDBRANCH   1  10
TORSDOF 13
ENDMDL
