MODEL 1
REMARK VINA RESULT:    -4.376      0.000      0.000
REMARK INTER + INTRA:          -5.982
REMARK INTER:                  -5.911
REMARK INTRA:                  -0.071
REMARK UNBOUND:                -0.071
REMARK SMILES [NH3+]CCCC[C@H]([NH3+])C(=O)[O-]
REMARK SMILES IDX 4 1 3 2 2 3 1 4 5 8 6 9 7 10 8 14 9 15 10 16
REMARK H PARENT 1 5 1 6 1 7 7 11 7 12 7 13
REMARK Flexibility Score: inf
ROOT
ATOM      1  C   UNL     1     -15.490  14.904  -8.879  1.00  0.00     0.012 C 
ENDROOT
BRANCH   1   2
ATOM      2  C   UNL     1     -14.264  15.748  -9.258  1.00  0.00     0.061 C 
BRANCH   2   3
ATOM      3  C   UNL     1     -14.436  17.203  -8.802  1.00  0.00     0.258 C 
BRANCH   3   4
ATOM      4  N   UNL     1     -13.516  17.521  -7.710  1.00  0.00    -0.358 N 
ATOM      5  H   UNL     1     -12.640  17.947  -8.090  1.00  0.00     0.344 HD
ATOM      6  H   UNL     1     -13.973  18.205  -7.065  1.00  0.00     0.344 HD
ATOM      7  H   UNL     1     -13.283  16.653  -7.173  1.00  0.00     0.344 HD
ENDBRANCH   3   4
ENDBRANCH   2   3
ENDBRANCH   1   2
BRANCH   1   8
ATOM      8  C   UNL     1     -15.410  13.451  -9.384  1.00  0.00     0.072 C 
BRANCH   8   9
ATOM      9  C   UNL     1     -16.788  12.808  -9.684  1.00  0.00     0.227 C 
BRANCH   9  10
ATOM     10  N   UNL     1     -17.287  12.096  -8.501  1.00  0.00    -0.350 N 
ATOM     11  H   UNL     1     -16.770  11.194  -8.384  1.00  0.00     0.345 HD
ATOM     12  H   UNL     1     -17.128  12.674  -7.643  1.00  0.00     0.345 HD
ATOM     13  H   UNL     1     -18.309  11.895  -8.597  1.00  0.00     0.345 HD
ENDBRANCH   9  10
BRANCH   9  14
ATOM     14  C   UNL     1     -16.715  11.855 -10.849  1.00  0.00     0.099 C 
ATOM     15  O   UNL     1     -15.650  11.749 -11.512  1.00  0.00    -0.544 OA
ATOM     16  O   UNL     1     -17.833  11.122 -11.227  1.00  0.00    -0.544 OA
ENDBRANCH   9  14
ENDBRANCH   8   9
ENDBRANCH   1   8
TORSDOF 7
ENDMDL
MODEL 2
REMARK VINA RESULT:    -4.336      3.389      4.525
REMARK INTER + INTRA:          -5.928
REMARK INTER:                  -5.435
REMARK INTRA:                  -0.493
REMARK UNBOUND:                -0.071
REMARK SMILES [NH3+]CCCC[C@H]([NH3+])C(=O)[O-]
REMARK SMILES IDX 4 1 3 2 2 3 1 4 5 8 6 9 7 10 8 14 9 15 10 16
REMARK H PARENT 1 5 1 6 1 7 7 11 7 12 7 13
REMARK Flexibility Score: inf
ROOT
ATOM      1  C   UNL     1     -19.086  11.846 -11.665  1.00  0.00     0.012 C 
ENDROOT
BRANCH   1   2
ATOM      2  C   UNL     1     -19.285  13.369 -11.684  1.00  0.00     0.061 C 
BRANCH   2   3
ATOM      3  C   UNL     1     -20.082  13.836 -10.459  1.00  0.00     0.258 C 
BRANCH   3   4
ATOM      4  N   UNL     1     -19.300  14.773  -9.653  1.00  0.00    -0.358 N 
ATOM      5  H   UNL     1     -18.626  15.294 -10.260  1.00  0.00     0.344 HD
ATOM      6  H   UNL     1     -19.948  15.458  -9.201  1.00  0.00     0.344 HD
ATOM      7  H   UNL     1     -18.779  14.257  -8.907  1.00  0.00     0.344 HD
ENDBRANCH   3   4
ENDBRANCH   2   3
ENDBRANCH   1   2
BRANCH   1   8
ATOM      8  C   UNL     1     -17.884  11.398 -10.811  1.00  0.00     0.072 C 
BRANCH   8   9
ATOM      9  C   UNL     1     -16.606  12.248 -11.023  1.00  0.00     0.227 C 
BRANCH   9  10
ATOM     10  N   UNL     1     -15.487  11.392 -11.436  1.00  0.00    -0.350 N 
ATOM     11  H   UNL     1     -14.901  11.144 -10.605  1.00  0.00     0.345 HD
ATOM     12  H   UNL     1     -15.852  10.503 -11.851  1.00  0.00     0.345 HD
ATOM     13  H   UNL     1     -14.890  11.882 -12.143  1.00  0.00     0.345 HD
ENDBRANCH   9  10
BRANCH   9  14
ATOM     14  C   UNL     1     -16.226  13.000  -9.775  1.00  0.00     0.099 C 
ATOM     15  O   UNL     1     -15.162  13.674  -9.743  1.00  0.00    -0.544 OA
ATOM     16  O   UNL     1     -17.020  12.921  -8.637  1.00  0.00    -0.544 OA
ENDBRANCH   9  14
ENDBRANCH   8   9
ENDBRANCH   1   8
TORSDOF 7
ENDMDL
MODEL 3
REMARK VINA RESULT:    -4.253      3.684      5.150
REMARK INTER + INTRA:          -5.816
REMARK INTER:                  -5.282
REMARK INTRA:                  -0.534
REMARK UNBOUND:                -0.071
REMARK SMILES [NH3+]CCCC[C@H]([NH3+])C(=O)[O-]
REMARK SMILES IDX 4 1 3 2 2 3 1 4 5 8 6 9 7 10 8 14 9 15 10 16
REMARK H PARENT 1 5 1 6 1 7 7 11 7 12 7 13
REMARK Flexibility Score: inf
ROOT
ATOM      1  C   UNL     1     -12.944  16.216  -5.159  1.00  0.00     0.012 C 
ENDROOT
BRANCH   1   2
ATOM      2  C   UNL     1     -13.214  14.740  -4.828  1.00  0.00     0.061 C 
BRANCH   2   3
ATOM      3  C   UNL     1     -14.607  14.560  -4.212  1.00  0.00     0.258 C 
BRANCH   3   4
ATOM      4  N   UNL     1     -15.415  13.635  -5.007  1.00  0.00    -0.358 N 
ATOM      5  H   UNL     1     -14.797  13.050  -5.615  1.00  0.00     0.344 HD
ATOM      6  H   UNL     1     -15.949  13.007  -4.364  1.00  0.00     0.344 HD
ATOM      7  H   UNL     1     -16.093  14.168  -5.599  1.00  0.00     0.344 HD
ENDBRANCH   3   4
ENDBRANCH   2   3
ENDBRANCH   1   2
BRANCH   1   8
ATOM      8  C   UNL     1     -13.837  16.762  -6.289  1.00  0.00     0.072 C 
BRANCH   8   9
ATOM      9  C   UNL     1     -13.636  16.054  -7.652  1.00  0.00     0.227 C 
BRANCH   9  10
ATOM     10  N   UNL     1     -13.166  17.011  -8.661  1.00  0.00    -0.350 N 
ATOM     11  H   UNL     1     -13.946  17.252  -9.315  1.00  0.00     0.345 HD
ATOM     12  H   UNL     1     -12.851  17.894  -8.194  1.00  0.00     0.345 HD
ATOM     13  H   UNL     1     -12.370  16.609  -9.209  1.00  0.00     0.345 HD
ENDBRANCH   9  10
BRANCH   9  14
ATOM     14  C   UNL     1     -14.907  15.403  -8.134  1.00  0.00     0.099 C 
ATOM     15  O   UNL     1     -15.942  15.435  -7.418  1.00  0.00    -0.544 OA
ATOM     16  O   UNL     1     -14.934  14.727  -9.348  1.00  0.00    -0.544 OA
ENDBRANCH   9  14
ENDBRANCH   8   9
ENDBRANCH   1   8
TORSDOF 7
ENDMDL
MODEL 4
REMARK VINA RESULT:    -4.140     16.420     17.366
REMARK INTER + INTRA:          -5.663
REMARK INTER:                  -5.072
REMARK INTRA:                  -0.591
REMARK UNBOUND:                -0.071
REMARK SMILES [NH3+]CCCC[C@H]([NH3+])C(=O)[O-]
REMARK SMILES IDX 4 1 3 2 2 3 1 4 5 8 6 9 7 10 8 14 9 15 10 16
REMARK H PARENT 1 5 1 6 1 7 7 11 7 12 7 13
REMARK Flexibility Score: inf
ROOT
ATOM      1  C   UNL     1      -1.552  17.204 -21.749  1.00  0.00     0.012 C 
ENDROOT
BRANCH   1   2
ATOM      2  C   UNL     1      -1.242  17.844 -20.388  1.00  0.00     0.061 C 
BRANCH   2   3
ATOM      3  C   UNL     1      -2.348  18.825 -19.976  1.00  0.00     0.258 C 
BRANCH   3   4
ATOM      4  N   UNL     1      -3.478  18.116 -19.376  1.00  0.00    -0.358 N 
ATOM      5  H   UNL     1      -4.143  17.803 -20.121  1.00  0.00     0.344 HD
ATOM      6  H   UNL     1      -3.123  17.276 -18.864  1.00  0.00     0.344 HD
ATOM      7  H   UNL     1      -3.974  18.740 -18.698  1.00  0.00     0.344 HD
ENDBRANCH   3   4
ENDBRANCH   2   3
ENDBRANCH   1   2
BRANCH   1   8
ATOM      8  C   UNL     1      -1.699  15.672 -21.684  1.00  0.00     0.072 C 
BRANCH   8   9
ATOM      9  C   UNL     1      -3.155  15.169 -21.851  1.00  0.00     0.227 C 
BRANCH   9  10
ATOM     10  N   UNL     1      -4.018  16.254 -22.333  1.00  0.00    -0.350 N 
ATOM     11  H   UNL     1      -4.530  15.947 -23.193  1.00  0.00     0.345 HD
ATOM     12  H   UNL     1      -4.728  16.495 -21.603  1.00  0.00     0.345 HD
ATOM     13  H   UNL     1      -3.451  17.104 -22.556  1.00  0.00     0.345 HD
ENDBRANCH   9  10
BRANCH   9  14
ATOM     14  C   UNL     1      -3.708  14.626 -20.559  1.00  0.00     0.099 C 
ATOM     15  O   UNL     1      -4.660  13.802 -20.576  1.00  0.00    -0.544 OA
ATOM     16  O   UNL     1      -3.202  15.063 -19.340  1.00  0.00    -0.544 OA
ENDBRANCH   9  14
ENDBRANCH   8   9
ENDBRANCH   1   8
TORSDOF 7
ENDMDL
MODEL 5
REMARK VINA RESULT:    -4.111      3.600      5.269
REMARK INTER + INTRA:          -5.624
REMARK INTER:                  -5.367
REMARK INTRA:                  -0.257
REMARK UNBOUND:                -0.071
REMARK SMILES [NH3+]CCCC[C@H]([NH3+])C(=O)[O-]
REMARK SMILES IDX 4 1 3 2 2 3 1 4 5 8 6 9 7 10 8 14 9 15 10 16
REMARK H PARENT 1 5 1 6 1 7 7 11 7 12 7 13
REMARK Flexibility Score: inf
ROOT
ATOM      1  C   UNL     1     -18.916  12.718 -11.516  1.00  0.00     0.012 C 
ENDROOT
BRANCH   1   2
ATOM      2  C   UNL     1     -19.350  11.246 -11.564  1.00  0.00     0.061 C 
BRANCH   2   3
ATOM      3  C   UNL     1     -20.523  10.986 -10.610  1.00  0.00     0.258 C 
BRANCH   3   4
ATOM      4  N   UNL     1     -20.090  10.207  -9.450  1.00  0.00    -0.358 N 
ATOM      5  H   UNL     1     -19.256   9.627  -9.697  1.00  0.00     0.344 HD
ATOM      6  H   UNL     1     -19.830  10.861  -8.676  1.00  0.00     0.344 HD
ATOM      7  H   UNL     1     -20.868   9.588  -9.123  1.00  0.00     0.344 HD
ENDBRANCH   3   4
ENDBRANCH   2   3
ENDBRANCH   1   2
BRANCH   1   8
ATOM      8  C   UNL     1     -17.476  12.914 -11.004  1.00  0.00     0.072 C 
BRANCH   8   9
ATOM      9  C   UNL     1     -16.879  11.668 -10.304  1.00  0.00     0.227 C 
BRANCH   9  10
ATOM     10  N   UNL     1     -16.969  11.809  -8.845  1.00  0.00    -0.350 N 
ATOM     11  H   UNL     1     -16.383  12.616  -8.529  1.00  0.00     0.345 HD
ATOM     12  H   UNL     1     -17.959  11.999  -8.566  1.00  0.00     0.345 HD
ATOM     13  H   UNL     1     -16.638  10.938  -8.370  1.00  0.00     0.345 HD
ENDBRANCH   9  10
BRANCH   9  14
ATOM     14  C   UNL     1     -15.442  11.445 -10.697  1.00  0.00     0.099 C 
ATOM     15  O   UNL     1     -15.010  11.893 -11.792  1.00  0.00    -0.544 OA
ATOM     16  O   UNL     1     -14.595  10.707  -9.878  1.00  0.00    -0.544 OA
ENDBRANCH   9  14
ENDBRANCH   8   9
ENDBRANCH   1   8
TORSDOF 7
ENDMDL
MODEL 6
REMARK VINA RESULT:    -4.085      4.656      5.432
REMARK INTER + INTRA:          -5.589
REMARK INTER:                  -5.059
REMARK INTRA:                  -0.530
REMARK UNBOUND:                -0.071
REMARK SMILES [NH3+]CCCC[C@H]([NH3+])C(=O)[O-]
REMARK SMILES IDX 4 1 3 2 2 3 1 4 5 8 6 9 7 10 8 14 9 15 10 16
REMARK H PARENT 1 5 1 6 1 7 7 11 7 12 7 13
REMARK Flexibility Score: inf
ROOT
ATOM      1  C   UNL     1     -14.737  15.292  -8.777  1.00  0.00     0.012 C 
ENDROOT
BRANCH   1   2
ATOM      2  C   UNL     1     -13.723  16.355  -9.226  1.00  0.00     0.061 C 
BRANCH   2   3
ATOM      3  C   UNL     1     -14.434  17.577  -9.822  1.00  0.00     0.258 C 
BRANCH   3   4
ATOM      4  N   UNL     1     -14.838  18.511  -8.771  1.00  0.00    -0.358 N 
ATOM      5  H   UNL     1     -15.725  18.995  -9.042  1.00  0.00     0.344 HD
ATOM      6  H   UNL     1     -15.000  17.980  -7.885  1.00  0.00     0.344 HD
ATOM      7  H   UNL     1     -14.083  19.217  -8.609  1.00  0.00     0.344 HD
ENDBRANCH   3   4
ENDBRANCH   2   3
ENDBRANCH   1   2
BRANCH   1   8
ATOM      8  C   UNL     1     -14.728  15.042  -7.258  1.00  0.00     0.072 C 
BRANCH   8   9
ATOM      9  C   UNL     1     -13.640  15.836  -6.492  1.00  0.00     0.227 C 
BRANCH   9  10
ATOM     10  N   UNL     1     -12.792  14.924  -5.715  1.00  0.00    -0.350 N 
ATOM     11  H   UNL     1     -12.615  15.324  -4.765  1.00  0.00     0.345 HD
ATOM     12  H   UNL     1     -13.277  14.004  -5.594  1.00  0.00     0.345 HD
ATOM     13  H   UNL     1     -11.877  14.770  -6.199  1.00  0.00     0.345 HD
ENDBRANCH   9  10
BRANCH   9  14
ATOM     14  C   UNL     1     -14.247  16.862  -5.570  1.00  0.00     0.099 C 
ATOM     15  O   UNL     1     -13.691  17.132  -4.473  1.00  0.00    -0.544 OA
ATOM     16  O   UNL     1     -15.444  17.485  -5.902  1.00  0.00    -0.544 OA
ENDBRANCH   9  14
ENDBRANCH   8   9
ENDBRANCH   1   8
TORSDOF 7
ENDMDL
MODEL 7
REMARK VINA RESULT:    -4.055      4.105      5.331
REMARK INTER + INTRA:          -5.549
REMARK INTER:                  -5.021
REMARK INTRA:                  -0.528
REMARK UNBOUND:                -0.071
REMARK SMILES [NH3+]CCCC[C@H]([NH3+])C(=O)[O-]
REMARK SMILES IDX 4 1 3 2 2 3 1 4 5 8 6 9 7 10 8 14 9 15 10 16
REMARK H PARENT 1 5 1 6 1 7 7 11 7 12 7 13
REMARK Flexibility Score: inf
ROOT
ATOM      1  C   UNL     1     -13.076  14.876  -5.228  1.00  0.00     0.012 C 
ENDROOT
BRANCH   1   2
ATOM      2  C   UNL     1     -14.116  14.646  -4.122  1.00  0.00     0.061 C 
BRANCH   2   3
ATOM      3  C   UNL     1     -14.796  15.962  -3.723  1.00  0.00     0.258 C 
BRANCH   3   4
ATOM      4  N   UNL     1     -16.236  15.903  -3.975  1.00  0.00    -0.358 N 
ATOM      5  H   UNL     1     -16.758  16.330  -3.175  1.00  0.00     0.344 HD
ATOM      6  H   UNL     1     -16.454  16.439  -4.846  1.00  0.00     0.344 HD
ATOM      7  H   UNL     1     -16.537  14.910  -4.105  1.00  0.00     0.344 HD
ENDBRANCH   3   4
ENDBRANCH   2   3
ENDBRANCH   1   2
BRANCH   1   8
ATOM      8  C   UNL     1     -13.228  16.237  -5.935  1.00  0.00     0.072 C 
BRANCH   8   9
ATOM      9  C   UNL     1     -13.543  16.132  -7.448  1.00  0.00     0.227 C 
BRANCH   9  10
ATOM     10  N   UNL     1     -13.406  17.445  -8.091  1.00  0.00    -0.350 N 
ATOM     11  H   UNL     1     -13.282  17.325  -9.123  1.00  0.00     0.345 HD
ATOM     12  H   UNL     1     -14.271  18.011  -7.932  1.00  0.00     0.345 HD
ATOM     13  H   UNL     1     -12.581  17.959  -7.705  1.00  0.00     0.345 HD
ENDBRANCH   9  10
BRANCH   9  14
ATOM     14  C   UNL     1     -14.931  15.598  -7.691  1.00  0.00     0.099 C 
ATOM     15  O   UNL     1     -15.113  14.665  -8.516  1.00  0.00    -0.544 OA
ATOM     16  O   UNL     1     -16.024  16.161  -7.042  1.00  0.00    -0.544 OA
ENDBRANCH   9  14
ENDBRANCH   8   9
ENDBRANCH   1   8
TORSDOF 7
ENDMDL
MODEL 8
REMARK VINA RESULT:    -4.024     16.666     17.617
REMARK INTER + INTRA:          -5.506
REMARK INTER:                  -5.441
REMARK INTRA:                  -0.065
REMARK UNBOUND:                -0.071
REMARK SMILES [NH3+]CCCC[C@H]([NH3+])C(=O)[O-]
REMARK SMILES IDX 4 1 3 2 2 3 1 4 5 8 6 9 7 10 8 14 9 15 10 16
REMARK H PARENT 1 5 1 6 1 7 7 11 7 12 7 13
REMARK Flexibility Score: inf
ROOT
ATOM      1  C   UNL     1      -4.173  11.090 -21.604  1.00  0.00     0.012 C 
ENDROOT
BRANCH   1   2
ATOM      2  C   UNL     1      -4.291   9.903 -22.573  1.00  0.00     0.061 C 
BRANCH   2   3
ATOM      3  C   UNL     1      -3.709   8.626 -21.953  1.00  0.00     0.258 C 
BRANCH   3   4
ATOM      4  N   UNL     1      -4.566   8.130 -20.876  1.00  0.00    -0.358 N 
ATOM      5  H   UNL     1      -5.409   7.657 -21.276  1.00  0.00     0.344 HD
ATOM      6  H   UNL     1      -4.030   7.440 -20.302  1.00  0.00     0.344 HD
ATOM      7  H   UNL     1      -4.864   8.923 -20.261  1.00  0.00     0.344 HD
ENDBRANCH   3   4
ENDBRANCH   2   3
ENDBRANCH   1   2
BRANCH   1   8
ATOM      8  C   UNL     1      -3.366  12.269 -22.179  1.00  0.00     0.072 C 
BRANCH   8   9
ATOM      9  C   UNL     1      -2.657  13.133 -21.107  1.00  0.00     0.227 C 
BRANCH   9  10
ATOM     10  N   UNL     1      -2.088  12.279 -20.057  1.00  0.00    -0.350 N 
ATOM     11  H   UNL     1      -1.055  12.184 -20.196  1.00  0.00     0.345 HD
ATOM     12  H   UNL     1      -2.249  12.713 -19.118  1.00  0.00     0.345 HD
ATOM     13  H   UNL     1      -2.526  11.329 -20.077  1.00  0.00     0.345 HD
ENDBRANCH   9  10
BRANCH   9  14
ATOM     14  C   UNL     1      -3.599  14.131 -20.485  1.00  0.00     0.099 C 
ATOM     15  O   UNL     1      -4.713  14.367 -21.022  1.00  0.00    -0.544 OA
ATOM     16  O   UNL     1      -3.229  14.828 -19.341  1.00  0.00    -0.544 OA
ENDBRANCH   9  14
ENDBRANCH   8   9
ENDBRANCH   1   8
TORSDOF 7
ENDMDL
MODEL 9
REMARK VINA RESULT:    -3.970      3.613      5.497
REMARK INTER + INTRA:          -5.433
REMARK INTER:                  -5.361
REMARK INTRA:                  -0.073
REMARK UNBOUND:                -0.071
REMARK SMILES [NH3+]CCCC[C@H]([NH3+])C(=O)[O-]
REMARK SMILES IDX 4 1 3 2 2 3 1 4 5 8 6 9 7 10 8 14 9 15 10 16
REMARK H PARENT 1 5 1 6 1 7 7 11 7 12 7 13
REMARK Flexibility Score: inf
ROOT
ATOM      1  C   UNL     1     -16.237  13.697  -8.689  1.00  0.00     0.012 C 
ENDROOT
BRANCH   1   2
ATOM      2  C   UNL     1     -16.453  12.953 -10.016  1.00  0.00     0.061 C 
BRANCH   2   3
ATOM      3  C   UNL     1     -15.453  11.799 -10.168  1.00  0.00     0.258 C 
BRANCH   3   4
ATOM      4  N   UNL     1     -15.219  11.493 -11.579  1.00  0.00    -0.358 N 
ATOM      5  H   UNL     1     -14.941  12.360 -12.093  1.00  0.00     0.344 HD
ATOM      6  H   UNL     1     -14.446  10.793 -11.654  1.00  0.00     0.344 HD
ATOM      7  H   UNL     1     -16.084  11.088 -12.007  1.00  0.00     0.344 HD
ENDBRANCH   3   4
ENDBRANCH   2   3
ENDBRANCH   1   2
BRANCH   1   8
ATOM      8  C   UNL     1     -15.202  14.834  -8.788  1.00  0.00     0.072 C 
BRANCH   8   9
ATOM      9  C   UNL     1     -15.040  15.657  -7.486  1.00  0.00     0.227 C 
BRANCH   9  10
ATOM     10  N   UNL     1     -16.154  16.603  -7.338  1.00  0.00    -0.350 N 
ATOM     11  H   UNL     1     -15.782  17.571  -7.195  1.00  0.00     0.345 HD
ATOM     12  H   UNL     1     -16.737  16.605  -8.207  1.00  0.00     0.345 HD
ATOM     13  H   UNL     1     -16.753  16.341  -6.521  1.00  0.00     0.345 HD
ENDBRANCH   9  10
BRANCH   9  14
ATOM     14  C   UNL     1     -13.736  16.412  -7.464  1.00  0.00     0.099 C 
ATOM     15  O   UNL     1     -13.248  16.797  -6.369  1.00  0.00    -0.544 OA
ATOM     16  O   UNL     1     -13.086  16.727  -8.651  1.00  0.00    -0.544 OA
ENDBRANCH   9  14
ENDBRANCH   8   9
ENDBRANCH   1   8
TORSDOF 7
ENDMDL
