MODEL 1
REMARK VINA RESULT:    -5.023      0.000      0.000
REMARK INTER + INTRA:         -13.564
REMARK INTER:                 -10.895
REMARK INTRA:                  -2.669
REMARK UNBOUND:                -2.669
REMARK SMILES CCCCCCCCCCCCCCCCCCCCCC(=O)[O-]
REMARK SMILES IDX 12 1 11 2 10 3 9 4 8 5 7 6 6 7 5 8 4 9 3 10 2 11 1 12 13 13
REMARK SMILES IDX 14 14 15 15 16 16 17 17 18 18 19 19 20 20 21 21 22 22 23 23
REMARK SMILES IDX 24 24
REMARK H PARENT
REMARK Flexibility Score: inf
ROOT
ATOM      1  C   UNL     1     160.230 167.008 160.251  1.00  0.00     0.000 C 
ENDROOT
BRANCH   1   2
ATOM      2  C   UNL     1     159.801 166.184 161.476  1.00  0.00     0.000 C 
BRANCH   2   3
ATOM      3  C   UNL     1     159.403 164.746 161.111  1.00  0.00     0.000 C 
BRANCH   3   4
ATOM      4  C   UNL     1     159.177 164.605 159.598  1.00  0.00    -0.000 C 
BRANCH   4   5
ATOM      5  C   UNL     1     158.924 163.143 159.173  1.00  0.00    -0.000 C 
BRANCH   5   6
ATOM      6  C   UNL     1     159.906 162.627 158.102  1.00  0.00    -0.000 C 
BRANCH   6   7
ATOM      7  C   UNL     1     161.247 162.097 158.645  1.00  0.00    -0.000 C 
BRANCH   7   8
ATOM      8  C   UNL     1     162.393 163.125 158.657  1.00  0.00    -0.000 C 
BRANCH   8   9
ATOM      9  C   UNL     1     163.710 162.559 158.101  1.00  0.00    -0.000 C 
BRANCH   9  10
ATOM     10  C   UNL     1     164.785 163.641 157.896  1.00  0.00    -0.000 C 
BRANCH  10  11
ATOM     11  C   UNL     1     166.230 163.170 158.143  1.00  0.00    -0.003 C 
ATOM     12  C   UNL     1     166.319 161.697 158.543  1.00  0.00     0.004 C 
ENDBRANCH  10  11
ENDBRANCH   9  10
ENDBRANCH   8   9
ENDBRANCH   7   8
ENDBRANCH   6   7
ENDBRANCH   5   6
ENDBRANCH   4   5
ENDBRANCH   3   4
ENDBRANCH   2   3
ENDBRANCH   1   2
BRANCH   1  13
ATOM     13  C   UNL     1     161.338 168.023 160.580  1.00  0.00     0.000 C 
BRANCH  13  14
ATOM     14  C   UNL     1     162.736 167.549 160.141  1.00  0.00     0.000 C 
BRANCH  14  15
ATOM     15  C   UNL     1     162.757 166.594 158.933  1.00  0.00     0.000 C 
BRANCH  15  16
ATOM     16  C   UNL     1     163.341 167.243 157.666  1.00  0.00     0.000 C 
BRANCH  16  17
ATOM     17  C   UNL     1     162.613 166.797 156.388  1.00  0.00     0.000 C 
BRANCH  17  18
ATOM     18  C   UNL     1     161.224 166.206 156.673  1.00  0.00     0.000 C 
BRANCH  18  19
ATOM     19  C   UNL     1     160.388 166.119 155.388  1.00  0.00     0.000 C 
BRANCH  19  20
ATOM     20  C   UNL     1     160.973 166.947 154.230  1.00  0.00     0.006 C 
BRANCH  20  21
ATOM     21  C   UNL     1     160.876 166.257 152.858  1.00  0.00     0.053 C 
BRANCH  21  22
ATOM     22  C   UNL     1     162.178 166.271 152.114  1.00  0.00     0.041 C 
ATOM     23  O   UNL     1     162.342 165.529 151.110  1.00  0.00    -0.550 OA
ATOM     24  O   UNL     1     163.223 167.078 152.548  1.00  0.00    -0.550 OA
ENDBRANCH  21  22
ENDBRANCH  20  21
ENDBRANCH  19  20
ENDBRANCH  18  19
ENDBRANCH  17  18
ENDBRANCH  16  17
ENDBRANCH  15  16
ENDBRANCH  14  15
ENDBRANCH  13  14
ENDBRANCH   1  13
TORSDOF 20
ENDMDL
MODEL 2
REMARK VINA RESULT:    -4.930      2.011      4.661
REMARK INTER + INTRA:         -13.363
REMARK INTER:                 -10.549
REMARK INTRA:                  -2.814
REMARK UNBOUND:                -2.669
REMARK SMILES CCCCCCCCCCCCCCCCCCCCCC(=O)[O-]
REMARK SMILES IDX 12 1 11 2 10 3 9 4 8 5 7 6 6 7 5 8 4 9 3 10 2 11 1 12 13 13
REMARK SMILES IDX 14 14 15 15 16 16 17 17 18 18 19 19 20 20 21 21 22 22 23 23
REMARK SMILES IDX 24 24
REMARK H PARENT
REMARK Flexibility Score: inf
ROOT
ATOM      1  C   UNL     1     162.422 166.725 158.167  1.00  0.00     0.000 C 
ENDROOT
BRANCH   1   2
ATOM      2  C   UNL     1     163.049 165.556 158.943  1.00  0.00     0.000 C 
BRANCH   2   3
ATOM      3  C   UNL     1     163.901 164.642 158.048  1.00  0.00     0.000 C 
BRANCH   3   4
ATOM      4  C   UNL     1     163.457 163.177 158.176  1.00  0.00    -0.000 C 
BRANCH   4   5
ATOM      5  C   UNL     1     162.150 163.024 158.983  1.00  0.00    -0.000 C 
BRANCH   5   6
ATOM      6  C   UNL     1     161.037 162.271 158.228  1.00  0.00    -0.000 C 
BRANCH   6   7
ATOM      7  C   UNL     1     159.637 162.361 158.866  1.00  0.00    -0.000 C 
BRANCH   7   8
ATOM      8  C   UNL     1     159.067 163.786 158.979  1.00  0.00    -0.000 C 
BRANCH   8   9
ATOM      9  C   UNL     1     159.069 164.318 160.422  1.00  0.00    -0.000 C 
BRANCH   9  10
ATOM     10  C   UNL     1     159.627 165.748 160.530  1.00  0.00    -0.000 C 
BRANCH  10  11
ATOM     11  C   UNL     1     160.596 165.975 161.704  1.00  0.00    -0.003 C 
ATOM     12  C   UNL     1     161.233 164.681 162.214  1.00  0.00     0.004 C 
ENDBRANCH  10  11
ENDBRANCH   9  10
ENDBRANCH   8   9
ENDBRANCH   7   8
ENDBRANCH   6   7
ENDBRANCH   5   6
ENDBRANCH   4   5
ENDBRANCH   3   4
ENDBRANCH   2   3
ENDBRANCH   1   2
BRANCH   1  13
ATOM     13  C   UNL     1     161.279 166.274 157.242  1.00  0.00     0.000 C 
BRANCH  13  14
ATOM     14  C   UNL     1     161.566 166.549 155.754  1.00  0.00     0.000 C 
BRANCH  14  15
ATOM     15  C   UNL     1     160.335 166.511 154.829  1.00  0.00     0.000 C 
BRANCH  15  16
ATOM     16  C   UNL     1     160.551 167.276 153.512  1.00  0.00     0.000 C 
BRANCH  16  17
ATOM     17  C   UNL     1     161.043 166.365 152.376  1.00  0.00     0.000 C 
BRANCH  17  18
ATOM     18  C   UNL     1     162.566 166.423 152.189  1.00  0.00     0.000 C 
BRANCH  18  19
ATOM     19  C   UNL     1     163.125 167.780 152.640  1.00  0.00     0.000 C 
BRANCH  19  20
ATOM     20  C   UNL     1     164.397 167.655 153.498  1.00  0.00     0.006 C 
BRANCH  20  21
ATOM     21  C   UNL     1     165.668 168.187 152.812  1.00  0.00     0.053 C 
BRANCH  21  22
ATOM     22  C   UNL     1     166.621 167.092 152.439  1.00  0.00     0.041 C 
ATOM     23  O   UNL     1     167.849 167.209 152.689  1.00  0.00    -0.550 OA
ATOM     24  O   UNL     1     166.160 165.957 151.783  1.00  0.00    -0.550 OA
ENDBRANCH  21  22
ENDBRANCH  20  21
ENDBRANCH  19  20
ENDBRANCH  18  19
ENDBRANCH  17  18
ENDBRANCH  16  17
ENDBRANCH  15  16
ENDBRANCH  14  15
ENDBRANCH  13  14
ENDBRANCH   1  13
TORSDOF 20
ENDMDL
MODEL 3
REMARK VINA RESULT:    -4.922      2.060      4.432
REMARK INTER + INTRA:         -13.346
REMARK INTER:                 -10.597
REMARK INTRA:                  -2.749
REMARK UNBOUND:                -2.669
REMARK SMILES CCCCCCCCCCCCCCCCCCCCCC(=O)[O-]
REMARK SMILES IDX 12 1 11 2 10 3 9 4 8 5 7 6 6 7 5 8 4 9 3 10 2 11 1 12 13 13
REMARK SMILES IDX 14 14 15 15 16 16 17 17 18 18 19 19 20 20 21 21 22 22 23 23
REMARK SMILES IDX 24 24
REMARK H PARENT
REMARK Flexibility Score: inf
ROOT
ATOM      1  C   UNL     1     163.259 166.922 157.650  1.00  0.00     0.000 C 
ENDROOT
BRANCH   1   2
ATOM      2  C   UNL     1     163.772 166.151 158.877  1.00  0.00     0.000 C 
BRANCH   2   3
ATOM      3  C   UNL     1     163.177 166.673 160.194  1.00  0.00     0.000 C 
BRANCH   3   4
ATOM      4  C   UNL     1     162.402 167.980 159.968  1.00  0.00    -0.000 C 
BRANCH   4   5
ATOM      5  C   UNL     1     160.953 167.906 160.496  1.00  0.00    -0.000 C 
BRANCH   5   6
ATOM      6  C   UNL     1     160.064 166.901 159.738  1.00  0.00    -0.000 C 
BRANCH   6   7
ATOM      7  C   UNL     1     159.378 165.840 160.619  1.00  0.00    -0.000 C 
BRANCH   7   8
ATOM      8  C   UNL     1     159.472 164.398 160.088  1.00  0.00    -0.000 C 
BRANCH   8   9
ATOM      9  C   UNL     1     160.921 163.942 159.849  1.00  0.00    -0.000 C 
BRANCH   9  10
ATOM     10  C   UNL     1     161.113 163.257 158.484  1.00  0.00    -0.000 C 
BRANCH  10  11
ATOM     11  C   UNL     1     162.519 162.674 158.247  1.00  0.00    -0.003 C 
ATOM     12  C   UNL     1     162.672 161.248 158.775  1.00  0.00     0.004 C 
ENDBRANCH  10  11
ENDBRANCH   9  10
ENDBRANCH   8   9
ENDBRANCH   7   8
ENDBRANCH   6   7
ENDBRANCH   5   6
ENDBRANCH   4   5
ENDBRANCH   3   4
ENDBRANCH   2   3
ENDBRANCH   1   2
BRANCH   1  13
ATOM     13  C   UNL     1     162.364 166.060 156.743  1.00  0.00     0.000 C 
BRANCH  13  14
ATOM     14  C   UNL     1     161.188 166.848 156.136  1.00  0.00     0.000 C 
BRANCH  14  15
ATOM     15  C   UNL     1     160.500 166.178 154.931  1.00  0.00     0.000 C 
BRANCH  15  16
ATOM     16  C   UNL     1     160.675 166.970 153.624  1.00  0.00     0.000 C 
BRANCH  16  17
ATOM     17  C   UNL     1     161.242 166.107 152.485  1.00  0.00     0.000 C 
BRANCH  17  18
ATOM     18  C   UNL     1     162.670 166.514 152.090  1.00  0.00     0.000 C 
BRANCH  18  19
ATOM     19  C   UNL     1     163.211 167.603 153.027  1.00  0.00     0.000 C 
BRANCH  19  20
ATOM     20  C   UNL     1     164.747 167.603 153.132  1.00  0.00     0.006 C 
BRANCH  20  21
ATOM     21  C   UNL     1     165.430 166.514 152.285  1.00  0.00     0.053 C 
BRANCH  21  22
ATOM     22  C   UNL     1     166.877 166.811 152.026  1.00  0.00     0.041 C 
ATOM     23  O   UNL     1     167.546 167.476 152.860  1.00  0.00    -0.550 OA
ATOM     24  O   UNL     1     167.478 166.384 150.848  1.00  0.00    -0.550 OA
ENDBRANCH  21  22
ENDBRANCH  20  21
ENDBRANCH  19  20
ENDBRANCH  18  19
ENDBRANCH  17  18
ENDBRANCH  16  17
ENDBRANCH  15  16
ENDBRANCH  14  15
ENDBRANCH  13  14
ENDBRANCH   1  13
TORSDOF 20
ENDMDL
MODEL 4
REMARK VINA RESULT:    -4.800      2.648      5.068
REMARK INTER + INTRA:         -13.080
REMARK INTER:                 -10.856
REMARK INTRA:                  -2.225
REMARK UNBOUND:                -2.669
REMARK SMILES CCCCCCCCCCCCCCCCCCCCCC(=O)[O-]
REMARK SMILES IDX 12 1 11 2 10 3 9 4 8 5 7 6 6 7 5 8 4 9 3 10 2 11 1 12 13 13
REMARK SMILES IDX 14 14 15 15 16 16 17 17 18 18 19 19 20 20 21 21 22 22 23 23
REMARK SMILES IDX 24 24
REMARK H PARENT
REMARK Flexibility Score: inf
ROOT
ATOM      1  C   UNL     1     162.372 166.551 157.899  1.00  0.00     0.000 C 
ENDROOT
BRANCH   1   2
ATOM      2  C   UNL     1     162.746 165.278 158.674  1.00  0.00     0.000 C 
BRANCH   2   3
ATOM      3  C   UNL     1     163.744 164.393 157.911  1.00  0.00     0.000 C 
BRANCH   3   4
ATOM      4  C   UNL     1     163.453 162.904 158.149  1.00  0.00    -0.000 C 
BRANCH   4   5
ATOM      5  C   UNL     1     162.178 162.678 158.989  1.00  0.00    -0.000 C 
BRANCH   5   6
ATOM      6  C   UNL     1     161.030 162.007 158.210  1.00  0.00    -0.000 C 
BRANCH   6   7
ATOM      7  C   UNL     1     159.619 162.266 158.772  1.00  0.00    -0.000 C 
BRANCH   7   8
ATOM      8  C   UNL     1     159.215 163.750 158.849  1.00  0.00    -0.000 C 
BRANCH   8   9
ATOM      9  C   UNL     1     159.099 164.263 160.294  1.00  0.00    -0.000 C 
BRANCH   9  10
ATOM     10  C   UNL     1     159.536 165.731 160.442  1.00  0.00    -0.000 C 
BRANCH  10  11
ATOM     11  C   UNL     1     160.211 166.071 161.783  1.00  0.00    -0.003 C 
ATOM     12  C   UNL     1     161.130 164.958 162.290  1.00  0.00     0.004 C 
ENDBRANCH  10  11
ENDBRANCH   9  10
ENDBRANCH   8   9
ENDBRANCH   7   8
ENDBRANCH   6   7
ENDBRANCH   5   6
ENDBRANCH   4   5
ENDBRANCH   3   4
ENDBRANCH   2   3
ENDBRANCH   1   2
BRANCH   1  13
ATOM     13  C   UNL     1     161.168 166.343 156.965  1.00  0.00     0.000 C 
BRANCH  13  14
ATOM     14  C   UNL     1     161.506 166.590 155.483  1.00  0.00     0.000 C 
BRANCH  14  15
ATOM     15  C   UNL     1     160.291 166.721 154.545  1.00  0.00     0.000 C 
BRANCH  15  16
ATOM     16  C   UNL     1     160.684 167.088 153.104  1.00  0.00     0.000 C 
BRANCH  16  17
ATOM     17  C   UNL     1     162.170 166.819 152.812  1.00  0.00     0.000 C 
BRANCH  17  18
ATOM     18  C   UNL     1     162.969 168.110 152.578  1.00  0.00     0.000 C 
BRANCH  18  19
ATOM     19  C   UNL     1     164.457 167.901 152.897  1.00  0.00     0.000 C 
BRANCH  19  20
ATOM     20  C   UNL     1     165.253 169.217 152.954  1.00  0.00     0.006 C 
BRANCH  20  21
ATOM     21  C   UNL     1     164.552 170.402 152.268  1.00  0.00     0.053 C 
BRANCH  21  22
ATOM     22  C   UNL     1     165.488 171.214 151.423  1.00  0.00     0.041 C 
ATOM     23  O   UNL     1     166.116 172.183 151.926  1.00  0.00    -0.550 OA
ATOM     24  O   UNL     1     165.642 170.924 150.073  1.00  0.00    -0.550 OA
ENDBRANCH  21  22
ENDBRANCH  20  21
ENDBRANCH  19  20
ENDBRANCH  18  19
ENDBRANCH  17  18
ENDBRANCH  16  17
ENDBRANCH  15  16
ENDBRANCH  14  15
ENDBRANCH  13  14
ENDBRANCH   1  13
TORSDOF 20
ENDMDL
MODEL 5
REMARK VINA RESULT:    -4.791      3.553      7.268
REMARK INTER + INTRA:         -13.062
REMARK INTER:                 -10.522
REMARK INTRA:                  -2.540
REMARK UNBOUND:                -2.669
REMARK SMILES CCCCCCCCCCCCCCCCCCCCCC(=O)[O-]
REMARK SMILES IDX 12 1 11 2 10 3 9 4 8 5 7 6 6 7 5 8 4 9 3 10 2 11 1 12 13 13
REMARK SMILES IDX 14 14 15 15 16 16 17 17 18 18 19 19 20 20 21 21 22 22 23 23
REMARK SMILES IDX 24 24
REMARK H PARENT
REMARK Flexibility Score: inf
ROOT
ATOM      1  C   UNL     1     161.240 166.488 156.556  1.00  0.00     0.000 C 
ENDROOT
BRANCH   1   2
ATOM      2  C   UNL     1     160.506 165.931 155.326  1.00  0.00     0.000 C 
BRANCH   2   3
ATOM      3  C   UNL     1     160.352 166.972 154.207  1.00  0.00     0.000 C 
BRANCH   3   4
ATOM      4  C   UNL     1     161.125 166.548 152.950  1.00  0.00    -0.000 C 
BRANCH   4   5
ATOM      5  C   UNL     1     162.319 167.478 152.648  1.00  0.00    -0.000 C 
BRANCH   5   6
ATOM      6  C   UNL     1     163.612 166.729 152.269  1.00  0.00    -0.000 C 
BRANCH   6   7
ATOM      7  C   UNL     1     164.894 167.583 152.289  1.00  0.00    -0.000 C 
BRANCH   7   8
ATOM      8  C   UNL     1     165.117 168.384 153.585  1.00  0.00    -0.000 C 
BRANCH   8   9
ATOM      9  C   UNL     1     165.459 169.860 153.323  1.00  0.00    -0.000 C 
BRANCH   9  10
ATOM     10  C   UNL     1     164.629 170.472 152.181  1.00  0.00    -0.000 C 
BRANCH  10  11
ATOM     11  C   UNL     1     165.427 171.353 151.204  1.00  0.00    -0.003 C 
ATOM     12  C   UNL     1     165.886 170.599 149.955  1.00  0.00     0.004 C 
ENDBRANCH  10  11
ENDBRANCH   9  10
ENDBRANCH   8   9
ENDBRANCH   7   8
ENDBRANCH   6   7
ENDBRANCH   5   6
ENDBRANCH   4   5
ENDBRANCH   3   4
ENDBRANCH   2   3
ENDBRANCH   1   2
BRANCH   1  13
ATOM     13  C   UNL     1     162.699 166.868 156.252  1.00  0.00     0.000 C 
BRANCH  13  14
ATOM     14  C   UNL     1     163.508 167.208 157.517  1.00  0.00     0.000 C 
BRANCH  14  15
ATOM     15  C   UNL     1     163.419 166.170 158.653  1.00  0.00     0.000 C 
BRANCH  15  16
ATOM     16  C   UNL     1     163.183 166.809 160.032  1.00  0.00     0.000 C 
BRANCH  16  17
ATOM     17  C   UNL     1     162.150 167.947 159.985  1.00  0.00     0.000 C 
BRANCH  17  18
ATOM     18  C   UNL     1     160.901 167.645 160.826  1.00  0.00     0.000 C 
BRANCH  18  19
ATOM     19  C   UNL     1     159.848 166.895 159.997  1.00  0.00     0.000 C 
BRANCH  19  20
ATOM     20  C   UNL     1     159.722 165.410 160.383  1.00  0.00     0.006 C 
BRANCH  20  21
ATOM     21  C   UNL     1     159.767 164.446 159.184  1.00  0.00     0.053 C 
BRANCH  21  22
ATOM     22  C   UNL     1     160.708 163.300 159.403  1.00  0.00     0.041 C 
ATOM     23  O   UNL     1     161.689 163.425 160.183  1.00  0.00    -0.550 OA
ATOM     24  O   UNL     1     160.525 162.104 158.719  1.00  0.00    -0.550 OA
ENDBRANCH  21  22
ENDBRANCH  20  21
ENDBRANCH  19  20
ENDBRANCH  18  19
ENDBRANCH  17  18
ENDBRANCH  16  17
ENDBRANCH  15  16
ENDBRANCH  14  15
ENDBRANCH  13  14
ENDBRANCH   1  13
TORSDOF 20
ENDMDL
MODEL 6
REMARK VINA RESULT:    -4.732      3.577      7.197
REMARK INTER + INTRA:         -12.934
REMARK INTER:                 -10.359
REMARK INTRA:                  -2.575
REMARK UNBOUND:                -2.669
REMARK SMILES CCCCCCCCCCCCCCCCCCCCCC(=O)[O-]
REMARK SMILES IDX 12 1 11 2 10 3 9 4 8 5 7 6 6 7 5 8 4 9 3 10 2 11 1 12 13 13
REMARK SMILES IDX 14 14 15 15 16 16 17 17 18 18 19 19 20 20 21 21 22 22 23 23
REMARK SMILES IDX 24 24
REMARK H PARENT
REMARK Flexibility Score: inf
ROOT
ATOM      1  C   UNL     1     162.562 166.866 156.391  1.00  0.00     0.000 C 
ENDROOT
BRANCH   1   2
ATOM      2  C   UNL     1     161.081 166.474 156.506  1.00  0.00     0.000 C 
BRANCH   2   3
ATOM      3  C   UNL     1     160.495 165.978 155.176  1.00  0.00     0.000 C 
BRANCH   3   4
ATOM      4  C   UNL     1     160.482 167.100 154.128  1.00  0.00    -0.000 C 
BRANCH   4   5
ATOM      5  C   UNL     1     160.834 166.592 152.713  1.00  0.00    -0.000 C 
BRANCH   5   6
ATOM      6  C   UNL     1     162.348 166.546 152.428  1.00  0.00    -0.000 C 
BRANCH   6   7
ATOM      7  C   UNL     1     163.134 167.800 152.857  1.00  0.00    -0.000 C 
BRANCH   7   8
ATOM      8  C   UNL     1     164.605 167.545 153.231  1.00  0.00    -0.000 C 
BRANCH   8   9
ATOM      9  C   UNL     1     165.489 168.792 153.065  1.00  0.00    -0.000 C 
BRANCH   9  10
ATOM     10  C   UNL     1     165.494 169.332 151.624  1.00  0.00    -0.000 C 
BRANCH  10  11
ATOM     11  C   UNL     1     165.207 170.839 151.498  1.00  0.00    -0.003 C 
ATOM     12  C   UNL     1     165.073 171.538 152.851  1.00  0.00     0.004 C 
ENDBRANCH  10  11
ENDBRANCH   9  10
ENDBRANCH   8   9
ENDBRANCH   7   8
ENDBRANCH   6   7
ENDBRANCH   5   6
ENDBRANCH   4   5
ENDBRANCH   3   4
ENDBRANCH   2   3
ENDBRANCH   1   2
BRANCH   1  13
ATOM     13  C   UNL     1     163.416 166.293 157.534  1.00  0.00     0.000 C 
BRANCH  13  14
ATOM     14  C   UNL     1     162.618 165.378 158.480  1.00  0.00     0.000 C 
BRANCH  14  15
ATOM     15  C   UNL     1     162.937 163.875 158.366  1.00  0.00     0.000 C 
BRANCH  15  16
ATOM     16  C   UNL     1     161.845 162.981 158.978  1.00  0.00     0.000 C 
BRANCH  16  17
ATOM     17  C   UNL     1     160.616 162.844 158.064  1.00  0.00     0.000 C 
BRANCH  17  18
ATOM     18  C   UNL     1     159.373 163.539 158.638  1.00  0.00     0.000 C 
BRANCH  18  19
ATOM     19  C   UNL     1     159.577 163.901 160.116  1.00  0.00     0.000 C 
BRANCH  19  20
ATOM     20  C   UNL     1     158.809 165.166 160.541  1.00  0.00     0.006 C 
BRANCH  20  21
ATOM     21  C   UNL     1     159.443 166.478 160.045  1.00  0.00     0.053 C 
BRANCH  21  22
ATOM     22  C   UNL     1     160.304 167.130 161.085  1.00  0.00     0.041 C 
ATOM     23  O   UNL     1     161.185 167.963 160.746  1.00  0.00    -0.550 OA
ATOM     24  O   UNL     1     160.158 166.793 162.425  1.00  0.00    -0.550 OA
ENDBRANCH  21  22
ENDBRANCH  20  21
ENDBRANCH  19  20
ENDBRANCH  18  19
ENDBRANCH  17  18
ENDBRANCH  16  17
ENDBRANCH  15  16
ENDBRANCH  14  15
ENDBRANCH  13  14
ENDBRANCH   1  13
TORSDOF 20
ENDMDL
MODEL 7
REMARK VINA RESULT:    -4.713      2.625      5.958
REMARK INTER + INTRA:         -12.893
REMARK INTER:                 -10.621
REMARK INTRA:                  -2.272
REMARK UNBOUND:                -2.669
REMARK SMILES CCCCCCCCCCCCCCCCCCCCCC(=O)[O-]
REMARK SMILES IDX 12 1 11 2 10 3 9 4 8 5 7 6 6 7 5 8 4 9 3 10 2 11 1 12 13 13
REMARK SMILES IDX 14 14 15 15 16 16 17 17 18 18 19 19 20 20 21 21 22 22 23 23
REMARK SMILES IDX 24 24
REMARK H PARENT
REMARK Flexibility Score: inf
ROOT
ATOM      1  C   UNL     1     163.094 166.846 160.425  1.00  0.00     0.000 C 
ENDROOT
BRANCH   1   2
ATOM      2  C   UNL     1     163.708 166.201 159.172  1.00  0.00     0.000 C 
BRANCH   2   3
ATOM      3  C   UNL     1     163.035 166.672 157.874  1.00  0.00     0.000 C 
BRANCH   3   4
ATOM      4  C   UNL     1     162.054 165.614 157.347  1.00  0.00    -0.000 C 
BRANCH   4   5
ATOM      5  C   UNL     1     160.952 166.222 156.454  1.00  0.00    -0.000 C 
BRANCH   5   6
ATOM      6  C   UNL     1     161.482 166.839 155.144  1.00  0.00    -0.000 C 
BRANCH   6   7
ATOM      7  C   UNL     1     160.684 166.472 153.878  1.00  0.00    -0.000 C 
BRANCH   7   8
ATOM      8  C   UNL     1     161.008 167.326 152.639  1.00  0.00    -0.000 C 
BRANCH   8   9
ATOM      9  C   UNL     1     162.519 167.473 152.393  1.00  0.00    -0.000 C 
BRANCH   9  10
ATOM     10  C   UNL     1     163.167 166.179 151.869  1.00  0.00    -0.000 C 
BRANCH  10  11
ATOM     11  C   UNL     1     164.647 166.315 151.469  1.00  0.00    -0.003 C 
ATOM     12  C   UNL     1     165.501 166.981 152.548  1.00  0.00     0.004 C 
ENDBRANCH  10  11
ENDBRANCH   9  10
ENDBRANCH   8   9
ENDBRANCH   7   8
ENDBRANCH   6   7
ENDBRANCH   5   6
ENDBRANCH   4   5
ENDBRANCH   3   4
ENDBRANCH   2   3
ENDBRANCH   1   2
BRANCH   1  13
ATOM     13  C   UNL     1     162.075 167.947 160.083  1.00  0.00     0.000 C 
BRANCH  13  14
ATOM     14  C   UNL     1     160.626 167.549 160.419  1.00  0.00     0.000 C 
BRANCH  14  15
ATOM     15  C   UNL     1     160.444 166.777 161.740  1.00  0.00     0.000 C 
BRANCH  15  16
ATOM     16  C   UNL     1     159.795 165.396 161.543  1.00  0.00     0.000 C 
BRANCH  16  17
ATOM     17  C   UNL     1     159.762 164.966 160.067  1.00  0.00     0.000 C 
BRANCH  17  18
ATOM     18  C   UNL     1     158.735 163.856 159.798  1.00  0.00     0.000 C 
BRANCH  18  19
ATOM     19  C   UNL     1     159.294 162.816 158.816  1.00  0.00     0.000 C 
BRANCH  19  20
ATOM     20  C   UNL     1     160.720 162.356 159.170  1.00  0.00     0.006 C 
BRANCH  20  21
ATOM     21  C   UNL     1     161.629 162.143 157.946  1.00  0.00     0.053 C 
BRANCH  21  22
ATOM     22  C   UNL     1     163.056 161.886 158.328  1.00  0.00     0.041 C 
ATOM     23  O   UNL     1     163.899 162.820 158.291  1.00  0.00    -0.550 OA
ATOM     24  O   UNL     1     163.463 160.608 158.691  1.00  0.00    -0.550 OA
ENDBRANCH  21  22
ENDBRANCH  20  21
ENDBRANCH  19  20
ENDBRANCH  18  19
ENDBRANCH  17  18
ENDBRANCH  16  17
ENDBRANCH  15  16
ENDBRANCH  14  15
ENDBRANCH  13  14
ENDBRANCH   1  13
TORSDOF 20
ENDMDL
MODEL 8
REMARK VINA RESULT:    -4.702      3.381      6.944
REMARK INTER + INTRA:         -12.868
REMARK INTER:                 -10.142
REMARK INTRA:                  -2.726
REMARK UNBOUND:                -2.669
REMARK SMILES CCCCCCCCCCCCCCCCCCCCCC(=O)[O-]
REMARK SMILES IDX 12 1 11 2 10 3 9 4 8 5 7 6 6 7 5 8 4 9 3 10 2 11 1 12 13 13
REMARK SMILES IDX 14 14 15 15 16 16 17 17 18 18 19 19 20 20 21 21 22 22 23 23
REMARK SMILES IDX 24 24
REMARK H PARENT
REMARK Flexibility Score: inf
ROOT
ATOM      1  C   UNL     1     162.237 166.802 156.076  1.00  0.00     0.000 C 
ENDROOT
BRANCH   1   2
ATOM      2  C   UNL     1     160.863 166.183 155.773  1.00  0.00     0.000 C 
BRANCH   2   3
ATOM      3  C   UNL     1     160.197 166.800 154.534  1.00  0.00     0.000 C 
BRANCH   3   4
ATOM      4  C   UNL     1     160.919 166.370 153.248  1.00  0.00    -0.000 C 
BRANCH   4   5
ATOM      5  C   UNL     1     161.168 167.552 152.287  1.00  0.00    -0.000 C 
BRANCH   5   6
ATOM      6  C   UNL     1     162.488 168.302 152.550  1.00  0.00    -0.000 C 
BRANCH   6   7
ATOM      7  C   UNL     1     163.748 167.415 152.591  1.00  0.00    -0.000 C 
BRANCH   7   8
ATOM      8  C   UNL     1     164.775 167.798 153.672  1.00  0.00    -0.000 C 
BRANCH   8   9
ATOM      9  C   UNL     1     165.857 168.760 153.154  1.00  0.00    -0.000 C 
BRANCH   9  10
ATOM     10  C   UNL     1     165.707 169.077 151.656  1.00  0.00    -0.000 C 
BRANCH  10  11
ATOM     11  C   UNL     1     165.351 170.540 151.338  1.00  0.00    -0.003 C 
ATOM     12  C   UNL     1     164.964 171.345 152.580  1.00  0.00     0.004 C 
ENDBRANCH  10  11
ENDBRANCH   9  10
ENDBRANCH   8   9
ENDBRANCH   7   8
ENDBRANCH   6   7
ENDBRANCH   5   6
ENDBRANCH   4   5
ENDBRANCH   3   4
ENDBRANCH   2   3
ENDBRANCH   1   2
BRANCH   1  13
ATOM     13  C   UNL     1     162.418 167.137 157.566  1.00  0.00     0.000 C 
BRANCH  13  14
ATOM     14  C   UNL     1     163.560 166.343 158.226  1.00  0.00     0.000 C 
BRANCH  14  15
ATOM     15  C   UNL     1     163.437 166.158 159.751  1.00  0.00     0.000 C 
BRANCH  15  16
ATOM     16  C   UNL     1     161.998 166.340 160.263  1.00  0.00     0.000 C 
BRANCH  16  17
ATOM     17  C   UNL     1     161.655 165.375 161.410  1.00  0.00     0.000 C 
BRANCH  17  18
ATOM     18  C   UNL     1     160.276 164.721 161.240  1.00  0.00     0.000 C 
BRANCH  18  19
ATOM     19  C   UNL     1     159.806 164.799 159.780  1.00  0.00     0.000 C 
BRANCH  19  20
ATOM     20  C   UNL     1     159.905 163.453 159.040  1.00  0.00     0.006 C 
BRANCH  20  21
ATOM     21  C   UNL     1     161.143 163.327 158.135  1.00  0.00     0.053 C 
BRANCH  21  22
ATOM     22  C   UNL     1     162.286 162.638 158.817  1.00  0.00     0.041 C 
ATOM     23  O   UNL     1     162.087 161.967 159.864  1.00  0.00    -0.550 OA
ATOM     24  O   UNL     1     163.577 162.765 158.319  1.00  0.00    -0.550 OA
ENDBRANCH  21  22
ENDBRANCH  20  21
ENDBRANCH  19  20
ENDBRANCH  18  19
ENDBRANCH  17  18
ENDBRANCH  16  17
ENDBRANCH  15  16
ENDBRANCH  14  15
ENDBRANCH  13  14
ENDBRANCH   1  13
TORSDOF 20
ENDMDL
MODEL 9
REMARK VINA RESULT:    -4.684      2.772      5.301
REMARK INTER + INTRA:         -12.831
REMARK INTER:                 -10.079
REMARK INTRA:                  -2.752
REMARK UNBOUND:                -2.669
REMARK SMILES CCCCCCCCCCCCCCCCCCCCCC(=O)[O-]
REMARK SMILES IDX 12 1 11 2 10 3 9 4 8 5 7 6 6 7 5 8 4 9 3 10 2 11 1 12 13 13
REMARK SMILES IDX 14 14 15 15 16 16 17 17 18 18 19 19 20 20 21 21 22 22 23 23
REMARK SMILES IDX 24 24
REMARK H PARENT
REMARK Flexibility Score: inf
ROOT
ATOM      1  C   UNL     1     162.587 166.580 156.393  1.00  0.00     0.000 C 
ENDROOT
BRANCH   1   2
ATOM      2  C   UNL     1     163.122 167.261 157.662  1.00  0.00     0.000 C 
BRANCH   2   3
ATOM      3  C   UNL     1     163.561 166.252 158.734  1.00  0.00     0.000 C 
BRANCH   3   4
ATOM      4  C   UNL     1     163.140 166.718 160.135  1.00  0.00    -0.000 C 
BRANCH   4   5
ATOM      5  C   UNL     1     162.006 167.765 160.093  1.00  0.00    -0.000 C 
BRANCH   5   6
ATOM      6  C   UNL     1     160.632 167.213 160.521  1.00  0.00    -0.000 C 
BRANCH   6   7
ATOM      7  C   UNL     1     160.675 166.123 161.610  1.00  0.00    -0.000 C 
BRANCH   7   8
ATOM      8  C   UNL     1     160.240 164.723 161.142  1.00  0.00    -0.000 C 
BRANCH   8   9
ATOM      9  C   UNL     1     159.668 164.720 159.715  1.00  0.00    -0.000 C 
BRANCH   9  10
ATOM     10  C   UNL     1     160.505 163.875 158.739  1.00  0.00    -0.000 C 
BRANCH  10  11
ATOM     11  C   UNL     1     161.667 163.101 159.388  1.00  0.00    -0.003 C 
ATOM     12  C   UNL     1     162.697 162.605 158.372  1.00  0.00     0.004 C 
ENDBRANCH  10  11
ENDBRANCH   9  10
ENDBRANCH   8   9
ENDBRANCH   7   8
ENDBRANCH   6   7
ENDBRANCH   5   6
ENDBRANCH   4   5
ENDBRANCH   3   4
ENDBRANCH   2   3
ENDBRANCH   1   2
BRANCH   1  13
ATOM     13  C   UNL     1     161.051 166.500 156.368  1.00  0.00     0.000 C 
BRANCH  13  14
ATOM     14  C   UNL     1     160.495 166.041 155.008  1.00  0.00     0.000 C 
BRANCH  14  15
ATOM     15  C   UNL     1     160.528 167.102 153.891  1.00  0.00     0.000 C 
BRANCH  15  16
ATOM     16  C   UNL     1     161.555 166.784 152.792  1.00  0.00     0.000 C 
BRANCH  16  17
ATOM     17  C   UNL     1     162.619 167.884 152.644  1.00  0.00     0.000 C 
BRANCH  17  18
ATOM     18  C   UNL     1     163.965 167.493 153.275  1.00  0.00     0.000 C 
BRANCH  18  19
ATOM     19  C   UNL     1     165.122 167.732 152.295  1.00  0.00     0.000 C 
BRANCH  19  20
ATOM     20  C   UNL     1     165.988 168.949 152.667  1.00  0.00     0.006 C 
BRANCH  20  21
ATOM     21  C   UNL     1     166.141 169.167 154.182  1.00  0.00     0.053 C 
BRANCH  21  22
ATOM     22  C   UNL     1     167.209 170.166 154.515  1.00  0.00     0.041 C 
ATOM     23  O   UNL     1     167.023 171.390 154.290  1.00  0.00    -0.550 OA
ATOM     24  O   UNL     1     168.424 169.741 155.039  1.00  0.00    -0.550 OA
ENDBRANCH  21  22
ENDBRANCH  20  21
ENDBRANCH  19  20
ENDBRANCH  18  19
ENDBRANCH  17  18
ENDBRANCH  16  17
ENDBRANCH  15  16
ENDBRANCH  14  15
ENDBRANCH  13  14
ENDBRANCH   1  13
TORSDOF 20
ENDMDL
