MODEL 1
REMARK VINA RESULT:    -4.355      0.000      0.000
REMARK INTER + INTRA:          -5.351
REMARK INTER:                  -5.247
REMARK INTRA:                  -0.105
REMARK UNBOUND:                -0.105
REMARK SMILES CC[C@@H](C)[C@@H]([NH3+])C(=O)[O-]
REMARK SMILES IDX 3 1 4 2 5 3 6 4 7 8 8 9 9 10 2 11 1 12
REMARK H PARENT 6 5 6 6 6 7
REMARK Flexibility Score: inf
ROOT
ATOM      1  C   UNL     1     -19.675   9.872  21.304  1.00  0.00     0.050 C 
ATOM      2  C   UNL     1     -19.445  11.033  20.315  1.00  0.00     0.014 C 
ENDROOT
BRANCH   1   3
ATOM      3  C   UNL     1     -21.007   9.102  21.039  1.00  0.00     0.230 C 
BRANCH   3   4
ATOM      4  N   UNL     1     -21.299   8.127  22.101  1.00  0.00    -0.350 N 
ATOM      5  H   UNL     1     -20.491   7.469  22.198  1.00  0.00     0.345 HD
ATOM      6  H   UNL     1     -21.426   8.619  23.015  1.00  0.00     0.345 HD
ATOM      7  H   UNL     1     -22.155   7.567  21.888  1.00  0.00     0.345 HD
ENDBRANCH   3   4
BRANCH   3   8
ATOM      8  C   UNL     1     -22.180  10.032  20.831  1.00  0.00     0.099 C 
ATOM      9  O   UNL     1     -22.688  10.632  21.815  1.00  0.00    -0.544 OA
ATOM     10  O   UNL     1     -22.728  10.209  19.567  1.00  0.00    -0.544 OA
ENDBRANCH   3   8
ENDBRANCH   1   3
BRANCH   1  11
ATOM     11  C   UNL     1     -18.472   8.894  21.307  1.00  0.00     0.006 C 
ATOM     12  C   UNL     1     -17.615   9.001  22.572  1.00  0.00     0.004 C 
ENDBRANCH   1  11
TORSDOF 4
ENDMDL
MODEL 2
REMARK VINA RESULT:    -4.332      1.767      2.505
REMARK INTER + INTRA:          -5.323
REMARK INTER:                  -5.302
REMARK INTRA:                  -0.021
REMARK UNBOUND:                -0.105
REMARK SMILES CC[C@@H](C)[C@@H]([NH3+])C(=O)[O-]
REMARK SMILES IDX 3 1 4 2 5 3 6 4 7 8 8 9 9 10 2 11 1 12
REMARK H PARENT 6 5 6 6 6 7
REMARK Flexibility Score: inf
ROOT
ATOM      1  C   UNL     1     -21.643  10.116  20.984  1.00  0.00     0.050 C 
ATOM      2  C   UNL     1     -22.044  10.760  19.642  1.00  0.00     0.014 C 
ENDROOT
BRANCH   1   3
ATOM      3  C   UNL     1     -22.079   8.621  21.097  1.00  0.00     0.230 C 
BRANCH   3   4
ATOM      4  N   UNL     1     -21.083   7.810  21.812  1.00  0.00    -0.350 N 
ATOM      5  H   UNL     1     -21.574   7.100  22.405  1.00  0.00     0.345 HD
ATOM      6  H   UNL     1     -20.479   7.297  21.129  1.00  0.00     0.345 HD
ATOM      7  H   UNL     1     -20.480   8.396  22.433  1.00  0.00     0.345 HD
ENDBRANCH   3   4
BRANCH   3   8
ATOM      8  C   UNL     1     -23.445   8.463  21.724  1.00  0.00     0.099 C 
ATOM      9  O   UNL     1     -24.199   9.465  21.848  1.00  0.00    -0.544 OA
ATOM     10  O   UNL     1     -23.869   7.228  22.198  1.00  0.00    -0.544 OA
ENDBRANCH   3   8
ENDBRANCH   1   3
BRANCH   1  11
ATOM     11  C   UNL     1     -20.121  10.260  21.241  1.00  0.00     0.006 C 
ATOM     12  C   UNL     1     -19.407  11.084  20.166  1.00  0.00     0.004 C 
ENDBRANCH   1  11
TORSDOF 4
ENDMDL
MODEL 3
REMARK VINA RESULT:    -4.286      2.999      3.712
REMARK INTER + INTRA:          -5.267
REMARK INTER:                  -5.151
REMARK INTRA:                  -0.117
REMARK UNBOUND:                -0.105
REMARK SMILES CC[C@@H](C)[C@@H]([NH3+])C(=O)[O-]
REMARK SMILES IDX 3 1 4 2 5 3 6 4 7 8 8 9 9 10 2 11 1 12
REMARK H PARENT 6 5 6 6 6 7
REMARK Flexibility Score: inf
ROOT
ATOM      1  C   UNL     1     -18.963   8.960  21.527  1.00  0.00     0.050 C 
ATOM      2  C   UNL     1     -17.663   8.923  22.354  1.00  0.00     0.014 C 
ENDROOT
BRANCH   1   3
ATOM      3  C   UNL     1     -20.049   7.969  22.056  1.00  0.00     0.230 C 
BRANCH   3   4
ATOM      4  N   UNL     1     -21.267   7.997  21.232  1.00  0.00    -0.350 N 
ATOM      5  H   UNL     1     -21.036   8.379  20.285  1.00  0.00     0.345 HD
ATOM      6  H   UNL     1     -21.638   7.028  21.107  1.00  0.00     0.345 HD
ATOM      7  H   UNL     1     -22.008   8.599  21.656  1.00  0.00     0.345 HD
ENDBRANCH   3   4
BRANCH   3   8
ATOM      8  C   UNL     1     -19.527   6.557  22.189  1.00  0.00     0.099 C 
ATOM      9  O   UNL     1     -19.577   5.971  23.302  1.00  0.00    -0.544 OA
ATOM     10  O   UNL     1     -18.959   5.907  21.100  1.00  0.00    -0.544 OA
ENDBRANCH   3   8
ENDBRANCH   1   3
BRANCH   1  11
ATOM     11  C   UNL     1     -19.533  10.399  21.444  1.00  0.00     0.006 C 
ATOM     12  C   UNL     1     -19.461  10.992  20.035  1.00  0.00     0.004 C 
ENDBRANCH   1  11
TORSDOF 4
ENDMDL
MODEL 4
REMARK VINA RESULT:    -4.195      2.408      3.074
REMARK INTER + INTRA:          -5.158
REMARK INTER:                  -5.150
REMARK INTRA:                  -0.008
REMARK UNBOUND:                -0.105
REMARK SMILES CC[C@@H](C)[C@@H]([NH3+])C(=O)[O-]
REMARK SMILES IDX 3 1 4 2 5 3 6 4 7 8 8 9 9 10 2 11 1 12
REMARK H PARENT 6 5 6 6 6 7
REMARK Flexibility Score: inf
ROOT
ATOM      1  C   UNL     1     -21.987  10.374  21.004  1.00  0.00     0.050 C 
ATOM      2  C   UNL     1     -22.437  10.712  19.569  1.00  0.00     0.014 C 
ENDROOT
BRANCH   1   3
ATOM      3  C   UNL     1     -22.885   9.293  21.684  1.00  0.00     0.230 C 
BRANCH   3   4
ATOM      4  N   UNL     1     -24.298   9.428  21.296  1.00  0.00    -0.350 N 
ATOM      5  H   UNL     1     -24.906   9.097  22.081  1.00  0.00     0.345 HD
ATOM      6  H   UNL     1     -24.526  10.431  21.113  1.00  0.00     0.345 HD
ATOM      7  H   UNL     1     -24.521   8.862  20.447  1.00  0.00     0.345 HD
ENDBRANCH   3   4
BRANCH   3   8
ATOM      8  C   UNL     1     -22.393   7.888  21.427  1.00  0.00     0.099 C 
ATOM      9  O   UNL     1     -22.653   7.321  20.332  1.00  0.00    -0.544 OA
ATOM     10  O   UNL     1     -21.680   7.197  22.399  1.00  0.00    -0.544 OA
ENDBRANCH   3   8
ENDBRANCH   1   3
BRANCH   1  11
ATOM     11  C   UNL     1     -20.498   9.945  21.037  1.00  0.00     0.006 C 
ATOM     12  C   UNL     1     -19.581  10.901  20.269  1.00  0.00     0.004 C 
ENDBRANCH   1  11
TORSDOF 4
ENDMDL
MODEL 5
REMARK VINA RESULT:    -4.157      2.270      3.030
REMARK INTER + INTRA:          -5.113
REMARK INTER:                  -5.192
REMARK INTRA:                   0.079
REMARK UNBOUND:                -0.105
REMARK SMILES CC[C@@H](C)[C@@H]([NH3+])C(=O)[O-]
REMARK SMILES IDX 3 1 4 2 5 3 6 4 7 8 8 9 9 10 2 11 1 12
REMARK H PARENT 6 5 6 6 6 7
REMARK Flexibility Score: inf
ROOT
ATOM      1  C   UNL     1     -18.829   8.542  21.479  1.00  0.00     0.050 C 
ATOM      2  C   UNL     1     -17.619   9.120  22.240  1.00  0.00     0.014 C 
ENDROOT
BRANCH   1   3
ATOM      3  C   UNL     1     -19.404   7.250  22.141  1.00  0.00     0.230 C 
BRANCH   3   4
ATOM      4  N   UNL     1     -19.101   7.188  23.579  1.00  0.00    -0.350 N 
ATOM      5  H   UNL     1     -18.063   7.210  23.716  1.00  0.00     0.345 HD
ATOM      6  H   UNL     1     -19.507   8.018  24.068  1.00  0.00     0.345 HD
ATOM      7  H   UNL     1     -19.471   6.314  24.016  1.00  0.00     0.345 HD
ENDBRANCH   3   4
BRANCH   3   8
ATOM      8  C   UNL     1     -20.887   7.089  21.902  1.00  0.00     0.099 C 
ATOM      9  O   UNL     1     -21.706   7.375  22.815  1.00  0.00    -0.544 OA
ATOM     10  O   UNL     1     -21.360   6.597  20.692  1.00  0.00    -0.544 OA
ENDBRANCH   3   8
ENDBRANCH   1   3
BRANCH   1  11
ATOM     11  C   UNL     1     -19.942   9.607  21.306  1.00  0.00     0.006 C 
ATOM     12  C   UNL     1     -19.514  10.785  20.427  1.00  0.00     0.004 C 
ENDBRANCH   1  11
TORSDOF 4
ENDMDL
MODEL 6
REMARK VINA RESULT:    -4.035      2.602      3.194
REMARK INTER + INTRA:          -4.965
REMARK INTER:                  -4.888
REMARK INTRA:                  -0.077
REMARK UNBOUND:                -0.105
REMARK SMILES CC[C@@H](C)[C@@H]([NH3+])C(=O)[O-]
REMARK SMILES IDX 3 1 4 2 5 3 6 4 7 8 8 9 9 10 2 11 1 12
REMARK H PARENT 6 5 6 6 6 7
REMARK Flexibility Score: inf
ROOT
ATOM      1  C   UNL     1     -20.429   9.110  21.584  1.00  0.00     0.050 C 
ATOM      2  C   UNL     1     -21.652   9.496  20.730  1.00  0.00     0.014 C 
ENDROOT
BRANCH   1   3
ATOM      3  C   UNL     1     -20.164   7.572  21.609  1.00  0.00     0.230 C 
BRANCH   3   4
ATOM      4  N   UNL     1     -18.777   7.258  21.988  1.00  0.00    -0.350 N 
ATOM      5  H   UNL     1     -18.226   8.146  22.047  1.00  0.00     0.345 HD
ATOM      6  H   UNL     1     -18.757   6.802  22.928  1.00  0.00     0.345 HD
ATOM      7  H   UNL     1     -18.317   6.632  21.289  1.00  0.00     0.345 HD
ENDBRANCH   3   4
BRANCH   3   8
ATOM      8  C   UNL     1     -21.139   6.832  22.495  1.00  0.00     0.099 C 
ATOM      9  O   UNL     1     -20.929   6.757  23.735  1.00  0.00    -0.544 OA
ATOM     10  O   UNL     1     -22.253   6.204  21.952  1.00  0.00    -0.544 OA
ENDBRANCH   3   8
ENDBRANCH   1   3
BRANCH   1  11
ATOM     11  C   UNL     1     -19.161   9.874  21.122  1.00  0.00     0.006 C 
ATOM     12  C   UNL     1     -19.469  11.017  20.151  1.00  0.00     0.004 C 
ENDBRANCH   1  11
TORSDOF 4
ENDMDL
MODEL 7
REMARK VINA RESULT:    -3.923      2.635      3.443
REMARK INTER + INTRA:          -4.831
REMARK INTER:                  -4.755
REMARK INTRA:                  -0.076
REMARK UNBOUND:                -0.105
REMARK SMILES CC[C@@H](C)[C@@H]([NH3+])C(=O)[O-]
REMARK SMILES IDX 3 1 4 2 5 3 6 4 7 8 8 9 9 10 2 11 1 12
REMARK H PARENT 6 5 6 6 6 7
REMARK Flexibility Score: inf
ROOT
ATOM      1  C   UNL     1     -21.565   8.807  21.080  1.00  0.00     0.050 C 
ATOM      2  C   UNL     1     -20.437   8.000  21.753  1.00  0.00     0.014 C 
ENDROOT
BRANCH   1   3
ATOM      3  C   UNL     1     -22.920   8.717  21.851  1.00  0.00     0.230 C 
BRANCH   3   4
ATOM      4  N   UNL     1     -24.028   9.310  21.087  1.00  0.00    -0.350 N 
ATOM      5  H   UNL     1     -24.887   8.725  21.211  1.00  0.00     0.345 HD
ATOM      6  H   UNL     1     -24.238  10.270  21.444  1.00  0.00     0.345 HD
ATOM      7  H   UNL     1     -23.811   9.360  20.066  1.00  0.00     0.345 HD
ENDBRANCH   3   4
BRANCH   3   8
ATOM      8  C   UNL     1     -23.255   7.303  22.266  1.00  0.00     0.099 C 
ATOM      9  O   UNL     1     -23.642   6.470  21.405  1.00  0.00    -0.544 OA
ATOM     10  O   UNL     1     -23.173   6.918  23.599  1.00  0.00    -0.544 OA
ENDBRANCH   3   8
ENDBRANCH   1   3
BRANCH   1  11
ATOM     11  C   UNL     1     -21.151  10.287  20.878  1.00  0.00     0.006 C 
ATOM     12  C   UNL     1     -19.640  10.470  20.718  1.00  0.00     0.004 C 
ENDBRANCH   1  11
TORSDOF 4
ENDMDL
MODEL 8
REMARK VINA RESULT:    -3.793      2.624      3.824
REMARK INTER + INTRA:          -4.674
REMARK INTER:                  -4.593
REMARK INTRA:                  -0.082
REMARK UNBOUND:                -0.105
REMARK SMILES CC[C@@H](C)[C@@H]([NH3+])C(=O)[O-]
REMARK SMILES IDX 3 1 4 2 5 3 6 4 7 8 8 9 9 10 2 11 1 12
REMARK H PARENT 6 5 6 6 6 7
REMARK Flexibility Score: inf
ROOT
ATOM      1  C   UNL     1     -21.935   9.959  20.388  1.00  0.00     0.050 C 
ATOM      2  C   UNL     1     -20.510  10.488  20.639  1.00  0.00     0.014 C 
ENDROOT
BRANCH   1   3
ATOM      3  C   UNL     1     -22.441   9.011  21.520  1.00  0.00     0.230 C 
BRANCH   3   4
ATOM      4  N   UNL     1     -23.898   8.813  21.462  1.00  0.00    -0.350 N 
ATOM      5  H   UNL     1     -24.348   9.309  22.266  1.00  0.00     0.345 HD
ATOM      6  H   UNL     1     -24.280   9.219  20.577  1.00  0.00     0.345 HD
ATOM      7  H   UNL     1     -24.153   7.801  21.516  1.00  0.00     0.345 HD
ENDBRANCH   3   4
BRANCH   3   8
ATOM      8  C   UNL     1     -21.722   7.682  21.525  1.00  0.00     0.099 C 
ATOM      9  O   UNL     1     -20.841   7.447  22.394  1.00  0.00    -0.544 OA
ATOM     10  O   UNL     1     -21.999   6.723  20.558  1.00  0.00    -0.544 OA
ENDBRANCH   3   8
ENDBRANCH   1   3
BRANCH   1  11
ATOM     11  C   UNL     1     -22.934  11.125  20.167  1.00  0.00     0.006 C 
ATOM     12  C   UNL     1     -23.555  11.125  18.767  1.00  0.00     0.004 C 
ENDBRANCH   1  11
TORSDOF 4
ENDMDL
MODEL 9
REMARK VINA RESULT:    -3.757      1.869      2.210
REMARK INTER + INTRA:          -4.631
REMARK INTER:                  -4.635
REMARK INTRA:                   0.004
REMARK UNBOUND:                -0.105
REMARK SMILES CC[C@@H](C)[C@@H]([NH3+])C(=O)[O-]
REMARK SMILES IDX 3 1 4 2 5 3 6 4 7 8 8 9 9 10 2 11 1 12
REMARK H PARENT 6 5 6 6 6 7
REMARK Flexibility Score: inf
ROOT
ATOM      1  C   UNL     1     -21.252  10.115  21.257  1.00  0.00     0.050 C 
ATOM      2  C   UNL     1     -20.716  10.852  20.013  1.00  0.00     0.014 C 
ENDROOT
BRANCH   1   3
ATOM      3  C   UNL     1     -22.798   9.897  21.215  1.00  0.00     0.230 C 
BRANCH   3   4
ATOM      4  N   UNL     1     -23.526  11.000  21.862  1.00  0.00    -0.350 N 
ATOM      5  H   UNL     1     -24.313  10.610  22.430  1.00  0.00     0.345 HD
ATOM      6  H   UNL     1     -22.889  11.521  22.507  1.00  0.00     0.345 HD
ATOM      7  H   UNL     1     -23.925  11.664  21.160  1.00  0.00     0.345 HD
ENDBRANCH   3   4
BRANCH   3   8
ATOM      8  C   UNL     1     -23.312   9.669  19.813  1.00  0.00     0.099 C 
ATOM      9  O   UNL     1     -23.234   8.524  19.294  1.00  0.00    -0.544 OA
ATOM     10  O   UNL     1     -23.843  10.718  19.073  1.00  0.00    -0.544 OA
ENDBRANCH   3   8
ENDBRANCH   1   3
BRANCH   1  11
ATOM     11  C   UNL     1     -20.518   8.766  21.467  1.00  0.00     0.006 C 
ATOM     12  C   UNL     1     -18.996   8.915  21.536  1.00  0.00     0.004 C 
ENDBRANCH   1  11
TORSDOF 4
ENDMDL
