MODEL 1
REMARK VINA RESULT:    -6.816      0.000      0.000
REMARK INTER + INTRA:         -11.084
REMARK INTER:                 -10.004
REMARK INTRA:                  -1.080
REMARK UNBOUND:                -1.080
REMARK SMILES O=c1c(OC[C@H]2O[C@H](O)[C@H](O)[C@H](O)[C@H]2O)c(-c2ccc(O)c(O)c2)oc2cc(O)cc(O)c12
REMARK SMILES IDX 4 1 3 2 16 3 25 4 2 5 26 6 1 7 33 8 27 9 31 10 28 11 30 12
REMARK SMILES IDX 17 13 18 14 19 15 20 16 24 17 22 18 21 19 23 21 32 23 29 25
REMARK SMILES IDX 5 27 6 28 14 29 7 30 12 31 8 32 10 33 15 34 13 36 9 38 11 40
REMARK H PARENT 21 20 23 22 32 24 29 26 15 35 13 37 9 39 11 41
REMARK Flexibility Score: inf
ROOT
ATOM      1  O   UNL     1      12.919   0.522   1.509  1.00  0.00    -0.483 OA
ENDROOT
BRANCH   1   2
ATOM      2  C   UNL     1      12.185   1.479   0.798  1.00  0.00     0.211 A 
ATOM      3  C   UNL     1      12.712   2.138  -0.333  1.00  0.00     0.180 A 
ATOM      4  O   UNL     1      12.010   3.102  -0.921  1.00  0.00    -0.452 OA
ATOM      5  C   UNL     1      10.895   1.804   1.228  1.00  0.00     0.239 A 
ATOM      6  C   UNL     1      10.795   3.464  -0.525  1.00  0.00     0.146 A 
ATOM      7  O   UNL     1      10.406   1.194   2.218  1.00  0.00    -0.285 OA
ATOM      8  C   UNL     1      10.172   2.817   0.567  1.00  0.00     0.111 A 
ATOM      9  C   UNL     1      10.133   4.489  -1.209  1.00  0.00     0.094 A 
ATOM     10  C   UNL     1       8.870   3.216   0.953  1.00  0.00     0.134 A 
ATOM     11  C   UNL     1       8.848   4.881  -0.821  1.00  0.00     0.123 A 
ATOM     12  C   UNL     1       8.222   4.245   0.254  1.00  0.00     0.093 A 
BRANCH   3  13
ATOM     13  C   UNL     1      14.026   1.784  -0.910  1.00  0.00     0.025 A 
ATOM     14  C   UNL     1      15.153   2.557  -0.600  1.00  0.00     0.016 A 
ATOM     15  C   UNL     1      16.401   2.229  -1.136  1.00  0.00     0.051 A 
ATOM     16  C   UNL     1      16.535   1.131  -1.998  1.00  0.00     0.157 A 
ATOM     17  C   UNL     1      14.155   0.703  -1.798  1.00  0.00     0.062 A 
ATOM     18  C   UNL     1      15.403   0.368  -2.333  1.00  0.00     0.158 A 
BRANCH  16  19
ATOM     19  O   UNL     1      17.782   0.801  -2.526  1.00  0.00    -0.504 OA
ATOM     20  H   UNL     1      17.919  -0.035  -3.081  1.00  0.00     0.293 HD
ENDBRANCH  16  19
BRANCH  18  21
ATOM     21  O   UNL     1      15.500  -0.723  -3.196  1.00  0.00    -0.504 OA
ATOM     22  H   UNL     1      14.689  -1.115  -3.661  1.00  0.00     0.293 HD
ENDBRANCH  18  21
ENDBRANCH   3  13
BRANCH  10  23
ATOM     23  O   UNL     1       8.218   2.603   2.024  1.00  0.00    -0.507 OA
ATOM     24  H   UNL     1       7.821   3.140   2.785  1.00  0.00     0.293 HD
ENDBRANCH  10  23
BRANCH  11  25
ATOM     25  O   UNL     1       8.182   5.900  -1.499  1.00  0.00    -0.508 OA
ATOM     26  H   UNL     1       8.687   6.669  -1.926  1.00  0.00     0.293 HD
ENDBRANCH  11  25
ENDBRANCH   1   2
BRANCH   1  27
ATOM     27  C   UNL     1      13.940   0.886   2.437  1.00  0.00     0.265 C 
BRANCH  27  28
ATOM     28  C   UNL     1      13.513   0.565   3.873  1.00  0.00     0.190 C 
ATOM     29  C   UNL     1      14.635   0.870   4.894  1.00  0.00     0.178 C 
ATOM     30  O   UNL     1      13.113  -0.796   3.951  1.00  0.00    -0.340 OA
ATOM     31  C   UNL     1      14.127   0.566   6.314  1.00  0.00     0.179 C 
ATOM     32  C   UNL     1      12.540  -1.098   5.215  1.00  0.00     0.279 C 
ATOM     33  C   UNL     1      13.549  -0.862   6.365  1.00  0.00     0.201 C 
BRANCH  29  34
ATOM     34  O   UNL     1      15.766   0.082   4.618  1.00  0.00    -0.387 OA
ATOM     35  H   UNL     1      16.559   0.670   4.727  1.00  0.00     0.211 HD
ENDBRANCH  29  34
BRANCH  31  36
ATOM     36  O   UNL     1      13.151   1.513   6.672  1.00  0.00    -0.387 OA
ATOM     37  H   UNL     1      13.125   1.541   7.665  1.00  0.00     0.211 HD
ENDBRANCH  31  36
BRANCH  32  38
ATOM     38  O   UNL     1      11.352  -0.367   5.406  1.00  0.00    -0.366 OA
ATOM     39  H   UNL     1      11.259  -0.213   6.382  1.00  0.00     0.213 HD
ENDBRANCH  32  38
BRANCH  33  40
ATOM     40  O   UNL     1      12.946  -1.089   7.614  1.00  0.00    -0.385 OA
ATOM     41  H   UNL     1      12.427  -0.272   7.833  1.00  0.00     0.211 HD
ENDBRANCH  33  40
ENDBRANCH  27  28
ENDBRANCH   1  27
TORSDOF 12
ENDMDL
MODEL 2
REMARK VINA RESULT:    -6.793      1.652      6.745
REMARK INTER + INTRA:         -11.050
REMARK INTER:                 -10.119
REMARK INTRA:                  -0.931
REMARK UNBOUND:                -1.080
REMARK SMILES O=c1c(OC[C@H]2O[C@H](O)[C@H](O)[C@H](O)[C@H]2O)c(-c2ccc(O)c(O)c2)oc2cc(O)cc(O)c12
REMARK SMILES IDX 4 1 3 2 16 3 25 4 2 5 26 6 1 7 33 8 27 9 31 10 28 11 30 12
REMARK SMILES IDX 17 13 18 14 19 15 20 16 24 17 22 18 21 19 23 21 32 23 29 25
REMARK SMILES IDX 5 27 6 28 14 29 7 30 12 31 8 32 10 33 15 34 13 36 9 38 11 40
REMARK H PARENT 21 20 23 22 32 24 29 26 15 35 13 37 9 39 11 41
REMARK Flexibility Score: inf
ROOT
ATOM      1  O   UNL     1      11.984   0.605   1.641  1.00  0.00    -0.483 OA
ENDROOT
BRANCH   1   2
ATOM      2  C   UNL     1      12.979   0.678   2.623  1.00  0.00     0.211 A 
ATOM      3  C   UNL     1      14.216   1.317   2.391  1.00  0.00     0.180 A 
ATOM      4  O   UNL     1      15.162   1.281   3.324  1.00  0.00    -0.452 OA
ATOM      5  C   UNL     1      12.749   0.086   3.869  1.00  0.00     0.239 A 
ATOM      6  C   UNL     1      14.996   0.702   4.508  1.00  0.00     0.146 A 
ATOM      7  O   UNL     1      11.633  -0.457   4.093  1.00  0.00    -0.285 OA
ATOM      8  C   UNL     1      13.768   0.086   4.842  1.00  0.00     0.111 A 
ATOM      9  C   UNL     1      16.050   0.718   5.427  1.00  0.00     0.094 A 
ATOM     10  C   UNL     1      13.619  -0.508   6.118  1.00  0.00     0.134 A 
ATOM     11  C   UNL     1      15.898   0.128   6.685  1.00  0.00     0.123 A 
ATOM     12  C   UNL     1      14.687  -0.480   7.027  1.00  0.00     0.093 A 
BRANCH   3  13
ATOM     13  C   UNL     1      14.501   2.049   1.139  1.00  0.00     0.025 A 
ATOM     14  C   UNL     1      14.614   3.446   1.161  1.00  0.00     0.016 A 
ATOM     15  C   UNL     1      14.889   4.149  -0.015  1.00  0.00     0.051 A 
ATOM     16  C   UNL     1      15.042   3.464  -1.229  1.00  0.00     0.157 A 
ATOM     17  C   UNL     1      14.625   1.367  -0.083  1.00  0.00     0.062 A 
ATOM     18  C   UNL     1      14.905   2.066  -1.262  1.00  0.00     0.158 A 
BRANCH  16  19
ATOM     19  O   UNL     1      15.323   4.167  -2.400  1.00  0.00    -0.504 OA
ATOM     20  H   UNL     1      16.255   4.184  -2.797  1.00  0.00     0.293 HD
ENDBRANCH  16  19
BRANCH  18  21
ATOM     21  O   UNL     1      15.040   1.356  -2.454  1.00  0.00    -0.504 OA
ATOM     22  H   UNL     1      14.662   0.423  -2.571  1.00  0.00     0.293 HD
ENDBRANCH  18  21
ENDBRANCH   3  13
BRANCH  10  23
ATOM     23  O   UNL     1      12.424  -1.125   6.489  1.00  0.00    -0.507 OA
ATOM     24  H   UNL     1      11.677  -1.286   5.823  1.00  0.00     0.293 HD
ENDBRANCH  10  23
BRANCH  11  25
ATOM     25  O   UNL     1      16.944   0.140   7.606  1.00  0.00    -0.508 OA
ATOM     26  H   UNL     1      17.848   0.535   7.374  1.00  0.00     0.293 HD
ENDBRANCH  11  25
ENDBRANCH   1   2
BRANCH   1  27
ATOM     27  C   UNL     1      10.720   1.251   1.792  1.00  0.00     0.265 C 
BRANCH  27  28
ATOM     28  C   UNL     1      10.700   2.593   1.052  1.00  0.00     0.190 C 
ATOM     29  C   UNL     1       9.915   3.674   1.832  1.00  0.00     0.178 C 
ATOM     30  O   UNL     1      10.153   2.405  -0.245  1.00  0.00    -0.340 OA
ATOM     31  C   UNL     1       9.970   5.001   1.056  1.00  0.00     0.179 C 
ATOM     32  C   UNL     1      10.276   3.578  -1.037  1.00  0.00     0.279 C 
ATOM     33  C   UNL     1       9.522   4.772  -0.400  1.00  0.00     0.201 C 
BRANCH  29  34
ATOM     34  O   UNL     1       8.577   3.276   1.993  1.00  0.00    -0.387 OA
ATOM     35  H   UNL     1       8.175   3.249   1.086  1.00  0.00     0.211 HD
ENDBRANCH  29  34
BRANCH  31  36
ATOM     36  O   UNL     1      11.280   5.513   1.100  1.00  0.00    -0.387 OA
ATOM     37  H   UNL     1      11.307   6.179   1.836  1.00  0.00     0.211 HD
ENDBRANCH  31  36
BRANCH  32  38
ATOM     38  O   UNL     1      11.632   3.881  -1.263  1.00  0.00    -0.366 OA
ATOM     39  H   UNL     1      12.023   4.140  -0.389  1.00  0.00     0.213 HD
ENDBRANCH  32  38
BRANCH  33  40
ATOM     40  O   UNL     1       9.716   5.943  -1.151  1.00  0.00    -0.385 OA
ATOM     41  H   UNL     1       9.028   5.941  -1.867  1.00  0.00     0.211 HD
ENDBRANCH  33  40
ENDBRANCH  27  28
ENDBRANCH   1  27
TORSDOF 12
ENDMDL
MODEL 3
REMARK VINA RESULT:    -6.745      1.575      2.365
REMARK INTER + INTRA:         -10.979
REMARK INTER:                  -9.816
REMARK INTRA:                  -1.164
REMARK UNBOUND:                -1.080
REMARK SMILES O=c1c(OC[C@H]2O[C@H](O)[C@H](O)[C@H](O)[C@H]2O)c(-c2ccc(O)c(O)c2)oc2cc(O)cc(O)c12
REMARK SMILES IDX 4 1 3 2 16 3 25 4 2 5 26 6 1 7 33 8 27 9 31 10 28 11 30 12
REMARK SMILES IDX 17 13 18 14 19 15 20 16 24 17 22 18 21 19 23 21 32 23 29 25
REMARK SMILES IDX 5 27 6 28 14 29 7 30 12 31 8 32 10 33 15 34 13 36 9 38 11 40
REMARK H PARENT 21 20 23 22 32 24 29 26 15 35 13 37 9 39 11 41
REMARK Flexibility Score: inf
ROOT
ATOM      1  O   UNL     1      12.259   2.811   1.563  1.00  0.00    -0.483 OA
ENDROOT
BRANCH   1   2
ATOM      2  C   UNL     1      11.562   3.471   0.544  1.00  0.00     0.211 A 
ATOM      3  C   UNL     1      11.998   3.449  -0.798  1.00  0.00     0.180 A 
ATOM      4  O   UNL     1      11.352   4.165  -1.713  1.00  0.00    -0.452 OA
ATOM      5  C   UNL     1      10.405   4.188   0.867  1.00  0.00     0.239 A 
ATOM      6  C   UNL     1      10.269   4.886  -1.443  1.00  0.00     0.146 A 
ATOM      7  O   UNL     1       9.993   4.184   2.059  1.00  0.00    -0.285 OA
ATOM      8  C   UNL     1       9.734   4.919  -0.134  1.00  0.00     0.111 A 
ATOM      9  C   UNL     1       9.655   5.605  -2.474  1.00  0.00     0.094 A 
ATOM     10  C   UNL     1       8.569   5.684   0.116  1.00  0.00     0.134 A 
ATOM     11  C   UNL     1       8.506   6.361  -2.220  1.00  0.00     0.123 A 
ATOM     12  C   UNL     1       7.968   6.397  -0.932  1.00  0.00     0.093 A 
BRANCH   3  13
ATOM     13  C   UNL     1      13.151   2.638  -1.238  1.00  0.00     0.025 A 
ATOM     14  C   UNL     1      12.935   1.444  -1.940  1.00  0.00     0.016 A 
ATOM     15  C   UNL     1      14.019   0.671  -2.366  1.00  0.00     0.051 A 
ATOM     16  C   UNL     1      15.331   1.076  -2.084  1.00  0.00     0.157 A 
ATOM     17  C   UNL     1      14.466   3.026  -0.930  1.00  0.00     0.062 A 
ATOM     18  C   UNL     1      15.554   2.258  -1.358  1.00  0.00     0.158 A 
BRANCH  16  19
ATOM     19  O   UNL     1      16.410   0.307  -2.516  1.00  0.00    -0.504 OA
ATOM     20  H   UNL     1      17.234   0.179  -1.940  1.00  0.00     0.293 HD
ENDBRANCH  16  19
BRANCH  18  21
ATOM     21  O   UNL     1      16.846   2.684  -1.052  1.00  0.00    -0.504 OA
ATOM     22  H   UNL     1      17.451   2.161  -0.429  1.00  0.00     0.293 HD
ENDBRANCH  18  21
ENDBRANCH   3  13
BRANCH  10  23
ATOM     23  O   UNL     1       8.009   5.743   1.392  1.00  0.00    -0.507 OA
ATOM     24  H   UNL     1       7.210   6.332   1.598  1.00  0.00     0.293 HD
ENDBRANCH  10  23
BRANCH  11  25
ATOM     25  O   UNL     1       7.890   7.079  -3.243  1.00  0.00    -0.508 OA
ATOM     26  H   UNL     1       7.545   6.620  -4.079  1.00  0.00     0.293 HD
ENDBRANCH  11  25
ENDBRANCH   1   2
BRANCH   1  27
ATOM     27  C   UNL     1      12.186   1.397   1.739  1.00  0.00     0.265 C 
BRANCH  27  28
ATOM     28  C   UNL     1      13.019   0.953   2.947  1.00  0.00     0.190 C 
ATOM     29  C   UNL     1      14.101   1.994   3.320  1.00  0.00     0.178 C 
ATOM     30  O   UNL     1      13.604  -0.312   2.674  1.00  0.00    -0.340 OA
ATOM     31  C   UNL     1      14.868   1.506   4.561  1.00  0.00     0.179 C 
ATOM     32  C   UNL     1      14.238  -0.851   3.825  1.00  0.00     0.279 C 
ATOM     33  C   UNL     1      15.376   0.070   4.328  1.00  0.00     0.201 C 
BRANCH  29  34
ATOM     34  O   UNL     1      14.994   2.166   2.250  1.00  0.00    -0.387 OA
ATOM     35  H   UNL     1      15.434   1.289   2.098  1.00  0.00     0.211 HD
ENDBRANCH  29  34
BRANCH  31  36
ATOM     36  O   UNL     1      14.022   1.560   5.684  1.00  0.00    -0.387 OA
ATOM     37  H   UNL     1      13.163   1.137   5.421  1.00  0.00     0.211 HD
ENDBRANCH  31  36
BRANCH  32  38
ATOM     38  O   UNL     1      13.292  -1.108   4.835  1.00  0.00    -0.366 OA
ATOM     39  H   UNL     1      13.191  -2.093   4.896  1.00  0.00     0.213 HD
ENDBRANCH  32  38
BRANCH  33  40
ATOM     40  O   UNL     1      15.943  -0.435   5.510  1.00  0.00    -0.385 OA
ATOM     41  H   UNL     1      15.205  -0.862   6.020  1.00  0.00     0.211 HD
ENDBRANCH  33  40
ENDBRANCH  27  28
ENDBRANCH   1  27
TORSDOF 12
ENDMDL
MODEL 4
REMARK VINA RESULT:    -6.184      2.587      6.924
REMARK INTER + INTRA:         -10.156
REMARK INTER:                  -9.709
REMARK INTRA:                  -0.447
REMARK UNBOUND:                -1.080
REMARK SMILES O=c1c(OC[C@H]2O[C@H](O)[C@H](O)[C@H](O)[C@H]2O)c(-c2ccc(O)c(O)c2)oc2cc(O)cc(O)c12
REMARK SMILES IDX 4 1 3 2 16 3 25 4 2 5 26 6 1 7 33 8 27 9 31 10 28 11 30 12
REMARK SMILES IDX 17 13 18 14 19 15 20 16 24 17 22 18 21 19 23 21 32 23 29 25
REMARK SMILES IDX 5 27 6 28 14 29 7 30 12 31 8 32 10 33 15 34 13 36 9 38 11 40
REMARK H PARENT 21 20 23 22 32 24 29 26 15 35 13 37 9 39 11 41
REMARK Flexibility Score: inf
ROOT
ATOM      1  O   UNL     1      12.352   0.261   1.717  1.00  0.00    -0.483 OA
ENDROOT
BRANCH   1   2
ATOM      2  C   UNL     1      13.333   0.720   2.605  1.00  0.00     0.211 A 
ATOM      3  C   UNL     1      14.263   1.718   2.245  1.00  0.00     0.180 A 
ATOM      4  O   UNL     1      15.229   2.056   3.092  1.00  0.00    -0.452 OA
ATOM      5  C   UNL     1      13.405   0.161   3.885  1.00  0.00     0.239 A 
ATOM      6  C   UNL     1      15.354   1.527   4.304  1.00  0.00     0.146 A 
ATOM      7  O   UNL     1      12.556  -0.708   4.224  1.00  0.00    -0.285 OA
ATOM      8  C   UNL     1      14.431   0.559   4.765  1.00  0.00     0.111 A 
ATOM      9  C   UNL     1      16.404   1.948   5.127  1.00  0.00     0.094 A 
ATOM     10  C   UNL     1      14.583   0.027   6.068  1.00  0.00     0.134 A 
ATOM     11  C   UNL     1      16.550   1.418   6.412  1.00  0.00     0.123 A 
ATOM     12  C   UNL     1      15.642   0.463   6.878  1.00  0.00     0.093 A 
BRANCH   3  13
ATOM     13  C   UNL     1      14.195   2.427   0.950  1.00  0.00     0.025 A 
ATOM     14  C   UNL     1      15.378   2.795   0.294  1.00  0.00     0.016 A 
ATOM     15  C   UNL     1      15.325   3.461  -0.933  1.00  0.00     0.051 A 
ATOM     16  C   UNL     1      14.089   3.778  -1.513  1.00  0.00     0.157 A 
ATOM     17  C   UNL     1      12.957   2.774   0.382  1.00  0.00     0.062 A 
ATOM     18  C   UNL     1      12.900   3.436  -0.848  1.00  0.00     0.158 A 
BRANCH  16  19
ATOM     19  O   UNL     1      14.040   4.437  -2.741  1.00  0.00    -0.504 OA
ATOM     20  H   UNL     1      14.423   5.367  -2.860  1.00  0.00     0.293 HD
ENDBRANCH  16  19
BRANCH  18  21
ATOM     21  O   UNL     1      11.654   3.747  -1.393  1.00  0.00    -0.504 OA
ATOM     22  H   UNL     1      11.373   4.702  -1.582  1.00  0.00     0.293 HD
ENDBRANCH  18  21
ENDBRANCH   3  13
BRANCH  10  23
ATOM     23  O   UNL     1      13.695  -0.929   6.562  1.00  0.00    -0.507 OA
ATOM     24  H   UNL     1      13.341  -0.890   7.511  1.00  0.00     0.293 HD
ENDBRANCH  10  23
BRANCH  11  25
ATOM     25  O   UNL     1      17.593   1.833   7.237  1.00  0.00    -0.508 OA
ATOM     26  H   UNL     1      18.069   2.716   7.085  1.00  0.00     0.293 HD
ENDBRANCH  11  25
ENDBRANCH   1   2
BRANCH   1  27
ATOM     27  C   UNL     1      10.968   0.551   1.900  1.00  0.00     0.265 C 
BRANCH  27  28
ATOM     28  C   UNL     1      10.211   0.465   0.570  1.00  0.00     0.190 C 
ATOM     29  C   UNL     1       8.715   0.127   0.774  1.00  0.00     0.178 C 
ATOM     30  O   UNL     1      10.839  -0.496  -0.266  1.00  0.00    -0.340 OA
ATOM     31  C   UNL     1       8.010   0.097  -0.592  1.00  0.00     0.179 C 
ATOM     32  C   UNL     1      10.288  -0.487  -1.575  1.00  0.00     0.279 C 
ATOM     33  C   UNL     1       8.777  -0.829  -1.555  1.00  0.00     0.201 C 
BRANCH  29  34
ATOM     34  O   UNL     1       8.585  -1.124   1.400  1.00  0.00    -0.387 OA
ATOM     35  H   UNL     1       9.502  -1.489   1.508  1.00  0.00     0.211 HD
ENDBRANCH  29  34
BRANCH  31  36
ATOM     36  O   UNL     1       7.938   1.404  -1.108  1.00  0.00    -0.387 OA
ATOM     37  H   UNL     1       8.311   2.011  -0.416  1.00  0.00     0.211 HD
ENDBRANCH  31  36
BRANCH  32  38
ATOM     38  O   UNL     1      10.533   0.747  -2.206  1.00  0.00    -0.366 OA
ATOM     39  H   UNL     1       9.939   1.417  -1.778  1.00  0.00     0.213 HD
ENDBRANCH  32  38
BRANCH  33  40
ATOM     40  O   UNL     1       8.228  -0.740  -2.845  1.00  0.00    -0.385 OA
ATOM     41  H   UNL     1       7.812   0.159  -2.917  1.00  0.00     0.211 HD
ENDBRANCH  33  40
ENDBRANCH  27  28
ENDBRANCH   1  27
TORSDOF 12
ENDMDL
MODEL 5
REMARK VINA RESULT:    -6.173      2.057      6.441
REMARK INTER + INTRA:         -10.140
REMARK INTER:                  -9.147
REMARK INTRA:                  -0.994
REMARK UNBOUND:                -1.080
REMARK SMILES O=c1c(OC[C@H]2O[C@H](O)[C@H](O)[C@H](O)[C@H]2O)c(-c2ccc(O)c(O)c2)oc2cc(O)cc(O)c12
REMARK SMILES IDX 4 1 3 2 16 3 25 4 2 5 26 6 1 7 33 8 27 9 31 10 28 11 30 12
REMARK SMILES IDX 17 13 18 14 19 15 20 16 24 17 22 18 21 19 23 21 32 23 29 25
REMARK SMILES IDX 5 27 6 28 14 29 7 30 12 31 8 32 10 33 15 34 13 36 9 38 11 40
REMARK H PARENT 21 20 23 22 32 24 29 26 15 35 13 37 9 39 11 41
REMARK Flexibility Score: inf
ROOT
ATOM      1  O   UNL     1      11.396  -0.480   1.697  1.00  0.00    -0.483 OA
ENDROOT
BRANCH   1   2
ATOM      2  C   UNL     1      12.426   0.207   2.351  1.00  0.00     0.211 A 
ATOM      3  C   UNL     1      13.358   1.003   1.651  1.00  0.00     0.180 A 
ATOM      4  O   UNL     1      14.369   1.564   2.307  1.00  0.00    -0.452 OA
ATOM      5  C   UNL     1      12.545   0.091   3.739  1.00  0.00     0.239 A 
ATOM      6  C   UNL     1      14.539   1.452   3.619  1.00  0.00     0.146 A 
ATOM      7  O   UNL     1      11.696  -0.592   4.373  1.00  0.00    -0.285 OA
ATOM      8  C   UNL     1      13.619   0.717   4.403  1.00  0.00     0.111 A 
ATOM      9  C   UNL     1      15.634   2.080   4.221  1.00  0.00     0.094 A 
ATOM     10  C   UNL     1      13.820   0.631   5.802  1.00  0.00     0.134 A 
ATOM     11  C   UNL     1      15.828   1.990   5.603  1.00  0.00     0.123 A 
ATOM     12  C   UNL     1      14.924   1.269   6.387  1.00  0.00     0.093 A 
BRANCH   3  13
ATOM     13  C   UNL     1      13.244   1.257   0.200  1.00  0.00     0.025 A 
ATOM     14  C   UNL     1      13.583   0.248  -0.712  1.00  0.00     0.016 A 
ATOM     15  C   UNL     1      13.475   0.475  -2.086  1.00  0.00     0.051 A 
ATOM     16  C   UNL     1      13.038   1.718  -2.566  1.00  0.00     0.157 A 
ATOM     17  C   UNL     1      12.836   2.512  -0.282  1.00  0.00     0.062 A 
ATOM     18  C   UNL     1      12.722   2.742  -1.657  1.00  0.00     0.158 A 
BRANCH  16  19
ATOM     19  O   UNL     1      12.924   1.940  -3.937  1.00  0.00    -0.504 OA
ATOM     20  H   UNL     1      12.035   2.173  -4.365  1.00  0.00     0.293 HD
ENDBRANCH  16  19
BRANCH  18  21
ATOM     21  O   UNL     1      12.295   3.993  -2.101  1.00  0.00    -0.504 OA
ATOM     22  H   UNL     1      12.162   4.199  -3.085  1.00  0.00     0.293 HD
ENDBRANCH  18  21
ENDBRANCH   3  13
BRANCH  10  23
ATOM     23  O   UNL     1      12.937  -0.083   6.612  1.00  0.00    -0.507 OA
ATOM     24  H   UNL     1      12.060   0.316   6.928  1.00  0.00     0.293 HD
ENDBRANCH  10  23
BRANCH  11  25
ATOM     25  O   UNL     1      16.917   2.614   6.209  1.00  0.00    -0.508 OA
ATOM     26  H   UNL     1      17.857   2.512   5.842  1.00  0.00     0.293 HD
ENDBRANCH  11  25
ENDBRANCH   1   2
BRANCH   1  27
ATOM     27  C   UNL     1      10.024  -0.127   1.861  1.00  0.00     0.265 C 
BRANCH  27  28
ATOM     28  C   UNL     1       9.695   1.159   1.095  1.00  0.00     0.190 C 
ATOM     29  C   UNL     1       9.242   2.298   2.039  1.00  0.00     0.178 C 
ATOM     30  O   UNL     1       8.701   0.883   0.119  1.00  0.00    -0.340 OA
ATOM     31  C   UNL     1       8.969   3.566   1.211  1.00  0.00     0.179 C 
ATOM     32  C   UNL     1       8.488   1.995  -0.737  1.00  0.00     0.279 C 
ATOM     33  C   UNL     1       8.006   3.236   0.055  1.00  0.00     0.201 C 
BRANCH  29  34
ATOM     34  O   UNL     1       8.074   1.920   2.724  1.00  0.00    -0.387 OA
ATOM     35  H   UNL     1       7.760   2.721   3.219  1.00  0.00     0.211 HD
ENDBRANCH  29  34
BRANCH  31  36
ATOM     36  O   UNL     1      10.186   4.072   0.719  1.00  0.00    -0.387 OA
ATOM     37  H   UNL     1      10.129   5.062   0.767  1.00  0.00     0.211 HD
ENDBRANCH  31  36
BRANCH  32  38
ATOM     38  O   UNL     1       9.649   2.273  -1.483  1.00  0.00    -0.366 OA
ATOM     39  H   UNL     1      10.370   1.691  -1.128  1.00  0.00     0.213 HD
ENDBRANCH  32  38
BRANCH  33  40
ATOM     40  O   UNL     1       7.875   4.349  -0.792  1.00  0.00    -0.385 OA
ATOM     41  H   UNL     1       7.248   4.086  -1.515  1.00  0.00     0.211 HD
ENDBRANCH  33  40
ENDBRANCH  27  28
ENDBRANCH   1  27
TORSDOF 12
ENDMDL
MODEL 6
REMARK VINA RESULT:    -5.915      1.398      2.060
REMARK INTER + INTRA:          -9.762
REMARK INTER:                  -8.809
REMARK INTRA:                  -0.952
REMARK UNBOUND:                -1.080
REMARK SMILES O=c1c(OC[C@H]2O[C@H](O)[C@H](O)[C@H](O)[C@H]2O)c(-c2ccc(O)c(O)c2)oc2cc(O)cc(O)c12
REMARK SMILES IDX 4 1 3 2 16 3 25 4 2 5 26 6 1 7 33 8 27 9 31 10 28 11 30 12
REMARK SMILES IDX 17 13 18 14 19 15 20 16 24 17 22 18 21 19 23 21 32 23 29 25
REMARK SMILES IDX 5 27 6 28 14 29 7 30 12 31 8 32 10 33 15 34 13 36 9 38 11 40
REMARK H PARENT 21 20 23 22 32 24 29 26 15 35 13 37 9 39 11 41
REMARK Flexibility Score: inf
ROOT
ATOM      1  O   UNL     1      13.097   2.546   1.795  1.00  0.00    -0.483 OA
ENDROOT
BRANCH   1   2
ATOM      2  C   UNL     1      12.347   3.135   0.770  1.00  0.00     0.211 A 
ATOM      3  C   UNL     1      12.833   3.235  -0.551  1.00  0.00     0.180 A 
ATOM      4  O   UNL     1      12.120   3.882  -1.468  1.00  0.00    -0.452 OA
ATOM      5  C   UNL     1      11.083   3.655   1.066  1.00  0.00     0.239 A 
ATOM      6  C   UNL     1      10.930   4.418  -1.222  1.00  0.00     0.146 A 
ATOM      7  O   UNL     1      10.631   3.539   2.237  1.00  0.00    -0.285 OA
ATOM      8  C   UNL     1      10.347   4.316   0.062  1.00  0.00     0.111 A 
ATOM      9  C   UNL     1      10.254   5.078  -2.253  1.00  0.00     0.094 A 
ATOM     10  C   UNL     1       9.070   4.885   0.287  1.00  0.00     0.134 A 
ATOM     11  C   UNL     1       8.995   5.641  -2.024  1.00  0.00     0.123 A 
ATOM     12  C   UNL     1       8.408   5.542  -0.760  1.00  0.00     0.093 A 
BRANCH   3  13
ATOM     13  C   UNL     1      14.113   2.626  -0.968  1.00  0.00     0.025 A 
ATOM     14  C   UNL     1      15.323   3.252  -0.637  1.00  0.00     0.016 A 
ATOM     15  C   UNL     1      16.539   2.683  -1.022  1.00  0.00     0.051 A 
ATOM     16  C   UNL     1      16.561   1.487  -1.752  1.00  0.00     0.157 A 
ATOM     17  C   UNL     1      14.135   1.444  -1.727  1.00  0.00     0.062 A 
ATOM     18  C   UNL     1      15.351   0.867  -2.110  1.00  0.00     0.158 A 
BRANCH  16  19
ATOM     19  O   UNL     1      17.776   0.917  -2.129  1.00  0.00    -0.504 OA
ATOM     20  H   UNL     1      18.656   1.395  -1.975  1.00  0.00     0.293 HD
ENDBRANCH  16  19
BRANCH  18  21
ATOM     21  O   UNL     1      15.337  -0.317  -2.846  1.00  0.00    -0.504 OA
ATOM     22  H   UNL     1      15.920  -0.449  -3.664  1.00  0.00     0.293 HD
ENDBRANCH  18  21
ENDBRANCH   3  13
BRANCH  10  23
ATOM     23  O   UNL     1       8.459   4.806   1.539  1.00  0.00    -0.507 OA
ATOM     24  H   UNL     1       7.776   5.490   1.844  1.00  0.00     0.293 HD
ENDBRANCH  10  23
BRANCH  11  25
ATOM     25  O   UNL     1       8.315   6.299  -3.047  1.00  0.00    -0.508 OA
ATOM     26  H   UNL     1       8.806   6.866  -3.729  1.00  0.00     0.293 HD
ENDBRANCH  11  25
ENDBRANCH   1   2
BRANCH   1  27
ATOM     27  C   UNL     1      13.163   1.132   1.970  1.00  0.00     0.265 C 
BRANCH  27  28
ATOM     28  C   UNL     1      14.001   0.772   3.203  1.00  0.00     0.190 C 
ATOM     29  C   UNL     1      13.660  -0.636   3.746  1.00  0.00     0.178 C 
ATOM     30  O   UNL     1      13.810   1.762   4.204  1.00  0.00    -0.340 OA
ATOM     31  C   UNL     1      14.562  -0.947   4.952  1.00  0.00     0.179 C 
ATOM     32  C   UNL     1      14.698   1.574   5.297  1.00  0.00     0.279 C 
ATOM     33  C   UNL     1      14.477   0.200   5.976  1.00  0.00     0.201 C 
BRANCH  29  34
ATOM     34  O   UNL     1      12.312  -0.688   4.138  1.00  0.00    -0.387 OA
ATOM     35  H   UNL     1      12.069  -1.649   4.202  1.00  0.00     0.211 HD
ENDBRANCH  29  34
BRANCH  31  36
ATOM     36  O   UNL     1      15.886  -1.125   4.511  1.00  0.00    -0.387 OA
ATOM     37  H   UNL     1      15.852  -1.735   3.728  1.00  0.00     0.211 HD
ENDBRANCH  31  36
BRANCH  32  38
ATOM     38  O   UNL     1      16.033   1.740   4.882  1.00  0.00    -0.366 OA
ATOM     39  H   UNL     1      16.086   2.613   4.414  1.00  0.00     0.213 HD
ENDBRANCH  32  38
BRANCH  33  40
ATOM     40  O   UNL     1      15.412  -0.005   7.004  1.00  0.00    -0.385 OA
ATOM     41  H   UNL     1      15.422   0.824   7.551  1.00  0.00     0.211 HD
ENDBRANCH  33  40
ENDBRANCH  27  28
ENDBRANCH   1  27
TORSDOF 12
ENDMDL
MODEL 7
REMARK VINA RESULT:    -5.710     18.581     21.235
REMARK INTER + INTRA:          -9.460
REMARK INTER:                  -8.290
REMARK INTRA:                  -1.170
REMARK UNBOUND:                -1.080
REMARK SMILES O=c1c(OC[C@H]2O[C@H](O)[C@H](O)[C@H](O)[C@H]2O)c(-c2ccc(O)c(O)c2)oc2cc(O)cc(O)c12
REMARK SMILES IDX 4 1 3 2 16 3 25 4 2 5 26 6 1 7 33 8 27 9 31 10 28 11 30 12
REMARK SMILES IDX 17 13 18 14 19 15 20 16 24 17 22 18 21 19 23 21 32 23 29 25
REMARK SMILES IDX 5 27 6 28 14 29 7 30 12 31 8 32 10 33 15 34 13 36 9 38 11 40
REMARK H PARENT 21 20 23 22 32 24 29 26 15 35 13 37 9 39 11 41
REMARK Flexibility Score: inf
ROOT
ATOM      1  O   UNL     1      26.711  14.248   7.354  1.00  0.00    -0.483 OA
ENDROOT
BRANCH   1   2
ATOM      2  C   UNL     1      26.943  14.559   8.700  1.00  0.00     0.211 A 
ATOM      3  C   UNL     1      27.063  13.559   9.689  1.00  0.00     0.180 A 
ATOM      4  O   UNL     1      27.195  13.907  10.965  1.00  0.00    -0.452 OA
ATOM      5  C   UNL     1      27.044  15.900   9.080  1.00  0.00     0.239 A 
ATOM      6  C   UNL     1      27.262  15.170  11.373  1.00  0.00     0.146 A 
ATOM      7  O   UNL     1      26.970  16.796   8.195  1.00  0.00    -0.285 OA
ATOM      8  C   UNL     1      27.204  16.231  10.440  1.00  0.00     0.111 A 
ATOM      9  C   UNL     1      27.403  15.438  12.738  1.00  0.00     0.094 A 
ATOM     10  C   UNL     1      27.295  17.565  10.907  1.00  0.00     0.134 A 
ATOM     11  C   UNL     1      27.490  16.757  13.194  1.00  0.00     0.123 A 
ATOM     12  C   UNL     1      27.437  17.813  12.280  1.00  0.00     0.093 A 
BRANCH   3  13
ATOM     13  C   UNL     1      27.066  12.119   9.358  1.00  0.00     0.025 A 
ATOM     14  C   UNL     1      28.079  11.594   8.544  1.00  0.00     0.016 A 
ATOM     15  C   UNL     1      28.095  10.233   8.228  1.00  0.00     0.051 A 
ATOM     16  C   UNL     1      27.092   9.383   8.713  1.00  0.00     0.157 A 
ATOM     17  C   UNL     1      26.044  11.272   9.818  1.00  0.00     0.062 A 
ATOM     18  C   UNL     1      26.059   9.908   9.509  1.00  0.00     0.158 A 
BRANCH  16  19
ATOM     19  O   UNL     1      27.114   8.024   8.403  1.00  0.00    -0.504 OA
ATOM     20  H   UNL     1      27.941   7.580   8.021  1.00  0.00     0.293 HD
ENDBRANCH  16  19
BRANCH  18  21
ATOM     21  O   UNL     1      25.040   9.091   9.997  1.00  0.00    -0.504 OA
ATOM     22  H   UNL     1      25.220   8.159  10.351  1.00  0.00     0.293 HD
ENDBRANCH  18  21
ENDBRANCH   3  13
BRANCH  10  23
ATOM     23  O   UNL     1      27.243  18.641  10.021  1.00  0.00    -0.507 OA
ATOM     24  H   UNL     1      28.079  19.135   9.730  1.00  0.00     0.293 HD
ENDBRANCH  10  23
BRANCH  11  25
ATOM     25  O   UNL     1      27.630  17.031  14.553  1.00  0.00    -0.508 OA
ATOM     26  H   UNL     1      27.435  16.329  15.257  1.00  0.00     0.293 HD
ENDBRANCH  11  25
ENDBRANCH   1   2
BRANCH   1  27
ATOM     27  C   UNL     1      25.414  13.906   6.868  1.00  0.00     0.265 C 
BRANCH  27  28
ATOM     28  C   UNL     1      24.691  15.143   6.322  1.00  0.00     0.190 C 
ATOM     29  C   UNL     1      23.371  14.775   5.605  1.00  0.00     0.178 C 
ATOM     30  O   UNL     1      25.563  15.849   5.451  1.00  0.00    -0.340 OA
ATOM     31  C   UNL     1      22.680  16.061   5.121  1.00  0.00     0.179 C 
ATOM     32  C   UNL     1      25.008  17.096   5.059  1.00  0.00     0.279 C 
ATOM     33  C   UNL     1      23.671  16.908   4.300  1.00  0.00     0.201 C 
BRANCH  29  34
ATOM     34  O   UNL     1      23.636  13.939   4.507  1.00  0.00    -0.387 OA
ATOM     35  H   UNL     1      24.238  13.220   4.832  1.00  0.00     0.211 HD
ENDBRANCH  29  34
BRANCH  31  36
ATOM     36  O   UNL     1      22.208  16.783   6.233  1.00  0.00    -0.387 OA
ATOM     37  H   UNL     1      22.132  17.733   5.951  1.00  0.00     0.211 HD
ENDBRANCH  31  36
BRANCH  32  38
ATOM     38  O   UNL     1      24.858  17.943   6.174  1.00  0.00    -0.366 OA
ATOM     39  H   UNL     1      24.053  18.500   6.011  1.00  0.00     0.213 HD
ENDBRANCH  32  38
BRANCH  33  40
ATOM     40  O   UNL     1      23.094  18.150   3.987  1.00  0.00    -0.385 OA
ATOM     41  H   UNL     1      23.658  18.555   3.276  1.00  0.00     0.211 HD
ENDBRANCH  33  40
ENDBRANCH  27  28
ENDBRANCH   1  27
TORSDOF 12
ENDMDL
MODEL 8
REMARK VINA RESULT:    -5.681     15.990     19.185
REMARK INTER + INTRA:          -9.419
REMARK INTER:                  -8.541
REMARK INTRA:                  -0.877
REMARK UNBOUND:                -1.080
REMARK SMILES O=c1c(OC[C@H]2O[C@H](O)[C@H](O)[C@H](O)[C@H]2O)c(-c2ccc(O)c(O)c2)oc2cc(O)cc(O)c12
REMARK SMILES IDX 4 1 3 2 16 3 25 4 2 5 26 6 1 7 33 8 27 9 31 10 28 11 30 12
REMARK SMILES IDX 17 13 18 14 19 15 20 16 24 17 22 18 21 19 23 21 32 23 29 25
REMARK SMILES IDX 5 27 6 28 14 29 7 30 12 31 8 32 10 33 15 34 13 36 9 38 11 40
REMARK H PARENT 21 20 23 22 32 24 29 26 15 35 13 37 9 39 11 41
REMARK Flexibility Score: inf
ROOT
ATOM      1  O   UNL     1      24.762  11.682   7.627  1.00  0.00    -0.483 OA
ENDROOT
BRANCH   1   2
ATOM      2  C   UNL     1      25.414  10.501   8.003  1.00  0.00     0.211 A 
ATOM      3  C   UNL     1      26.325  10.459   9.080  1.00  0.00     0.180 A 
ATOM      4  O   UNL     1      26.986   9.336   9.342  1.00  0.00    -0.452 OA
ATOM      5  C   UNL     1      25.169   9.330   7.281  1.00  0.00     0.239 A 
ATOM      6  C   UNL     1      26.807   8.210   8.660  1.00  0.00     0.146 A 
ATOM      7  O   UNL     1      24.332   9.354   6.338  1.00  0.00    -0.285 OA
ATOM      8  C   UNL     1      25.873   8.151   7.599  1.00  0.00     0.111 A 
ATOM      9  C   UNL     1      27.548   7.077   9.011  1.00  0.00     0.094 A 
ATOM     10  C   UNL     1      25.696   6.931   6.904  1.00  0.00     0.134 A 
ATOM     11  C   UNL     1      27.370   5.875   8.318  1.00  0.00     0.123 A 
ATOM     12  C   UNL     1      26.447   5.805   7.271  1.00  0.00     0.093 A 
BRANCH   3  13
ATOM     13  C   UNL     1      26.566  11.627   9.954  1.00  0.00     0.025 A 
ATOM     14  C   UNL     1      27.785  12.315   9.877  1.00  0.00     0.016 A 
ATOM     15  C   UNL     1      28.022  13.423  10.694  1.00  0.00     0.051 A 
ATOM     16  C   UNL     1      27.047  13.848  11.608  1.00  0.00     0.157 A 
ATOM     17  C   UNL     1      25.603  12.036  10.892  1.00  0.00     0.062 A 
ATOM     18  C   UNL     1      25.834  13.147  11.709  1.00  0.00     0.158 A 
BRANCH  16  19
ATOM     19  O   UNL     1      27.283  14.959  12.418  1.00  0.00    -0.504 OA
ATOM     20  H   UNL     1      27.912  14.912  13.211  1.00  0.00     0.293 HD
ENDBRANCH  16  19
BRANCH  18  21
ATOM     21  O   UNL     1      24.848  13.538  12.615  1.00  0.00    -0.504 OA
ATOM     22  H   UNL     1      24.986  13.481  13.617  1.00  0.00     0.293 HD
ENDBRANCH  18  21
ENDBRANCH   3  13
BRANCH  10  23
ATOM     23  O   UNL     1      24.784   6.830   5.853  1.00  0.00    -0.507 OA
ATOM     24  H   UNL     1      24.398   5.938   5.564  1.00  0.00     0.293 HD
ENDBRANCH  10  23
BRANCH  11  25
ATOM     25  O   UNL     1      28.104   4.742   8.663  1.00  0.00    -0.508 OA
ATOM     26  H   UNL     1      29.100   4.792   8.846  1.00  0.00     0.293 HD
ENDBRANCH  11  25
ENDBRANCH   1   2
BRANCH   1  27
ATOM     27  C   UNL     1      25.476  12.845   7.212  1.00  0.00     0.265 C 
BRANCH  27  28
ATOM     28  C   UNL     1      24.514  13.927   6.711  1.00  0.00     0.190 C 
ATOM     29  C   UNL     1      23.405  13.344   5.805  1.00  0.00     0.178 C 
ATOM     30  O   UNL     1      25.252  14.931   6.028  1.00  0.00    -0.340 OA
ATOM     31  C   UNL     1      22.454  14.473   5.373  1.00  0.00     0.179 C 
ATOM     32  C   UNL     1      24.435  16.045   5.699  1.00  0.00     0.279 C 
ATOM     33  C   UNL     1      23.267  15.635   4.768  1.00  0.00     0.201 C 
BRANCH  29  34
ATOM     34  O   UNL     1      23.975  12.746   4.668  1.00  0.00    -0.387 OA
ATOM     35  H   UNL     1      23.225  12.398   4.120  1.00  0.00     0.211 HD
ENDBRANCH  29  34
BRANCH  31  36
ATOM     36  O   UNL     1      21.713  14.910   6.486  1.00  0.00    -0.387 OA
ATOM     37  H   UNL     1      22.068  14.429   7.279  1.00  0.00     0.211 HD
ENDBRANCH  31  36
BRANCH  32  38
ATOM     38  O   UNL     1      23.970  16.678   6.868  1.00  0.00    -0.366 OA
ATOM     39  H   UNL     1      24.505  17.506   6.983  1.00  0.00     0.213 HD
ENDBRANCH  32  38
BRANCH  33  40
ATOM     40  O   UNL     1      22.422  16.729   4.515  1.00  0.00    -0.385 OA
ATOM     41  H   UNL     1      21.691  16.396   3.930  1.00  0.00     0.211 HD
ENDBRANCH  33  40
ENDBRANCH  27  28
ENDBRANCH   1  27
TORSDOF 12
ENDMDL
MODEL 9
REMARK VINA RESULT:    -5.305      2.033      7.626
REMARK INTER + INTRA:          -8.865
REMARK INTER:                  -8.107
REMARK INTRA:                  -0.759
REMARK UNBOUND:                -1.080
REMARK SMILES O=c1c(OC[C@H]2O[C@H](O)[C@H](O)[C@H](O)[C@H]2O)c(-c2ccc(O)c(O)c2)oc2cc(O)cc(O)c12
REMARK SMILES IDX 4 1 3 2 16 3 25 4 2 5 26 6 1 7 33 8 27 9 31 10 28 11 30 12
REMARK SMILES IDX 17 13 18 14 19 15 20 16 24 17 22 18 21 19 23 21 32 23 29 25
REMARK SMILES IDX 5 27 6 28 14 29 7 30 12 31 8 32 10 33 15 34 13 36 9 38 11 40
REMARK H PARENT 21 20 23 22 32 24 29 26 15 35 13 37 9 39 11 41
REMARK Flexibility Score: inf
ROOT
ATOM      1  O   UNL     1      12.270   3.228   2.214  1.00  0.00    -0.483 OA
ENDROOT
BRANCH   1   2
ATOM      2  C   UNL     1      12.750   2.301   1.281  1.00  0.00     0.211 A 
ATOM      3  C   UNL     1      12.410   0.933   1.340  1.00  0.00     0.180 A 
ATOM      4  O   UNL     1      12.962   0.078   0.485  1.00  0.00    -0.452 OA
ATOM      5  C   UNL     1      13.606   2.740   0.266  1.00  0.00     0.239 A 
ATOM      6  C   UNL     1      13.804   0.448  -0.473  1.00  0.00     0.146 A 
ATOM      7  O   UNL     1      13.887   3.967   0.188  1.00  0.00    -0.285 OA
ATOM      8  C   UNL     1      14.156   1.808  -0.637  1.00  0.00     0.111 A 
ATOM      9  C   UNL     1      14.333  -0.525  -1.328  1.00  0.00     0.094 A 
ATOM     10  C   UNL     1      15.044   2.170  -1.678  1.00  0.00     0.134 A 
ATOM     11  C   UNL     1      15.211  -0.161  -2.354  1.00  0.00     0.123 A 
ATOM     12  C   UNL     1      15.562   1.180  -2.526  1.00  0.00     0.093 A 
BRANCH   3  13
ATOM     13  C   UNL     1      11.437   0.405   2.320  1.00  0.00     0.025 A 
ATOM     14  C   UNL     1      10.076   0.350   1.989  1.00  0.00     0.016 A 
ATOM     15  C   UNL     1       9.148  -0.152   2.904  1.00  0.00     0.051 A 
ATOM     16  C   UNL     1       9.568  -0.594   4.167  1.00  0.00     0.157 A 
ATOM     17  C   UNL     1      11.852  -0.010   3.596  1.00  0.00     0.062 A 
ATOM     18  C   UNL     1      10.928  -0.517   4.515  1.00  0.00     0.158 A 
BRANCH  16  19
ATOM     19  O   UNL     1       8.641  -1.101   5.077  1.00  0.00    -0.504 OA
ATOM     20  H   UNL     1       8.884  -1.842   5.723  1.00  0.00     0.293 HD
ENDBRANCH  16  19
BRANCH  18  21
ATOM     21  O   UNL     1      11.377  -0.938   5.766  1.00  0.00    -0.504 OA
ATOM     22  H   UNL     1      11.539  -0.288   6.526  1.00  0.00     0.293 HD
ENDBRANCH  18  21
ENDBRANCH   3  13
BRANCH  10  23
ATOM     23  O   UNL     1      15.416   3.500  -1.875  1.00  0.00    -0.507 OA
ATOM     24  H   UNL     1      15.991   3.784  -2.660  1.00  0.00     0.293 HD
ENDBRANCH  10  23
BRANCH  11  25
ATOM     25  O   UNL     1      15.741  -1.125  -3.210  1.00  0.00    -0.508 OA
ATOM     26  H   UNL     1      15.831  -2.094  -2.925  1.00  0.00     0.293 HD
ENDBRANCH  11  25
ENDBRANCH   1   2
BRANCH   1  27
ATOM     27  C   UNL     1      10.901   3.626   2.252  1.00  0.00     0.265 C 
BRANCH  27  28
ATOM     28  C   UNL     1      10.485   4.281   0.930  1.00  0.00     0.190 C 
ATOM     29  C   UNL     1       9.184   5.104   1.074  1.00  0.00     0.178 C 
ATOM     30  O   UNL     1      10.344   3.279  -0.066  1.00  0.00    -0.340 OA
ATOM     31  C   UNL     1       8.849   5.766  -0.274  1.00  0.00     0.179 C 
ATOM     32  C   UNL     1      10.136   3.848  -1.351  1.00  0.00     0.279 C 
ATOM     33  C   UNL     1       8.845   4.703  -1.389  1.00  0.00     0.201 C 
BRANCH  29  34
ATOM     34  O   UNL     1       8.125   4.268   1.466  1.00  0.00    -0.387 OA
ATOM     35  H   UNL     1       7.642   4.738   2.195  1.00  0.00     0.211 HD
ENDBRANCH  29  34
BRANCH  31  36
ATOM     36  O   UNL     1       9.793   6.772  -0.547  1.00  0.00    -0.387 OA
ATOM     37  H   UNL     1       9.537   7.566  -0.008  1.00  0.00     0.211 HD
ENDBRANCH  31  36
BRANCH  32  38
ATOM     38  O   UNL     1      11.263   4.590  -1.751  1.00  0.00    -0.366 OA
ATOM     39  H   UNL     1      11.017   5.549  -1.691  1.00  0.00     0.213 HD
ENDBRANCH  32  38
BRANCH  33  40
ATOM     40  O   UNL     1       8.692   5.322  -2.641  1.00  0.00    -0.385 OA
ATOM     41  H   UNL     1       7.872   4.939  -3.050  1.00  0.00     0.211 HD
ENDBRANCH  33  40
ENDBRANCH  27  28
ENDBRANCH   1  27
TORSDOF 12
ENDMDL
