MODEL 1
REMARK VINA RESULT:    -5.396      0.000      0.000
REMARK INTER + INTRA:          -6.263
REMARK INTER:                  -6.185
REMARK INTRA:                  -0.078
REMARK UNBOUND:                -0.078
REMARK SMILES COc1cc(C(=O)[O-])ccc1O
REMARK SMILES IDX 5 1 9 2 4 3 10 4 3 5 11 6 6 7 7 8 8 9 2 10 1 11 12 12
REMARK H PARENT 12 13
REMARK Flexibility Score: inf
ROOT
ATOM      1  C   UNL     1       1.339  -1.448   2.065  1.00  0.00     0.001 A 
ATOM      2  C   UNL     1       1.773  -2.764   2.297  1.00  0.00     0.014 A 
ATOM      3  C   UNL     1       0.137  -1.012   2.652  1.00  0.00     0.060 A 
ATOM      4  C   UNL     1       1.022  -3.625   3.098  1.00  0.00     0.051 A 
ATOM      5  C   UNL     1      -0.625  -1.877   3.462  1.00  0.00     0.161 A 
ATOM      6  C   UNL     1      -0.172  -3.190   3.681  1.00  0.00     0.157 A 
ENDROOT
BRANCH   1   7
ATOM      7  C   UNL     1       2.132  -0.532   1.215  1.00  0.00     0.072 C 
ATOM      8  O   UNL     1       1.635  -0.037   0.169  1.00  0.00    -0.545 OA
ATOM      9  O   UNL     1       3.439  -0.205   1.558  1.00  0.00    -0.545 OA
ENDBRANCH   1   7
BRANCH   5  10
ATOM     10  O   UNL     1      -1.827  -1.469   4.061  1.00  0.00    -0.493 OA
ATOM     11  C   UNL     1      -1.931  -0.903   5.364  1.00  0.00     0.278 C 
ENDBRANCH   5  10
BRANCH   6  12
ATOM     12  O   UNL     1      -0.894  -4.080   4.476  1.00  0.00    -0.504 OA
ATOM     13  H   UNL     1      -0.703  -4.200   5.464  1.00  0.00     0.293 HD
ENDBRANCH   6  12
TORSDOF 3
ENDMDL
MODEL 2
REMARK VINA RESULT:    -5.197      4.489      6.839
REMARK INTER + INTRA:          -6.034
REMARK INTER:                  -5.960
REMARK INTRA:                  -0.074
REMARK UNBOUND:                -0.078
REMARK SMILES COc1cc(C(=O)[O-])ccc1O
REMARK SMILES IDX 5 1 9 2 4 3 10 4 3 5 11 6 6 7 7 8 8 9 2 10 1 11 12 12
REMARK H PARENT 12 13
REMARK Flexibility Score: inf
ROOT
ATOM      1  C   UNL     1       5.742  -1.020  -2.170  1.00  0.00     0.001 A 
ATOM      2  C   UNL     1       5.403  -1.154  -3.527  1.00  0.00     0.014 A 
ATOM      3  C   UNL     1       4.716  -0.848  -1.223  1.00  0.00     0.060 A 
ATOM      4  C   UNL     1       4.067  -1.117  -3.927  1.00  0.00     0.051 A 
ATOM      5  C   UNL     1       3.366  -0.810  -1.623  1.00  0.00     0.161 A 
ATOM      6  C   UNL     1       3.048  -0.945  -2.986  1.00  0.00     0.157 A 
ENDROOT
BRANCH   1   7
ATOM      7  C   UNL     1       7.158  -1.059  -1.740  1.00  0.00     0.072 C 
ATOM      8  O   UNL     1       7.670  -0.082  -1.133  1.00  0.00    -0.545 OA
ATOM      9  O   UNL     1       7.945  -2.175  -2.002  1.00  0.00    -0.545 OA
ENDBRANCH   1   7
BRANCH   5  10
ATOM     10  O   UNL     1       2.321  -0.639  -0.700  1.00  0.00    -0.493 OA
ATOM     11  C   UNL     1       2.489  -0.606   0.714  1.00  0.00     0.278 C 
ENDBRANCH   5  10
BRANCH   6  12
ATOM     12  O   UNL     1       1.725  -0.914  -3.425  1.00  0.00    -0.504 OA
ATOM     13  H   UNL     1       1.473  -0.626  -4.364  1.00  0.00     0.293 HD
ENDBRANCH   6  12
TORSDOF 3
ENDMDL
MODEL 3
REMARK VINA RESULT:    -5.161      4.020      6.622
REMARK INTER + INTRA:          -5.994
REMARK INTER:                  -5.902
REMARK INTRA:                  -0.092
REMARK UNBOUND:                -0.078
REMARK SMILES COc1cc(C(=O)[O-])ccc1O
REMARK SMILES IDX 5 1 9 2 4 3 10 4 3 5 11 6 6 7 7 8 8 9 2 10 1 11 12 12
REMARK H PARENT 12 13
REMARK Flexibility Score: inf
ROOT
ATOM      1  C   UNL     1       3.137  -1.512  -0.433  1.00  0.00     0.001 A 
ATOM      2  C   UNL     1       3.535  -2.810  -0.070  1.00  0.00     0.014 A 
ATOM      3  C   UNL     1       3.247  -1.115  -1.778  1.00  0.00     0.060 A 
ATOM      4  C   UNL     1       4.032  -3.691  -1.031  1.00  0.00     0.051 A 
ATOM      5  C   UNL     1       3.748  -2.002  -2.752  1.00  0.00     0.161 A 
ATOM      6  C   UNL     1       4.141  -3.296  -2.367  1.00  0.00     0.157 A 
ENDROOT
BRANCH   1   7
ATOM      7  C   UNL     1       2.610  -0.574   0.584  1.00  0.00     0.072 C 
ATOM      8  O   UNL     1       1.433  -0.135   0.500  1.00  0.00    -0.545 OA
ATOM      9  O   UNL     1       3.408  -0.163   1.645  1.00  0.00    -0.545 OA
ENDBRANCH   1   7
BRANCH   5  10
ATOM     10  O   UNL     1       3.868  -1.633  -4.102  1.00  0.00    -0.493 OA
ATOM     11  C   UNL     1       5.001  -0.979  -4.664  1.00  0.00     0.278 C 
ENDBRANCH   5  10
BRANCH   6  12
ATOM     12  O   UNL     1       4.641  -4.206  -3.298  1.00  0.00    -0.504 OA
ATOM     13  H   UNL     1       4.683  -5.201  -3.114  1.00  0.00     0.293 HD
ENDBRANCH   6  12
TORSDOF 3
ENDMDL
MODEL 4
REMARK VINA RESULT:    -4.991     11.985     12.755
REMARK INTER + INTRA:          -5.798
REMARK INTER:                  -5.718
REMARK INTRA:                  -0.080
REMARK UNBOUND:                -0.078
REMARK SMILES COc1cc(C(=O)[O-])ccc1O
REMARK SMILES IDX 5 1 9 2 4 3 10 4 3 5 11 6 6 7 7 8 8 9 2 10 1 11 12 12
REMARK H PARENT 12 13
REMARK Flexibility Score: inf
ROOT
ATOM      1  C   UNL     1      -8.158  -1.260  -6.350  1.00  0.00     0.001 A 
ATOM      2  C   UNL     1      -8.357  -0.081  -7.088  1.00  0.00     0.014 A 
ATOM      3  C   UNL     1      -8.538  -1.291  -4.996  1.00  0.00     0.060 A 
ATOM      4  C   UNL     1      -8.923   1.042  -6.485  1.00  0.00     0.051 A 
ATOM      5  C   UNL     1      -9.111  -0.159  -4.383  1.00  0.00     0.161 A 
ATOM      6  C   UNL     1      -9.300   1.011  -5.140  1.00  0.00     0.157 A 
ENDROOT
BRANCH   1   7
ATOM      7  C   UNL     1      -7.557  -2.455  -6.986  1.00  0.00     0.072 C 
ATOM      8  O   UNL     1      -6.981  -2.364  -8.103  1.00  0.00    -0.545 OA
ATOM      9  O   UNL     1      -7.621  -3.694  -6.360  1.00  0.00    -0.545 OA
ENDBRANCH   1   7
BRANCH   5  10
ATOM     10  O   UNL     1      -9.501  -0.162  -3.034  1.00  0.00    -0.493 OA
ATOM     11  C   UNL     1      -9.239  -1.220  -2.118  1.00  0.00     0.278 C 
ENDBRANCH   5  10
BRANCH   6  12
ATOM     12  O   UNL     1      -9.864   2.154  -4.573  1.00  0.00    -0.504 OA
ATOM     13  H   UNL     1     -10.633   2.108  -3.915  1.00  0.00     0.293 HD
ENDBRANCH   6  12
TORSDOF 3
ENDMDL
MODEL 5
REMARK VINA RESULT:    -4.974      5.785      7.487
REMARK INTER + INTRA:          -5.779
REMARK INTER:                  -5.701
REMARK INTRA:                  -0.078
REMARK UNBOUND:                -0.078
REMARK SMILES COc1cc(C(=O)[O-])ccc1O
REMARK SMILES IDX 5 1 9 2 4 3 10 4 3 5 11 6 6 7 7 8 8 9 2 10 1 11 12 12
REMARK H PARENT 12 13
REMARK Flexibility Score: inf
ROOT
ATOM      1  C   UNL     1       5.014  -0.790  -0.800  1.00  0.00     0.001 A 
ATOM      2  C   UNL     1       3.651  -0.846  -0.462  1.00  0.00     0.014 A 
ATOM      3  C   UNL     1       5.384  -0.839  -2.156  1.00  0.00     0.060 A 
ATOM      4  C   UNL     1       2.680  -0.950  -1.459  1.00  0.00     0.051 A 
ATOM      5  C   UNL     1       4.407  -0.943  -3.166  1.00  0.00     0.161 A 
ATOM      6  C   UNL     1       3.049  -0.998  -2.805  1.00  0.00     0.157 A 
ENDROOT
BRANCH   1   7
ATOM      7  C   UNL     1       6.047  -0.680   0.255  1.00  0.00     0.072 C 
ATOM      8  O   UNL     1       6.823  -1.644   0.493  1.00  0.00    -0.545 OA
ATOM      9  O   UNL     1       6.177   0.488   0.997  1.00  0.00    -0.545 OA
ENDBRANCH   1   7
BRANCH   5  10
ATOM     10  O   UNL     1       4.748  -0.993  -4.527  1.00  0.00    -0.493 OA
ATOM     11  C   UNL     1       5.868  -1.696  -5.056  1.00  0.00     0.278 C 
ENDBRANCH   5  10
BRANCH   6  12
ATOM     12  O   UNL     1       2.049  -1.101  -3.773  1.00  0.00    -0.504 OA
ATOM     13  H   UNL     1       2.199  -1.574  -4.656  1.00  0.00     0.293 HD
ENDBRANCH   6  12
TORSDOF 3
ENDMDL
MODEL 6
REMARK VINA RESULT:    -4.972      4.561      7.822
REMARK INTER + INTRA:          -5.777
REMARK INTER:                  -5.677
REMARK INTRA:                  -0.100
REMARK UNBOUND:                -0.078
REMARK SMILES COc1cc(C(=O)[O-])ccc1O
REMARK SMILES IDX 5 1 9 2 4 3 10 4 3 5 11 6 6 7 7 8 8 9 2 10 1 11 12 12
REMARK H PARENT 12 13
REMARK Flexibility Score: inf
ROOT
ATOM      1  C   UNL     1       3.485  -0.907  -1.335  1.00  0.00     0.001 A 
ATOM      2  C   UNL     1       2.803  -0.948  -2.562  1.00  0.00     0.014 A 
ATOM      3  C   UNL     1       4.891  -0.972  -1.331  1.00  0.00     0.060 A 
ATOM      4  C   UNL     1       3.510  -1.052  -3.760  1.00  0.00     0.051 A 
ATOM      5  C   UNL     1       5.609  -1.076  -2.539  1.00  0.00     0.161 A 
ATOM      6  C   UNL     1       4.906  -1.117  -3.756  1.00  0.00     0.157 A 
ENDROOT
BRANCH   1   7
ATOM      7  C   UNL     1       2.738  -0.797  -0.061  1.00  0.00     0.072 C 
ATOM      8  O   UNL     1       3.158  -1.371   0.979  1.00  0.00    -0.545 OA
ATOM      9  O   UNL     1       1.563  -0.059   0.006  1.00  0.00    -0.545 OA
ENDBRANCH   1   7
BRANCH   5  10
ATOM     10  O   UNL     1       7.012  -1.143  -2.566  1.00  0.00    -0.493 OA
ATOM     11  C   UNL     1       7.769  -2.334  -2.382  1.00  0.00     0.278 C 
ENDBRANCH   5  10
BRANCH   6  12
ATOM     12  O   UNL     1       5.578  -1.219  -4.975  1.00  0.00    -0.504 OA
ATOM     13  H   UNL     1       6.402  -0.669  -5.186  1.00  0.00     0.293 HD
ENDBRANCH   6  12
TORSDOF 3
ENDMDL
MODEL 7
REMARK VINA RESULT:    -4.972      1.507      4.907
REMARK INTER + INTRA:          -5.777
REMARK INTER:                  -5.709
REMARK INTRA:                  -0.067
REMARK UNBOUND:                -0.078
REMARK SMILES COc1cc(C(=O)[O-])ccc1O
REMARK SMILES IDX 5 1 9 2 4 3 10 4 3 5 11 6 6 7 7 8 8 9 2 10 1 11 12 12
REMARK H PARENT 12 13
REMARK Flexibility Score: inf
ROOT
ATOM      1  C   UNL     1       1.062  -1.372   3.016  1.00  0.00     0.001 A 
ATOM      2  C   UNL     1       2.169  -1.330   3.880  1.00  0.00     0.014 A 
ATOM      3  C   UNL     1       1.227  -0.983   1.674  1.00  0.00     0.060 A 
ATOM      4  C   UNL     1       3.414  -0.908   3.412  1.00  0.00     0.051 A 
ATOM      5  C   UNL     1       2.483  -0.558   1.197  1.00  0.00     0.161 A 
ATOM      6  C   UNL     1       3.577  -0.522   2.079  1.00  0.00     0.157 A 
ENDROOT
BRANCH   1   7
ATOM      7  C   UNL     1      -0.261  -1.818   3.508  1.00  0.00     0.072 C 
ATOM      8  O   UNL     1      -1.198  -0.991   3.665  1.00  0.00    -0.545 OA
ATOM      9  O   UNL     1      -0.489  -3.157   3.804  1.00  0.00    -0.545 OA
ENDBRANCH   1   7
BRANCH   5  10
ATOM     10  O   UNL     1       2.677  -0.165  -0.137  1.00  0.00    -0.493 OA
ATOM     11  C   UNL     1       3.132  -1.026  -1.176  1.00  0.00     0.278 C 
ENDBRANCH   5  10
BRANCH   6  12
ATOM     12  O   UNL     1       4.838  -0.108   1.649  1.00  0.00    -0.504 OA
ATOM     13  H   UNL     1       5.633  -0.735   1.619  1.00  0.00     0.293 HD
ENDBRANCH   6  12
TORSDOF 3
ENDMDL
MODEL 8
REMARK VINA RESULT:    -4.960      2.483      3.954
REMARK INTER + INTRA:          -5.763
REMARK INTER:                  -5.690
REMARK INTRA:                  -0.073
REMARK UNBOUND:                -0.078
REMARK SMILES COc1cc(C(=O)[O-])ccc1O
REMARK SMILES IDX 5 1 9 2 4 3 10 4 3 5 11 6 6 7 7 8 8 9 2 10 1 11 12 12
REMARK H PARENT 12 13
REMARK Flexibility Score: inf
ROOT
ATOM      1  C   UNL     1       3.277  -1.391   3.570  1.00  0.00     0.001 A 
ATOM      2  C   UNL     1       4.018  -0.997   2.444  1.00  0.00     0.014 A 
ATOM      3  C   UNL     1       1.872  -1.351   3.513  1.00  0.00     0.060 A 
ATOM      4  C   UNL     1       3.368  -0.573   1.284  1.00  0.00     0.051 A 
ATOM      5  C   UNL     1       1.211  -0.924   2.344  1.00  0.00     0.161 A 
ATOM      6  C   UNL     1       1.972  -0.533   1.227  1.00  0.00     0.157 A 
ENDROOT
BRANCH   1   7
ATOM      7  C   UNL     1       3.963  -1.841   4.803  1.00  0.00     0.072 C 
ATOM      8  O   UNL     1       4.346  -3.035   4.922  1.00  0.00    -0.545 OA
ATOM      9  O   UNL     1       4.193  -0.953   5.847  1.00  0.00    -0.545 OA
ENDBRANCH   1   7
BRANCH   5  10
ATOM     10  O   UNL     1      -0.190  -0.874   2.258  1.00  0.00    -0.493 OA
ATOM     11  C   UNL     1      -1.078  -1.248   3.306  1.00  0.00     0.278 C 
ENDBRANCH   5  10
BRANCH   6  12
ATOM     12  O   UNL     1       1.359  -0.104   0.050  1.00  0.00    -0.504 OA
ATOM     13  H   UNL     1       1.732  -0.324  -0.865  1.00  0.00     0.293 HD
ENDBRANCH   6  12
TORSDOF 3
ENDMDL
MODEL 9
REMARK VINA RESULT:    -4.873      3.424      6.550
REMARK INTER + INTRA:          -5.663
REMARK INTER:                  -5.583
REMARK INTRA:                  -0.080
REMARK UNBOUND:                -0.078
REMARK SMILES COc1cc(C(=O)[O-])ccc1O
REMARK SMILES IDX 5 1 9 2 4 3 10 4 3 5 11 6 6 7 7 8 8 9 2 10 1 11 12 12
REMARK H PARENT 12 13
REMARK Flexibility Score: inf
ROOT
ATOM      1  C   UNL     1       3.351  -0.854   0.290  1.00  0.00     0.001 A 
ATOM      2  C   UNL     1       4.703  -0.834   0.671  1.00  0.00     0.014 A 
ATOM      3  C   UNL     1       3.028  -0.904  -1.079  1.00  0.00     0.060 A 
ATOM      4  C   UNL     1       5.710  -0.863  -0.294  1.00  0.00     0.051 A 
ATOM      5  C   UNL     1       4.042  -0.935  -2.057  1.00  0.00     0.161 A 
ATOM      6  C   UNL     1       5.389  -0.914  -1.653  1.00  0.00     0.157 A 
ENDROOT
BRANCH   1   7
ATOM      7  C   UNL     1       2.280  -0.822   1.311  1.00  0.00     0.072 C 
ATOM      8  O   UNL     1       1.104  -0.498   0.995  1.00  0.00    -0.545 OA
ATOM      9  O   UNL     1       2.556  -1.149   2.633  1.00  0.00    -0.545 OA
ENDBRANCH   1   7
BRANCH   5  10
ATOM     10  O   UNL     1       3.749  -0.986  -3.430  1.00  0.00    -0.493 OA
ATOM     11  C   UNL     1       2.434  -0.995  -3.977  1.00  0.00     0.278 C 
ENDBRANCH   5  10
BRANCH   6  12
ATOM     12  O   UNL     1       6.423  -0.943  -2.588  1.00  0.00    -0.504 OA
ATOM     13  H   UNL     1       6.384  -0.418  -3.454  1.00  0.00     0.293 HD
ENDBRANCH   6  12
TORSDOF 3
ENDMDL
