MODEL 1
REMARK VINA RESULT:    -3.894      0.000      0.000
REMARK INTER + INTRA:          -6.338
REMARK INTER:                  -5.943
REMARK INTRA:                  -0.395
REMARK UNBOUND:                -0.395
REMARK SMILES CCCCCCCCCCC(=O)[O-]
REMARK SMILES IDX 7 1 8 2 9 3 10 4 11 5 12 6 13 7 6 8 5 9 4 10 3 11 2 12 1 13
REMARK H PARENT
REMARK Flexibility Score: inf
ROOT
ATOM      1  C   UNL     1      -2.784  37.506  19.665  1.00  0.00     0.000 C 
ENDROOT
BRANCH   1   2
ATOM      2  C   UNL     1      -4.313  37.488  19.490  1.00  0.00     0.000 C 
BRANCH   2   3
ATOM      3  C   UNL     1      -4.964  36.220  20.070  1.00  0.00     0.006 C 
BRANCH   3   4
ATOM      4  C   UNL     1      -5.125  36.296  21.593  1.00  0.00     0.053 C 
BRANCH   4   5
ATOM      5  C   UNL     1      -4.429  35.162  22.283  1.00  0.00     0.041 C 
ATOM      6  O   UNL     1      -3.370  34.679  21.801  1.00  0.00    -0.550 OA
ATOM      7  O   UNL     1      -4.935  34.659  23.475  1.00  0.00    -0.550 OA
ENDBRANCH   4   5
ENDBRANCH   3   4
ENDBRANCH   2   3
ENDBRANCH   1   2
BRANCH   1   8
ATOM      8  C   UNL     1      -1.979  37.628  18.356  1.00  0.00     0.000 C 
BRANCH   8   9
ATOM      9  C   UNL     1      -2.703  37.124  17.091  1.00  0.00    -0.000 C 
BRANCH   9  10
ATOM     10  C   UNL     1      -1.775  36.725  15.928  1.00  0.00    -0.000 C 
BRANCH  10  11
ATOM     11  C   UNL     1      -2.540  36.439  14.627  1.00  0.00    -0.000 C 
BRANCH  11  12
ATOM     12  C   UNL     1      -3.986  36.940  14.720  1.00  0.00    -0.003 C 
ATOM     13  C   UNL     1      -4.102  38.381  14.233  1.00  0.00     0.004 C 
ENDBRANCH  11  12
ENDBRANCH  10  11
ENDBRANCH   9  10
ENDBRANCH   8   9
ENDBRANCH   1   8
TORSDOF 9
ENDMDL
MODEL 2
REMARK VINA RESULT:    -2.586      2.286      3.361
REMARK INTER + INTRA:          -4.342
REMARK INTER:                  -3.866
REMARK INTRA:                  -0.476
REMARK UNBOUND:                -0.395
REMARK SMILES CCCCCCCCCCC(=O)[O-]
REMARK SMILES IDX 7 1 8 2 9 3 10 4 11 5 12 6 13 7 6 8 5 9 4 10 3 11 2 12 1 13
REMARK H PARENT
REMARK Flexibility Score: inf
ROOT
ATOM      1  C   UNL     1      -5.058  35.045  19.332  1.00  0.00     0.000 C 
ENDROOT
BRANCH   1   2
ATOM      2  C   UNL     1      -4.870  36.502  19.791  1.00  0.00     0.000 C 
BRANCH   2   3
ATOM      3  C   UNL     1      -3.448  36.786  20.304  1.00  0.00     0.006 C 
BRANCH   3   4
ATOM      4  C   UNL     1      -2.761  37.907  19.515  1.00  0.00     0.053 C 
BRANCH   4   5
ATOM      5  C   UNL     1      -1.275  37.724  19.467  1.00  0.00     0.041 C 
ATOM      6  O   UNL     1      -0.671  37.175  20.426  1.00  0.00    -0.550 OA
ATOM      7  O   UNL     1      -0.560  38.134  18.348  1.00  0.00    -0.550 OA
ENDBRANCH   4   5
ENDBRANCH   3   4
ENDBRANCH   2   3
ENDBRANCH   1   2
BRANCH   1   8
ATOM      8  C   UNL     1      -4.511  34.728  17.926  1.00  0.00     0.000 C 
BRANCH   8   9
ATOM      9  C   UNL     1      -4.054  35.953  17.108  1.00  0.00    -0.000 C 
BRANCH   9  10
ATOM     10  C   UNL     1      -2.704  35.784  16.386  1.00  0.00    -0.000 C 
BRANCH  10  11
ATOM     11  C   UNL     1      -2.399  36.935  15.416  1.00  0.00    -0.000 C 
BRANCH  11  12
ATOM     12  C   UNL     1      -3.420  36.972  14.272  1.00  0.00    -0.003 C 
ATOM     13  C   UNL     1      -4.193  38.288  14.266  1.00  0.00     0.004 C 
ENDBRANCH  11  12
ENDBRANCH  10  11
ENDBRANCH   9  10
ENDBRANCH   8   9
ENDBRANCH   1   8
TORSDOF 9
ENDMDL
MODEL 3
REMARK VINA RESULT:    -2.252      3.688      5.858
REMARK INTER + INTRA:          -3.831
REMARK INTER:                  -2.788
REMARK INTRA:                  -1.044
REMARK UNBOUND:                -0.395
REMARK SMILES CCCCCCCCCCC(=O)[O-]
REMARK SMILES IDX 7 1 8 2 9 3 10 4 11 5 12 6 13 7 6 8 5 9 4 10 3 11 2 12 1 13
REMARK H PARENT
REMARK Flexibility Score: inf
ROOT
ATOM      1  C   UNL     1      -4.964  35.593  18.094  1.00  0.00     0.000 C 
ENDROOT
BRANCH   1   2
ATOM      2  C   UNL     1      -3.872  34.868  17.289  1.00  0.00     0.000 C 
BRANCH   2   3
ATOM      3  C   UNL     1      -2.885  35.837  16.615  1.00  0.00     0.006 C 
BRANCH   3   4
ATOM      4  C   UNL     1      -3.535  37.185  16.280  1.00  0.00     0.053 C 
BRANCH   4   5
ATOM      5  C   UNL     1      -3.583  37.429  14.803  1.00  0.00     0.041 C 
ATOM      6  O   UNL     1      -3.092  36.588  14.004  1.00  0.00    -0.550 OA
ATOM      7  O   UNL     1      -4.198  38.572  14.307  1.00  0.00    -0.550 OA
ENDBRANCH   4   5
ENDBRANCH   3   4
ENDBRANCH   2   3
ENDBRANCH   1   2
BRANCH   1   8
ATOM      8  C   UNL     1      -5.037  35.211  19.586  1.00  0.00     0.000 C 
BRANCH   8   9
ATOM      9  C   UNL     1      -4.912  36.390  20.573  1.00  0.00    -0.000 C 
BRANCH   9  10
ATOM     10  C   UNL     1      -4.066  37.573  20.067  1.00  0.00    -0.000 C 
BRANCH  10  11
ATOM     11  C   UNL     1      -2.557  37.292  20.121  1.00  0.00    -0.000 C 
BRANCH  11  12
ATOM     12  C   UNL     1      -1.798  38.184  19.130  1.00  0.00    -0.003 C 
ATOM     13  C   UNL     1      -0.423  37.606  18.809  1.00  0.00     0.004 C 
ENDBRANCH  11  12
ENDBRANCH  10  11
ENDBRANCH   9  10
ENDBRANCH   8   9
ENDBRANCH   1   8
TORSDOF 9
ENDMDL
MODEL 4
REMARK VINA RESULT:    -1.425      1.730      2.323
REMARK INTER + INTRA:          -2.570
REMARK INTER:                  -2.075
REMARK INTRA:                  -0.494
REMARK UNBOUND:                -0.395
REMARK SMILES CCCCCCCCCCC(=O)[O-]
REMARK SMILES IDX 7 1 8 2 9 3 10 4 11 5 12 6 13 7 6 8 5 9 4 10 3 11 2 12 1 13
REMARK H PARENT
REMARK Flexibility Score: inf
ROOT
ATOM      1  C   UNL     1      -4.216  35.681  17.067  1.00  0.00     0.000 C 
ENDROOT
BRANCH   1   2
ATOM      2  C   UNL     1      -4.568  34.353  17.761  1.00  0.00     0.000 C 
BRANCH   2   3
ATOM      3  C   UNL     1      -5.101  34.551  19.191  1.00  0.00     0.006 C 
BRANCH   3   4
ATOM      4  C   UNL     1      -5.112  36.027  19.606  1.00  0.00     0.053 C 
BRANCH   4   5
ATOM      5  C   UNL     1      -4.667  36.211  21.024  1.00  0.00     0.041 C 
ATOM      6  O   UNL     1      -3.921  35.357  21.571  1.00  0.00    -0.550 OA
ATOM      7  O   UNL     1      -5.052  37.343  21.732  1.00  0.00    -0.550 OA
ENDBRANCH   4   5
ENDBRANCH   3   4
ENDBRANCH   2   3
ENDBRANCH   1   2
BRANCH   1   8
ATOM      8  C   UNL     1      -2.779  35.766  16.514  1.00  0.00     0.000 C 
BRANCH   8   9
ATOM      9  C   UNL     1      -2.248  37.196  16.283  1.00  0.00    -0.000 C 
BRANCH   9  10
ATOM     10  C   UNL     1      -3.273  38.181  15.692  1.00  0.00    -0.000 C 
BRANCH  10  11
ATOM     11  C   UNL     1      -3.671  37.834  14.250  1.00  0.00    -0.000 C 
BRANCH  11  12
ATOM     12  C   UNL     1      -5.004  38.494  13.875  1.00  0.00    -0.003 C 
ATOM     13  C   UNL     1      -4.916  40.013  13.981  1.00  0.00     0.004 C 
ENDBRANCH  11  12
ENDBRANCH  10  11
ENDBRANCH   9  10
ENDBRANCH   8   9
ENDBRANCH   1   8
TORSDOF 9
ENDMDL
