MODEL 1
REMARK VINA RESULT:    -7.473      0.000      0.000
REMARK INTER + INTRA:         -12.601
REMARK INTER:                 -11.624
REMARK INTRA:                  -0.977
REMARK UNBOUND:                -0.977
REMARK SMILES COc1cc(CNC(=O)CCCCC=CC(C)C)ccc1O
REMARK SMILES IDX 11 1 12 2 13 3 14 4 15 5 16 6 17 7 18 8 10 9 8 10 9 11 7 12
REMARK SMILES IDX 6 14 5 15 4 16 19 17 3 18 20 19 21 20 2 21 1 22 22 23
REMARK H PARENT 7 13 22 24
REMARK Flexibility Score: inf
ROOT
ATOM      1  C   UNL     1      -1.156  45.548   0.436  1.00  0.00     0.010 C 
ENDROOT
BRANCH   1   2
ATOM      2  C   UNL     1      -0.437  44.388   1.146  1.00  0.00     0.005 C 
BRANCH   2   3
ATOM      3  C   UNL     1       1.091  44.464   0.984  1.00  0.00     0.027 C 
BRANCH   3   4
ATOM      4  C   UNL     1       1.728  45.148   2.160  1.00  0.00    -0.031 C 
ATOM      5  C   UNL     1       3.058  45.138   2.345  1.00  0.00    -0.028 C 
BRANCH   5   6
ATOM      6  C   UNL     1       3.727  45.787   3.536  1.00  0.00     0.005 C 
ATOM      7  C   UNL     1       2.709  46.521   4.417  1.00  0.00     0.012 C 
ATOM      8  C   UNL     1       4.531  44.766   4.346  1.00  0.00     0.012 C 
ENDBRANCH   5   6
ENDBRANCH   3   4
ENDBRANCH   2   3
ENDBRANCH   1   2
BRANCH   1   9
ATOM      9  C   UNL     1      -1.868  45.096  -0.847  1.00  0.00     0.100 C 
BRANCH   9  10
ATOM     10  C   UNL     1      -1.039  45.441  -2.048  1.00  0.00     0.220 C 
ATOM     11  O   UNL     1      -1.220  46.543  -2.631  1.00  0.00    -0.275 OA
ATOM     12  N   UNL     1      -0.006  44.545  -2.494  1.00  0.00    -0.352 N 
ATOM     13  H   UNL     1       0.142  43.645  -1.984  1.00  0.00     0.163 HD
BRANCH  12  14
ATOM     14  C   UNL     1       0.878  44.862  -3.614  1.00  0.00     0.151 C 
BRANCH  14  15
ATOM     15  C   UNL     1       2.303  44.504  -3.283  1.00  0.00    -0.025 A 
ATOM     16  C   UNL     1       3.292  44.555  -4.278  1.00  0.00     0.056 A 
ATOM     17  C   UNL     1       2.657  44.127  -1.978  1.00  0.00     0.009 A 
ATOM     18  C   UNL     1       4.631  44.237  -3.973  1.00  0.00     0.160 A 
ATOM     19  C   UNL     1       3.980  43.805  -1.672  1.00  0.00     0.050 A 
ATOM     20  C   UNL     1       4.968  43.859  -2.664  1.00  0.00     0.157 A 
BRANCH  18  21
ATOM     21  O   UNL     1       5.651  44.288  -4.936  1.00  0.00    -0.493 OA
ATOM     22  C   UNL     1       6.456  45.431  -5.202  1.00  0.00     0.278 C 
ENDBRANCH  18  21
BRANCH  20  23
ATOM     23  O   UNL     1       6.292  43.539  -2.357  1.00  0.00    -0.504 OA
ATOM     24  H   UNL     1       6.770  43.963  -1.570  1.00  0.00     0.293 HD
ENDBRANCH  20  23
ENDBRANCH  14  15
ENDBRANCH  12  14
ENDBRANCH   9  10
ENDBRANCH   1   9
TORSDOF 10
ENDMDL
MODEL 2
REMARK VINA RESULT:    -7.435      3.405      4.535
REMARK INTER + INTRA:         -12.541
REMARK INTER:                 -11.835
REMARK INTRA:                  -0.706
REMARK UNBOUND:                -0.977
REMARK SMILES COc1cc(CNC(=O)CCCCC=CC(C)C)ccc1O
REMARK SMILES IDX 11 1 12 2 13 3 14 4 15 5 16 6 17 7 18 8 10 9 8 10 9 11 7 12
REMARK SMILES IDX 6 14 5 15 4 16 19 17 3 18 20 19 21 20 2 21 1 22 22 23
REMARK H PARENT 7 13 22 24
REMARK Flexibility Score: inf
ROOT
ATOM      1  C   UNL     1      -2.644  43.877   4.087  1.00  0.00     0.010 C 
ENDROOT
BRANCH   1   2
ATOM      2  C   UNL     1      -3.760  44.602   4.857  1.00  0.00     0.005 C 
BRANCH   2   3
ATOM      3  C   UNL     1      -3.289  45.095   6.236  1.00  0.00     0.027 C 
BRANCH   3   4
ATOM      4  C   UNL     1      -2.100  46.006   6.110  1.00  0.00    -0.031 C 
ATOM      5  C   UNL     1      -1.415  46.422   7.188  1.00  0.00    -0.028 C 
BRANCH   5   6
ATOM      6  C   UNL     1      -0.237  47.366   7.097  1.00  0.00     0.005 C 
ATOM      7  C   UNL     1       0.266  47.768   8.488  1.00  0.00     0.012 C 
ATOM      8  C   UNL     1       0.890  46.769   6.248  1.00  0.00     0.012 C 
ENDBRANCH   5   6
ENDBRANCH   3   4
ENDBRANCH   2   3
ENDBRANCH   1   2
BRANCH   1   9
ATOM      9  C   UNL     1      -2.597  44.283   2.606  1.00  0.00     0.100 C 
BRANCH   9  10
ATOM     10  C   UNL     1      -1.242  44.820   2.258  1.00  0.00     0.220 C 
ATOM     11  O   UNL     1      -0.809  45.843   2.851  1.00  0.00    -0.275 OA
ATOM     12  N   UNL     1      -0.419  44.137   1.296  1.00  0.00    -0.352 N 
ATOM     13  H   UNL     1      -0.789  43.277   0.829  1.00  0.00     0.163 HD
BRANCH  12  14
ATOM     14  C   UNL     1       0.937  44.575   0.970  1.00  0.00     0.151 C 
BRANCH  14  15
ATOM     15  C   UNL     1       1.153  44.566  -0.520  1.00  0.00    -0.025 A 
ATOM     16  C   UNL     1       2.418  44.259  -1.047  1.00  0.00     0.056 A 
ATOM     17  C   UNL     1       0.094  44.854  -1.395  1.00  0.00     0.009 A 
ATOM     18  C   UNL     1       2.626  44.233  -2.441  1.00  0.00     0.160 A 
ATOM     19  C   UNL     1       0.296  44.836  -2.776  1.00  0.00     0.050 A 
ATOM     20  C   UNL     1       1.557  44.527  -3.301  1.00  0.00     0.157 A 
BRANCH  18  21
ATOM     21  O   UNL     1       3.871  43.918  -3.007  1.00  0.00    -0.493 OA
ATOM     22  C   UNL     1       4.954  43.325  -2.300  1.00  0.00     0.278 C 
ENDBRANCH  18  21
BRANCH  20  23
ATOM     23  O   UNL     1       1.757  44.507  -4.683  1.00  0.00    -0.504 OA
ATOM     24  H   UNL     1       2.630  44.817  -5.096  1.00  0.00     0.293 HD
ENDBRANCH  20  23
ENDBRANCH  14  15
ENDBRANCH  12  14
ENDBRANCH   9  10
ENDBRANCH   1   9
TORSDOF 10
ENDMDL
MODEL 3
REMARK VINA RESULT:    -7.415      2.891      4.736
REMARK INTER + INTRA:         -12.511
REMARK INTER:                 -11.282
REMARK INTRA:                  -1.228
REMARK UNBOUND:                -0.977
REMARK SMILES COc1cc(CNC(=O)CCCCC=CC(C)C)ccc1O
REMARK SMILES IDX 11 1 12 2 13 3 14 4 15 5 16 6 17 7 18 8 10 9 8 10 9 11 7 12
REMARK SMILES IDX 6 14 5 15 4 16 19 17 3 18 20 19 21 20 2 21 1 22 22 23
REMARK H PARENT 7 13 22 24
REMARK Flexibility Score: inf
ROOT
ATOM      1  C   UNL     1      -0.854  46.410   5.213  1.00  0.00     0.010 C 
ENDROOT
BRANCH   1   2
ATOM      2  C   UNL     1      -0.459  46.625   6.683  1.00  0.00     0.005 C 
BRANCH   2   3
ATOM      3  C   UNL     1       1.061  46.778   6.860  1.00  0.00     0.027 C 
BRANCH   3   4
ATOM      4  C   UNL     1       1.792  46.454   5.587  1.00  0.00    -0.031 C 
ATOM      5  C   UNL     1       2.879  45.666   5.581  1.00  0.00    -0.028 C 
BRANCH   5   6
ATOM      6  C   UNL     1       3.656  45.349   4.322  1.00  0.00     0.005 C 
ATOM      7  C   UNL     1       3.726  46.563   3.388  1.00  0.00     0.012 C 
ATOM      8  C   UNL     1       5.055  44.818   4.651  1.00  0.00     0.012 C 
ENDBRANCH   5   6
ENDBRANCH   3   4
ENDBRANCH   2   3
ENDBRANCH   1   2
BRANCH   1   9
ATOM      9  C   UNL     1      -2.131  45.570   5.067  1.00  0.00     0.100 C 
BRANCH   9  10
ATOM     10  C   UNL     1      -2.211  44.982   3.690  1.00  0.00     0.220 C 
ATOM     11  O   UNL     1      -2.720  43.841   3.532  1.00  0.00    -0.275 OA
ATOM     12  N   UNL     1      -1.764  45.742   2.553  1.00  0.00    -0.352 N 
ATOM     13  H   UNL     1      -1.363  46.696   2.705  1.00  0.00     0.163 HD
BRANCH  12  14
ATOM     14  C   UNL     1      -1.883  45.249   1.183  1.00  0.00     0.151 C 
BRANCH  14  15
ATOM     15  C   UNL     1      -0.525  44.936   0.613  1.00  0.00    -0.025 A 
ATOM     16  C   UNL     1      -0.355  44.815  -0.776  1.00  0.00     0.056 A 
ATOM     17  C   UNL     1       0.583  44.772   1.459  1.00  0.00     0.009 A 
ATOM     18  C   UNL     1       0.916  44.539  -1.321  1.00  0.00     0.160 A 
ATOM     19  C   UNL     1       1.842  44.492   0.926  1.00  0.00     0.050 A 
ATOM     20  C   UNL     1       2.012  44.375  -0.460  1.00  0.00     0.157 A 
BRANCH  18  21
ATOM     21  O   UNL     1       1.130  44.424  -2.703  1.00  0.00    -0.493 OA
ATOM     22  C   UNL     1       0.347  45.071  -3.699  1.00  0.00     0.278 C 
ENDBRANCH  18  21
BRANCH  20  23
ATOM     23  O   UNL     1       3.272  44.097  -0.992  1.00  0.00    -0.504 OA
ATOM     24  H   UNL     1       4.050  44.737  -0.876  1.00  0.00     0.293 HD
ENDBRANCH  20  23
ENDBRANCH  14  15
ENDBRANCH  12  14
ENDBRANCH   9  10
ENDBRANCH   1   9
TORSDOF 10
ENDMDL
MODEL 4
REMARK VINA RESULT:    -7.348      6.629     11.365
REMARK INTER + INTRA:         -12.406
REMARK INTER:                 -11.547
REMARK INTRA:                  -0.860
REMARK UNBOUND:                -0.977
REMARK SMILES COc1cc(CNC(=O)CCCCC=CC(C)C)ccc1O
REMARK SMILES IDX 11 1 12 2 13 3 14 4 15 5 16 6 17 7 18 8 10 9 8 10 9 11 7 12
REMARK SMILES IDX 6 14 5 15 4 16 19 17 3 18 20 19 21 20 2 21 1 22 22 23
REMARK H PARENT 7 13 22 24
REMARK Flexibility Score: inf
ROOT
ATOM      1  C   UNL     1       5.023  42.539   8.477  1.00  0.00     0.010 C 
ENDROOT
BRANCH   1   2
ATOM      2  C   UNL     1       4.175  42.956   7.264  1.00  0.00     0.005 C 
BRANCH   2   3
ATOM      3  C   UNL     1       4.965  43.829   6.275  1.00  0.00     0.027 C 
BRANCH   3   4
ATOM      4  C   UNL     1       4.043  44.671   5.438  1.00  0.00    -0.031 C 
ATOM      5  C   UNL     1       4.284  44.898   4.136  1.00  0.00    -0.028 C 
BRANCH   5   6
ATOM      6  C   UNL     1       3.395  45.768   3.276  1.00  0.00     0.005 C 
ATOM      7  C   UNL     1       2.811  44.979   2.098  1.00  0.00     0.012 C 
ATOM      8  C   UNL     1       2.290  46.427   4.108  1.00  0.00     0.012 C 
ENDBRANCH   5   6
ENDBRANCH   3   4
ENDBRANCH   2   3
ENDBRANCH   1   2
BRANCH   1   9
ATOM      9  C   UNL     1       4.214  42.539   9.783  1.00  0.00     0.100 C 
BRANCH   9  10
ATOM     10  C   UNL     1       4.225  43.905  10.400  1.00  0.00     0.220 C 
ATOM     11  O   UNL     1       5.323  44.497  10.576  1.00  0.00    -0.275 OA
ATOM     12  N   UNL     1       2.986  44.558  10.733  1.00  0.00    -0.352 N 
ATOM     13  H   UNL     1       2.086  44.057  10.559  1.00  0.00     0.163 HD
BRANCH  12  14
ATOM     14  C   UNL     1       2.934  45.916  11.270  1.00  0.00     0.151 C 
BRANCH  14  15
ATOM     15  C   UNL     1       2.156  46.820  10.350  1.00  0.00    -0.025 A 
ATOM     16  C   UNL     1       1.675  46.332   9.124  1.00  0.00     0.056 A 
ATOM     17  C   UNL     1       1.896  48.151  10.712  1.00  0.00     0.009 A 
ATOM     18  C   UNL     1       0.931  47.166   8.264  1.00  0.00     0.160 A 
ATOM     19  C   UNL     1       1.166  48.982   9.862  1.00  0.00     0.050 A 
ATOM     20  C   UNL     1       0.683  48.495   8.640  1.00  0.00     0.157 A 
BRANCH  18  21
ATOM     21  O   UNL     1       0.422  46.713   7.038  1.00  0.00    -0.493 OA
ATOM     22  C   UNL     1      -0.944  46.395   6.797  1.00  0.00     0.278 C 
ENDBRANCH  18  21
BRANCH  20  23
ATOM     23  O   UNL     1      -0.049  49.327   7.791  1.00  0.00    -0.504 OA
ATOM     24  H   UNL     1       0.290  49.571   6.867  1.00  0.00     0.293 HD
ENDBRANCH  20  23
ENDBRANCH  14  15
ENDBRANCH  12  14
ENDBRANCH   9  10
ENDBRANCH   1   9
TORSDOF 10
ENDMDL
MODEL 5
REMARK VINA RESULT:    -7.304      6.314     10.228
REMARK INTER + INTRA:         -12.337
REMARK INTER:                 -11.621
REMARK INTRA:                  -0.716
REMARK UNBOUND:                -0.977
REMARK SMILES COc1cc(CNC(=O)CCCCC=CC(C)C)ccc1O
REMARK SMILES IDX 11 1 12 2 13 3 14 4 15 5 16 6 17 7 18 8 10 9 8 10 9 11 7 12
REMARK SMILES IDX 6 14 5 15 4 16 19 17 3 18 20 19 21 20 2 21 1 22 22 23
REMARK H PARENT 7 13 22 24
REMARK Flexibility Score: inf
ROOT
ATOM      1  C   UNL     1      -2.177  43.762   2.998  1.00  0.00     0.010 C 
ENDROOT
BRANCH   1   2
ATOM      2  C   UNL     1      -2.386  43.764   1.474  1.00  0.00     0.005 C 
BRANCH   2   3
ATOM      3  C   UNL     1      -1.526  44.829   0.771  1.00  0.00     0.027 C 
BRANCH   3   4
ATOM      4  C   UNL     1      -0.085  44.406   0.706  1.00  0.00    -0.031 C 
ATOM      5  C   UNL     1       0.855  44.992   1.466  1.00  0.00    -0.028 C 
BRANCH   5   6
ATOM      6  C   UNL     1       2.318  44.614   1.398  1.00  0.00     0.005 C 
ATOM      7  C   UNL     1       2.836  44.640  -0.044  1.00  0.00     0.012 C 
ATOM      8  C   UNL     1       3.166  45.505   2.311  1.00  0.00     0.012 C 
ENDBRANCH   5   6
ENDBRANCH   3   4
ENDBRANCH   2   3
ENDBRANCH   1   2
BRANCH   1   9
ATOM      9  C   UNL     1      -2.326  45.162   3.610  1.00  0.00     0.100 C 
BRANCH   9  10
ATOM     10  C   UNL     1      -2.655  45.057   5.069  1.00  0.00     0.220 C 
ATOM     11  O   UNL     1      -3.411  44.133   5.469  1.00  0.00    -0.275 OA
ATOM     12  N   UNL     1      -2.064  45.971   6.010  1.00  0.00    -0.352 N 
ATOM     13  H   UNL     1      -1.424  46.719   5.660  1.00  0.00     0.163 HD
BRANCH  12  14
ATOM     14  C   UNL     1      -2.294  45.872   7.450  1.00  0.00     0.151 C 
BRANCH  14  15
ATOM     15  C   UNL     1      -1.217  46.601   8.210  1.00  0.00    -0.025 A 
ATOM     16  C   UNL     1      -1.006  46.326   9.571  1.00  0.00     0.056 A 
ATOM     17  C   UNL     1      -0.409  47.551   7.565  1.00  0.00     0.009 A 
ATOM     18  C   UNL     1       0.011  46.991  10.286  1.00  0.00     0.160 A 
ATOM     19  C   UNL     1       0.595  48.217   8.270  1.00  0.00     0.050 A 
ATOM     20  C   UNL     1       0.807  47.940   9.627  1.00  0.00     0.157 A 
BRANCH  18  21
ATOM     21  O   UNL     1       0.262  46.735  11.643  1.00  0.00    -0.493 OA
ATOM     22  C   UNL     1       1.026  45.638  12.131  1.00  0.00     0.278 C 
ENDBRANCH  18  21
BRANCH  20  23
ATOM     23  O   UNL     1       1.813  48.606  10.331  1.00  0.00    -0.504 OA
ATOM     24  H   UNL     1       2.312  49.391   9.927  1.00  0.00     0.293 HD
ENDBRANCH  20  23
ENDBRANCH  14  15
ENDBRANCH  12  14
ENDBRANCH   9  10
ENDBRANCH   1   9
TORSDOF 10
ENDMDL
MODEL 6
REMARK VINA RESULT:    -7.291      4.275      6.010
REMARK INTER + INTRA:         -12.318
REMARK INTER:                 -11.828
REMARK INTRA:                  -0.490
REMARK UNBOUND:                -0.977
REMARK SMILES COc1cc(CNC(=O)CCCCC=CC(C)C)ccc1O
REMARK SMILES IDX 11 1 12 2 13 3 14 4 15 5 16 6 17 7 18 8 10 9 8 10 9 11 7 12
REMARK SMILES IDX 6 14 5 15 4 16 19 17 3 18 20 19 21 20 2 21 1 22 22 23
REMARK H PARENT 7 13 22 24
REMARK Flexibility Score: inf
ROOT
ATOM      1  C   UNL     1      -1.518  46.032   5.466  1.00  0.00     0.010 C 
ENDROOT
BRANCH   1   2
ATOM      2  C   UNL     1      -1.461  46.349   6.970  1.00  0.00     0.005 C 
BRANCH   2   3
ATOM      3  C   UNL     1      -0.897  47.753   7.247  1.00  0.00     0.027 C 
BRANCH   3   4
ATOM      4  C   UNL     1       0.361  47.680   8.067  1.00  0.00    -0.031 C 
ATOM      5  C   UNL     1       0.347  47.879   9.395  1.00  0.00    -0.028 C 
BRANCH   5   6
ATOM      6  C   UNL     1       1.600  47.847  10.243  1.00  0.00     0.005 C 
ATOM      7  C   UNL     1       2.105  49.261  10.548  1.00  0.00     0.012 C 
ATOM      8  C   UNL     1       1.380  47.044  11.529  1.00  0.00     0.012 C 
ENDBRANCH   5   6
ENDBRANCH   3   4
ENDBRANCH   2   3
ENDBRANCH   1   2
BRANCH   1   9
ATOM      9  C   UNL     1      -2.686  45.102   5.109  1.00  0.00     0.100 C 
BRANCH   9  10
ATOM     10  C   UNL     1      -2.578  44.659   3.680  1.00  0.00     0.220 C 
ATOM     11  O   UNL     1      -2.774  43.450   3.390  1.00  0.00    -0.275 OA
ATOM     12  N   UNL     1      -2.311  45.621   2.644  1.00  0.00    -0.352 N 
ATOM     13  H   UNL     1      -2.172  46.624   2.905  1.00  0.00     0.163 HD
BRANCH  12  14
ATOM     14  C   UNL     1      -2.266  45.258   1.229  1.00  0.00     0.151 C 
BRANCH  14  15
ATOM     15  C   UNL     1      -0.847  45.000   0.795  1.00  0.00    -0.025 A 
ATOM     16  C   UNL     1      -0.541  44.873  -0.570  1.00  0.00     0.056 A 
ATOM     17  C   UNL     1       0.181  44.893   1.744  1.00  0.00     0.009 A 
ATOM     18  C   UNL     1       0.787  44.647  -0.988  1.00  0.00     0.160 A 
ATOM     19  C   UNL     1       1.496  44.663   1.337  1.00  0.00     0.050 A 
ATOM     20  C   UNL     1       1.802  44.539  -0.024  1.00  0.00     0.157 A 
BRANCH  18  21
ATOM     21  O   UNL     1       1.136  44.527  -2.341  1.00  0.00    -0.493 OA
ATOM     22  C   UNL     1       0.307  44.922  -3.429  1.00  0.00     0.278 C 
ENDBRANCH  18  21
BRANCH  20  23
ATOM     23  O   UNL     1       3.118  44.311  -0.431  1.00  0.00    -0.504 OA
ATOM     24  H   UNL     1       3.482  43.371  -0.546  1.00  0.00     0.293 HD
ENDBRANCH  20  23
ENDBRANCH  14  15
ENDBRANCH  12  14
ENDBRANCH   9  10
ENDBRANCH   1   9
TORSDOF 10
ENDMDL
MODEL 7
REMARK VINA RESULT:    -7.211      5.101      7.699
REMARK INTER + INTRA:         -12.193
REMARK INTER:                 -11.626
REMARK INTRA:                  -0.567
REMARK UNBOUND:                -0.977
REMARK SMILES COc1cc(CNC(=O)CCCCC=CC(C)C)ccc1O
REMARK SMILES IDX 11 1 12 2 13 3 14 4 15 5 16 6 17 7 18 8 10 9 8 10 9 11 7 12
REMARK SMILES IDX 6 14 5 15 4 16 19 17 3 18 20 19 21 20 2 21 1 22 22 23
REMARK H PARENT 7 13 22 24
REMARK Flexibility Score: inf
ROOT
ATOM      1  C   UNL     1      -1.469  46.388   7.643  1.00  0.00     0.010 C 
ENDROOT
BRANCH   1   2
ATOM      2  C   UNL     1      -0.493  47.487   7.192  1.00  0.00     0.005 C 
BRANCH   2   3
ATOM      3  C   UNL     1       0.822  47.461   7.991  1.00  0.00     0.027 C 
BRANCH   3   4
ATOM      4  C   UNL     1       0.557  47.408   9.470  1.00  0.00    -0.031 C 
ATOM      5  C   UNL     1       1.283  46.628  10.287  1.00  0.00    -0.028 C 
BRANCH   5   6
ATOM      6  C   UNL     1       1.019  46.526  11.773  1.00  0.00     0.005 C 
ATOM      7  C   UNL     1       1.215  45.093  12.279  1.00  0.00     0.012 C 
ATOM      8  C   UNL     1       1.882  47.518  12.560  1.00  0.00     0.012 C 
ENDBRANCH   5   6
ENDBRANCH   3   4
ENDBRANCH   2   3
ENDBRANCH   1   2
BRANCH   1   9
ATOM      9  C   UNL     1      -2.740  46.346   6.782  1.00  0.00     0.100 C 
BRANCH   9  10
ATOM     10  C   UNL     1      -2.737  45.125   5.912  1.00  0.00     0.220 C 
ATOM     11  O   UNL     1      -3.054  44.011   6.406  1.00  0.00    -0.275 OA
ATOM     12  N   UNL     1      -2.430  45.238   4.511  1.00  0.00    -0.352 N 
ATOM     13  H   UNL     1      -2.189  46.176   4.117  1.00  0.00     0.163 HD
BRANCH  12  14
ATOM     14  C   UNL     1      -2.481  44.095   3.602  1.00  0.00     0.151 C 
BRANCH  14  15
ATOM     15  C   UNL     1      -2.139  44.519   2.198  1.00  0.00    -0.025 A 
ATOM     16  C   UNL     1      -0.825  44.381   1.721  1.00  0.00     0.056 A 
ATOM     17  C   UNL     1      -3.128  45.044   1.352  1.00  0.00     0.009 A 
ATOM     18  C   UNL     1      -0.499  44.760   0.402  1.00  0.00     0.160 A 
ATOM     19  C   UNL     1      -2.809  45.427   0.048  1.00  0.00     0.050 A 
ATOM     20  C   UNL     1      -1.499  45.287  -0.429  1.00  0.00     0.157 A 
BRANCH  18  21
ATOM     21  O   UNL     1       0.798  44.627  -0.116  1.00  0.00    -0.493 OA
ATOM     22  C   UNL     1       1.987  44.636   0.666  1.00  0.00     0.278 C 
ENDBRANCH  18  21
BRANCH  20  23
ATOM     23  O   UNL     1      -1.182  45.668  -1.734  1.00  0.00    -0.504 OA
ATOM     24  H   UNL     1      -0.943  44.984  -2.443  1.00  0.00     0.293 HD
ENDBRANCH  20  23
ENDBRANCH  14  15
ENDBRANCH  12  14
ENDBRANCH   9  10
ENDBRANCH   1   9
TORSDOF 10
ENDMDL
MODEL 8
REMARK VINA RESULT:    -7.173      6.203     10.409
REMARK INTER + INTRA:         -12.135
REMARK INTER:                 -11.443
REMARK INTRA:                  -0.692
REMARK UNBOUND:                -0.977
REMARK SMILES COc1cc(CNC(=O)CCCCC=CC(C)C)ccc1O
REMARK SMILES IDX 11 1 12 2 13 3 14 4 15 5 16 6 17 7 18 8 10 9 8 10 9 11 7 12
REMARK SMILES IDX 6 14 5 15 4 16 19 17 3 18 20 19 21 20 2 21 1 22 22 23
REMARK H PARENT 7 13 22 24
REMARK Flexibility Score: inf
ROOT
ATOM      1  C   UNL     1      -1.451  45.665   3.218  1.00  0.00     0.010 C 
ENDROOT
BRANCH   1   2
ATOM      2  C   UNL     1      -0.998  45.650   1.749  1.00  0.00     0.005 C 
BRANCH   2   3
ATOM      3  C   UNL     1       0.144  44.650   1.502  1.00  0.00     0.027 C 
BRANCH   3   4
ATOM      4  C   UNL     1       0.463  44.541   0.038  1.00  0.00    -0.031 C 
ATOM      5  C   UNL     1      -0.379  45.002  -0.902  1.00  0.00    -0.028 C 
BRANCH   5   6
ATOM      6  C   UNL     1      -0.103  44.876  -2.384  1.00  0.00     0.005 C 
ATOM      7  C   UNL     1      -0.579  46.117  -3.149  1.00  0.00     0.012 C 
ATOM      8  C   UNL     1       1.378  44.591  -2.652  1.00  0.00     0.012 C 
ENDBRANCH   5   6
ENDBRANCH   3   4
ENDBRANCH   2   3
ENDBRANCH   1   2
BRANCH   1   9
ATOM      9  C   UNL     1      -2.461  44.551   3.530  1.00  0.00     0.100 C 
BRANCH   9  10
ATOM     10  C   UNL     1      -2.753  44.513   5.000  1.00  0.00     0.220 C 
ATOM     11  O   UNL     1      -3.162  43.443   5.523  1.00  0.00    -0.275 OA
ATOM     12  N   UNL     1      -2.509  45.673   5.815  1.00  0.00    -0.352 N 
ATOM     13  H   UNL     1      -2.150  46.545   5.365  1.00  0.00     0.163 HD
BRANCH  12  14
ATOM     14  C   UNL     1      -2.708  45.671   7.263  1.00  0.00     0.151 C 
BRANCH  14  15
ATOM     15  C   UNL     1      -1.587  46.403   7.953  1.00  0.00    -0.025 A 
ATOM     16  C   UNL     1      -1.337  46.184   9.317  1.00  0.00     0.056 A 
ATOM     17  C   UNL     1      -0.778  47.301   7.240  1.00  0.00     0.009 A 
ATOM     18  C   UNL     1      -0.280  46.852   9.968  1.00  0.00     0.160 A 
ATOM     19  C   UNL     1       0.266  47.970   7.880  1.00  0.00     0.050 A 
ATOM     20  C   UNL     1       0.518  47.749   9.240  1.00  0.00     0.157 A 
BRANCH  18  21
ATOM     21  O   UNL     1       0.011  46.651  11.326  1.00  0.00    -0.493 OA
ATOM     22  C   UNL     1       0.847  45.615  11.829  1.00  0.00     0.278 C 
ENDBRANCH  18  21
BRANCH  20  23
ATOM     23  O   UNL     1       1.563  48.418   9.879  1.00  0.00    -0.504 OA
ATOM     24  H   UNL     1       2.249  48.952   9.357  1.00  0.00     0.293 HD
ENDBRANCH  20  23
ENDBRANCH  14  15
ENDBRANCH  12  14
ENDBRANCH   9  10
ENDBRANCH   1   9
TORSDOF 10
ENDMDL
MODEL 9
REMARK VINA RESULT:    -7.056      7.021     11.089
REMARK INTER + INTRA:         -11.952
REMARK INTER:                 -11.298
REMARK INTRA:                  -0.654
REMARK UNBOUND:                -0.977
REMARK SMILES COc1cc(CNC(=O)CCCCC=CC(C)C)ccc1O
REMARK SMILES IDX 11 1 12 2 13 3 14 4 15 5 16 6 17 7 18 8 10 9 8 10 9 11 7 12
REMARK SMILES IDX 6 14 5 15 4 16 19 17 3 18 20 19 21 20 2 21 1 22 22 23
REMARK H PARENT 7 13 22 24
REMARK Flexibility Score: inf
ROOT
ATOM      1  C   UNL     1      -2.041  45.660   5.312  1.00  0.00     0.010 C 
ENDROOT
BRANCH   1   2
ATOM      2  C   UNL     1      -3.140  44.610   5.082  1.00  0.00     0.005 C 
BRANCH   2   3
ATOM      3  C   UNL     1      -2.727  43.555   4.042  1.00  0.00     0.027 C 
BRANCH   3   4
ATOM      4  C   UNL     1      -2.619  44.159   2.670  1.00  0.00    -0.031 C 
ATOM      5  C   UNL     1      -1.464  44.142   1.983  1.00  0.00    -0.028 C 
BRANCH   5   6
ATOM      6  C   UNL     1      -1.314  44.772   0.616  1.00  0.00     0.005 C 
ATOM      7  C   UNL     1      -1.818  46.220   0.609  1.00  0.00     0.012 C 
ATOM      8  C   UNL     1       0.133  44.683   0.119  1.00  0.00     0.012 C 
ENDBRANCH   5   6
ENDBRANCH   3   4
ENDBRANCH   2   3
ENDBRANCH   1   2
BRANCH   1   9
ATOM      9  C   UNL     1      -1.986  46.140   6.770  1.00  0.00     0.100 C 
BRANCH   9  10
ATOM     10  C   UNL     1      -0.646  46.743   7.068  1.00  0.00     0.220 C 
ATOM     11  O   UNL     1       0.338  46.458   6.336  1.00  0.00    -0.275 OA
ATOM     12  N   UNL     1      -0.502  47.686   8.146  1.00  0.00    -0.352 N 
ATOM     13  H   UNL     1      -1.336  47.924   8.728  1.00  0.00     0.163 HD
BRANCH  12  14
ATOM     14  C   UNL     1       0.763  48.358   8.436  1.00  0.00     0.151 C 
BRANCH  14  15
ATOM     15  C   UNL     1       1.402  47.773   9.668  1.00  0.00    -0.025 A 
ATOM     16  C   UNL     1       1.836  46.438   9.671  1.00  0.00     0.056 A 
ATOM     17  C   UNL     1       1.580  48.558  10.818  1.00  0.00     0.009 A 
ATOM     18  C   UNL     1       2.451  45.887  10.814  1.00  0.00     0.160 A 
ATOM     19  C   UNL     1       2.182  48.015  11.955  1.00  0.00     0.050 A 
ATOM     20  C   UNL     1       2.618  46.684  11.957  1.00  0.00     0.157 A 
BRANCH  18  21
ATOM     21  O   UNL     1       2.910  44.561  10.852  1.00  0.00    -0.493 OA
ATOM     22  C   UNL     1       3.954  44.043  10.036  1.00  0.00     0.278 C 
ENDBRANCH  18  21
BRANCH  20  23
ATOM     23  O   UNL     1       3.222  46.143  13.093  1.00  0.00    -0.504 OA
ATOM     24  H   UNL     1       3.887  46.674  13.643  1.00  0.00     0.293 HD
ENDBRANCH  20  23
ENDBRANCH  14  15
ENDBRANCH  12  14
ENDBRANCH   9  10
ENDBRANCH   1   9
TORSDOF 10
ENDMDL
