MODEL 1
REMARK VINA RESULT:    -2.959      0.000      0.000
REMARK INTER + INTRA:          -4.821
REMARK INTER:                  -4.516
REMARK INTRA:                  -0.305
REMARK UNBOUND:                -0.305
REMARK SMILES CC1=CCC[C@@H](C)C(=O)C[C@@H](C(C)C)C(=O)C1
REMARK SMILES IDX 8 1 9 2 6 3 7 4 5 5 4 6 3 7 2 8 1 9 10 11 11 12 15 13 16 14
REMARK SMILES IDX 17 15 12 17 13 18 14 19
REMARK H PARENT
REMARK Flexibility Score: 70.00
ROOT
ATOM      1  C   UNL     1     149.946 160.465 198.865  1.00  0.00     0.136 C 
ATOM      2  O   UNL     1     149.119 161.144 198.271  1.00  0.00    -0.299 OA
ENDROOT
BRANCH   1   3
ATOM      3  C   UNL     1     149.660 159.990 200.282  1.00  0.00     0.053 C 
ATOM      4  C   UNL     1     148.249 160.410 200.722  1.00  0.00     0.016 C 
BRANCH   3   5
ATOM      5  C   UNL     1     150.727 160.528 201.266  1.00  0.00     0.015 C 
BRANCH   5   6
ATOM      6  C   UNL     1     151.563 159.397 201.903  1.00  0.00     0.028 C 
BRANCH   6   7
ATOM      7  C   UNL     1     153.041 159.634 201.714  1.00  0.00    -0.028 C 
ATOM      8  C   UNL     1     153.821 158.969 200.828  1.00  0.00    -0.070 CG0
ATOM      9  C   UNL     1     155.272 159.363 200.728  1.00  0.00     0.039 C 
ATOM     10  G   UNL     1     153.295 157.852 199.938  1.00  0.00     0.000 G0
ENDBRANCH   6   7
ENDBRANCH   5   6
ENDBRANCH   3   5
ENDBRANCH   1   3
BRANCH   1  11
ATOM     11  C   UNL     1     151.251 160.127 198.182  1.00  0.00     0.087 C 
BRANCH  11  12
ATOM     12  C   UNL     1     151.552 158.603 198.104  1.00  0.00     0.066 C 
BRANCH  12  13
ATOM     13  C   UNL     1     152.987 158.321 198.531  1.00  0.00     0.140 C 
ATOM     14  O   UNL     1     153.895 158.445 197.720  1.00  0.00    -0.299 OA
BRANCH  13  15
ATOM     15  C   UNL     1     153.295 157.828 199.922  1.00  0.00     0.106 CG0
ATOM     16  G   UNL     1     153.799 158.943 200.829  1.00  0.00     0.000 G0
ENDBRANCH  13  15
ENDBRANCH  12  13
BRANCH  12  17
ATOM     17  C   UNL     1     151.225 157.942 196.722  1.00  0.00    -0.006 C 
ATOM     18  C   UNL     1     151.132 158.969 195.579  1.00  0.00     0.008 C 
ATOM     19  C   UNL     1     149.901 157.157 196.791  1.00  0.00     0.008 C 
ENDBRANCH  12  17
ENDBRANCH  11  12
ENDBRANCH   1  11
TORSDOF 1
ENDMDL
MODEL 2
REMARK VINA RESULT:    -2.876      2.000      4.116
REMARK INTER + INTRA:          -4.695
REMARK INTER:                  -4.329
REMARK INTRA:                  -0.366
REMARK UNBOUND:                -0.305
REMARK SMILES CC1=CCC[C@@H](C)C(=O)C[C@@H](C(C)C)C(=O)C1
REMARK SMILES IDX 8 1 9 2 6 3 7 4 5 5 4 6 3 7 2 8 1 9 10 11 11 12 15 13 16 14
REMARK SMILES IDX 17 15 12 17 13 18 14 19
REMARK H PARENT
REMARK Flexibility Score: 70.00
ROOT
ATOM      1  C   UNL     1     151.726 158.795 201.589  1.00  0.00     0.136 C 
ATOM      2  O   UNL     1     151.325 158.358 202.660  1.00  0.00    -0.299 OA
ENDROOT
BRANCH   1   3
ATOM      3  C   UNL     1     151.293 160.178 201.126  1.00  0.00     0.053 C 
ATOM      4  C   UNL     1     151.596 161.231 202.202  1.00  0.00     0.016 C 
BRANCH   3   5
ATOM      5  C   UNL     1     149.790 160.187 200.754  1.00  0.00     0.015 C 
BRANCH   5   6
ATOM      6  C   UNL     1     149.514 159.492 199.404  1.00  0.00     0.028 C 
BRANCH   6   7
ATOM      7  C   UNL     1     150.227 160.187 198.271  1.00  0.00    -0.028 C 
ATOM      8  C   UNL     1     151.177 159.617 197.493  1.00  0.00    -0.070 CG0
ATOM      9  C   UNL     1     151.755 160.435 196.368  1.00  0.00     0.039 C 
ATOM     10  G   UNL     1     151.679 158.195 197.707  1.00  0.00     0.000 G0
ENDBRANCH   6   7
ENDBRANCH   5   6
ENDBRANCH   3   5
ENDBRANCH   1   3
BRANCH   1  11
ATOM     11  C   UNL     1     152.631 157.938 200.735  1.00  0.00     0.087 C 
BRANCH  11  12
ATOM     12  C   UNL     1     153.381 158.721 199.619  1.00  0.00     0.066 C 
BRANCH  12  13
ATOM     13  C   UNL     1     153.067 158.129 198.251  1.00  0.00     0.140 C 
ATOM     14  O   UNL     1     153.969 157.653 197.576  1.00  0.00    -0.299 OA
BRANCH  13  15
ATOM     15  C   UNL     1     151.668 158.183 197.689  1.00  0.00     0.106 CG0
ATOM     16  G   UNL     1     151.175 159.613 197.509  1.00  0.00     0.000 G0
ENDBRANCH  13  15
ENDBRANCH  12  13
BRANCH  12  17
ATOM     17  C   UNL     1     154.924 158.858 199.843  1.00  0.00    -0.006 C 
ATOM     18  C   UNL     1     155.372 158.355 201.227  1.00  0.00     0.008 C 
ATOM     19  C   UNL     1     155.372 160.324 199.682  1.00  0.00     0.008 C 
ENDBRANCH  12  17
ENDBRANCH  11  12
ENDBRANCH   1  11
TORSDOF 1
ENDMDL
MODEL 3
REMARK VINA RESULT:    -2.731      2.117      5.046
REMARK INTER + INTRA:          -4.472
REMARK INTER:                  -4.183
REMARK INTRA:                  -0.289
REMARK UNBOUND:                -0.305
REMARK SMILES CC1=CCC[C@@H](C)C(=O)C[C@@H](C(C)C)C(=O)C1
REMARK SMILES IDX 8 1 9 2 6 3 7 4 5 5 4 6 3 7 2 8 1 9 10 11 11 12 15 13 16 14
REMARK SMILES IDX 17 15 12 17 13 18 14 19
REMARK H PARENT
REMARK Flexibility Score: 70.00
ROOT
ATOM      1  C   UNL     1     153.085 157.940 198.357  1.00  0.00     0.136 C 
ATOM      2  O   UNL     1     153.935 157.785 197.491  1.00  0.00    -0.299 OA
ENDROOT
BRANCH   1   3
ATOM      3  C   UNL     1     151.741 157.237 198.234  1.00  0.00     0.053 C 
ATOM      4  C   UNL     1     151.930 155.714 198.155  1.00  0.00     0.016 C 
BRANCH   3   5
ATOM      5  C   UNL     1     150.959 157.760 197.005  1.00  0.00     0.015 C 
BRANCH   5   6
ATOM      6  C   UNL     1     150.535 159.236 197.161  1.00  0.00     0.028 C 
BRANCH   6   7
ATOM      7  C   UNL     1     149.453 159.390 198.201  1.00  0.00    -0.028 C 
ATOM      8  C   UNL     1     149.626 159.967 199.413  1.00  0.00    -0.070 CG0
ATOM      9  C   UNL     1     148.427 160.089 200.317  1.00  0.00     0.039 C 
ATOM     10  G   UNL     1     150.971 160.494 199.895  1.00  0.00     0.000 G0
ENDBRANCH   6   7
ENDBRANCH   5   6
ENDBRANCH   3   5
ENDBRANCH   1   3
BRANCH   1  11
ATOM     11  C   UNL     1     153.380 158.849 199.527  1.00  0.00     0.087 C 
BRANCH  11  12
ATOM     12  C   UNL     1     152.508 158.571 200.785  1.00  0.00     0.066 C 
BRANCH  12  13
ATOM     13  C   UNL     1     151.549 159.727 201.034  1.00  0.00     0.140 C 
ATOM     14  O   UNL     1     151.203 159.992 202.178  1.00  0.00    -0.299 OA
BRANCH  13  15
ATOM     15  C   UNL     1     150.969 160.510 199.883  1.00  0.00     0.106 CG0
ATOM     16  G   UNL     1     149.626 159.954 199.428  1.00  0.00     0.000 G0
ENDBRANCH  13  15
ENDBRANCH  12  13
BRANCH  12  17
ATOM     17  C   UNL     1     153.320 158.212 202.076  1.00  0.00    -0.006 C 
ATOM     18  C   UNL     1     154.839 158.166 201.830  1.00  0.00     0.008 C 
ATOM     19  C   UNL     1     152.870 156.851 202.643  1.00  0.00     0.008 C 
ENDBRANCH  12  17
ENDBRANCH  11  12
ENDBRANCH   1  11
TORSDOF 1
ENDMDL
MODEL 4
REMARK VINA RESULT:    -2.716      6.267      8.012
REMARK INTER + INTRA:          -4.450
REMARK INTER:                  -4.147
REMARK INTRA:                  -0.303
REMARK UNBOUND:                -0.305
REMARK SMILES CC1=CCC[C@@H](C)C(=O)C[C@@H](C(C)C)C(=O)C1
REMARK SMILES IDX 8 1 9 2 6 3 7 4 5 5 4 6 3 7 2 8 1 9 10 11 11 12 15 13 16 14
REMARK SMILES IDX 17 15 12 17 13 18 14 19
REMARK H PARENT
REMARK Flexibility Score: 70.00
ROOT
ATOM      1  C   UNL     1     159.003 164.494 197.203  1.00  0.00     0.136 C 
ATOM      2  O   UNL     1     159.583 165.565 197.088  1.00  0.00    -0.299 OA
ENDROOT
BRANCH   1   3
ATOM      3  C   UNL     1     157.664 164.432 197.923  1.00  0.00     0.053 C 
ATOM      4  C   UNL     1     156.798 165.650 197.569  1.00  0.00     0.016 C 
BRANCH   3   5
ATOM      5  C   UNL     1     157.869 164.328 199.454  1.00  0.00     0.015 C 
BRANCH   5   6
ATOM      6  C   UNL     1     158.215 162.893 199.906  1.00  0.00     0.028 C 
BRANCH   6   7
ATOM      7  C   UNL     1     157.181 161.903 199.433  1.00  0.00    -0.028 C 
ATOM      8  C   UNL     1     157.438 160.844 198.629  1.00  0.00    -0.070 CG0
ATOM      9  C   UNL     1     156.299 159.919 198.290  1.00  0.00     0.039 C 
ATOM     10  G   UNL     1     158.821 160.554 198.059  1.00  0.00     0.000 G0
ENDBRANCH   6   7
ENDBRANCH   5   6
ENDBRANCH   3   5
ENDBRANCH   1   3
BRANCH   1  11
ATOM     11  C   UNL     1     159.640 163.244 196.642  1.00  0.00     0.087 C 
BRANCH  11  12
ATOM     12  C   UNL     1     158.628 162.231 196.034  1.00  0.00     0.066 C 
BRANCH  12  13
ATOM     13  C   UNL     1     158.894 160.829 196.566  1.00  0.00     0.140 C 
ATOM     14  O   UNL     1     159.111 159.915 195.783  1.00  0.00    -0.299 OA
BRANCH  13  15
ATOM     15  C   UNL     1     158.827 160.540 198.045  1.00  0.00     0.106 CG0
ATOM     16  G   UNL     1     157.450 160.828 198.626  1.00  0.00     0.000 G0
ENDBRANCH  13  15
ENDBRANCH  12  13
BRANCH  12  17
ATOM     17  C   UNL     1     158.551 162.245 194.470  1.00  0.00    -0.006 C 
ATOM     18  C   UNL     1     159.850 162.748 193.814  1.00  0.00     0.008 C 
ATOM     19  C   UNL     1     157.382 163.125 193.988  1.00  0.00     0.008 C 
ENDBRANCH  12  17
ENDBRANCH  11  12
ENDBRANCH   1  11
TORSDOF 1
ENDMDL
MODEL 5
REMARK VINA RESULT:    -2.706      6.614      7.926
REMARK INTER + INTRA:          -4.435
REMARK INTER:                  -4.344
REMARK INTRA:                  -0.092
REMARK UNBOUND:                -0.305
REMARK SMILES CC1=CCC[C@@H](C)C(=O)C[C@@H](C(C)C)C(=O)C1
REMARK SMILES IDX 8 1 9 2 6 3 7 4 5 5 4 6 3 7 2 8 1 9 10 11 11 12 15 13 16 14
REMARK SMILES IDX 17 15 12 17 13 18 14 19
REMARK H PARENT
REMARK Flexibility Score: 70.00
ROOT
ATOM      1  C   UNL     1     158.881 164.635 196.853  1.00  0.00     0.136 C 
ATOM      2  O   UNL     1     160.100 164.665 196.948  1.00  0.00    -0.299 OA
ENDROOT
BRANCH   1   3
ATOM      3  C   UNL     1     158.030 165.528 197.744  1.00  0.00     0.053 C 
ATOM      4  C   UNL     1     158.209 167.005 197.365  1.00  0.00     0.016 C 
BRANCH   3   5
ATOM      5  C   UNL     1     158.369 165.296 199.237  1.00  0.00     0.015 C 
BRANCH   5   6
ATOM      6  C   UNL     1     157.846 163.940 199.756  1.00  0.00     0.028 C 
BRANCH   6   7
ATOM      7  C   UNL     1     158.950 162.915 199.826  1.00  0.00    -0.028 C 
ATOM      8  C   UNL     1     158.902 161.689 199.253  1.00  0.00    -0.070 CG0
ATOM      9  C   UNL     1     160.114 160.803 199.374  1.00  0.00     0.039 C 
ATOM     10  G   UNL     1     157.683 161.176 198.499  1.00  0.00     0.000 G0
ENDBRANCH   6   7
ENDBRANCH   5   6
ENDBRANCH   3   5
ENDBRANCH   1   3
BRANCH   1  11
ATOM     11  C   UNL     1     158.241 163.693 195.860  1.00  0.00     0.087 C 
BRANCH  11  12
ATOM     12  C   UNL     1     157.135 162.783 196.469  1.00  0.00     0.066 C 
BRANCH  12  13
ATOM     13  C   UNL     1     157.745 161.501 197.021  1.00  0.00     0.140 C 
ATOM     14  O   UNL     1     158.255 160.694 196.255  1.00  0.00    -0.299 OA
BRANCH  13  15
ATOM     15  C   UNL     1     157.669 161.183 198.493  1.00  0.00     0.106 CG0
ATOM     16  G   UNL     1     158.887 161.688 199.254  1.00  0.00     0.000 G0
ENDBRANCH  13  15
ENDBRANCH  12  13
BRANCH  12  17
ATOM     17  C   UNL     1     155.937 162.480 195.506  1.00  0.00    -0.006 C 
ATOM     18  C   UNL     1     156.392 162.178 194.067  1.00  0.00     0.008 C 
ATOM     19  C   UNL     1     154.949 163.662 195.475  1.00  0.00     0.008 C 
ENDBRANCH  12  17
ENDBRANCH  11  12
ENDBRANCH   1  11
TORSDOF 1
ENDMDL
MODEL 6
REMARK VINA RESULT:    -2.692      2.354      3.844
REMARK INTER + INTRA:          -4.413
REMARK INTER:                  -4.035
REMARK INTRA:                  -0.378
REMARK UNBOUND:                -0.305
REMARK SMILES CC1=CCC[C@@H](C)C(=O)C[C@@H](C(C)C)C(=O)C1
REMARK SMILES IDX 8 1 9 2 6 3 7 4 5 5 4 6 3 7 2 8 1 9 10 11 11 12 15 13 16 14
REMARK SMILES IDX 17 15 12 17 13 18 14 19
REMARK H PARENT
REMARK Flexibility Score: 70.00
ROOT
ATOM      1  C   UNL     1     152.144 157.794 202.237  1.00  0.00     0.136 C 
ATOM      2  O   UNL     1     151.649 157.719 203.354  1.00  0.00    -0.299 OA
ENDROOT
BRANCH   1   3
ATOM      3  C   UNL     1     152.698 156.544 201.570  1.00  0.00     0.053 C 
ATOM      4  C   UNL     1     151.646 155.425 201.551  1.00  0.00     0.016 C 
BRANCH   3   5
ATOM      5  C   UNL     1     153.991 156.072 202.278  1.00  0.00     0.015 C 
BRANCH   5   6
ATOM      6  C   UNL     1     155.129 157.111 202.180  1.00  0.00     0.028 C 
BRANCH   6   7
ATOM      7  C   UNL     1     155.723 157.147 200.795  1.00  0.00    -0.028 C 
ATOM      8  C   UNL     1     155.645 158.202 199.949  1.00  0.00    -0.070 CG0
ATOM      9  C   UNL     1     156.339 158.095 198.617  1.00  0.00     0.039 C 
ATOM     10  G   UNL     1     154.891 159.481 200.289  1.00  0.00     0.000 G0
ENDBRANCH   6   7
ENDBRANCH   5   6
ENDBRANCH   3   5
ENDBRANCH   1   3
BRANCH   1  11
ATOM     11  C   UNL     1     152.212 159.137 201.548  1.00  0.00     0.087 C 
BRANCH  11  12
ATOM     12  C   UNL     1     152.291 159.052 199.997  1.00  0.00     0.066 C 
BRANCH  12  13
ATOM     13  C   UNL     1     153.604 159.643 199.498  1.00  0.00     0.140 C 
ATOM     14  O   UNL     1     153.641 160.202 198.410  1.00  0.00    -0.299 OA
BRANCH  13  15
ATOM     15  C   UNL     1     154.872 159.491 200.299  1.00  0.00     0.106 CG0
ATOM     16  G   UNL     1     155.620 158.210 199.954  1.00  0.00     0.000 G0
ENDBRANCH  13  15
ENDBRANCH  12  13
BRANCH  12  17
ATOM     17  C   UNL     1     151.063 159.670 199.246  1.00  0.00    -0.006 C 
ATOM     18  C   UNL     1     149.974 160.181 200.207  1.00  0.00     0.008 C 
ATOM     19  C   UNL     1     150.433 158.639 198.289  1.00  0.00     0.008 C 
ENDBRANCH  12  17
ENDBRANCH  11  12
ENDBRANCH   1  11
TORSDOF 1
ENDMDL
MODEL 7
REMARK VINA RESULT:    -2.683      6.172      7.784
REMARK INTER + INTRA:          -4.399
REMARK INTER:                  -4.070
REMARK INTRA:                  -0.329
REMARK UNBOUND:                -0.305
REMARK SMILES CC1=CCC[C@@H](C)C(=O)C[C@@H](C(C)C)C(=O)C1
REMARK SMILES IDX 8 1 9 2 6 3 7 4 5 5 4 6 3 7 2 8 1 9 10 11 11 12 15 13 16 14
REMARK SMILES IDX 17 15 12 17 13 18 14 19
REMARK H PARENT
REMARK Flexibility Score: 70.00
ROOT
ATOM      1  C   UNL     1     156.926 163.022 195.156  1.00  0.00     0.136 C 
ATOM      2  O   UNL     1     157.312 163.278 194.024  1.00  0.00    -0.299 OA
ENDROOT
BRANCH   1   3
ATOM      3  C   UNL     1     155.607 163.595 195.654  1.00  0.00     0.053 C 
ATOM      4  C   UNL     1     154.497 163.389 194.613  1.00  0.00     0.016 C 
BRANCH   3   5
ATOM      5  C   UNL     1     155.760 165.094 196.009  1.00  0.00     0.015 C 
BRANCH   5   6
ATOM      6  C   UNL     1     155.876 165.330 197.530  1.00  0.00     0.028 C 
BRANCH   6   7
ATOM      7  C   UNL     1     157.231 165.880 197.899  1.00  0.00    -0.028 C 
ATOM      8  C   UNL     1     158.134 165.245 198.684  1.00  0.00    -0.070 CG0
ATOM      9  C   UNL     1     159.465 165.911 198.914  1.00  0.00     0.039 C 
ATOM     10  G   UNL     1     157.860 163.896 199.336  1.00  0.00     0.000 G0
ENDBRANCH   6   7
ENDBRANCH   5   6
ENDBRANCH   3   5
ENDBRANCH   1   3
BRANCH   1  11
ATOM     11  C   UNL     1     157.781 162.153 196.049  1.00  0.00     0.087 C 
BRANCH  11  12
ATOM     12  C   UNL     1     157.285 162.071 197.521  1.00  0.00     0.066 C 
BRANCH  12  13
ATOM     13  C   UNL     1     158.282 162.742 198.457  1.00  0.00     0.140 C 
ATOM     14  O   UNL     1     159.426 162.315 198.529  1.00  0.00    -0.299 OA
BRANCH  13  15
ATOM     15  C   UNL     1     157.858 163.885 199.344  1.00  0.00     0.106 CG0
ATOM     16  G   UNL     1     158.109 165.240 198.696  1.00  0.00     0.000 G0
ENDBRANCH  13  15
ENDBRANCH  12  13
BRANCH  12  17
ATOM     17  C   UNL     1     156.924 160.627 198.008  1.00  0.00    -0.006 C 
ATOM     18  C   UNL     1     156.516 159.693 196.855  1.00  0.00     0.008 C 
ATOM     19  C   UNL     1     155.779 160.668 199.039  1.00  0.00     0.008 C 
ENDBRANCH  12  17
ENDBRANCH  11  12
ENDBRANCH   1  11
TORSDOF 1
ENDMDL
MODEL 8
REMARK VINA RESULT:    -2.620      2.069      3.813
REMARK INTER + INTRA:          -4.303
REMARK INTER:                  -4.498
REMARK INTRA:                   0.195
REMARK UNBOUND:                -0.305
REMARK SMILES CC1=CCC[C@@H](C)C(=O)C[C@@H](C(C)C)C(=O)C1
REMARK SMILES IDX 8 1 9 2 6 3 7 4 5 5 4 6 3 7 2 8 1 9 10 11 11 12 15 13 16 14
REMARK SMILES IDX 17 15 12 17 13 18 14 19
REMARK H PARENT
REMARK Flexibility Score: 70.00
ROOT
ATOM      1  C   UNL     1     152.075 159.812 201.052  1.00  0.00     0.136 C 
ATOM      2  O   UNL     1     152.248 160.528 202.030  1.00  0.00    -0.299 OA
ENDROOT
BRANCH   1   3
ATOM      3  C   UNL     1     152.697 158.424 201.011  1.00  0.00     0.053 C 
ATOM      4  C   UNL     1     152.472 157.687 202.339  1.00  0.00     0.016 C 
BRANCH   3   5
ATOM      5  C   UNL     1     154.206 158.509 200.676  1.00  0.00     0.015 C 
BRANCH   5   6
ATOM      6  C   UNL     1     154.469 159.173 199.307  1.00  0.00     0.028 C 
BRANCH   6   7
ATOM      7  C   UNL     1     154.283 158.193 198.176  1.00  0.00    -0.028 C 
ATOM      8  C   UNL     1     153.241 158.204 197.311  1.00  0.00    -0.070 CG0
ATOM      9  C   UNL     1     153.231 157.184 196.202  1.00  0.00     0.039 C 
ATOM     10  G   UNL     1     152.090 159.196 197.413  1.00  0.00     0.000 G0
ENDBRANCH   6   7
ENDBRANCH   5   6
ENDBRANCH   3   5
ENDBRANCH   1   3
BRANCH   1  11
ATOM     11  C   UNL     1     151.260 160.332 199.892  1.00  0.00     0.087 C 
BRANCH  11  12
ATOM     12  C   UNL     1     150.267 159.293 199.295  1.00  0.00     0.066 C 
BRANCH  12  13
ATOM     13  C   UNL     1     150.876 158.616 198.074  1.00  0.00     0.140 C 
ATOM     14  O   UNL     1     150.404 157.563 197.668  1.00  0.00    -0.299 OA
BRANCH  13  15
ATOM     15  C   UNL     1     152.095 159.192 197.400  1.00  0.00     0.106 CG0
ATOM     16  G   UNL     1     153.245 158.195 197.338  1.00  0.00     0.000 G0
ENDBRANCH  13  15
ENDBRANCH  12  13
BRANCH  12  17
ATOM     17  C   UNL     1     148.840 159.858 198.985  1.00  0.00    -0.006 C 
ATOM     18  C   UNL     1     148.870 161.056 198.019  1.00  0.00     0.008 C 
ATOM     19  C   UNL     1     148.128 160.287 200.282  1.00  0.00     0.008 C 
ENDBRANCH  12  17
ENDBRANCH  11  12
ENDBRANCH   1  11
TORSDOF 1
ENDMDL
MODEL 9
REMARK VINA RESULT:    -2.463      1.811      3.831
REMARK INTER + INTRA:          -4.064
REMARK INTER:                  -3.934
REMARK INTRA:                  -0.130
REMARK UNBOUND:                -0.305
REMARK SMILES CC1=CCC[C@@H](C)C(=O)C[C@@H](C(C)C)C(=O)C1
REMARK SMILES IDX 8 1 9 2 6 3 7 4 5 5 4 6 3 7 2 8 1 9 10 11 11 12 15 13 16 14
REMARK SMILES IDX 17 15 12 17 13 18 14 19
REMARK H PARENT
REMARK Flexibility Score: 70.00
ROOT
ATOM      1  C   UNL     1     150.775 158.007 197.424  1.00  0.00     0.136 C 
ATOM      2  O   UNL     1     149.982 157.736 196.532  1.00  0.00    -0.299 OA
ENDROOT
BRANCH   1   3
ATOM      3  C   UNL     1     152.269 158.008 197.136  1.00  0.00     0.053 C 
ATOM      4  C   UNL     1     152.549 158.534 195.720  1.00  0.00     0.016 C 
BRANCH   3   5
ATOM      5  C   UNL     1     152.865 156.592 197.326  1.00  0.00     0.015 C 
BRANCH   5   6
ATOM      6  C   UNL     1     152.933 156.176 198.811  1.00  0.00     0.028 C 
BRANCH   6   7
ATOM      7  C   UNL     1     153.862 157.073 199.591  1.00  0.00    -0.028 C 
ATOM      8  C   UNL     1     153.482 157.870 200.618  1.00  0.00    -0.070 CG0
ATOM      9  C   UNL     1     154.545 158.667 201.326  1.00  0.00     0.039 C 
ATOM     10  G   UNL     1     152.036 157.990 201.081  1.00  0.00     0.000 G0
ENDBRANCH   6   7
ENDBRANCH   5   6
ENDBRANCH   3   5
ENDBRANCH   1   3
BRANCH   1  11
ATOM     11  C   UNL     1     150.251 158.317 198.807  1.00  0.00     0.087 C 
BRANCH  11  12
ATOM     12  C   UNL     1     150.801 159.639 199.414  1.00  0.00     0.066 C 
BRANCH  12  13
ATOM     13  C   UNL     1     151.472 159.371 200.755  1.00  0.00     0.140 C 
ATOM     14  O   UNL     1     151.600 160.282 201.561  1.00  0.00    -0.299 OA
BRANCH  13  15
ATOM     15  C   UNL     1     152.041 158.011 201.075  1.00  0.00     0.106 CG0
ATOM     16  G   UNL     1     153.486 157.869 200.615  1.00  0.00     0.000 G0
ENDBRANCH  13  15
ENDBRANCH  12  13
BRANCH  12  17
ATOM     17  C   UNL     1     149.750 160.795 199.521  1.00  0.00    -0.006 C 
ATOM     18  C   UNL     1     148.435 160.344 200.181  1.00  0.00     0.008 C 
ATOM     19  C   UNL     1     149.430 161.374 198.129  1.00  0.00     0.008 C 
ENDBRANCH  12  17
ENDBRANCH  11  12
ENDBRANCH   1  11
TORSDOF 1
ENDMDL
