MODEL 1
REMARK VINA RESULT:    -2.994      0.000      0.000
REMARK INTER + INTRA:          -4.346
REMARK INTER:                  -3.607
REMARK INTRA:                  -0.739
REMARK UNBOUND:                -0.739
REMARK SMILES O=c1ccn([C@H]2O[C@@H](CO)[C@@H](O)[C@@H]2O)c(=O)[nH]1
REMARK SMILES IDX 6 1 13 2 11 3 8 4 7 5 5 6 3 7 4 8 2 9 17 10 1 11 15 12 16 14
REMARK SMILES IDX 14 15 12 17 9 19 10 20
REMARK H PARENT 17 13 14 16 12 18 10 21
REMARK Flexibility Score: inf
ROOT
ATOM      1  C   UNL     1      24.326  17.622  11.083  1.00  0.00     0.255 C 
ATOM      2  C   UNL     1      24.607  18.884  10.285  1.00  0.00     0.196 C 
ATOM      3  C   UNL     1      25.677  18.415   9.331  1.00  0.00     0.179 C 
ATOM      4  C   UNL     1      25.396  16.907   9.203  1.00  0.00     0.178 C 
ATOM      5  O   UNL     1      24.518  16.509  10.238  1.00  0.00    -0.347 OA
ENDROOT
BRANCH   1   6
ATOM      6  N   UNL     1      22.959  17.633  11.644  1.00  0.00    -0.271 N 
ATOM      7  C   UNL     1      20.669  16.940  11.462  1.00  0.00     0.090 A 
ATOM      8  C   UNL     1      21.968  16.977  10.965  1.00  0.00     0.099 A 
ATOM      9  C   UNL     1      20.399  17.576  12.671  1.00  0.00     0.253 A 
ATOM     10  N   UNL     1      21.398  18.208  13.338  1.00  0.00    -0.274 N 
ATOM     11  O   UNL     1      19.231  17.560  13.144  1.00  0.00    -0.269 OA
ATOM     12  C   UNL     1      22.667  18.237  12.845  1.00  0.00     0.330 A 
ATOM     13  H   UNL     1      21.190  18.676  14.250  1.00  0.00     0.175 HD
ATOM     14  O   UNL     1      23.569  18.819  13.507  1.00  0.00    -0.248 OA
ENDBRANCH   1   6
BRANCH   2  15
ATOM     15  O   UNL     1      25.072  19.908  11.123  1.00  0.00    -0.386 OA
ATOM     16  H   UNL     1      25.616  19.467  11.828  1.00  0.00     0.211 HD
ENDBRANCH   2  15
BRANCH   3  17
ATOM     17  O   UNL     1      25.599  19.095   8.104  1.00  0.00    -0.387 OA
ATOM     18  H   UNL     1      26.336  19.760   8.102  1.00  0.00     0.211 HD
ENDBRANCH   3  17
BRANCH   4  19
ATOM     19  C   UNL     1      24.791  16.505   7.849  1.00  0.00     0.191 C 
BRANCH  19  20
ATOM     20  O   UNL     1      23.502  17.039   7.730  1.00  0.00    -0.394 OA
ATOM     21  H   UNL     1      23.610  17.925   7.295  1.00  0.00     0.210 HD
ENDBRANCH  19  20
ENDBRANCH   4  19
TORSDOF 5
ENDMDL
MODEL 2
REMARK VINA RESULT:    -2.769      1.967      5.411
REMARK INTER + INTRA:          -4.075
REMARK INTER:                  -3.330
REMARK INTRA:                  -0.745
REMARK UNBOUND:                -0.739
REMARK SMILES O=c1ccn([C@H]2O[C@@H](CO)[C@@H](O)[C@@H]2O)c(=O)[nH]1
REMARK SMILES IDX 6 1 13 2 11 3 8 4 7 5 5 6 3 7 4 8 2 9 17 10 1 11 15 12 16 14
REMARK SMILES IDX 14 15 12 17 9 19 10 20
REMARK H PARENT 17 13 14 16 12 18 10 21
REMARK Flexibility Score: inf
ROOT
ATOM      1  C   UNL     1      23.645  16.708  10.974  1.00  0.00     0.255 C 
ATOM      2  C   UNL     1      22.369  17.368  11.468  1.00  0.00     0.196 C 
ATOM      3  C   UNL     1      22.404  17.045  12.941  1.00  0.00     0.179 C 
ATOM      4  C   UNL     1      23.908  16.889  13.230  1.00  0.00     0.178 C 
ATOM      5  O   UNL     1      24.606  16.768  12.005  1.00  0.00    -0.347 OA
ENDROOT
BRANCH   1   6
ATOM      6  N   UNL     1      24.146  17.356   9.744  1.00  0.00    -0.271 N 
ATOM      7  C   UNL     1      25.637  18.938   8.729  1.00  0.00     0.090 A 
ATOM      8  C   UNL     1      25.118  18.313   9.859  1.00  0.00     0.099 A 
ATOM      9  C   UNL     1      25.155  18.563   7.479  1.00  0.00     0.253 A 
ATOM     10  N   UNL     1      24.202  17.601   7.384  1.00  0.00    -0.274 N 
ATOM     11  O   UNL     1      25.606  19.114   6.439  1.00  0.00    -0.269 OA
ATOM     12  C   UNL     1      23.701  16.994   8.495  1.00  0.00     0.330 A 
ATOM     13  H   UNL     1      23.851  17.319   6.439  1.00  0.00     0.175 HD
ATOM     14  O   UNL     1      22.830  16.091   8.359  1.00  0.00    -0.248 OA
ENDBRANCH   1   6
BRANCH   2  15
ATOM     15  O   UNL     1      21.246  16.809  10.842  1.00  0.00    -0.386 OA
ATOM     16  H   UNL     1      20.483  17.411  11.044  1.00  0.00     0.211 HD
ENDBRANCH   2  15
BRANCH   3  17
ATOM     17  O   UNL     1      21.802  18.063  13.700  1.00  0.00    -0.387 OA
ATOM     18  H   UNL     1      21.615  17.676  14.595  1.00  0.00     0.211 HD
ENDBRANCH   3  17
BRANCH   4  19
ATOM     19  C   UNL     1      24.506  18.052  14.036  1.00  0.00     0.191 C 
BRANCH  19  20
ATOM     20  O   UNL     1      24.515  19.214  13.254  1.00  0.00    -0.394 OA
ATOM     21  H   UNL     1      23.762  19.120  12.613  1.00  0.00     0.210 HD
ENDBRANCH  19  20
ENDBRANCH   4  19
TORSDOF 5
ENDMDL
MODEL 3
REMARK VINA RESULT:    -2.645      1.682      2.031
REMARK INTER + INTRA:          -3.926
REMARK INTER:                  -3.173
REMARK INTRA:                  -0.753
REMARK UNBOUND:                -0.739
REMARK SMILES O=c1ccn([C@H]2O[C@@H](CO)[C@@H](O)[C@@H]2O)c(=O)[nH]1
REMARK SMILES IDX 6 1 13 2 11 3 8 4 7 5 5 6 3 7 4 8 2 9 17 10 1 11 15 12 16 14
REMARK SMILES IDX 14 15 12 17 9 19 10 20
REMARK H PARENT 17 13 14 16 12 18 10 21
REMARK Flexibility Score: inf
ROOT
ATOM      1  C   UNL     1      23.743  18.715  12.783  1.00  0.00     0.255 C 
ATOM      2  C   UNL     1      24.336  19.624  11.719  1.00  0.00     0.196 C 
ATOM      3  C   UNL     1      25.694  19.005  11.505  1.00  0.00     0.179 C 
ATOM      4  C   UNL     1      25.472  17.531  11.889  1.00  0.00     0.178 C 
ATOM      5  O   UNL     1      24.246  17.412  12.586  1.00  0.00    -0.347 OA
ENDROOT
BRANCH   1   6
ATOM      6  N   UNL     1      22.265  18.726  12.737  1.00  0.00    -0.271 N 
ATOM      7  C   UNL     1      20.237  17.705  11.964  1.00  0.00     0.090 A 
ATOM      8  C   UNL     1      21.627  17.750  12.021  1.00  0.00     0.099 A 
ATOM      9  C   UNL     1      19.509  18.665  12.660  1.00  0.00     0.253 A 
ATOM     10  N   UNL     1      20.160  19.615  13.378  1.00  0.00    -0.274 N 
ATOM     11  O   UNL     1      18.249  18.648  12.625  1.00  0.00    -0.269 OA
ATOM     12  C   UNL     1      21.520  19.651  13.429  1.00  0.00     0.330 A 
ATOM     13  H   UNL     1      19.606  20.329  13.906  1.00  0.00     0.175 HD
ATOM     14  O   UNL     1      22.083  20.540  14.125  1.00  0.00    -0.248 OA
ENDBRANCH   1   6
BRANCH   2  15
ATOM     15  O   UNL     1      24.435  20.941  12.190  1.00  0.00    -0.386 OA
ATOM     16  H   UNL     1      23.662  21.080  12.799  1.00  0.00     0.211 HD
ENDBRANCH   2  15
BRANCH   3  17
ATOM     17  O   UNL     1      26.125  19.167  10.178  1.00  0.00    -0.387 OA
ATOM     18  H   UNL     1      26.284  20.139  10.049  1.00  0.00     0.211 HD
ENDBRANCH   3  17
BRANCH   4  19
ATOM     19  C   UNL     1      25.459  16.574  10.687  1.00  0.00     0.191 C 
BRANCH  19  20
ATOM     20  O   UNL     1      24.334  16.828   9.893  1.00  0.00    -0.394 OA
ATOM     21  H   UNL     1      23.592  16.300  10.289  1.00  0.00     0.210 HD
ENDBRANCH  19  20
ENDBRANCH   4  19
TORSDOF 5
ENDMDL
MODEL 4
REMARK VINA RESULT:    -2.536      1.699      5.398
REMARK INTER + INTRA:          -3.794
REMARK INTER:                  -3.225
REMARK INTRA:                  -0.569
REMARK UNBOUND:                -0.739
REMARK SMILES O=c1ccn([C@H]2O[C@@H](CO)[C@@H](O)[C@@H]2O)c(=O)[nH]1
REMARK SMILES IDX 6 1 13 2 11 3 8 4 7 5 5 6 3 7 4 8 2 9 17 10 1 11 15 12 16 14
REMARK SMILES IDX 14 15 12 17 9 19 10 20
REMARK H PARENT 17 13 14 16 12 18 10 21
REMARK Flexibility Score: inf
ROOT
ATOM      1  C   UNL     1      23.014  17.950  12.567  1.00  0.00     0.255 C 
ATOM      2  C   UNL     1      22.612  16.564  13.041  1.00  0.00     0.196 C 
ATOM      3  C   UNL     1      21.556  16.882  14.070  1.00  0.00     0.179 C 
ATOM      4  C   UNL     1      21.000  18.236  13.593  1.00  0.00     0.178 C 
ATOM      5  O   UNL     1      21.882  18.789  12.635  1.00  0.00    -0.347 OA
ENDROOT
BRANCH   1   6
ATOM      6  N   UNL     1      23.564  17.911  11.196  1.00  0.00    -0.271 N 
ATOM      7  C   UNL     1      23.573  16.890   9.025  1.00  0.00     0.090 A 
ATOM      8  C   UNL     1      23.101  16.955  10.333  1.00  0.00     0.099 A 
ATOM      9  C   UNL     1      24.516  17.824   8.609  1.00  0.00     0.253 A 
ATOM     10  N   UNL     1      24.951  18.775   9.474  1.00  0.00    -0.274 N 
ATOM     11  O   UNL     1      24.962  17.787   7.430  1.00  0.00    -0.269 OA
ATOM     12  C   UNL     1      24.483  18.832  10.751  1.00  0.00     0.330 A 
ATOM     13  H   UNL     1      25.654  19.479   9.151  1.00  0.00     0.175 HD
ATOM     14  O   UNL     1      24.901  19.745  11.516  1.00  0.00    -0.248 OA
ENDBRANCH   1   6
BRANCH   2  15
ATOM     15  O   UNL     1      23.707  15.898  13.612  1.00  0.00    -0.386 OA
ATOM     16  H   UNL     1      24.521  16.306  13.215  1.00  0.00     0.211 HD
ENDBRANCH   2  15
BRANCH   3  17
ATOM     17  O   UNL     1      20.578  15.875  14.125  1.00  0.00    -0.387 OA
ATOM     18  H   UNL     1      20.141  15.954  15.013  1.00  0.00     0.211 HD
ENDBRANCH   3  17
BRANCH   4  19
ATOM     19  C   UNL     1      19.592  18.146  12.984  1.00  0.00     0.191 C 
BRANCH  19  20
ATOM     20  O   UNL     1      18.639  18.056  14.006  1.00  0.00    -0.394 OA
ATOM     21  H   UNL     1      19.146  18.101  14.859  1.00  0.00     0.210 HD
ENDBRANCH  19  20
ENDBRANCH   4  19
TORSDOF 5
ENDMDL
MODEL 5
REMARK VINA RESULT:    -2.438      2.424      4.083
REMARK INTER + INTRA:          -3.676
REMARK INTER:                  -2.952
REMARK INTRA:                  -0.725
REMARK UNBOUND:                -0.739
REMARK SMILES O=c1ccn([C@H]2O[C@@H](CO)[C@@H](O)[C@@H]2O)c(=O)[nH]1
REMARK SMILES IDX 6 1 13 2 11 3 8 4 7 5 5 6 3 7 4 8 2 9 17 10 1 11 15 12 16 14
REMARK SMILES IDX 14 15 12 17 9 19 10 20
REMARK H PARENT 17 13 14 16 12 18 10 21
REMARK Flexibility Score: inf
ROOT
ATOM      1  C   UNL     1      23.700  17.779  12.483  1.00  0.00     0.255 C 
ATOM      2  C   UNL     1      23.703  17.650  10.969  1.00  0.00     0.196 C 
ATOM      3  C   UNL     1      23.128  16.270  10.775  1.00  0.00     0.179 C 
ATOM      4  C   UNL     1      22.261  16.071  12.032  1.00  0.00     0.178 C 
ATOM      5  O   UNL     1      22.600  17.056  12.989  1.00  0.00    -0.347 OA
ENDROOT
BRANCH   1   6
ATOM      6  N   UNL     1      23.643  19.195  12.902  1.00  0.00    -0.271 N 
ATOM      7  C   UNL     1      22.330  21.045  13.683  1.00  0.00     0.090 A 
ATOM      8  C   UNL     1      22.433  19.723  13.261  1.00  0.00     0.099 A 
ATOM      9  C   UNL     1      23.486  21.817  13.744  1.00  0.00     0.253 A 
ATOM     10  N   UNL     1      24.681  21.272  13.400  1.00  0.00    -0.274 N 
ATOM     11  O   UNL     1      23.422  23.018  14.121  1.00  0.00    -0.269 OA
ATOM     12  C   UNL     1      24.772  19.977  12.989  1.00  0.00     0.330 A 
ATOM     13  H   UNL     1      25.547  21.856  13.456  1.00  0.00     0.175 HD
ATOM     14  O   UNL     1      25.905  19.505  12.698  1.00  0.00    -0.248 OA
ENDBRANCH   1   6
BRANCH   2  15
ATOM     15  O   UNL     1      25.009  17.743  10.466  1.00  0.00    -0.386 OA
ATOM     16  H   UNL     1      25.617  17.633  11.243  1.00  0.00     0.211 HD
ENDBRANCH   2  15
BRANCH   3  17
ATOM     17  O   UNL     1      22.391  16.188   9.581  1.00  0.00    -0.387 OA
ATOM     18  H   UNL     1      22.417  15.237   9.297  1.00  0.00     0.211 HD
ENDBRANCH   3  17
BRANCH   4  19
ATOM     19  C   UNL     1      20.751  16.137  11.758  1.00  0.00     0.191 C 
BRANCH  19  20
ATOM     20  O   UNL     1      20.380  17.456  11.468  1.00  0.00    -0.394 OA
ATOM     21  H   UNL     1      19.690  17.702  12.139  1.00  0.00     0.210 HD
ENDBRANCH  19  20
ENDBRANCH   4  19
TORSDOF 5
ENDMDL
MODEL 6
REMARK VINA RESULT:    -2.368      2.138      4.636
REMARK INTER + INTRA:          -3.592
REMARK INTER:                  -2.849
REMARK INTRA:                  -0.743
REMARK UNBOUND:                -0.739
REMARK SMILES O=c1ccn([C@H]2O[C@@H](CO)[C@@H](O)[C@@H]2O)c(=O)[nH]1
REMARK SMILES IDX 6 1 13 2 11 3 8 4 7 5 5 6 3 7 4 8 2 9 17 10 1 11 15 12 16 14
REMARK SMILES IDX 14 15 12 17 9 19 10 20
REMARK H PARENT 17 13 14 16 12 18 10 21
REMARK Flexibility Score: inf
ROOT
ATOM      1  C   UNL     1      23.371  18.717  13.111  1.00  0.00     0.255 C 
ATOM      2  C   UNL     1      22.677  20.068  13.090  1.00  0.00     0.196 C 
ATOM      3  C   UNL     1      23.461  20.835  14.124  1.00  0.00     0.179 C 
ATOM      4  C   UNL     1      24.841  20.153  14.094  1.00  0.00     0.178 C 
ATOM      5  O   UNL     1      24.735  18.922  13.405  1.00  0.00    -0.347 OA
ENDROOT
BRANCH   1   6
ATOM      6  N   UNL     1      23.206  18.007  11.825  1.00  0.00    -0.271 N 
ATOM      7  C   UNL     1      24.107  17.433   9.677  1.00  0.00     0.090 A 
ATOM      8  C   UNL     1      24.205  18.100  10.894  1.00  0.00     0.099 A 
ATOM      9  C   UNL     1      22.977  16.661   9.429  1.00  0.00     0.253 A 
ATOM     10  N   UNL     1      22.004  16.567  10.370  1.00  0.00    -0.274 N 
ATOM     11  O   UNL     1      22.861  16.048   8.334  1.00  0.00    -0.269 OA
ATOM     12  C   UNL     1      22.109  17.222  11.560  1.00  0.00     0.330 A 
ATOM     13  H   UNL     1      21.160  15.978  10.180  1.00  0.00     0.175 HD
ATOM     14  O   UNL     1      21.190  17.092  12.414  1.00  0.00    -0.248 OA
ENDBRANCH   1   6
BRANCH   2  15
ATOM     15  O   UNL     1      21.328  19.938  13.454  1.00  0.00    -0.386 OA
ATOM     16  H   UNL     1      21.109  18.972  13.379  1.00  0.00     0.211 HD
ENDBRANCH   2  15
BRANCH   3  17
ATOM     17  O   UNL     1      23.518  22.203  13.808  1.00  0.00    -0.387 OA
ATOM     18  H   UNL     1      24.230  22.596  14.379  1.00  0.00     0.211 HD
ENDBRANCH   3  17
BRANCH   4  19
ATOM     19  C   UNL     1      25.937  21.004  13.435  1.00  0.00     0.191 C 
BRANCH  19  20
ATOM     20  O   UNL     1      25.710  21.080  12.055  1.00  0.00    -0.394 OA
ATOM     21  H   UNL     1      26.584  20.890  11.622  1.00  0.00     0.210 HD
ENDBRANCH  19  20
ENDBRANCH   4  19
TORSDOF 5
ENDMDL
MODEL 7
REMARK VINA RESULT:    -2.297      1.688      5.547
REMARK INTER + INTRA:          -3.506
REMARK INTER:                  -3.422
REMARK INTRA:                  -0.084
REMARK UNBOUND:                -0.739
REMARK SMILES O=c1ccn([C@H]2O[C@@H](CO)[C@@H](O)[C@@H]2O)c(=O)[nH]1
REMARK SMILES IDX 6 1 13 2 11 3 8 4 7 5 5 6 3 7 4 8 2 9 17 10 1 11 15 12 16 14
REMARK SMILES IDX 14 15 12 17 9 19 10 20
REMARK H PARENT 17 13 14 16 12 18 10 21
REMARK Flexibility Score: inf
ROOT
ATOM      1  C   UNL     1      22.416  17.647  12.409  1.00  0.00     0.255 C 
ATOM      2  C   UNL     1      20.952  18.012  12.226  1.00  0.00     0.196 C 
ATOM      3  C   UNL     1      20.598  18.565  13.583  1.00  0.00     0.179 C 
ATOM      4  C   UNL     1      21.947  19.088  14.110  1.00  0.00     0.178 C 
ATOM      5  O   UNL     1      22.992  18.561  13.315  1.00  0.00    -0.347 OA
ENDROOT
BRANCH   1   6
ATOM      6  N   UNL     1      23.138  17.651  11.120  1.00  0.00    -0.271 N 
ATOM      7  C   UNL     1      24.870  18.588   9.749  1.00  0.00     0.090 A 
ATOM      8  C   UNL     1      24.146  18.558  10.938  1.00  0.00     0.099 A 
ATOM      9  C   UNL     1      24.554  17.670   8.753  1.00  0.00     0.253 A 
ATOM     10  N   UNL     1      23.561  16.767   8.958  1.00  0.00    -0.274 N 
ATOM     11  O   UNL     1      25.191  17.676   7.666  1.00  0.00    -0.269 OA
ATOM     12  C   UNL     1      22.859  16.744  10.124  1.00  0.00     0.330 A 
ATOM     13  H   UNL     1      23.335  16.074   8.207  1.00  0.00     0.175 HD
ATOM     14  O   UNL     1      21.958  15.875  10.279  1.00  0.00    -0.248 OA
ENDBRANCH   1   6
BRANCH   2  15
ATOM     15  O   UNL     1      20.193  16.874  11.916  1.00  0.00    -0.386 OA
ATOM     16  H   UNL     1      20.840  16.134  11.777  1.00  0.00     0.211 HD
ENDBRANCH   2  15
BRANCH   3  17
ATOM     17  O   UNL     1      19.621  19.570  13.484  1.00  0.00    -0.387 OA
ATOM     18  H   UNL     1      19.951  20.339  14.017  1.00  0.00     0.211 HD
ENDBRANCH   3  17
BRANCH   4  19
ATOM     19  C   UNL     1      22.052  20.621  14.125  1.00  0.00     0.191 C 
BRANCH  19  20
ATOM     20  O   UNL     1      23.293  21.015  13.609  1.00  0.00    -0.394 OA
ATOM     21  H   UNL     1      23.112  21.376  12.701  1.00  0.00     0.210 HD
ENDBRANCH  19  20
ENDBRANCH   4  19
TORSDOF 5
ENDMDL
MODEL 8
REMARK VINA RESULT:    -2.128      2.096      3.411
REMARK INTER + INTRA:          -3.303
REMARK INTER:                  -2.820
REMARK INTRA:                  -0.483
REMARK UNBOUND:                -0.739
REMARK SMILES O=c1ccn([C@H]2O[C@@H](CO)[C@@H](O)[C@@H]2O)c(=O)[nH]1
REMARK SMILES IDX 6 1 13 2 11 3 8 4 7 5 5 6 3 7 4 8 2 9 17 10 1 11 15 12 16 14
REMARK SMILES IDX 14 15 12 17 9 19 10 20
REMARK H PARENT 17 13 14 16 12 18 10 21
REMARK Flexibility Score: inf
ROOT
ATOM      1  C   UNL     1      22.559  18.006  11.985  1.00  0.00     0.255 C 
ATOM      2  C   UNL     1      23.124  16.869  11.151  1.00  0.00     0.196 C 
ATOM      3  C   UNL     1      24.609  17.092  11.289  1.00  0.00     0.179 C 
ATOM      4  C   UNL     1      24.730  17.810  12.646  1.00  0.00     0.178 C 
ATOM      5  O   UNL     1      23.453  18.268  13.044  1.00  0.00    -0.347 OA
ENDROOT
BRANCH   1   6
ATOM      6  N   UNL     1      21.211  17.681  12.496  1.00  0.00    -0.271 N 
ATOM      7  C   UNL     1      19.570  16.009  13.013  1.00  0.00     0.090 A 
ATOM      8  C   UNL     1      20.821  16.369  12.522  1.00  0.00     0.099 A 
ATOM      9  C   UNL     1      18.726  17.009  13.488  1.00  0.00     0.253 A 
ATOM     10  N   UNL     1      19.137  18.303  13.468  1.00  0.00    -0.274 N 
ATOM     11  O   UNL     1      17.587  16.712  13.936  1.00  0.00    -0.269 OA
ATOM     12  C   UNL     1      20.364  18.646  12.987  1.00  0.00     0.330 A 
ATOM     13  H   UNL     1      18.500  19.048  13.835  1.00  0.00     0.175 HD
ATOM     14  O   UNL     1      20.712  19.858  13.006  1.00  0.00    -0.248 OA
ENDBRANCH   1   6
BRANCH   2  15
ATOM     15  O   UNL     1      22.707  16.978   9.816  1.00  0.00    -0.386 OA
ATOM     16  H   UNL     1      22.957  16.124   9.373  1.00  0.00     0.211 HD
ENDBRANCH   2  15
BRANCH   3  17
ATOM     17  O   UNL     1      25.313  15.876  11.247  1.00  0.00    -0.387 OA
ATOM     18  H   UNL     1      24.751  15.242  10.728  1.00  0.00     0.211 HD
ENDBRANCH   3  17
BRANCH   4  19
ATOM     19  C   UNL     1      25.318  16.930  13.760  1.00  0.00     0.191 C 
BRANCH  19  20
ATOM     20  O   UNL     1      24.390  15.946  14.125  1.00  0.00    -0.394 OA
ATOM     21  H   UNL     1      24.922  15.145  14.374  1.00  0.00     0.210 HD
ENDBRANCH  19  20
ENDBRANCH   4  19
TORSDOF 5
ENDMDL
MODEL 9
REMARK VINA RESULT:    -1.916      2.758      5.594
REMARK INTER + INTRA:          -3.048
REMARK INTER:                  -2.928
REMARK INTRA:                  -0.120
REMARK UNBOUND:                -0.739
REMARK SMILES O=c1ccn([C@H]2O[C@@H](CO)[C@@H](O)[C@@H]2O)c(=O)[nH]1
REMARK SMILES IDX 6 1 13 2 11 3 8 4 7 5 5 6 3 7 4 8 2 9 17 10 1 11 15 12 16 14
REMARK SMILES IDX 14 15 12 17 9 19 10 20
REMARK H PARENT 17 13 14 16 12 18 10 21
REMARK Flexibility Score: inf
ROOT
ATOM      1  C   UNL     1      21.849  18.608  13.887  1.00  0.00     0.255 C 
ATOM      2  C   UNL     1      21.611  17.169  13.462  1.00  0.00     0.196 C 
ATOM      3  C   UNL     1      20.184  16.949  13.898  1.00  0.00     0.179 C 
ATOM      4  C   UNL     1      19.583  18.366  13.858  1.00  0.00     0.178 C 
ATOM      5  O   UNL     1      20.632  19.312  13.774  1.00  0.00    -0.347 OA
ENDROOT
BRANCH   1   6
ATOM      6  N   UNL     1      22.907  19.242  13.073  1.00  0.00    -0.271 N 
ATOM      7  C   UNL     1      24.489  19.062  11.279  1.00  0.00     0.090 A 
ATOM      8  C   UNL     1      23.503  18.504  12.087  1.00  0.00     0.099 A 
ATOM      9  C   UNL     1      24.850  20.389  11.488  1.00  0.00     0.253 A 
ATOM     10  N   UNL     1      24.236  21.110  12.460  1.00  0.00    -0.274 N 
ATOM     11  O   UNL     1      25.742  20.920  10.772  1.00  0.00    -0.269 OA
ATOM     12  C   UNL     1      23.271  20.557  13.245  1.00  0.00     0.330 A 
ATOM     13  H   UNL     1      24.507  22.111  12.606  1.00  0.00     0.175 HD
ATOM     14  O   UNL     1      22.713  21.269  14.124  1.00  0.00    -0.248 OA
ENDBRANCH   1   6
BRANCH   2  15
ATOM     15  O   UNL     1      22.493  16.303  14.125  1.00  0.00    -0.386 OA
ATOM     16  H   UNL     1      21.956  15.517  14.407  1.00  0.00     0.211 HD
ENDBRANCH   2  15
BRANCH   3  17
ATOM     17  O   UNL     1      19.524  16.049  13.044  1.00  0.00    -0.387 OA
ATOM     18  H   UNL     1      20.165  15.823  12.321  1.00  0.00     0.211 HD
ENDBRANCH   3  17
BRANCH   4  19
ATOM     19  C   UNL     1      18.610  18.592  12.691  1.00  0.00     0.191 C 
BRANCH  19  20
ATOM     20  O   UNL     1      19.330  18.864  11.520  1.00  0.00    -0.394 OA
ATOM     21  H   UNL     1      18.654  18.980  10.802  1.00  0.00     0.210 HD
ENDBRANCH  19  20
ENDBRANCH   4  19
TORSDOF 5
ENDMDL
