MODEL 1
REMARK VINA RESULT:    -4.282      0.000      0.000
REMARK INTER + INTRA:          -4.647
REMARK INTER:                  -5.284
REMARK INTRA:                   0.637
REMARK UNBOUND:                 0.637
REMARK SMILES C=C1[C@@H]2CC[C@H]3[C@@H]2C(C)(C)CCC[C@@]13C
REMARK SMILES IDX 14 1 6 2 7 3 3 4 2 5 1 6 4 7 5 8 15 9 8 10 9 11 10 12 11 13
REMARK SMILES IDX 13 15 12 16
REMARK H PARENT
REMARK Flexibility Score: 80.00
ROOT
ATOM      1  C   UNL     1     -42.348 -49.955  30.452  1.00  0.00    -0.008 C 
ATOM      2  C   UNL     1     -43.654 -49.066  30.466  1.00  0.00     0.003 C 
ATOM      3  C   UNL     1     -44.814 -50.074  30.321  1.00  0.00     0.006 C 
ATOM      4  C   UNL     1     -44.212 -50.738  29.081  1.00  0.00     0.019 C 
ATOM      5  C   UNL     1     -42.819 -51.063  29.543  1.00  0.00    -0.068 C 
ATOM      6  C   UNL     1     -42.098 -52.114  29.135  1.00  0.00     0.009 C 
ATOM      7  C   UNL     1     -44.089 -49.525  28.130  1.00  0.00     0.008 C 
ATOM      8  C   UNL     1     -43.807 -48.348  29.097  1.00  0.00     0.005 C 
ATOM      9  C   UNL     1     -41.115 -49.234  29.844  1.00  0.00     0.016 C 
ENDROOT
BRANCH   3  10
ATOM     10  C   UNL     1     -45.249 -50.965  31.563  1.00  0.00    -0.032 C 
ATOM     11  C   UNL     1     -45.549 -52.424  31.138  1.00  0.00     0.011 C 
ATOM     12  C   UNL     1     -46.585 -50.392  32.114  1.00  0.00     0.011 C 
BRANCH  10  13
ATOM     13  C   UNL     1     -44.264 -50.937  32.767  1.00  0.00     0.007 CG0
ATOM     14  G   UNL     1     -42.866 -51.485  32.496  1.00  0.00     0.000 G0
ENDBRANCH  10  13
ENDBRANCH   3  10
BRANCH   1  15
ATOM     15  C   UNL     1     -41.945 -50.451  31.867  1.00  0.00     0.011 C 
BRANCH  15  16
ATOM     16  C   UNL     1     -42.872 -51.482  32.503  1.00  0.00     0.001 CG0
ATOM     17  G   UNL     1     -44.272 -50.929  32.756  1.00  0.00     0.000 G0
ENDBRANCH  15  16
ENDBRANCH   1  15
TORSDOF 0
ENDMDL
MODEL 2
REMARK VINA RESULT:    -4.228     10.021     12.074
REMARK INTER + INTRA:          -4.580
REMARK INTER:                  -5.217
REMARK INTRA:                   0.638
REMARK UNBOUND:                 0.637
REMARK SMILES C=C1[C@@H]2CC[C@H]3[C@@H]2C(C)(C)CCC[C@@]13C
REMARK SMILES IDX 14 1 6 2 7 3 3 4 2 5 1 6 4 7 5 8 15 9 8 10 9 11 10 12 11 13
REMARK SMILES IDX 13 15 12 16
REMARK H PARENT
REMARK Flexibility Score: 80.00
ROOT
ATOM      1  C   UNL     1     -49.118 -48.285  22.076  1.00  0.00    -0.008 C 
ATOM      2  C   UNL     1     -49.462 -49.791  22.408  1.00  0.00     0.003 C 
ATOM      3  C   UNL     1     -50.959 -49.934  22.060  1.00  0.00     0.006 C 
ATOM      4  C   UNL     1     -51.372 -48.728  22.905  1.00  0.00     0.019 C 
ATOM      5  C   UNL     1     -50.452 -47.656  22.394  1.00  0.00    -0.068 C 
ATOM      6  C   UNL     1     -50.750 -46.353  22.328  1.00  0.00     0.009 C 
ATOM      7  C   UNL     1     -50.835 -49.146  24.294  1.00  0.00     0.008 C 
ATOM      8  C   UNL     1     -49.570 -49.971  23.946  1.00  0.00     0.005 C 
ATOM      9  C   UNL     1     -48.003 -47.691  22.978  1.00  0.00     0.016 C 
ENDROOT
BRANCH   3  10
ATOM     10  C   UNL     1     -51.414 -50.029  20.540  1.00  0.00    -0.032 C 
ATOM     11  C   UNL     1     -52.687 -49.186  20.275  1.00  0.00     0.011 C 
ATOM     12  C   UNL     1     -51.806 -51.504  20.252  1.00  0.00     0.011 C 
BRANCH  10  13
ATOM     13  C   UNL     1     -50.307 -49.688  19.502  1.00  0.00     0.007 CG0
ATOM     14  G   UNL     1     -49.770 -48.260  19.546  1.00  0.00     0.000 G0
ENDBRANCH  10  13
ENDBRANCH   3  10
BRANCH   1  15
ATOM     15  C   UNL     1     -48.679 -48.080  20.601  1.00  0.00     0.011 C 
BRANCH  15  16
ATOM     16  C   UNL     1     -49.770 -48.263  19.549  1.00  0.00     0.001 CG0
ATOM     17  G   UNL     1     -50.302 -49.692  19.503  1.00  0.00     0.000 G0
ENDBRANCH  15  16
ENDBRANCH   1  15
TORSDOF 0
ENDMDL
MODEL 3
REMARK VINA RESULT:    -4.162      4.560      6.390
REMARK INTER + INTRA:          -4.499
REMARK INTER:                  -5.127
REMARK INTRA:                   0.629
REMARK UNBOUND:                 0.637
REMARK SMILES C=C1[C@@H]2CC[C@H]3[C@@H]2C(C)(C)CCC[C@@]13C
REMARK SMILES IDX 14 1 6 2 7 3 3 4 2 5 1 6 4 7 5 8 15 9 8 10 9 11 10 12 11 13
REMARK SMILES IDX 13 15 12 16
REMARK H PARENT
REMARK Flexibility Score: 80.00
ROOT
ATOM      1  C   UNL     1     -42.397 -46.841  26.732  1.00  0.00    -0.008 C 
ATOM      2  C   UNL     1     -41.831 -48.238  26.260  1.00  0.00     0.003 C 
ATOM      3  C   UNL     1     -43.037 -49.198  26.352  1.00  0.00     0.006 C 
ATOM      4  C   UNL     1     -43.354 -48.818  27.800  1.00  0.00     0.019 C 
ATOM      5  C   UNL     1     -43.429 -47.319  27.721  1.00  0.00    -0.068 C 
ATOM      6  C   UNL     1     -44.220 -46.548  28.478  1.00  0.00     0.009 C 
ATOM      7  C   UNL     1     -42.014 -49.157  28.493  1.00  0.00     0.008 C 
ATOM      8  C   UNL     1     -40.965 -48.855  27.392  1.00  0.00     0.005 C 
ATOM      9  C   UNL     1     -41.337 -45.949  27.433  1.00  0.00     0.016 C 
ENDROOT
BRANCH   3  10
ATOM     10  C   UNL     1     -44.180 -49.142  25.251  1.00  0.00    -0.032 C 
ATOM     11  C   UNL     1     -45.587 -49.283  25.884  1.00  0.00     0.011 C 
ATOM     12  C   UNL     1     -44.002 -50.371  24.317  1.00  0.00     0.011 C 
BRANCH  10  13
ATOM     13  C   UNL     1     -44.125 -47.903  24.311  1.00  0.00     0.007 CG0
ATOM     14  G   UNL     1     -44.323 -46.548  24.985  1.00  0.00     0.000 G0
ENDBRANCH  10  13
ENDBRANCH   3  10
BRANCH   1  15
ATOM     15  C   UNL     1     -43.001 -46.013  25.565  1.00  0.00     0.011 C 
BRANCH  15  16
ATOM     16  C   UNL     1     -44.307 -46.541  24.979  1.00  0.00     0.001 CG0
ATOM     17  G   UNL     1     -44.137 -47.901  24.309  1.00  0.00     0.000 G0
ENDBRANCH  15  16
ENDBRANCH   1  15
TORSDOF 0
ENDMDL
MODEL 4
REMARK VINA RESULT:    -4.143     10.690     12.638
REMARK INTER + INTRA:          -4.475
REMARK INTER:                  -5.109
REMARK INTRA:                   0.634
REMARK UNBOUND:                 0.637
REMARK SMILES C=C1[C@@H]2CC[C@H]3[C@@H]2C(C)(C)CCC[C@@]13C
REMARK SMILES IDX 14 1 6 2 7 3 3 4 2 5 1 6 4 7 5 8 15 9 8 10 9 11 10 12 11 13
REMARK SMILES IDX 13 15 12 16
REMARK H PARENT
REMARK Flexibility Score: 80.00
ROOT
ATOM      1  C   UNL     1     -49.955 -47.968  21.439  1.00  0.00    -0.008 C 
ATOM      2  C   UNL     1     -50.099 -47.923  19.866  1.00  0.00     0.003 C 
ATOM      3  C   UNL     1     -50.440 -49.375  19.465  1.00  0.00     0.006 C 
ATOM      4  C   UNL     1     -49.253 -49.968  20.226  1.00  0.00     0.019 C 
ATOM      5  C   UNL     1     -49.427 -49.371  21.594  1.00  0.00    -0.068 C 
ATOM      6  C   UNL     1     -49.079 -49.966  22.742  1.00  0.00     0.009 C 
ATOM      7  C   UNL     1     -48.075 -49.216  19.564  1.00  0.00     0.008 C 
ATOM      8  C   UNL     1     -48.690 -47.836  19.219  1.00  0.00     0.005 C 
ATOM      9  C   UNL     1     -48.940 -46.935  21.997  1.00  0.00     0.016 C 
ENDROOT
BRANCH   3  10
ATOM     10  C   UNL     1     -51.903 -49.943  19.714  1.00  0.00    -0.032 C 
ATOM     11  C   UNL     1     -51.865 -51.398  20.246  1.00  0.00     0.011 C 
ATOM     12  C   UNL     1     -52.629 -50.004  18.342  1.00  0.00     0.011 C 
BRANCH  10  13
ATOM     13  C   UNL     1     -52.807 -49.055  20.617  1.00  0.00     0.007 CG0
ATOM     14  G   UNL     1     -52.322 -48.851  22.049  1.00  0.00     0.000 G0
ENDBRANCH  10  13
ENDBRANCH   3  10
BRANCH   1  15
ATOM     15  C   UNL     1     -51.304 -47.734  22.172  1.00  0.00     0.011 C 
BRANCH  15  16
ATOM     16  C   UNL     1     -52.333 -48.854  22.049  1.00  0.00     0.001 CG0
ATOM     17  G   UNL     1     -52.804 -49.058  20.612  1.00  0.00     0.000 G0
ENDBRANCH  15  16
ENDBRANCH   1  15
TORSDOF 0
ENDMDL
MODEL 5
REMARK VINA RESULT:    -4.090      3.249      5.460
REMARK INTER + INTRA:          -4.409
REMARK INTER:                  -5.047
REMARK INTRA:                   0.638
REMARK UNBOUND:                 0.637
REMARK SMILES C=C1[C@@H]2CC[C@H]3[C@@H]2C(C)(C)CCC[C@@]13C
REMARK SMILES IDX 14 1 6 2 7 3 3 4 2 5 1 6 4 7 5 8 15 9 8 10 9 11 10 12 11 13
REMARK SMILES IDX 13 15 12 16
REMARK H PARENT
REMARK Flexibility Score: 80.00
ROOT
ATOM      1  C   UNL     1     -44.849 -47.636  26.004  1.00  0.00    -0.008 C 
ATOM      2  C   UNL     1     -45.019 -49.159  26.391  1.00  0.00     0.003 C 
ATOM      3  C   UNL     1     -43.584 -49.649  26.682  1.00  0.00     0.006 C 
ATOM      4  C   UNL     1     -43.033 -49.134  25.352  1.00  0.00     0.019 C 
ATOM      5  C   UNL     1     -43.488 -47.702  25.356  1.00  0.00    -0.068 C 
ATOM      6  C   UNL     1     -42.828 -46.683  24.793  1.00  0.00     0.009 C 
ATOM      7  C   UNL     1     -43.941 -49.882  24.348  1.00  0.00     0.008 C 
ATOM      8  C   UNL     1     -45.287 -49.992  25.109  1.00  0.00     0.005 C 
ATOM      9  C   UNL     1     -45.913 -47.132  24.993  1.00  0.00     0.016 C 
ENDROOT
BRANCH   3  10
ATOM     10  C   UNL     1     -42.870 -49.248  28.043  1.00  0.00    -0.032 C 
ATOM     11  C   UNL     1     -41.385 -48.868  27.816  1.00  0.00     0.011 C 
ATOM     12  C   UNL     1     -42.859 -50.501  28.963  1.00  0.00     0.011 C 
BRANCH  10  13
ATOM     13  C   UNL     1     -43.597 -48.144  28.864  1.00  0.00     0.007 CG0
ATOM     14  G   UNL     1     -43.708 -46.779  28.192  1.00  0.00     0.000 G0
ENDBRANCH  10  13
ENDBRANCH   3  10
BRANCH   1  15
ATOM     15  C   UNL     1     -44.897 -46.695  27.237  1.00  0.00     0.011 C 
BRANCH  15  16
ATOM     16  C   UNL     1     -43.708 -46.779  28.189  1.00  0.00     0.001 CG0
ATOM     17  G   UNL     1     -43.598 -48.143  28.864  1.00  0.00     0.000 G0
ENDBRANCH  15  16
ENDBRANCH   1  15
TORSDOF 0
ENDMDL
MODEL 6
REMARK VINA RESULT:    -4.083      2.951      5.020
REMARK INTER + INTRA:          -4.401
REMARK INTER:                  -5.033
REMARK INTRA:                   0.632
REMARK UNBOUND:                 0.637
REMARK SMILES C=C1[C@@H]2CC[C@H]3[C@@H]2C(C)(C)CCC[C@@]13C
REMARK SMILES IDX 14 1 6 2 7 3 3 4 2 5 1 6 4 7 5 8 15 9 8 10 9 11 10 12 11 13
REMARK SMILES IDX 13 15 12 16
REMARK H PARENT
REMARK Flexibility Score: 80.00
ROOT
ATOM      1  C   UNL     1     -43.327 -47.996  26.064  1.00  0.00    -0.008 C 
ATOM      2  C   UNL     1     -41.912 -48.222  26.729  1.00  0.00     0.003 C 
ATOM      3  C   UNL     1     -42.171 -48.098  28.246  1.00  0.00     0.006 C 
ATOM      4  C   UNL     1     -42.879 -46.748  28.114  1.00  0.00     0.019 C 
ATOM      5  C   UNL     1     -43.917 -47.038  27.068  1.00  0.00    -0.068 C 
ATOM      6  C   UNL     1     -45.124 -46.464  27.001  1.00  0.00     0.009 C 
ATOM      7  C   UNL     1     -41.780 -45.907  27.424  1.00  0.00     0.008 C 
ATOM      8  C   UNL     1     -41.043 -46.948  26.544  1.00  0.00     0.005 C 
ATOM      9  C   UNL     1     -43.252 -47.340  24.659  1.00  0.00     0.016 C 
ENDROOT
BRANCH   3  10
ATOM     10  C   UNL     1     -42.875 -49.287  29.030  1.00  0.00    -0.032 C 
ATOM     11  C   UNL     1     -43.912 -48.759  30.053  1.00  0.00     0.011 C 
ATOM     12  C   UNL     1     -41.785 -50.022  29.859  1.00  0.00     0.011 C 
BRANCH  10  13
ATOM     13  C   UNL     1     -43.509 -50.383  28.125  1.00  0.00     0.007 CG0
ATOM     14  G   UNL     1     -44.652 -49.924  27.224  1.00  0.00     0.000 G0
ENDBRANCH  10  13
ENDBRANCH   3  10
BRANCH   1  15
ATOM     15  C   UNL     1     -44.138 -49.311  25.918  1.00  0.00     0.011 C 
BRANCH  15  16
ATOM     16  C   UNL     1     -44.648 -49.928  27.217  1.00  0.00     0.001 CG0
ATOM     17  G   UNL     1     -43.513 -50.388  28.128  1.00  0.00     0.000 G0
ENDBRANCH  15  16
ENDBRANCH   1  15
TORSDOF 0
ENDMDL
MODEL 7
REMARK VINA RESULT:    -4.068      2.660      4.984
REMARK INTER + INTRA:          -4.382
REMARK INTER:                  -5.014
REMARK INTRA:                   0.632
REMARK UNBOUND:                 0.637
REMARK SMILES C=C1[C@@H]2CC[C@H]3[C@@H]2C(C)(C)CCC[C@@]13C
REMARK SMILES IDX 14 1 6 2 7 3 3 4 2 5 1 6 4 7 5 8 15 9 8 10 9 11 10 12 11 13
REMARK SMILES IDX 13 15 12 16
REMARK H PARENT
REMARK Flexibility Score: 80.00
ROOT
ATOM      1  C   UNL     1     -43.865 -49.045  29.662  1.00  0.00    -0.008 C 
ATOM      2  C   UNL     1     -42.365 -49.088  30.159  1.00  0.00     0.003 C 
ATOM      3  C   UNL     1     -41.534 -49.278  28.872  1.00  0.00     0.006 C 
ATOM      4  C   UNL     1     -42.346 -50.490  28.409  1.00  0.00     0.019 C 
ATOM      5  C   UNL     1     -43.754 -49.969  28.476  1.00  0.00    -0.068 C 
ATOM      6  C   UNL     1     -44.752 -50.344  27.667  1.00  0.00     0.009 C 
ATOM      7  C   UNL     1     -42.169 -51.439  29.617  1.00  0.00     0.008 C 
ATOM      8  C   UNL     1     -42.077 -50.464  30.818  1.00  0.00     0.005 C 
ATOM      9  C   UNL     1     -44.876 -49.603  30.699  1.00  0.00     0.016 C 
ENDROOT
BRANCH   3  10
ATOM     10  C   UNL     1     -41.310 -48.053  27.885  1.00  0.00    -0.032 C 
ATOM     11  C   UNL     1     -41.433 -48.487  26.403  1.00  0.00     0.011 C 
ATOM     12  C   UNL     1     -39.850 -47.555  28.070  1.00  0.00     0.011 C 
BRANCH  10  13
ATOM     13  C   UNL     1     -42.205 -46.812  28.166  1.00  0.00     0.007 CG0
ATOM     14  G   UNL     1     -43.708 -47.027  28.014  1.00  0.00     0.000 G0
ENDBRANCH  10  13
ENDBRANCH   3  10
BRANCH   1  15
ATOM     15  C   UNL     1     -44.331 -47.613  29.285  1.00  0.00     0.011 C 
BRANCH  15  16
ATOM     16  C   UNL     1     -43.709 -47.020  28.023  1.00  0.00     0.001 CG0
ATOM     17  G   UNL     1     -42.204 -46.815  28.157  1.00  0.00     0.000 G0
ENDBRANCH  15  16
ENDBRANCH   1  15
TORSDOF 0
ENDMDL
MODEL 8
REMARK VINA RESULT:    -4.062      9.714     11.658
REMARK INTER + INTRA:          -4.375
REMARK INTER:                  -5.001
REMARK INTRA:                   0.626
REMARK UNBOUND:                 0.637
REMARK SMILES C=C1[C@@H]2CC[C@H]3[C@@H]2C(C)(C)CCC[C@@]13C
REMARK SMILES IDX 14 1 6 2 7 3 3 4 2 5 1 6 4 7 5 8 15 9 8 10 9 11 10 12 11 13
REMARK SMILES IDX 13 15 12 16
REMARK H PARENT
REMARK Flexibility Score: 80.00
ROOT
ATOM      1  C   UNL     1     -50.758 -48.190  23.964  1.00  0.00    -0.008 C 
ATOM      2  C   UNL     1     -52.207 -48.273  23.340  1.00  0.00     0.003 C 
ATOM      3  C   UNL     1     -52.009 -47.921  21.850  1.00  0.00     0.006 C 
ATOM      4  C   UNL     1     -51.253 -46.627  22.154  1.00  0.00     0.019 C 
ATOM      5  C   UNL     1     -50.181 -47.102  23.093  1.00  0.00    -0.068 C 
ATOM      6  C   UNL     1     -48.954 -46.576  23.190  1.00  0.00     0.009 C 
ATOM      7  C   UNL     1     -52.294 -45.876  23.018  1.00  0.00     0.008 C 
ATOM      8  C   UNL     1     -53.025 -47.023  23.761  1.00  0.00     0.005 C 
ATOM      9  C   UNL     1     -50.751 -47.758  25.456  1.00  0.00     0.016 C 
ENDROOT
BRANCH   3  10
ATOM     10  C   UNL     1     -51.378 -48.992  20.860  1.00  0.00    -0.032 C 
ATOM     11  C   UNL     1     -50.375 -48.336  19.878  1.00  0.00     0.011 C 
ATOM     12  C   UNL     1     -52.527 -49.565  19.984  1.00  0.00     0.011 C 
BRANCH  10  13
ATOM     13  C   UNL     1     -50.735 -50.228  21.553  1.00  0.00     0.007 CG0
ATOM     14  G   UNL     1     -49.544 -49.937  22.460  1.00  0.00     0.000 G0
ENDBRANCH  10  13
ENDBRANCH   3  10
BRANCH   1  15
ATOM     15  C   UNL     1     -49.983 -49.532  23.866  1.00  0.00     0.011 C 
BRANCH  15  16
ATOM     16  C   UNL     1     -49.547 -49.950  22.465  1.00  0.00     0.001 CG0
ATOM     17  G   UNL     1     -50.732 -50.237  21.548  1.00  0.00     0.000 G0
ENDBRANCH  15  16
ENDBRANCH   1  15
TORSDOF 0
ENDMDL
MODEL 9
REMARK VINA RESULT:    -4.028      3.526      5.468
REMARK INTER + INTRA:          -4.333
REMARK INTER:                  -4.968
REMARK INTRA:                   0.636
REMARK UNBOUND:                 0.637
REMARK SMILES C=C1[C@@H]2CC[C@H]3[C@@H]2C(C)(C)CCC[C@@]13C
REMARK SMILES IDX 14 1 6 2 7 3 3 4 2 5 1 6 4 7 5 8 15 9 8 10 9 11 10 12 11 13
REMARK SMILES IDX 13 15 12 16
REMARK H PARENT
REMARK Flexibility Score: 80.00
ROOT
ATOM      1  C   UNL     1     -43.443 -47.433  27.287  1.00  0.00    -0.008 C 
ATOM      2  C   UNL     1     -43.238 -47.707  28.829  1.00  0.00     0.003 C 
ATOM      3  C   UNL     1     -42.180 -48.831  28.887  1.00  0.00     0.006 C 
ATOM      4  C   UNL     1     -42.948 -49.738  27.924  1.00  0.00     0.019 C 
ATOM      5  C   UNL     1     -43.192 -48.822  26.758  1.00  0.00    -0.068 C 
ATOM      6  C   UNL     1     -43.265 -49.209  25.478  1.00  0.00     0.009 C 
ATOM      7  C   UNL     1     -44.298 -49.877  28.665  1.00  0.00     0.008 C 
ATOM      8  C   UNL     1     -44.449 -48.509  29.378  1.00  0.00     0.005 C 
ATOM      9  C   UNL     1     -44.877 -46.960  26.928  1.00  0.00     0.016 C 
ENDROOT
BRANCH   3  10
ATOM     10  C   UNL     1     -40.652 -48.496  28.610  1.00  0.00    -0.032 C 
ATOM     11  C   UNL     1     -39.981 -49.583  27.734  1.00  0.00     0.011 C 
ATOM     12  C   UNL     1     -39.905 -48.518  29.973  1.00  0.00     0.011 C 
BRANCH  10  13
ATOM     13  C   UNL     1     -40.387 -47.080  28.021  1.00  0.00     0.007 CG0
ATOM     14  G   UNL     1     -40.988 -46.808  26.646  1.00  0.00     0.000 G0
ENDBRANCH  10  13
ENDBRANCH   3  10
BRANCH   1  15
ATOM     15  C   UNL     1     -42.453 -46.375  26.729  1.00  0.00     0.011 C 
BRANCH  15  16
ATOM     16  C   UNL     1     -40.991 -46.807  26.646  1.00  0.00     0.001 CG0
ATOM     17  G   UNL     1     -40.387 -47.082  28.019  1.00  0.00     0.000 G0
ENDBRANCH  15  16
ENDBRANCH   1  15
TORSDOF 0
ENDMDL
