MODEL 1
REMARK VINA RESULT:    -4.296      0.000      0.000
REMARK INTER + INTRA:          -6.864
REMARK INTER:                  -6.556
REMARK INTRA:                  -0.308
REMARK UNBOUND:                -0.308
REMARK SMILES CC1=CCC[C@@H](C)C(=O)C[C@H](C(C)C)C(=O)C1
REMARK SMILES IDX 8 1 9 2 6 3 7 4 5 5 4 6 3 7 2 8 1 9 10 11 11 12 15 13 16 14
REMARK SMILES IDX 17 15 12 17 13 18 14 19
REMARK H PARENT
REMARK Flexibility Score: 70.00
ROOT
ATOM      1  C   UNL     1      17.037 -32.266  23.852  1.00  0.00     0.136 C 
ATOM      2  O   UNL     1      17.705 -31.334  23.430  1.00  0.00    -0.299 OA
ENDROOT
BRANCH   1   3
ATOM      3  C   UNL     1      17.739 -33.399  24.585  1.00  0.00     0.053 C 
ATOM      4  C   UNL     1      18.577 -32.842  25.742  1.00  0.00     0.016 C 
BRANCH   3   5
ATOM      5  C   UNL     1      18.607 -34.264  23.646  1.00  0.00     0.015 C 
BRANCH   5   6
ATOM      6  C   UNL     1      17.796 -35.405  23.010  1.00  0.00     0.028 C 
BRANCH   6   7
ATOM      7  C   UNL     1      17.586 -35.235  21.525  1.00  0.00    -0.028 C 
ATOM      8  C   UNL     1      16.421 -34.902  20.907  1.00  0.00    -0.070 CG0
ATOM      9  C   UNL     1      16.418 -34.916  19.397  1.00  0.00     0.039 C 
ATOM     10  G   UNL     1      15.154 -34.443  21.626  1.00  0.00     0.000 G0
ENDBRANCH   6   7
ENDBRANCH   5   6
ENDBRANCH   3   5
ENDBRANCH   1   3
BRANCH   1  11
ATOM     11  C   UNL     1      15.552 -32.301  23.562  1.00  0.00     0.087 C 
BRANCH  11  12
ATOM     12  C   UNL     1      15.160 -31.855  22.123  1.00  0.00     0.066 C 
BRANCH  12  13
ATOM     13  C   UNL     1      14.663 -33.041  21.297  1.00  0.00     0.140 C 
ATOM     14  O   UNL     1      13.936 -32.862  20.330  1.00  0.00    -0.299 OA
BRANCH  13  15
ATOM     15  C   UNL     1      15.133 -34.438  21.619  1.00  0.00     0.106 CG0
ATOM     16  G   UNL     1      16.399 -34.878  20.885  1.00  0.00     0.000 G0
ENDBRANCH  13  15
ENDBRANCH  12  13
BRANCH  12  17
ATOM     17  C   UNL     1      14.182 -30.629  22.060  1.00  0.00    -0.006 C 
ATOM     18  C   UNL     1      14.926 -29.359  21.602  1.00  0.00     0.008 C 
ATOM     19  C   UNL     1      13.499 -30.332  23.407  1.00  0.00     0.008 C 
ENDBRANCH  12  17
ENDBRANCH  11  12
ENDBRANCH   1  11
TORSDOF 1
ENDMDL
MODEL 2
REMARK VINA RESULT:    -4.244      1.838      4.926
REMARK INTER + INTRA:          -6.784
REMARK INTER:                  -6.848
REMARK INTRA:                   0.064
REMARK UNBOUND:                -0.308
REMARK SMILES CC1=CCC[C@@H](C)C(=O)C[C@H](C(C)C)C(=O)C1
REMARK SMILES IDX 8 1 9 2 6 3 7 4 5 5 4 6 3 7 2 8 1 9 10 11 11 12 15 13 16 14
REMARK SMILES IDX 17 15 12 17 13 18 14 19
REMARK H PARENT
REMARK Flexibility Score: 70.00
ROOT
ATOM      1  C   UNL     1      14.001 -32.247  21.240  1.00  0.00     0.136 C 
ATOM      2  O   UNL     1      13.063 -31.958  20.511  1.00  0.00    -0.299 OA
ENDROOT
BRANCH   1   3
ATOM      3  C   UNL     1      14.524 -31.200  22.212  1.00  0.00     0.053 C 
ATOM      4  C   UNL     1      13.381 -30.672  23.088  1.00  0.00     0.016 C 
BRANCH   3   5
ATOM      5  C   UNL     1      15.249 -30.039  21.498  1.00  0.00     0.015 C 
BRANCH   5   6
ATOM      6  C   UNL     1      16.735 -29.971  21.885  1.00  0.00     0.028 C 
BRANCH   6   7
ATOM      7  C   UNL     1      17.038 -30.619  23.215  1.00  0.00    -0.028 C 
ATOM      8  C   UNL     1      17.526 -31.873  23.409  1.00  0.00    -0.070 CG0
ATOM      9  C   UNL     1      17.630 -32.356  24.836  1.00  0.00     0.039 C 
ATOM     10  G   UNL     1      18.046 -32.787  22.301  1.00  0.00     0.000 G0
ENDBRANCH   6   7
ENDBRANCH   5   6
ENDBRANCH   3   5
ENDBRANCH   1   3
BRANCH   1  11
ATOM     11  C   UNL     1      14.658 -33.603  21.096  1.00  0.00     0.087 C 
BRANCH  11  12
ATOM     12  C   UNL     1      16.150 -33.557  20.655  1.00  0.00     0.066 C 
BRANCH  12  13
ATOM     13  C   UNL     1      17.079 -33.844  21.835  1.00  0.00     0.140 C 
ATOM     14  O   UNL     1      17.088 -34.946  22.363  1.00  0.00    -0.299 OA
BRANCH  13  15
ATOM     15  C   UNL     1      18.055 -32.792  22.302  1.00  0.00     0.106 CG0
ATOM     16  G   UNL     1      17.538 -31.881  23.414  1.00  0.00     0.000 G0
ENDBRANCH  13  15
ENDBRANCH  12  13
BRANCH  12  17
ATOM     17  C   UNL     1      16.489 -34.435  19.399  1.00  0.00    -0.006 C 
ATOM     18  C   UNL     1      16.111 -35.909  19.643  1.00  0.00     0.008 C 
ATOM     19  C   UNL     1      17.976 -34.374  19.004  1.00  0.00     0.008 C 
ENDBRANCH  12  17
ENDBRANCH  11  12
ENDBRANCH   1  11
TORSDOF 1
ENDMDL
MODEL 3
REMARK VINA RESULT:    -4.190      2.150      2.945
REMARK INTER + INTRA:          -6.702
REMARK INTER:                  -6.436
REMARK INTRA:                  -0.266
REMARK UNBOUND:                -0.308
REMARK SMILES CC1=CCC[C@@H](C)C(=O)C[C@H](C(C)C)C(=O)C1
REMARK SMILES IDX 8 1 9 2 6 3 7 4 5 5 4 6 3 7 2 8 1 9 10 11 11 12 15 13 16 14
REMARK SMILES IDX 17 15 12 17 13 18 14 19
REMARK H PARENT
REMARK Flexibility Score: 70.00
ROOT
ATOM      1  C   UNL     1      16.538 -30.209  22.217  1.00  0.00     0.136 C 
ATOM      2  O   UNL     1      16.360 -29.171  21.598  1.00  0.00    -0.299 OA
ENDROOT
BRANCH   1   3
ATOM      3  C   UNL     1      17.708 -31.102  21.829  1.00  0.00     0.053 C 
ATOM      4  C   UNL     1      18.992 -30.273  21.712  1.00  0.00     0.016 C 
BRANCH   3   5
ATOM      5  C   UNL     1      17.445 -31.893  20.529  1.00  0.00     0.015 C 
BRANCH   5   6
ATOM      6  C   UNL     1      17.487 -33.411  20.767  1.00  0.00     0.028 C 
BRANCH   6   7
ATOM      7  C   UNL     1      17.753 -33.786  22.205  1.00  0.00    -0.028 C 
ATOM      8  C   UNL     1      16.820 -33.979  23.175  1.00  0.00    -0.070 CG0
ATOM      9  C   UNL     1      17.328 -34.223  24.576  1.00  0.00     0.039 C 
ATOM     10  G   UNL     1      15.313 -34.047  22.933  1.00  0.00     0.000 G0
ENDBRANCH   6   7
ENDBRANCH   5   6
ENDBRANCH   3   5
ENDBRANCH   1   3
BRANCH   1  11
ATOM     11  C   UNL     1      15.547 -30.610  23.288  1.00  0.00     0.087 C 
BRANCH  11  12
ATOM     12  C   UNL     1      14.429 -31.581  22.808  1.00  0.00     0.066 C 
BRANCH  12  13
ATOM     13  C   UNL     1      14.513 -32.919  23.541  1.00  0.00     0.140 C 
ATOM     14  O   UNL     1      13.883 -33.101  24.573  1.00  0.00    -0.299 OA
BRANCH  13  15
ATOM     15  C   UNL     1      15.308 -34.057  22.950  1.00  0.00     0.106 CG0
ATOM     16  G   UNL     1      16.815 -33.983  23.188  1.00  0.00     0.000 G0
ENDBRANCH  13  15
ENDBRANCH  12  13
BRANCH  12  17
ATOM     17  C   UNL     1      12.981 -30.974  22.831  1.00  0.00    -0.006 C 
ATOM     18  C   UNL     1      12.388 -30.921  21.410  1.00  0.00     0.008 C 
ATOM     19  C   UNL     1      12.930 -29.558  23.432  1.00  0.00     0.008 C 
ENDBRANCH  12  17
ENDBRANCH  11  12
ENDBRANCH   1  11
TORSDOF 1
ENDMDL
MODEL 4
REMARK VINA RESULT:    -4.162      2.341      3.922
REMARK INTER + INTRA:          -6.659
REMARK INTER:                  -6.520
REMARK INTRA:                  -0.139
REMARK UNBOUND:                -0.308
REMARK SMILES CC1=CCC[C@@H](C)C(=O)C[C@H](C(C)C)C(=O)C1
REMARK SMILES IDX 8 1 9 2 6 3 7 4 5 5 4 6 3 7 2 8 1 9 10 11 11 12 15 13 16 14
REMARK SMILES IDX 17 15 12 17 13 18 14 19
REMARK H PARENT
REMARK Flexibility Score: 70.00
ROOT
ATOM      1  C   UNL     1      15.268 -33.784  20.991  1.00  0.00     0.136 C 
ATOM      2  O   UNL     1      15.212 -34.353  22.072  1.00  0.00    -0.299 OA
ENDROOT
BRANCH   1   3
ATOM      3  C   UNL     1      16.045 -34.438  19.859  1.00  0.00     0.053 C 
ATOM      4  C   UNL     1      16.312 -35.913  20.181  1.00  0.00     0.016 C 
BRANCH   3   5
ATOM      5  C   UNL     1      17.364 -33.700  19.541  1.00  0.00     0.015 C 
BRANCH   5   6
ATOM      6  C   UNL     1      18.334 -33.728  20.733  1.00  0.00     0.028 C 
BRANCH   6   7
ATOM      7  C   UNL     1      19.072 -32.426  20.936  1.00  0.00    -0.028 C 
ATOM      8  C   UNL     1      18.640 -31.356  21.654  1.00  0.00    -0.070 CG0
ATOM      9  C   UNL     1      19.493 -30.111  21.611  1.00  0.00     0.039 C 
ATOM     10  G   UNL     1      17.408 -31.354  22.557  1.00  0.00     0.000 G0
ENDBRANCH   6   7
ENDBRANCH   5   6
ENDBRANCH   3   5
ENDBRANCH   1   3
BRANCH   1  11
ATOM     11  C   UNL     1      14.633 -32.419  20.841  1.00  0.00     0.087 C 
BRANCH  11  12
ATOM     12  C   UNL     1      14.816 -31.479  22.068  1.00  0.00     0.066 C 
BRANCH  12  13
ATOM     13  C   UNL     1      16.146 -30.731  21.992  1.00  0.00     0.140 C 
ATOM     14  O   UNL     1      16.199 -29.605  21.518  1.00  0.00    -0.299 OA
BRANCH  13  15
ATOM     15  C   UNL     1      17.393 -31.343  22.581  1.00  0.00     0.106 CG0
ATOM     16  G   UNL     1      18.606 -31.356  21.652  1.00  0.00     0.000 G0
ENDBRANCH  13  15
ENDBRANCH  12  13
BRANCH  12  17
ATOM     17  C   UNL     1      13.604 -30.520  22.345  1.00  0.00    -0.006 C 
ATOM     18  C   UNL     1      13.332 -30.406  23.858  1.00  0.00     0.008 C 
ATOM     19  C   UNL     1      12.307 -30.971  21.650  1.00  0.00     0.008 C 
ENDBRANCH  12  17
ENDBRANCH  11  12
ENDBRANCH   1  11
TORSDOF 1
ENDMDL
MODEL 5
REMARK VINA RESULT:    -4.106      1.552      3.858
REMARK INTER + INTRA:          -6.575
REMARK INTER:                  -6.345
REMARK INTRA:                  -0.230
REMARK UNBOUND:                -0.308
REMARK SMILES CC1=CCC[C@@H](C)C(=O)C[C@H](C(C)C)C(=O)C1
REMARK SMILES IDX 8 1 9 2 6 3 7 4 5 5 4 6 3 7 2 8 1 9 10 11 11 12 15 13 16 14
REMARK SMILES IDX 17 15 12 17 13 18 14 19
REMARK H PARENT
REMARK Flexibility Score: 70.00
ROOT
ATOM      1  C   UNL     1      15.876 -34.003  20.111  1.00  0.00     0.136 C 
ATOM      2  O   UNL     1      14.743 -34.317  19.777  1.00  0.00    -0.299 OA
ENDROOT
BRANCH   1   3
ATOM      3  C   UNL     1      17.027 -34.937  19.768  1.00  0.00     0.053 C 
ATOM      4  C   UNL     1      16.508 -36.365  19.564  1.00  0.00     0.016 C 
BRANCH   3   5
ATOM      5  C   UNL     1      18.151 -34.907  20.826  1.00  0.00     0.015 C 
BRANCH   5   6
ATOM      6  C   UNL     1      17.867 -35.874  21.987  1.00  0.00     0.028 C 
BRANCH   6   7
ATOM      7  C   UNL     1      18.435 -35.411  23.306  1.00  0.00    -0.028 C 
ATOM      8  C   UNL     1      17.835 -34.578  24.197  1.00  0.00    -0.070 CG0
ATOM      9  C   UNL     1      18.650 -34.149  25.394  1.00  0.00     0.039 C 
ATOM     10  G   UNL     1      16.381 -34.116  24.113  1.00  0.00     0.000 G0
ENDBRANCH   6   7
ENDBRANCH   5   6
ENDBRANCH   3   5
ENDBRANCH   1   3
BRANCH   1  11
ATOM     11  C   UNL     1      16.085 -32.742  20.922  1.00  0.00     0.087 C 
BRANCH  11  12
ATOM     12  C   UNL     1      15.255 -32.671  22.237  1.00  0.00     0.066 C 
BRANCH  12  13
ATOM     13  C   UNL     1      16.160 -32.772  23.463  1.00  0.00     0.140 C 
ATOM     14  O   UNL     1      16.655 -31.767  23.954  1.00  0.00    -0.299 OA
BRANCH  13  15
ATOM     15  C   UNL     1      16.384 -34.106  24.131  1.00  0.00     0.106 CG0
ATOM     16  G   UNL     1      17.840 -34.563  24.188  1.00  0.00     0.000 G0
ENDBRANCH  13  15
ENDBRANCH  12  13
BRANCH  12  17
ATOM     17  C   UNL     1      14.265 -31.455  22.321  1.00  0.00    -0.006 C 
ATOM     18  C   UNL     1      13.333 -31.593  23.541  1.00  0.00     0.008 C 
ATOM     19  C   UNL     1      13.396 -31.296  21.061  1.00  0.00     0.008 C 
ENDBRANCH  12  17
ENDBRANCH  11  12
ENDBRANCH   1  11
TORSDOF 1
ENDMDL
MODEL 6
REMARK VINA RESULT:    -4.056      1.939      2.248
REMARK INTER + INTRA:          -6.498
REMARK INTER:                  -6.325
REMARK INTRA:                  -0.173
REMARK UNBOUND:                -0.308
REMARK SMILES CC1=CCC[C@@H](C)C(=O)C[C@H](C(C)C)C(=O)C1
REMARK SMILES IDX 8 1 9 2 6 3 7 4 5 5 4 6 3 7 2 8 1 9 10 11 11 12 15 13 16 14
REMARK SMILES IDX 17 15 12 17 13 18 14 19
REMARK H PARENT
REMARK Flexibility Score: 70.00
ROOT
ATOM      1  C   UNL     1      17.465 -30.869  22.271  1.00  0.00     0.136 C 
ATOM      2  O   UNL     1      17.030 -29.755  22.017  1.00  0.00    -0.299 OA
ENDROOT
BRANCH   1   3
ATOM      3  C   UNL     1      18.929 -31.168  21.981  1.00  0.00     0.053 C 
ATOM      4  C   UNL     1      19.647 -29.896  21.513  1.00  0.00     0.016 C 
BRANCH   3   5
ATOM      5  C   UNL     1      19.109 -32.308  20.956  1.00  0.00     0.015 C 
BRANCH   5   6
ATOM      6  C   UNL     1      19.404 -33.651  21.644  1.00  0.00     0.028 C 
BRANCH   6   7
ATOM      7  C   UNL     1      18.751 -34.830  20.962  1.00  0.00    -0.028 C 
ATOM      8  C   UNL     1      17.524 -35.346  21.240  1.00  0.00    -0.070 CG0
ATOM      9  C   UNL     1      17.131 -36.610  20.514  1.00  0.00     0.039 C 
ATOM     10  G   UNL     1      16.496 -34.697  22.164  1.00  0.00     0.000 G0
ENDBRANCH   6   7
ENDBRANCH   5   6
ENDBRANCH   3   5
ENDBRANCH   1   3
BRANCH   1  11
ATOM     11  C   UNL     1      16.520 -31.932  22.787  1.00  0.00     0.087 C 
BRANCH  11  12
ATOM     12  C   UNL     1      15.400 -32.345  21.788  1.00  0.00     0.066 C 
BRANCH  12  13
ATOM     13  C   UNL     1      15.445 -33.846  21.504  1.00  0.00     0.140 C 
ATOM     14  O   UNL     1      14.687 -34.345  20.683  1.00  0.00    -0.299 OA
BRANCH  13  15
ATOM     15  C   UNL     1      16.483 -34.712  22.173  1.00  0.00     0.106 CG0
ATOM     16  G   UNL     1      17.514 -35.329  21.229  1.00  0.00     0.000 G0
ENDBRANCH  13  15
ENDBRANCH  12  13
BRANCH  12  17
ATOM     17  C   UNL     1      13.961 -31.851  22.176  1.00  0.00    -0.006 C 
ATOM     18  C   UNL     1      13.686 -30.453  21.589  1.00  0.00     0.008 C 
ATOM     19  C   UNL     1      13.733 -31.792  23.697  1.00  0.00     0.008 C 
ENDBRANCH  12  17
ENDBRANCH  11  12
ENDBRANCH   1  11
TORSDOF 1
ENDMDL
MODEL 7
REMARK VINA RESULT:    -4.053      2.185      4.218
REMARK INTER + INTRA:          -6.494
REMARK INTER:                  -6.129
REMARK INTRA:                  -0.365
REMARK UNBOUND:                -0.308
REMARK SMILES CC1=CCC[C@@H](C)C(=O)C[C@H](C(C)C)C(=O)C1
REMARK SMILES IDX 8 1 9 2 6 3 7 4 5 5 4 6 3 7 2 8 1 9 10 11 11 12 15 13 16 14
REMARK SMILES IDX 17 15 12 17 13 18 14 19
REMARK H PARENT
REMARK Flexibility Score: 70.00
ROOT
ATOM      1  C   UNL     1      17.211 -30.376  21.495  1.00  0.00     0.136 C 
ATOM      2  O   UNL     1      17.783 -29.342  21.810  1.00  0.00    -0.299 OA
ENDROOT
BRANCH   1   3
ATOM      3  C   UNL     1      15.755 -30.559  21.898  1.00  0.00     0.053 C 
ATOM      4  C   UNL     1      14.961 -29.279  21.611  1.00  0.00     0.016 C 
BRANCH   3   5
ATOM      5  C   UNL     1      15.598 -30.984  23.374  1.00  0.00     0.015 C 
BRANCH   5   6
ATOM      6  C   UNL     1      15.289 -32.484  23.506  1.00  0.00     0.028 C 
BRANCH   6   7
ATOM      7  C   UNL     1      14.733 -33.095  22.242  1.00  0.00    -0.028 C 
ATOM      8  C   UNL     1      15.372 -33.965  21.416  1.00  0.00    -0.070 CG0
ATOM      9  C   UNL     1      14.663 -34.344  20.138  1.00  0.00     0.039 C 
ATOM     10  G   UNL     1      16.707 -34.639  21.726  1.00  0.00     0.000 G0
ENDBRANCH   6   7
ENDBRANCH   5   6
ENDBRANCH   3   5
ENDBRANCH   1   3
BRANCH   1  11
ATOM     11  C   UNL     1      17.988 -31.465  20.790  1.00  0.00     0.087 C 
BRANCH  11  12
ATOM     12  C   UNL     1      18.422 -32.649  21.703  1.00  0.00     0.066 C 
BRANCH  12  13
ATOM     13  C   UNL     1      17.939 -33.984  21.137  1.00  0.00     0.140 C 
ATOM     14  O   UNL     1      18.573 -34.552  20.260  1.00  0.00    -0.299 OA
BRANCH  13  15
ATOM     15  C   UNL     1      16.718 -34.654  21.718  1.00  0.00     0.106 CG0
ATOM     16  G   UNL     1      15.393 -33.957  21.414  1.00  0.00     0.000 G0
ENDBRANCH  13  15
ENDBRANCH  12  13
BRANCH  12  17
ATOM     17  C   UNL     1      19.949 -32.670  22.066  1.00  0.00    -0.006 C 
ATOM     18  C   UNL     1      20.148 -32.643  23.594  1.00  0.00     0.008 C 
ATOM     19  C   UNL     1      20.732 -31.494  21.454  1.00  0.00     0.008 C 
ENDBRANCH  12  17
ENDBRANCH  11  12
ENDBRANCH   1  11
TORSDOF 1
ENDMDL
MODEL 8
REMARK VINA RESULT:    -4.026      2.236      4.127
REMARK INTER + INTRA:          -6.452
REMARK INTER:                  -6.324
REMARK INTRA:                  -0.128
REMARK UNBOUND:                -0.308
REMARK SMILES CC1=CCC[C@@H](C)C(=O)C[C@H](C(C)C)C(=O)C1
REMARK SMILES IDX 8 1 9 2 6 3 7 4 5 5 4 6 3 7 2 8 1 9 10 11 11 12 15 13 16 14
REMARK SMILES IDX 17 15 12 17 13 18 14 19
REMARK H PARENT
REMARK Flexibility Score: 70.00
ROOT
ATOM      1  C   UNL     1      16.542 -31.174  22.338  1.00  0.00     0.136 C 
ATOM      2  O   UNL     1      16.874 -30.716  23.422  1.00  0.00    -0.299 OA
ENDROOT
BRANCH   1   3
ATOM      3  C   UNL     1      15.067 -31.427  22.071  1.00  0.00     0.053 C 
ATOM      4  C   UNL     1      14.207 -30.720  23.126  1.00  0.00     0.016 C 
BRANCH   3   5
ATOM      5  C   UNL     1      14.726 -32.932  22.004  1.00  0.00     0.015 C 
BRANCH   5   6
ATOM      6  C   UNL     1      14.624 -33.430  20.554  1.00  0.00     0.028 C 
BRANCH   6   7
ATOM      7  C   UNL     1      15.250 -34.788  20.341  1.00  0.00    -0.028 C 
ATOM      8  C   UNL     1      16.533 -35.036  19.964  1.00  0.00    -0.070 CG0
ATOM      9  C   UNL     1      16.901 -36.474  19.688  1.00  0.00     0.039 C 
ATOM     10  G   UNL     1      17.635 -33.982  19.880  1.00  0.00     0.000 G0
ENDBRANCH   6   7
ENDBRANCH   5   6
ENDBRANCH   3   5
ENDBRANCH   1   3
BRANCH   1  11
ATOM     11  C   UNL     1      17.612 -31.546  21.334  1.00  0.00     0.087 C 
BRANCH  11  12
ATOM     12  C   UNL     1      18.651 -32.585  21.848  1.00  0.00     0.066 C 
BRANCH  12  13
ATOM     13  C   UNL     1      18.561 -33.889  21.057  1.00  0.00     0.140 C 
ATOM     14  O   UNL     1      19.177 -34.880  21.422  1.00  0.00    -0.299 OA
BRANCH  13  15
ATOM     15  C   UNL     1      17.643 -33.988  19.864  1.00  0.00     0.106 CG0
ATOM     16  G   UNL     1      16.540 -35.038  19.984  1.00  0.00     0.000 G0
ENDBRANCH  13  15
ENDBRANCH  12  13
BRANCH  12  17
ATOM     17  C   UNL     1      20.122 -32.045  21.948  1.00  0.00    -0.006 C 
ATOM     18  C   UNL     1      20.360 -31.352  23.304  1.00  0.00     0.008 C 
ATOM     19  C   UNL     1      20.478 -31.052  20.827  1.00  0.00     0.008 C 
ENDBRANCH  12  17
ENDBRANCH  11  12
ENDBRANCH   1  11
TORSDOF 1
ENDMDL
MODEL 9
REMARK VINA RESULT:    -4.025      1.741      2.135
REMARK INTER + INTRA:          -6.451
REMARK INTER:                  -6.006
REMARK INTRA:                  -0.445
REMARK UNBOUND:                -0.308
REMARK SMILES CC1=CCC[C@@H](C)C(=O)C[C@H](C(C)C)C(=O)C1
REMARK SMILES IDX 8 1 9 2 6 3 7 4 5 5 4 6 3 7 2 8 1 9 10 11 11 12 15 13 16 14
REMARK SMILES IDX 17 15 12 17 13 18 14 19
REMARK H PARENT
REMARK Flexibility Score: 70.00
ROOT
ATOM      1  C   UNL     1      17.000 -34.430  24.785  1.00  0.00     0.136 C 
ATOM      2  O   UNL     1      17.542 -33.581  25.477  1.00  0.00    -0.299 OA
ENDROOT
BRANCH   1   3
ATOM      3  C   UNL     1      17.573 -35.839  24.771  1.00  0.00     0.053 C 
ATOM      4  C   UNL     1      17.373 -36.507  26.136  1.00  0.00     0.016 C 
BRANCH   3   5
ATOM      5  C   UNL     1      19.061 -35.870  24.358  1.00  0.00     0.015 C 
BRANCH   5   6
ATOM      6  C   UNL     1      19.271 -35.318  22.939  1.00  0.00     0.028 C 
BRANCH   6   7
ATOM      7  C   UNL     1      18.600 -36.145  21.869  1.00  0.00    -0.028 C 
ATOM      8  C   UNL     1      17.691 -35.705  20.959  1.00  0.00    -0.070 CG0
ATOM      9  C   UNL     1      17.057 -36.744  20.065  1.00  0.00     0.039 C 
ATOM     10  G   UNL     1      17.331 -34.239  20.726  1.00  0.00     0.000 G0
ENDBRANCH   6   7
ENDBRANCH   5   6
ENDBRANCH   3   5
ENDBRANCH   1   3
BRANCH   1  11
ATOM     11  C   UNL     1      15.831 -34.034  23.909  1.00  0.00     0.087 C 
BRANCH  11  12
ATOM     12  C   UNL     1      16.190 -33.058  22.751  1.00  0.00     0.066 C 
BRANCH  12  13
ATOM     13  C   UNL     1      16.084 -33.754  21.394  1.00  0.00     0.140 C 
ATOM     14  O   UNL     1      15.003 -33.859  20.834  1.00  0.00    -0.299 OA
BRANCH  13  15
ATOM     15  C   UNL     1      17.329 -34.243  20.696  1.00  0.00     0.106 CG0
ATOM     16  G   UNL     1      17.689 -35.703  20.966  1.00  0.00     0.000 G0
ENDBRANCH  13  15
ENDBRANCH  12  13
BRANCH  12  17
ATOM     17  C   UNL     1      15.419 -31.691  22.784  1.00  0.00    -0.006 C 
ATOM     18  C   UNL     1      16.308 -30.576  23.370  1.00  0.00     0.008 C 
ATOM     19  C   UNL     1      14.116 -31.752  23.601  1.00  0.00     0.008 C 
ENDBRANCH  12  17
ENDBRANCH  11  12
ENDBRANCH   1  11
TORSDOF 1
ENDMDL
