MODEL 1
REMARK VINA RESULT:    -4.470      0.000      0.000
REMARK INTER + INTRA:          -4.900
REMARK INTER:                  -4.731
REMARK INTRA:                  -0.169
REMARK UNBOUND:                -0.169
REMARK SMILES CC1=CCC(C(C)C)=CC1
REMARK SMILES IDX 1 1 2 2 3 3 4 4 5 5 9 6 10 7 6 8 7 9 8 10
REMARK H PARENT
REMARK Flexibility Score: inf
ROOT
ATOM      1  C   UNL     1      30.981   6.159  29.285  1.00  0.00     0.039 C 
ATOM      2  C   UNL     1      30.864   7.305  30.250  1.00  0.00    -0.073 C 
ATOM      3  C   UNL     1      30.483   8.518  29.808  1.00  0.00    -0.023 C 
ATOM      4  C   UNL     1      30.310   9.672  30.764  1.00  0.00     0.058 C 
ATOM      5  C   UNL     1      31.262   9.569  31.941  1.00  0.00    -0.068 C 
ATOM      6  C   UNL     1      31.640   8.348  32.380  1.00  0.00    -0.023 C 
ATOM      7  C   UNL     1      31.127   7.090  31.725  1.00  0.00     0.057 C 
ENDROOT
BRANCH   5   8
ATOM      8  C   UNL     1      31.740  10.839  32.627  1.00  0.00     0.009 C 
ATOM      9  C   UNL     1      33.112  10.639  33.281  1.00  0.00     0.012 C 
ATOM     10  C   UNL     1      31.759  12.023  31.652  1.00  0.00     0.012 C 
ENDBRANCH   5   8
TORSDOF 1
ENDMDL
MODEL 2
REMARK VINA RESULT:    -4.194      1.031      4.595
REMARK INTER + INTRA:          -4.608
REMARK INTER:                  -4.471
REMARK INTRA:                  -0.137
REMARK UNBOUND:                -0.169
REMARK SMILES CC1=CCC(C(C)C)=CC1
REMARK SMILES IDX 1 1 2 2 3 3 4 4 5 5 9 6 10 7 6 8 7 9 8 10
REMARK H PARENT
REMARK Flexibility Score: inf
ROOT
ATOM      1  C   UNL     1      32.318  10.340  33.396  1.00  0.00     0.039 C 
ATOM      2  C   UNL     1      31.642   9.269  32.588  1.00  0.00    -0.073 C 
ATOM      3  C   UNL     1      31.851   7.972  32.884  1.00  0.00    -0.023 C 
ATOM      4  C   UNL     1      31.146   6.880  32.119  1.00  0.00     0.058 C 
ATOM      5  C   UNL     1      30.882   7.285  30.682  1.00  0.00    -0.068 C 
ATOM      6  C   UNL     1      30.672   8.589  30.391  1.00  0.00    -0.023 C 
ATOM      7  C   UNL     1      30.691   9.641  31.471  1.00  0.00     0.057 C 
ENDROOT
BRANCH   5   8
ATOM      8  C   UNL     1      30.818   6.214  29.605  1.00  0.00     0.009 C 
ATOM      9  C   UNL     1      29.368   5.880  29.234  1.00  0.00     0.012 C 
ATOM     10  C   UNL     1      31.626   6.623  28.367  1.00  0.00     0.012 C 
ENDBRANCH   5   8
TORSDOF 1
ENDMDL
MODEL 3
REMARK VINA RESULT:    -4.184      2.639      3.882
REMARK INTER + INTRA:          -4.597
REMARK INTER:                  -4.456
REMARK INTRA:                  -0.141
REMARK UNBOUND:                -0.169
REMARK SMILES CC1=CCC(C(C)C)=CC1
REMARK SMILES IDX 1 1 2 2 3 3 4 4 5 5 9 6 10 7 6 8 7 9 8 10
REMARK H PARENT
REMARK Flexibility Score: inf
ROOT
ATOM      1  C   UNL     1      30.563   8.803  30.434  1.00  0.00     0.039 C 
ATOM      2  C   UNL     1      31.035   8.490  31.826  1.00  0.00    -0.073 C 
ATOM      3  C   UNL     1      31.005   7.222  32.275  1.00  0.00    -0.023 C 
ATOM      4  C   UNL     1      31.519   6.875  33.650  1.00  0.00     0.058 C 
ATOM      5  C   UNL     1      31.320   8.019  34.626  1.00  0.00    -0.068 C 
ATOM      6  C   UNL     1      31.351   9.291  34.169  1.00  0.00    -0.023 C 
ATOM      7  C   UNL     1      31.588   9.588  32.709  1.00  0.00     0.057 C 
ENDROOT
BRANCH   5   8
ATOM      8  C   UNL     1      31.128   7.714  36.103  1.00  0.00     0.009 C 
ATOM      9  C   UNL     1      31.714   6.347  36.473  1.00  0.00     0.012 C 
ATOM     10  C   UNL     1      31.718   8.825  36.980  1.00  0.00     0.012 C 
ENDBRANCH   5   8
TORSDOF 1
ENDMDL
MODEL 4
REMARK VINA RESULT:    -4.167      0.947      1.438
REMARK INTER + INTRA:          -4.579
REMARK INTER:                  -4.436
REMARK INTRA:                  -0.143
REMARK UNBOUND:                -0.169
REMARK SMILES CC1=CCC(C(C)C)=CC1
REMARK SMILES IDX 1 1 2 2 3 3 4 4 5 5 9 6 10 7 6 8 7 9 8 10
REMARK H PARENT
REMARK Flexibility Score: inf
ROOT
ATOM      1  C   UNL     1      30.809   5.968  29.646  1.00  0.00     0.039 C 
ATOM      2  C   UNL     1      30.885   7.028  30.709  1.00  0.00    -0.073 C 
ATOM      3  C   UNL     1      30.766   8.326  30.372  1.00  0.00    -0.023 C 
ATOM      4  C   UNL     1      30.790   9.405  31.426  1.00  0.00     0.058 C 
ATOM      5  C   UNL     1      31.661   9.015  32.604  1.00  0.00    -0.068 C 
ATOM      6  C   UNL     1      31.776   7.710  32.938  1.00  0.00    -0.023 C 
ATOM      7  C   UNL     1      31.049   6.640  32.163  1.00  0.00     0.057 C 
ENDROOT
BRANCH   5   8
ATOM      8  C   UNL     1      32.354  10.101  33.411  1.00  0.00     0.009 C 
ATOM      9  C   UNL     1      32.240  11.467  32.723  1.00  0.00     0.012 C 
ATOM     10  C   UNL     1      31.816  10.157  34.846  1.00  0.00     0.012 C 
ENDBRANCH   5   8
TORSDOF 1
ENDMDL
MODEL 5
REMARK VINA RESULT:    -4.122      2.670      4.073
REMARK INTER + INTRA:          -4.532
REMARK INTER:                  -4.397
REMARK INTRA:                  -0.135
REMARK UNBOUND:                -0.169
REMARK SMILES CC1=CCC(C(C)C)=CC1
REMARK SMILES IDX 1 1 2 2 3 3 4 4 5 5 9 6 10 7 6 8 7 9 8 10
REMARK H PARENT
REMARK Flexibility Score: inf
ROOT
ATOM      1  C   UNL     1      31.406   5.938  36.741  1.00  0.00     0.039 C 
ATOM      2  C   UNL     1      31.251   6.958  35.648  1.00  0.00    -0.073 C 
ATOM      3  C   UNL     1      31.431   6.598  34.364  1.00  0.00    -0.023 C 
ATOM      4  C   UNL     1      31.234   7.591  33.246  1.00  0.00     0.058 C 
ATOM      5  C   UNL     1      31.583   9.000  33.683  1.00  0.00    -0.068 C 
ATOM      6  C   UNL     1      31.399   9.357  34.974  1.00  0.00    -0.023 C 
ATOM      7  C   UNL     1      30.849   8.379  35.982  1.00  0.00     0.057 C 
ENDROOT
BRANCH   5   8
ATOM      8  C   UNL     1      32.094   9.996  32.653  1.00  0.00     0.009 C 
ATOM      9  C   UNL     1      30.941  10.770  32.004  1.00  0.00     0.012 C 
ATOM     10  C   UNL     1      33.125  10.950  33.268  1.00  0.00     0.012 C 
ENDBRANCH   5   8
TORSDOF 1
ENDMDL
MODEL 6
REMARK VINA RESULT:    -4.102      1.135      4.454
REMARK INTER + INTRA:          -4.511
REMARK INTER:                  -4.346
REMARK INTRA:                  -0.165
REMARK UNBOUND:                -0.169
REMARK SMILES CC1=CCC(C(C)C)=CC1
REMARK SMILES IDX 1 1 2 2 3 3 4 4 5 5 9 6 10 7 6 8 7 9 8 10
REMARK H PARENT
REMARK Flexibility Score: inf
ROOT
ATOM      1  C   UNL     1      32.332  10.000  33.669  1.00  0.00     0.039 C 
ATOM      2  C   UNL     1      31.554   9.217  32.649  1.00  0.00    -0.073 C 
ATOM      3  C   UNL     1      31.693   7.880  32.580  1.00  0.00    -0.023 C 
ATOM      4  C   UNL     1      30.887   7.066  31.599  1.00  0.00     0.058 C 
ATOM      5  C   UNL     1      30.584   7.853  30.338  1.00  0.00    -0.068 C 
ATOM      6  C   UNL     1      30.444   9.195  30.414  1.00  0.00    -0.023 C 
ATOM      7  C   UNL     1      30.578   9.920  31.730  1.00  0.00     0.057 C 
ENDROOT
BRANCH   5   8
ATOM      8  C   UNL     1      30.405   7.112  29.022  1.00  0.00     0.009 C 
ATOM      9  C   UNL     1      29.759   8.010  27.959  1.00  0.00     0.012 C 
ATOM     10  C   UNL     1      31.735   6.534  28.524  1.00  0.00     0.012 C 
ENDBRANCH   5   8
TORSDOF 1
ENDMDL
MODEL 7
REMARK VINA RESULT:    -4.068      2.091      4.229
REMARK INTER + INTRA:          -4.475
REMARK INTER:                  -4.338
REMARK INTRA:                  -0.136
REMARK UNBOUND:                -0.169
REMARK SMILES CC1=CCC(C(C)C)=CC1
REMARK SMILES IDX 1 1 2 2 3 3 4 4 5 5 9 6 10 7 6 8 7 9 8 10
REMARK H PARENT
REMARK Flexibility Score: inf
ROOT
ATOM      1  C   UNL     1      31.643  12.234  31.263  1.00  0.00     0.039 C 
ATOM      2  C   UNL     1      31.742  11.023  32.148  1.00  0.00    -0.073 C 
ATOM      3  C   UNL     1      31.057   9.907  31.837  1.00  0.00    -0.023 C 
ATOM      4  C   UNL     1      31.179   8.663  32.681  1.00  0.00     0.058 C 
ATOM      5  C   UNL     1      31.439   9.000  34.137  1.00  0.00    -0.068 C 
ATOM      6  C   UNL     1      32.128  10.122  34.443  1.00  0.00    -0.023 C 
ATOM      7  C   UNL     1      32.645  11.038  33.362  1.00  0.00     0.057 C 
ENDROOT
BRANCH   5   8
ATOM      8  C   UNL     1      30.955   8.049  35.220  1.00  0.00     0.009 C 
ATOM      9  C   UNL     1      31.385   6.606  34.931  1.00  0.00     0.012 C 
ATOM     10  C   UNL     1      31.428   8.501  36.607  1.00  0.00     0.012 C 
ENDBRANCH   5   8
TORSDOF 1
ENDMDL
MODEL 8
REMARK VINA RESULT:    -3.969      1.587      4.684
REMARK INTER + INTRA:          -4.370
REMARK INTER:                  -4.205
REMARK INTRA:                  -0.165
REMARK UNBOUND:                -0.169
REMARK SMILES CC1=CCC(C(C)C)=CC1
REMARK SMILES IDX 1 1 2 2 3 3 4 4 5 5 9 6 10 7 6 8 7 9 8 10
REMARK H PARENT
REMARK Flexibility Score: inf
ROOT
ATOM      1  C   UNL     1      30.270  12.214  30.807  1.00  0.00     0.039 C 
ATOM      2  C   UNL     1      30.143  10.747  30.508  1.00  0.00    -0.073 C 
ATOM      3  C   UNL     1      30.765   9.846  31.292  1.00  0.00    -0.023 C 
ATOM      4  C   UNL     1      30.612   8.366  31.042  1.00  0.00     0.058 C 
ATOM      5  C   UNL     1      30.415   8.066  29.569  1.00  0.00    -0.068 C 
ATOM      6  C   UNL     1      29.789   8.974  28.788  1.00  0.00    -0.023 C 
ATOM      7  C   UNL     1      29.280  10.274  29.358  1.00  0.00     0.057 C 
ENDROOT
BRANCH   5   8
ATOM      8  C   UNL     1      30.888   6.733  29.009  1.00  0.00     0.009 C 
ATOM      9  C   UNL     1      31.660   6.921  27.698  1.00  0.00     0.012 C 
ATOM     10  C   UNL     1      31.725   5.964  30.039  1.00  0.00     0.012 C 
ENDBRANCH   5   8
TORSDOF 1
ENDMDL
MODEL 9
REMARK VINA RESULT:    -3.823      3.873      5.628
REMARK INTER + INTRA:          -4.215
REMARK INTER:                  -4.076
REMARK INTRA:                  -0.139
REMARK UNBOUND:                -0.169
REMARK SMILES CC1=CCC(C(C)C)=CC1
REMARK SMILES IDX 1 1 2 2 3 3 4 4 5 5 9 6 10 7 6 8 7 9 8 10
REMARK H PARENT
REMARK Flexibility Score: inf
ROOT
ATOM      1  C   UNL     1      30.250   8.269  39.118  1.00  0.00     0.039 C 
ATOM      2  C   UNL     1      30.911   8.512  37.791  1.00  0.00    -0.073 C 
ATOM      3  C   UNL     1      31.295   9.757  37.451  1.00  0.00    -0.023 C 
ATOM      4  C   UNL     1      32.005  10.019  36.146  1.00  0.00     0.058 C 
ATOM      5  C   UNL     1      31.562   9.051  35.065  1.00  0.00    -0.068 C 
ATOM      6  C   UNL     1      31.178   7.802  35.413  1.00  0.00    -0.023 C 
ATOM      7  C   UNL     1      31.190   7.357  36.854  1.00  0.00     0.057 C 
ENDROOT
BRANCH   5   8
ATOM      8  C   UNL     1      31.596   9.491  33.610  1.00  0.00     0.009 C 
ATOM      9  C   UNL     1      32.763  10.449  33.343  1.00  0.00     0.012 C 
ATOM     10  C   UNL     1      31.644   8.283  32.666  1.00  0.00     0.012 C 
ENDBRANCH   5   8
TORSDOF 1
ENDMDL
