MODEL 1
REMARK VINA RESULT:    -9.417      0.000      0.000
REMARK INTER + INTRA:         -13.266
REMARK INTER:                 -12.995
REMARK INTRA:                  -0.271
REMARK UNBOUND:                -0.271
REMARK SMILES O=C([O-])[C@H]1O[C@@H](Oc2cc3oc(-c4ccccc4)cc(=O)c3c(O)c2O)[C@H](O)[C@H](O)[C@@H]1O
REMARK SMILES IDX 7 1 6 2 4 3 31 4 5 5 29 6 27 7 2 8 1 9 3 10 32 11 30 13
REMARK SMILES IDX 28 15 8 17 25 18 9 19 23 20 10 21 22 22 11 23 20 24 12 25
REMARK SMILES IDX 19 26 21 27 26 28 24 30 13 32 14 33 18 34 15 35 17 36 16 37
REMARK H PARENT 32 12 30 14 28 16 26 29 24 31
REMARK Flexibility Score: inf
ROOT
ATOM      1  O   UNL     1      36.700   0.284  -3.988  1.00  0.00    -0.458 OA
ENDROOT
BRANCH   1   2
ATOM      2  C   UNL     1      35.485  -0.470  -4.028  1.00  0.00     0.339 C 
ATOM      3  C   UNL     1      36.470  -2.573  -3.468  1.00  0.00     0.199 C 
ATOM      4  C   UNL     1      36.279  -3.133  -4.902  1.00  0.00     0.180 C 
ATOM      5  O   UNL     1      35.518  -1.570  -3.124  1.00  0.00    -0.328 OA
ATOM      6  C   UNL     1      36.170  -1.990  -5.931  1.00  0.00     0.181 C 
ATOM      7  C   UNL     1      35.177  -0.906  -5.475  1.00  0.00     0.214 C 
BRANCH   3   8
ATOM      8  C   UNL     1      37.883  -2.148  -3.146  1.00  0.00     0.073 C 
ATOM      9  O   UNL     1      38.795  -2.338  -3.994  1.00  0.00    -0.547 OA
ATOM     10  O   UNL     1      38.202  -1.554  -1.930  1.00  0.00    -0.547 OA
ENDBRANCH   3   8
BRANCH   4  11
ATOM     11  O   UNL     1      35.125  -3.934  -4.946  1.00  0.00    -0.387 OA
ATOM     12  H   UNL     1      35.323  -4.760  -4.432  1.00  0.00     0.211 HD
ENDBRANCH   4  11
BRANCH   6  13
ATOM     13  O   UNL     1      35.866  -2.472  -7.218  1.00  0.00    -0.387 OA
ATOM     14  H   UNL     1      34.967  -2.891  -7.191  1.00  0.00     0.211 HD
ENDBRANCH   6  13
BRANCH   7  15
ATOM     15  O   UNL     1      33.839  -1.322  -5.616  1.00  0.00    -0.384 OA
ATOM     16  H   UNL     1      33.247  -0.582  -5.323  1.00  0.00     0.211 HD
ENDBRANCH   7  15
ENDBRANCH   1   2
BRANCH   1  17
ATOM     17  C   UNL     1      36.848   1.552  -3.403  1.00  0.00     0.172 A 
ATOM     18  C   UNL     1      35.844   2.502  -3.619  1.00  0.00     0.201 A 
ATOM     19  C   UNL     1      37.969   1.895  -2.633  1.00  0.00     0.098 A 
ATOM     20  C   UNL     1      35.946   3.798  -3.075  1.00  0.00     0.176 A 
ATOM     21  C   UNL     1      38.073   3.159  -2.052  1.00  0.00     0.146 A 
ATOM     22  C   UNL     1      37.051   4.126  -2.237  1.00  0.00     0.111 A 
ATOM     23  O   UNL     1      39.145   3.432  -1.317  1.00  0.00    -0.456 OA
ATOM     24  C   UNL     1      37.193   5.345  -1.533  1.00  0.00     0.197 A 
ATOM     25  C   UNL     1      39.333   4.593  -0.697  1.00  0.00     0.138 A 
ATOM     26  C   UNL     1      38.343   5.582  -0.780  1.00  0.00     0.100 A 
ATOM     27  O   UNL     1      36.290   6.222  -1.530  1.00  0.00    -0.289 OA
BRANCH  18  28
ATOM     28  O   UNL     1      34.749   2.143  -4.407  1.00  0.00    -0.502 OA
ATOM     29  H   UNL     1      34.486   1.178  -4.568  1.00  0.00     0.293 HD
ENDBRANCH  18  28
BRANCH  20  30
ATOM     30  O   UNL     1      34.950   4.717  -3.421  1.00  0.00    -0.504 OA
ATOM     31  H   UNL     1      34.627   5.465  -2.826  1.00  0.00     0.293 HD
ENDBRANCH  20  30
BRANCH  25  32
ATOM     32  C   UNL     1      40.578   4.792   0.088  1.00  0.00     0.017 A 
ATOM     33  C   UNL     1      40.547   5.215   1.432  1.00  0.00     0.012 A 
ATOM     34  C   UNL     1      41.826   4.585  -0.529  1.00  0.00     0.012 A 
ATOM     35  C   UNL     1      41.737   5.404   2.142  1.00  0.00     0.001 A 
ATOM     36  C   UNL     1      43.012   4.775   0.187  1.00  0.00     0.001 A 
ATOM     37  C   UNL     1      42.967   5.182   1.521  1.00  0.00     0.000 A 
ENDBRANCH  25  32
ENDBRANCH   1  17
TORSDOF 9
ENDMDL
MODEL 2
REMARK VINA RESULT:    -9.407      1.047      2.542
REMARK INTER + INTRA:         -13.252
REMARK INTER:                 -12.264
REMARK INTRA:                  -0.988
REMARK UNBOUND:                -0.271
REMARK SMILES O=C([O-])[C@H]1O[C@@H](Oc2cc3oc(-c4ccccc4)cc(=O)c3c(O)c2O)[C@H](O)[C@H](O)[C@@H]1O
REMARK SMILES IDX 7 1 6 2 4 3 31 4 5 5 29 6 27 7 2 8 1 9 3 10 32 11 30 13
REMARK SMILES IDX 28 15 8 17 25 18 9 19 23 20 10 21 22 22 11 23 20 24 12 25
REMARK SMILES IDX 19 26 21 27 26 28 24 30 13 32 14 33 18 34 15 35 17 36 16 37
REMARK H PARENT 32 12 30 14 28 16 26 29 24 31
REMARK Flexibility Score: inf
ROOT
ATOM      1  O   UNL     1      36.569  -0.105  -3.737  1.00  0.00    -0.458 OA
ENDROOT
BRANCH   1   2
ATOM      2  C   UNL     1      37.595  -1.091  -3.594  1.00  0.00     0.339 C 
ATOM      3  C   UNL     1      36.639  -2.675  -5.105  1.00  0.00     0.199 C 
ATOM      4  C   UNL     1      36.242  -3.645  -3.961  1.00  0.00     0.180 C 
ATOM      5  O   UNL     1      37.759  -1.855  -4.784  1.00  0.00    -0.328 OA
ATOM      6  C   UNL     1      36.107  -2.892  -2.622  1.00  0.00     0.181 C 
ATOM      7  C   UNL     1      37.315  -1.975  -2.361  1.00  0.00     0.214 C 
BRANCH   3   8
ATOM      8  C   UNL     1      35.492  -1.872  -5.671  1.00  0.00     0.073 C 
ATOM      9  O   UNL     1      35.683  -1.147  -6.683  1.00  0.00    -0.547 OA
ATOM     10  O   UNL     1      34.228  -1.910  -5.095  1.00  0.00    -0.547 OA
ENDBRANCH   3   8
BRANCH   4  11
ATOM     11  O   UNL     1      37.204  -4.662  -3.848  1.00  0.00    -0.387 OA
ATOM     12  H   UNL     1      37.945  -4.303  -3.293  1.00  0.00     0.211 HD
ENDBRANCH   4  11
BRANCH   6  13
ATOM     13  O   UNL     1      35.876  -3.772  -1.548  1.00  0.00    -0.387 OA
ATOM     14  H   UNL     1      36.510  -3.549  -0.818  1.00  0.00     0.211 HD
ENDBRANCH   6  13
BRANCH   7  15
ATOM     15  O   UNL     1      38.458  -2.701  -1.975  1.00  0.00    -0.384 OA
ATOM     16  H   UNL     1      38.802  -3.189  -2.768  1.00  0.00     0.211 HD
ENDBRANCH   7  15
ENDBRANCH   1   2
BRANCH   1  17
ATOM     17  C   UNL     1      36.685   1.246  -3.371  1.00  0.00     0.172 A 
ATOM     18  C   UNL     1      35.650   2.119  -3.723  1.00  0.00     0.201 A 
ATOM     19  C   UNL     1      37.804   1.743  -2.686  1.00  0.00     0.098 A 
ATOM     20  C   UNL     1      35.718   3.489  -3.400  1.00  0.00     0.176 A 
ATOM     21  C   UNL     1      37.875   3.087  -2.321  1.00  0.00     0.146 A 
ATOM     22  C   UNL     1      36.823   3.981  -2.645  1.00  0.00     0.111 A 
ATOM     23  O   UNL     1      38.947   3.508  -1.659  1.00  0.00    -0.456 OA
ATOM     24  C   UNL     1      36.935   5.302  -2.153  1.00  0.00     0.197 A 
ATOM     25  C   UNL     1      39.106   4.759  -1.241  1.00  0.00     0.138 A 
ATOM     26  C   UNL     1      38.086   5.693  -1.468  1.00  0.00     0.100 A 
ATOM     27  O   UNL     1      36.005   6.142  -2.279  1.00  0.00    -0.289 OA
BRANCH  18  28
ATOM     28  O   UNL     1      34.557   1.604  -4.423  1.00  0.00    -0.502 OA
ATOM     29  H   UNL     1      34.637   1.233  -5.363  1.00  0.00     0.293 HD
ENDBRANCH  18  28
BRANCH  20  30
ATOM     30  O   UNL     1      34.691   4.310  -3.876  1.00  0.00    -0.504 OA
ATOM     31  H   UNL     1      34.822   5.243  -4.236  1.00  0.00     0.293 HD
ENDBRANCH  20  30
BRANCH  25  32
ATOM     32  C   UNL     1      40.354   5.120  -0.520  1.00  0.00     0.017 A 
ATOM     33  C   UNL     1      41.565   4.436  -0.747  1.00  0.00     0.012 A 
ATOM     34  C   UNL     1      40.326   6.149   0.440  1.00  0.00     0.012 A 
ATOM     35  C   UNL     1      42.721   4.791  -0.044  1.00  0.00     0.001 A 
ATOM     36  C   UNL     1      41.485   6.501   1.138  1.00  0.00     0.001 A 
ATOM     37  C   UNL     1      42.681   5.824   0.895  1.00  0.00     0.000 A 
ENDBRANCH  25  32
ENDBRANCH   1  17
TORSDOF 9
ENDMDL
MODEL 3
REMARK VINA RESULT:    -9.202      1.553      2.866
REMARK INTER + INTRA:         -12.969
REMARK INTER:                 -11.930
REMARK INTRA:                  -1.038
REMARK UNBOUND:                -0.271
REMARK SMILES O=C([O-])[C@H]1O[C@@H](Oc2cc3oc(-c4ccccc4)cc(=O)c3c(O)c2O)[C@H](O)[C@H](O)[C@@H]1O
REMARK SMILES IDX 7 1 6 2 4 3 31 4 5 5 29 6 27 7 2 8 1 9 3 10 32 11 30 13
REMARK SMILES IDX 28 15 8 17 25 18 9 19 23 20 10 21 22 22 11 23 20 24 12 25
REMARK SMILES IDX 19 26 21 27 26 28 24 30 13 32 14 33 18 34 15 35 17 36 16 37
REMARK H PARENT 32 12 30 14 28 16 26 29 24 31
REMARK Flexibility Score: inf
ROOT
ATOM      1  O   UNL     1      36.569  -0.734  -3.531  1.00  0.00    -0.458 OA
ENDROOT
BRANCH   1   2
ATOM      2  C   UNL     1      37.623  -1.585  -3.989  1.00  0.00     0.339 C 
ATOM      3  C   UNL     1      36.284  -3.552  -4.211  1.00  0.00     0.199 C 
ATOM      4  C   UNL     1      36.944  -4.233  -2.983  1.00  0.00     0.180 C 
ATOM      5  O   UNL     1      37.135  -2.607  -4.854  1.00  0.00    -0.328 OA
ATOM      6  C   UNL     1      37.552  -3.185  -2.030  1.00  0.00     0.181 C 
ATOM      7  C   UNL     1      38.407  -2.154  -2.789  1.00  0.00     0.214 C 
BRANCH   3   8
ATOM      8  C   UNL     1      34.907  -2.989  -3.949  1.00  0.00     0.073 C 
ATOM      9  O   UNL     1      34.336  -3.235  -2.854  1.00  0.00    -0.547 OA
ATOM     10  O   UNL     1      34.253  -2.207  -4.894  1.00  0.00    -0.547 OA
ENDBRANCH   3   8
BRANCH   4  11
ATOM     11  O   UNL     1      37.938  -5.127  -3.416  1.00  0.00    -0.387 OA
ATOM     12  H   UNL     1      37.493  -5.801  -3.993  1.00  0.00     0.211 HD
ENDBRANCH   4  11
BRANCH   6  13
ATOM     13  O   UNL     1      38.268  -3.787  -0.978  1.00  0.00    -0.387 OA
ATOM     14  H   UNL     1      39.120  -4.141  -1.342  1.00  0.00     0.211 HD
ENDBRANCH   6  13
BRANCH   7  15
ATOM     15  O   UNL     1      39.648  -2.688  -3.189  1.00  0.00    -0.384 OA
ATOM     16  H   UNL     1      40.370  -2.154  -2.767  1.00  0.00     0.211 HD
ENDBRANCH   7  15
ENDBRANCH   1   2
BRANCH   1  17
ATOM     17  C   UNL     1      36.667   0.657  -3.358  1.00  0.00     0.172 A 
ATOM     18  C   UNL     1      35.568   1.447  -3.715  1.00  0.00     0.201 A 
ATOM     19  C   UNL     1      37.826   1.271  -2.862  1.00  0.00     0.098 A 
ATOM     20  C   UNL     1      35.613   2.849  -3.583  1.00  0.00     0.176 A 
ATOM     21  C   UNL     1      37.879   2.653  -2.686  1.00  0.00     0.146 A 
ATOM     22  C   UNL     1      36.765   3.467  -3.016  1.00  0.00     0.111 A 
ATOM     23  O   UNL     1      38.992   3.187  -2.196  1.00  0.00    -0.456 OA
ATOM     24  C   UNL     1      36.871   4.845  -2.715  1.00  0.00     0.197 A 
ATOM     25  C   UNL     1      39.141   4.488  -1.965  1.00  0.00     0.138 A 
ATOM     26  C   UNL     1      38.067   5.355  -2.207  1.00  0.00     0.100 A 
ATOM     27  O   UNL     1      35.902   5.636  -2.855  1.00  0.00    -0.289 OA
BRANCH  18  28
ATOM     28  O   UNL     1      34.434   0.813  -4.227  1.00  0.00    -0.502 OA
ATOM     29  H   UNL     1      33.860   1.226  -4.954  1.00  0.00     0.293 HD
ENDBRANCH  18  28
BRANCH  20  30
ATOM     30  O   UNL     1      34.512   3.571  -4.056  1.00  0.00    -0.504 OA
ATOM     31  H   UNL     1      33.639   3.159  -4.349  1.00  0.00     0.293 HD
ENDBRANCH  20  30
BRANCH  25  32
ATOM     32  C   UNL     1      40.437   4.975  -1.427  1.00  0.00     0.017 A 
ATOM     33  C   UNL     1      40.825   6.325  -1.540  1.00  0.00     0.012 A 
ATOM     34  C   UNL     1      41.320   4.065  -0.816  1.00  0.00     0.012 A 
ATOM     35  C   UNL     1      42.057   6.752  -1.033  1.00  0.00     0.001 A 
ATOM     36  C   UNL     1      42.550   4.497  -0.311  1.00  0.00     0.001 A 
ATOM     37  C   UNL     1      42.916   5.840  -0.418  1.00  0.00     0.000 A 
ENDBRANCH  25  32
ENDBRANCH   1  17
TORSDOF 9
ENDMDL
MODEL 4
REMARK VINA RESULT:    -9.156      2.594      8.896
REMARK INTER + INTRA:         -12.906
REMARK INTER:                 -11.939
REMARK INTRA:                  -0.967
REMARK UNBOUND:                -0.271
REMARK SMILES O=C([O-])[C@H]1O[C@@H](Oc2cc3oc(-c4ccccc4)cc(=O)c3c(O)c2O)[C@H](O)[C@H](O)[C@@H]1O
REMARK SMILES IDX 7 1 6 2 4 3 31 4 5 5 29 6 27 7 2 8 1 9 3 10 32 11 30 13
REMARK SMILES IDX 28 15 8 17 25 18 9 19 23 20 10 21 22 22 11 23 20 24 12 25
REMARK SMILES IDX 19 26 21 27 26 28 24 30 13 32 14 33 18 34 15 35 17 36 16 37
REMARK H PARENT 32 12 30 14 28 16 26 29 24 31
REMARK Flexibility Score: inf
ROOT
ATOM      1  O   UNL     1      40.551   4.728  -0.152  1.00  0.00    -0.458 OA
ENDROOT
BRANCH   1   2
ATOM      2  C   UNL     1      40.524   5.356   1.133  1.00  0.00     0.339 C 
ATOM      3  C   UNL     1      42.334   6.861   0.719  1.00  0.00     0.199 C 
ATOM      4  C   UNL     1      43.292   6.093   1.669  1.00  0.00     0.180 C 
ATOM      5  O   UNL     1      40.960   6.711   1.065  1.00  0.00    -0.328 OA
ATOM      6  C   UNL     1      42.842   4.629   1.841  1.00  0.00     0.181 C 
ATOM      7  C   UNL     1      41.337   4.527   2.148  1.00  0.00     0.214 C 
BRANCH   3   8
ATOM      8  C   UNL     1      42.580   6.612  -0.750  1.00  0.00     0.073 C 
ATOM      9  O   UNL     1      43.626   6.010  -1.110  1.00  0.00    -0.547 OA
ATOM     10  O   UNL     1      41.677   7.038  -1.718  1.00  0.00    -0.547 OA
ENDBRANCH   3   8
BRANCH   4  11
ATOM     11  O   UNL     1      43.332   6.736   2.918  1.00  0.00    -0.387 OA
ATOM     12  H   UNL     1      43.686   6.078   3.573  1.00  0.00     0.211 HD
ENDBRANCH   4  11
BRANCH   6  13
ATOM     13  O   UNL     1      43.619   3.951   2.799  1.00  0.00    -0.387 OA
ATOM     14  H   UNL     1      44.393   4.525   3.037  1.00  0.00     0.211 HD
ENDBRANCH   6  13
BRANCH   7  15
ATOM     15  O   UNL     1      41.042   4.899   3.474  1.00  0.00    -0.384 OA
ATOM     16  H   UNL     1      41.561   4.317   4.087  1.00  0.00     0.211 HD
ENDBRANCH   7  15
ENDBRANCH   1   2
BRANCH   1  17
ATOM     17  C   UNL     1      39.422   4.430  -0.933  1.00  0.00     0.172 A 
ATOM     18  C   UNL     1      38.541   5.471  -1.246  1.00  0.00     0.201 A 
ATOM     19  C   UNL     1      39.147   3.132  -1.386  1.00  0.00     0.098 A 
ATOM     20  C   UNL     1      37.382   5.231  -2.010  1.00  0.00     0.176 A 
ATOM     21  C   UNL     1      38.026   2.878  -2.176  1.00  0.00     0.146 A 
ATOM     22  C   UNL     1      37.137   3.926  -2.528  1.00  0.00     0.111 A 
ATOM     23  O   UNL     1      37.815   1.635  -2.596  1.00  0.00    -0.456 OA
ATOM     24  C   UNL     1      36.081   3.596  -3.410  1.00  0.00     0.197 A 
ATOM     25  C   UNL     1      36.795   1.287  -3.373  1.00  0.00     0.138 A 
ATOM     26  C   UNL     1      35.902   2.273  -3.815  1.00  0.00     0.100 A 
ATOM     27  O   UNL     1      35.307   4.470  -3.880  1.00  0.00    -0.289 OA
BRANCH  18  28
ATOM     28  O   UNL     1      38.827   6.750  -0.765  1.00  0.00    -0.502 OA
ATOM     29  H   UNL     1      38.321   7.573  -1.071  1.00  0.00     0.293 HD
ENDBRANCH  18  28
BRANCH  20  30
ATOM     30  O   UNL     1      36.504   6.304  -2.193  1.00  0.00    -0.504 OA
ATOM     31  H   UNL     1      36.662   7.073  -2.826  1.00  0.00     0.293 HD
ENDBRANCH  20  30
BRANCH  25  32
ATOM     32  C   UNL     1      36.652  -0.137  -3.771  1.00  0.00     0.017 A 
ATOM     33  C   UNL     1      37.439  -1.151  -3.190  1.00  0.00     0.012 A 
ATOM     34  C   UNL     1      35.730  -0.486  -4.776  1.00  0.00     0.012 A 
ATOM     35  C   UNL     1      37.289  -2.482  -3.593  1.00  0.00     0.001 A 
ATOM     36  C   UNL     1      35.584  -1.818  -5.174  1.00  0.00     0.001 A 
ATOM     37  C   UNL     1      36.361  -2.815  -4.582  1.00  0.00     0.000 A 
ENDBRANCH  25  32
ENDBRANCH   1  17
TORSDOF 9
ENDMDL
MODEL 5
REMARK VINA RESULT:    -9.124      2.204      8.468
REMARK INTER + INTRA:         -12.862
REMARK INTER:                 -11.791
REMARK INTRA:                  -1.071
REMARK UNBOUND:                -0.271
REMARK SMILES O=C([O-])[C@H]1O[C@@H](Oc2cc3oc(-c4ccccc4)cc(=O)c3c(O)c2O)[C@H](O)[C@H](O)[C@@H]1O
REMARK SMILES IDX 7 1 6 2 4 3 31 4 5 5 29 6 27 7 2 8 1 9 3 10 32 11 30 13
REMARK SMILES IDX 28 15 8 17 25 18 9 19 23 20 10 21 22 22 11 23 20 24 12 25
REMARK SMILES IDX 19 26 21 27 26 28 24 30 13 32 14 33 18 34 15 35 17 36 16 37
REMARK H PARENT 32 12 30 14 28 16 26 29 24 31
REMARK Flexibility Score: inf
ROOT
ATOM      1  O   UNL     1      39.783   4.889  -1.499  1.00  0.00    -0.458 OA
ENDROOT
BRANCH   1   2
ATOM      2  C   UNL     1      40.772   4.197  -0.731  1.00  0.00     0.339 C 
ATOM      3  C   UNL     1      40.192   5.175   1.371  1.00  0.00     0.199 C 
ATOM      4  C   UNL     1      41.482   6.036   1.414  1.00  0.00     0.180 C 
ATOM      5  O   UNL     1      40.339   3.980   0.608  1.00  0.00    -0.328 OA
ATOM      6  C   UNL     1      42.045   6.259  -0.004  1.00  0.00     0.181 C 
ATOM      7  C   UNL     1      42.119   4.944  -0.801  1.00  0.00     0.214 C 
BRANCH   3   8
ATOM      8  C   UNL     1      38.944   5.937   0.994  1.00  0.00     0.073 C 
ATOM      9  O   UNL     1      39.044   7.125   0.586  1.00  0.00    -0.547 OA
ATOM     10  O   UNL     1      37.684   5.359   1.093  1.00  0.00    -0.547 OA
ENDBRANCH   3   8
BRANCH   4  11
ATOM     11  O   UNL     1      42.444   5.405   2.221  1.00  0.00    -0.387 OA
ATOM     12  H   UNL     1      42.456   5.885   3.090  1.00  0.00     0.211 HD
ENDBRANCH   4  11
BRANCH   6  13
ATOM     13  O   UNL     1      43.284   6.925   0.023  1.00  0.00    -0.387 OA
ATOM     14  H   UNL     1      43.981   6.304  -0.313  1.00  0.00     0.211 HD
ENDBRANCH   6  13
BRANCH   7  15
ATOM     15  O   UNL     1      43.185   4.128  -0.376  1.00  0.00    -0.384 OA
ATOM     16  H   UNL     1      43.148   4.051   0.612  1.00  0.00     0.211 HD
ENDBRANCH   7  15
ENDBRANCH   1   2
BRANCH   1  17
ATOM     17  C   UNL     1      38.613   4.313  -2.023  1.00  0.00     0.172 A 
ATOM     18  C   UNL     1      37.501   5.139  -2.221  1.00  0.00     0.201 A 
ATOM     19  C   UNL     1      38.523   2.948  -2.331  1.00  0.00     0.098 A 
ATOM     20  C   UNL     1      36.294   4.616  -2.725  1.00  0.00     0.176 A 
ATOM     21  C   UNL     1      37.351   2.416  -2.868  1.00  0.00     0.146 A 
ATOM     22  C   UNL     1      36.223   3.244  -3.102  1.00  0.00     0.111 A 
ATOM     23  O   UNL     1      37.319   1.121  -3.160  1.00  0.00    -0.456 OA
ATOM     24  C   UNL     1      35.112   2.641  -3.737  1.00  0.00     0.197 A 
ATOM     25  C   UNL     1      36.265   0.517  -3.699  1.00  0.00     0.138 A 
ATOM     26  C   UNL     1      35.129   1.274  -4.017  1.00  0.00     0.100 A 
ATOM     27  O   UNL     1      34.108   3.308  -4.100  1.00  0.00    -0.289 OA
BRANCH  18  28
ATOM     28  O   UNL     1      37.610   6.490  -1.886  1.00  0.00    -0.502 OA
ATOM     29  H   UNL     1      36.945   6.957  -1.280  1.00  0.00     0.293 HD
ENDBRANCH  18  28
BRANCH  20  30
ATOM     30  O   UNL     1      35.202   5.487  -2.799  1.00  0.00    -0.504 OA
ATOM     31  H   UNL     1      34.791   5.960  -2.008  1.00  0.00     0.293 HD
ENDBRANCH  20  30
BRANCH  25  32
ATOM     32  C   UNL     1      36.337  -0.942  -3.971  1.00  0.00     0.017 A 
ATOM     33  C   UNL     1      36.737  -1.862  -2.981  1.00  0.00     0.012 A 
ATOM     34  C   UNL     1      36.031  -1.422  -5.258  1.00  0.00     0.012 A 
ATOM     35  C   UNL     1      36.807  -3.228  -3.271  1.00  0.00     0.001 A 
ATOM     36  C   UNL     1      36.101  -2.789  -5.542  1.00  0.00     0.001 A 
ATOM     37  C   UNL     1      36.486  -3.691  -4.548  1.00  0.00     0.000 A 
ENDBRANCH  25  32
ENDBRANCH   1  17
TORSDOF 9
ENDMDL
MODEL 6
REMARK VINA RESULT:    -9.095      3.122      8.475
REMARK INTER + INTRA:         -12.822
REMARK INTER:                 -11.689
REMARK INTRA:                  -1.133
REMARK UNBOUND:                -0.271
REMARK SMILES O=C([O-])[C@H]1O[C@@H](Oc2cc3oc(-c4ccccc4)cc(=O)c3c(O)c2O)[C@H](O)[C@H](O)[C@@H]1O
REMARK SMILES IDX 7 1 6 2 4 3 31 4 5 5 29 6 27 7 2 8 1 9 3 10 32 11 30 13
REMARK SMILES IDX 28 15 8 17 25 18 9 19 23 20 10 21 22 22 11 23 20 24 12 25
REMARK SMILES IDX 19 26 21 27 26 28 24 30 13 32 14 33 18 34 15 35 17 36 16 37
REMARK H PARENT 32 12 30 14 28 16 26 29 24 31
REMARK Flexibility Score: inf
ROOT
ATOM      1  O   UNL     1      36.611   2.439  -2.859  1.00  0.00    -0.458 OA
ENDROOT
BRANCH   1   2
ATOM      2  C   UNL     1      36.869   3.516  -3.764  1.00  0.00     0.339 C 
ATOM      3  C   UNL     1      36.701   5.259  -2.138  1.00  0.00     0.199 C 
ATOM      4  C   UNL     1      35.349   5.766  -2.708  1.00  0.00     0.180 C 
ATOM      5  O   UNL     1      37.512   4.607  -3.111  1.00  0.00    -0.328 OA
ATOM      6  C   UNL     1      34.624   4.649  -3.485  1.00  0.00     0.181 C 
ATOM      7  C   UNL     1      35.567   3.939  -4.473  1.00  0.00     0.214 C 
BRANCH   3   8
ATOM      8  C   UNL     1      36.580   4.452  -0.868  1.00  0.00     0.073 C 
ATOM      9  O   UNL     1      35.443   4.265  -0.359  1.00  0.00    -0.547 OA
ATOM     10  O   UNL     1      37.699   3.914  -0.242  1.00  0.00    -0.547 OA
ENDBRANCH   3   8
BRANCH   4  11
ATOM     11  O   UNL     1      35.575   6.870  -3.548  1.00  0.00    -0.387 OA
ATOM     12  H   UNL     1      34.797   6.934  -4.161  1.00  0.00     0.211 HD
ENDBRANCH   4  11
BRANCH   6  13
ATOM     13  O   UNL     1      33.461   5.123  -4.120  1.00  0.00    -0.387 OA
ATOM     14  H   UNL     1      33.600   6.076  -4.358  1.00  0.00     0.211 HD
ENDBRANCH   6  13
BRANCH   7  15
ATOM     15  O   UNL     1      35.830   4.725  -5.611  1.00  0.00    -0.384 OA
ATOM     16  H   UNL     1      34.968   5.063  -5.967  1.00  0.00     0.211 HD
ENDBRANCH   7  15
ENDBRANCH   1   2
BRANCH   1  17
ATOM     17  C   UNL     1      37.316   1.224  -2.822  1.00  0.00     0.172 A 
ATOM     18  C   UNL     1      38.688   1.263  -2.553  1.00  0.00     0.201 A 
ATOM     19  C   UNL     1      36.694  -0.010  -3.063  1.00  0.00     0.098 A 
ATOM     20  C   UNL     1      39.453   0.079  -2.522  1.00  0.00     0.176 A 
ATOM     21  C   UNL     1      37.422  -1.198  -2.999  1.00  0.00     0.146 A 
ATOM     22  C   UNL     1      38.809  -1.180  -2.699  1.00  0.00     0.111 A 
ATOM     23  O   UNL     1      36.787  -2.343  -3.218  1.00  0.00    -0.456 OA
ATOM     24  C   UNL     1      39.447  -2.435  -2.560  1.00  0.00     0.197 A 
ATOM     25  C   UNL     1      37.377  -3.533  -3.156  1.00  0.00     0.138 A 
ATOM     26  C   UNL     1      38.732  -3.608  -2.808  1.00  0.00     0.100 A 
ATOM     27  O   UNL     1      40.642  -2.538  -2.180  1.00  0.00    -0.289 OA
BRANCH  18  28
ATOM     28  O   UNL     1      39.288   2.505  -2.338  1.00  0.00    -0.502 OA
ATOM     29  H   UNL     1      39.653   3.073  -3.094  1.00  0.00     0.293 HD
ENDBRANCH  18  28
BRANCH  20  30
ATOM     30  O   UNL     1      40.833   0.214  -2.346  1.00  0.00    -0.504 OA
ATOM     31  H   UNL     1      41.469  -0.553  -2.184  1.00  0.00     0.293 HD
ENDBRANCH  20  30
BRANCH  25  32
ATOM     32  C   UNL     1      36.569  -4.748  -3.432  1.00  0.00     0.017 A 
ATOM     33  C   UNL     1      35.319  -4.675  -4.080  1.00  0.00     0.012 A 
ATOM     34  C   UNL     1      37.042  -6.005  -3.012  1.00  0.00     0.012 A 
ATOM     35  C   UNL     1      34.576  -5.836  -4.317  1.00  0.00     0.001 A 
ATOM     36  C   UNL     1      36.295  -7.162  -3.252  1.00  0.00     0.001 A 
ATOM     37  C   UNL     1      35.064  -7.077  -3.906  1.00  0.00     0.000 A 
ENDBRANCH  25  32
ENDBRANCH   1  17
TORSDOF 9
ENDMDL
MODEL 7
REMARK VINA RESULT:    -9.058      1.181      1.499
REMARK INTER + INTRA:         -12.770
REMARK INTER:                 -11.991
REMARK INTRA:                  -0.779
REMARK UNBOUND:                -0.271
REMARK SMILES O=C([O-])[C@H]1O[C@@H](Oc2cc3oc(-c4ccccc4)cc(=O)c3c(O)c2O)[C@H](O)[C@H](O)[C@@H]1O
REMARK SMILES IDX 7 1 6 2 4 3 31 4 5 5 29 6 27 7 2 8 1 9 3 10 32 11 30 13
REMARK SMILES IDX 28 15 8 17 25 18 9 19 23 20 10 21 22 22 11 23 20 24 12 25
REMARK SMILES IDX 19 26 21 27 26 28 24 30 13 32 14 33 18 34 15 35 17 36 16 37
REMARK H PARENT 32 12 30 14 28 16 26 29 24 31
REMARK Flexibility Score: inf
ROOT
ATOM      1  O   UNL     1      36.370  -0.264  -4.111  1.00  0.00    -0.458 OA
ENDROOT
BRANCH   1   2
ATOM      2  C   UNL     1      35.332  -1.175  -3.739  1.00  0.00     0.339 C 
ATOM      3  C   UNL     1      36.766  -2.785  -2.708  1.00  0.00     0.199 C 
ATOM      4  C   UNL     1      36.567  -3.811  -3.856  1.00  0.00     0.180 C 
ATOM      5  O   UNL     1      35.665  -1.894  -2.555  1.00  0.00    -0.328 OA
ATOM      6  C   UNL     1      36.142  -3.106  -5.159  1.00  0.00     0.181 C 
ATOM      7  C   UNL     1      34.995  -2.108  -4.919  1.00  0.00     0.214 C 
BRANCH   3   8
ATOM      8  C   UNL     1      38.087  -2.054  -2.745  1.00  0.00     0.073 C 
ATOM      9  O   UNL     1      38.372  -1.244  -1.823  1.00  0.00    -0.547 OA
ATOM     10  O   UNL     1      38.995  -2.252  -3.778  1.00  0.00    -0.547 OA
ENDBRANCH   3   8
BRANCH   4  11
ATOM     11  O   UNL     1      35.598  -4.757  -3.481  1.00  0.00    -0.387 OA
ATOM     12  H   UNL     1      36.014  -5.344  -2.795  1.00  0.00     0.211 HD
ENDBRANCH   4  11
BRANCH   6  13
ATOM     13  O   UNL     1      35.830  -4.028  -6.176  1.00  0.00    -0.387 OA
ATOM     14  H   UNL     1      36.648  -4.548  -6.388  1.00  0.00     0.211 HD
ENDBRANCH   6  13
BRANCH   7  15
ATOM     15  O   UNL     1      33.760  -2.759  -4.726  1.00  0.00    -0.384 OA
ATOM     16  H   UNL     1      33.251  -2.724  -5.577  1.00  0.00     0.211 HD
ENDBRANCH   7  15
ENDBRANCH   1   2
BRANCH   1  17
ATOM     17  C   UNL     1      36.409   1.101  -3.780  1.00  0.00     0.172 A 
ATOM     18  C   UNL     1      35.502   1.961  -4.410  1.00  0.00     0.201 A 
ATOM     19  C   UNL     1      37.331   1.623  -2.862  1.00  0.00     0.098 A 
ATOM     20  C   UNL     1      35.505   3.342  -4.134  1.00  0.00     0.176 A 
ATOM     21  C   UNL     1      37.327   2.981  -2.544  1.00  0.00     0.146 A 
ATOM     22  C   UNL     1      36.396   3.863  -3.151  1.00  0.00     0.111 A 
ATOM     23  O   UNL     1      38.209   3.426  -1.655  1.00  0.00    -0.456 OA
ATOM     24  C   UNL     1      36.400   5.203  -2.698  1.00  0.00     0.197 A 
ATOM     25  C   UNL     1      38.275   4.694  -1.261  1.00  0.00     0.138 A 
ATOM     26  C   UNL     1      37.353   5.619  -1.767  1.00  0.00     0.100 A 
ATOM     27  O   UNL     1      35.540   6.039  -3.081  1.00  0.00    -0.289 OA
BRANCH  18  28
ATOM     28  O   UNL     1      34.608   1.419  -5.336  1.00  0.00    -0.502 OA
ATOM     29  H   UNL     1      33.672   1.786  -5.469  1.00  0.00     0.293 HD
ENDBRANCH  18  28
BRANCH  20  30
ATOM     30  O   UNL     1      34.635   4.145  -4.879  1.00  0.00    -0.504 OA
ATOM     31  H   UNL     1      34.919   4.940  -5.431  1.00  0.00     0.293 HD
ENDBRANCH  20  30
BRANCH  25  32
ATOM     32  C   UNL     1      39.312   5.081  -0.270  1.00  0.00     0.017 A 
ATOM     33  C   UNL     1      39.713   6.422  -0.103  1.00  0.00     0.012 A 
ATOM     34  C   UNL     1      39.936   4.086   0.504  1.00  0.00     0.012 A 
ATOM     35  C   UNL     1      40.700   6.755   0.830  1.00  0.00     0.001 A 
ATOM     36  C   UNL     1      40.921   4.424   1.437  1.00  0.00     0.001 A 
ATOM     37  C   UNL     1      41.301   5.758   1.601  1.00  0.00     0.000 A 
ENDBRANCH  25  32
ENDBRANCH   1  17
TORSDOF 9
ENDMDL
MODEL 8
REMARK VINA RESULT:    -8.900      1.292      1.485
REMARK INTER + INTRA:         -12.553
REMARK INTER:                 -11.635
REMARK INTRA:                  -0.918
REMARK UNBOUND:                -0.271
REMARK SMILES O=C([O-])[C@H]1O[C@@H](Oc2cc3oc(-c4ccccc4)cc(=O)c3c(O)c2O)[C@H](O)[C@H](O)[C@@H]1O
REMARK SMILES IDX 7 1 6 2 4 3 31 4 5 5 29 6 27 7 2 8 1 9 3 10 32 11 30 13
REMARK SMILES IDX 28 15 8 17 25 18 9 19 23 20 10 21 22 22 11 23 20 24 12 25
REMARK SMILES IDX 19 26 21 27 26 28 24 30 13 32 14 33 18 34 15 35 17 36 16 37
REMARK H PARENT 32 12 30 14 28 16 26 29 24 31
REMARK Flexibility Score: inf
ROOT
ATOM      1  O   UNL     1      36.853  -0.635  -3.695  1.00  0.00    -0.458 OA
ENDROOT
BRANCH   1   2
ATOM      2  C   UNL     1      36.108  -1.594  -2.940  1.00  0.00     0.339 C 
ATOM      3  C   UNL     1      37.887  -3.173  -2.707  1.00  0.00     0.199 C 
ATOM      4  C   UNL     1      37.228  -4.177  -3.689  1.00  0.00     0.180 C 
ATOM      5  O   UNL     1      36.945  -2.328  -2.051  1.00  0.00    -0.328 OA
ATOM      6  C   UNL     1      36.256  -3.458  -4.645  1.00  0.00     0.181 C 
ATOM      7  C   UNL     1      35.308  -2.512  -3.887  1.00  0.00     0.214 C 
BRANCH   3   8
ATOM      8  C   UNL     1      39.039  -2.391  -3.292  1.00  0.00     0.073 C 
ATOM      9  O   UNL     1      39.374  -2.585  -4.490  1.00  0.00    -0.547 OA
ATOM     10  O   UNL     1      39.743  -1.463  -2.533  1.00  0.00    -0.547 OA
ENDBRANCH   3   8
BRANCH   4  11
ATOM     11  O   UNL     1      36.546  -5.169  -2.964  1.00  0.00    -0.387 OA
ATOM     12  H   UNL     1      37.143  -5.450  -2.222  1.00  0.00     0.211 HD
ENDBRANCH   4  11
BRANCH   6  13
ATOM     13  O   UNL     1      35.551  -4.367  -5.457  1.00  0.00    -0.387 OA
ATOM     14  H   UNL     1      34.917  -4.871  -4.884  1.00  0.00     0.211 HD
ENDBRANCH   6  13
BRANCH   7  15
ATOM     15  O   UNL     1      34.300  -3.214  -3.198  1.00  0.00    -0.384 OA
ATOM     16  H   UNL     1      34.382  -4.178  -3.417  1.00  0.00     0.211 HD
ENDBRANCH   7  15
ENDBRANCH   1   2
BRANCH   1  17
ATOM     17  C   UNL     1      36.910   0.743  -3.426  1.00  0.00     0.172 A 
ATOM     18  C   UNL     1      35.886   1.556  -3.924  1.00  0.00     0.201 A 
ATOM     19  C   UNL     1      37.959   1.321  -2.697  1.00  0.00     0.098 A 
ATOM     20  C   UNL     1      35.897   2.948  -3.703  1.00  0.00     0.176 A 
ATOM     21  C   UNL     1      37.971   2.690  -2.433  1.00  0.00     0.146 A 
ATOM     22  C   UNL     1      36.927   3.527  -2.906  1.00  0.00     0.111 A 
ATOM     23  O   UNL     1      38.977   3.190  -1.724  1.00  0.00    -0.456 OA
ATOM     24  C   UNL     1      36.970   4.884  -2.510  1.00  0.00     0.197 A 
ATOM     25  C   UNL     1      39.074   4.474  -1.394  1.00  0.00     0.138 A 
ATOM     26  C   UNL     1      38.054   5.358  -1.770  1.00  0.00     0.100 A 
ATOM     27  O   UNL     1      36.035   5.685  -2.772  1.00  0.00    -0.289 OA
BRANCH  18  28
ATOM     28  O   UNL     1      34.864   0.959  -4.664  1.00  0.00    -0.502 OA
ATOM     29  H   UNL     1      34.653   1.228  -5.618  1.00  0.00     0.293 HD
ENDBRANCH  18  28
BRANCH  20  30
ATOM     30  O   UNL     1      34.892   3.701  -4.319  1.00  0.00    -0.504 OA
ATOM     31  H   UNL     1      34.252   3.345  -5.013  1.00  0.00     0.293 HD
ENDBRANCH  20  30
BRANCH  25  32
ATOM     32  C   UNL     1      40.252   4.924  -0.608  1.00  0.00     0.017 A 
ATOM     33  C   UNL     1      40.155   5.954   0.349  1.00  0.00     0.012 A 
ATOM     34  C   UNL     1      41.507   4.331  -0.841  1.00  0.00     0.012 A 
ATOM     35  C   UNL     1      41.284   6.363   1.065  1.00  0.00     0.001 A 
ATOM     36  C   UNL     1      42.632   4.744  -0.121  1.00  0.00     0.001 A 
ATOM     37  C   UNL     1      42.520   5.757   0.832  1.00  0.00     0.000 A 
ENDBRANCH  25  32
ENDBRANCH   1  17
TORSDOF 9
ENDMDL
MODEL 9
REMARK VINA RESULT:    -8.681      1.874      8.270
REMARK INTER + INTRA:         -12.251
REMARK INTER:                 -10.981
REMARK INTRA:                  -1.270
REMARK UNBOUND:                -0.271
REMARK SMILES O=C([O-])[C@H]1O[C@@H](Oc2cc3oc(-c4ccccc4)cc(=O)c3c(O)c2O)[C@H](O)[C@H](O)[C@@H]1O
REMARK SMILES IDX 7 1 6 2 4 3 31 4 5 5 29 6 27 7 2 8 1 9 3 10 32 11 30 13
REMARK SMILES IDX 28 15 8 17 25 18 9 19 23 20 10 21 22 22 11 23 20 24 12 25
REMARK SMILES IDX 19 26 21 27 26 28 24 30 13 32 14 33 18 34 15 35 17 36 16 37
REMARK H PARENT 32 12 30 14 28 16 26 29 24 31
REMARK Flexibility Score: inf
ROOT
ATOM      1  O   UNL     1      38.796   3.675  -2.344  1.00  0.00    -0.458 OA
ENDROOT
BRANCH   1   2
ATOM      2  C   UNL     1      39.747   3.471  -1.296  1.00  0.00     0.339 C 
ATOM      3  C   UNL     1      38.777   5.029   0.234  1.00  0.00     0.199 C 
ATOM      4  C   UNL     1      39.938   6.044   0.058  1.00  0.00     0.180 C 
ATOM      5  O   UNL     1      39.166   3.681  -0.012  1.00  0.00    -0.328 OA
ATOM      6  C   UNL     1      40.656   5.832  -1.289  1.00  0.00     0.181 C 
ATOM      7  C   UNL     1      40.993   4.350  -1.528  1.00  0.00     0.214 C 
BRANCH   3   8
ATOM      8  C   UNL     1      37.509   5.396  -0.501  1.00  0.00     0.073 C 
ATOM      9  O   UNL     1      37.510   6.385  -1.281  1.00  0.00    -0.547 OA
ATOM     10  O   UNL     1      36.337   4.669  -0.331  1.00  0.00    -0.547 OA
ENDBRANCH   3   8
BRANCH   4  11
ATOM     11  O   UNL     1      40.850   5.906   1.119  1.00  0.00    -0.387 OA
ATOM     12  H   UNL     1      41.758   6.034   0.740  1.00  0.00     0.211 HD
ENDBRANCH   4  11
BRANCH   6  13
ATOM     13  O   UNL     1      41.793   6.654  -1.411  1.00  0.00    -0.387 OA
ATOM     14  H   UNL     1      41.490   7.592  -1.523  1.00  0.00     0.211 HD
ENDBRANCH   6  13
BRANCH   7  15
ATOM     15  O   UNL     1      42.081   3.921  -0.744  1.00  0.00    -0.384 OA
ATOM     16  H   UNL     1      42.893   3.904  -1.314  1.00  0.00     0.211 HD
ENDBRANCH   7  15
ENDBRANCH   1   2
BRANCH   1  17
ATOM     17  C   UNL     1      37.884   2.713  -2.810  1.00  0.00     0.172 A 
ATOM     18  C   UNL     1      36.713   3.159  -3.432  1.00  0.00     0.201 A 
ATOM     19  C   UNL     1      38.102   1.337  -2.656  1.00  0.00     0.098 A 
ATOM     20  C   UNL     1      35.751   2.244  -3.903  1.00  0.00     0.176 A 
ATOM     21  C   UNL     1      37.183   0.411  -3.149  1.00  0.00     0.146 A 
ATOM     22  C   UNL     1      36.004   0.844  -3.807  1.00  0.00     0.111 A 
ATOM     23  O   UNL     1      37.441  -0.883  -2.994  1.00  0.00    -0.456 OA
ATOM     24  C   UNL     1      35.176  -0.161  -4.359  1.00  0.00     0.197 A 
ATOM     25  C   UNL     1      36.648  -1.848  -3.447  1.00  0.00     0.138 A 
ATOM     26  C   UNL     1      35.492  -1.506  -4.161  1.00  0.00     0.100 A 
ATOM     27  O   UNL     1      34.171   0.114  -5.066  1.00  0.00    -0.289 OA
BRANCH  18  28
ATOM     28  O   UNL     1      36.509   4.536  -3.555  1.00  0.00    -0.502 OA
ATOM     29  H   UNL     1      37.213   5.216  -3.296  1.00  0.00     0.293 HD
ENDBRANCH  18  28
BRANCH  20  30
ATOM     30  O   UNL     1      34.564   2.773  -4.421  1.00  0.00    -0.504 OA
ATOM     31  H   UNL     1      34.312   3.750  -4.395  1.00  0.00     0.293 HD
ENDBRANCH  20  30
BRANCH  25  32
ATOM     32  C   UNL     1      37.031  -3.262  -3.204  1.00  0.00     0.017 A 
ATOM     33  C   UNL     1      36.335  -4.332  -3.802  1.00  0.00     0.012 A 
ATOM     34  C   UNL     1      38.097  -3.551  -2.332  1.00  0.00     0.012 A 
ATOM     35  C   UNL     1      36.712  -5.654  -3.545  1.00  0.00     0.001 A 
ATOM     36  C   UNL     1      38.471  -4.875  -2.080  1.00  0.00     0.001 A 
ATOM     37  C   UNL     1      37.781  -5.924  -2.688  1.00  0.00     0.000 A 
ENDBRANCH  25  32
ENDBRANCH   1  17
TORSDOF 9
ENDMDL
