MODEL 1
REMARK VINA RESULT:    -5.858      0.000      0.000
REMARK INTER + INTRA:          -5.858
REMARK INTER:                  -5.858
REMARK INTRA:                   0.000
REMARK UNBOUND:                 0.000
REMARK SMILES C=C1CCC[C@@]2(C)CC(=O)C(=C(C)C)C[C@@H]12
REMARK SMILES IDX 13 1 12 2 11 3 15 4 16 5 2 6 1 7 3 8 4 9 5 10 6 11 8 12 9 13
REMARK SMILES IDX 10 14 7 15 14 16
REMARK H PARENT
REMARK Flexibility Score: inf
ROOT
ATOM      1  C   UNL     1     -16.101  12.375 -26.866  1.00  0.00     0.039 C 
ATOM      2  C   UNL     1     -16.100  12.186 -28.366  1.00  0.00    -0.070 C 
ATOM      3  C   UNL     1     -15.014  12.523 -29.117  1.00  0.00    -0.006 C 
ATOM      4  C   UNL     1     -14.982  12.408 -30.624  1.00  0.00     0.047 C 
ATOM      5  C   UNL     1     -14.452  13.700 -31.289  1.00  0.00     0.025 C 
ATOM      6  C   UNL     1     -15.508  14.801 -31.305  1.00  0.00    -0.073 C 
ATOM      7  C   UNL     1     -16.648  14.636 -31.997  1.00  0.00     0.008 C 
ATOM      8  C   UNL     1     -15.255  16.102 -30.586  1.00  0.00     0.031 C 
ATOM      9  C   UNL     1     -13.842  16.659 -30.854  1.00  0.00     0.005 C 
ATOM     10  C   UNL     1     -12.774  15.600 -31.217  1.00  0.00     0.008 C 
ATOM     11  C   UNL     1     -13.078  14.174 -30.686  1.00  0.00    -0.018 C 
ATOM     12  C   UNL     1     -13.049  14.178 -29.123  1.00  0.00     0.088 C 
ATOM     13  C   UNL     1     -13.754  13.004 -28.515  1.00  0.00     0.159 C 
ATOM     14  O   UNL     1     -13.279  12.460 -27.482  1.00  0.00    -0.295 OA
ATOM     15  C   UNL     1     -11.950  13.234 -31.186  1.00  0.00     0.012 C 
ATOM     16  C   UNL     1     -17.363  11.657 -29.003  1.00  0.00     0.039 C 
ENDROOT
TORSDOF 0
ENDMDL
MODEL 2
REMARK VINA RESULT:    -5.780      2.303      3.777
REMARK INTER + INTRA:          -5.780
REMARK INTER:                  -5.780
REMARK INTRA:                   0.000
REMARK UNBOUND:                 0.000
REMARK SMILES C=C1CCC[C@@]2(C)CC(=O)C(=C(C)C)C[C@@H]12
REMARK SMILES IDX 13 1 12 2 11 3 15 4 16 5 2 6 1 7 3 8 4 9 5 10 6 11 8 12 9 13
REMARK SMILES IDX 10 14 7 15 14 16
REMARK H PARENT
REMARK Flexibility Score: inf
ROOT
ATOM      1  C   UNL     1     -17.999  13.133 -30.860  1.00  0.00     0.039 C 
ATOM      2  C   UNL     1     -17.047  13.947 -30.014  1.00  0.00    -0.070 C 
ATOM      3  C   UNL     1     -16.033  14.657 -30.583  1.00  0.00    -0.006 C 
ATOM      4  C   UNL     1     -15.020  15.442 -29.780  1.00  0.00     0.047 C 
ATOM      5  C   UNL     1     -13.571  15.139 -30.229  1.00  0.00     0.025 C 
ATOM      6  C   UNL     1     -13.084  13.794 -29.699  1.00  0.00    -0.073 C 
ATOM      7  C   UNL     1     -12.963  13.591 -28.376  1.00  0.00     0.008 C 
ATOM      8  C   UNL     1     -12.687  12.701 -30.660  1.00  0.00     0.031 C 
ATOM      9  C   UNL     1     -11.799  13.220 -31.808  1.00  0.00     0.005 C 
ATOM     10  C   UNL     1     -11.982  14.715 -32.160  1.00  0.00     0.008 C 
ATOM     11  C   UNL     1     -13.370  15.298 -31.782  1.00  0.00    -0.018 C 
ATOM     12  C   UNL     1     -14.482  14.600 -32.631  1.00  0.00     0.088 C 
ATOM     13  C   UNL     1     -15.853  14.748 -32.047  1.00  0.00     0.159 C 
ATOM     14  O   UNL     1     -16.840  14.920 -32.812  1.00  0.00    -0.295 OA
ATOM     15  C   UNL     1     -13.364  16.806 -32.144  1.00  0.00     0.012 C 
ATOM     16  C   UNL     1     -17.234  13.904 -28.516  1.00  0.00     0.039 C 
ENDROOT
TORSDOF 0
ENDMDL
MODEL 3
REMARK VINA RESULT:    -5.762      1.815      4.416
REMARK INTER + INTRA:          -5.762
REMARK INTER:                  -5.762
REMARK INTRA:                   0.000
REMARK UNBOUND:                 0.000
REMARK SMILES C=C1CCC[C@@]2(C)CC(=O)C(=C(C)C)C[C@@H]12
REMARK SMILES IDX 13 1 12 2 11 3 15 4 16 5 2 6 1 7 3 8 4 9 5 10 6 11 8 12 9 13
REMARK SMILES IDX 10 14 7 15 14 16
REMARK H PARENT
REMARK Flexibility Score: inf
ROOT
ATOM      1  C   UNL     1     -11.318  15.361 -29.715  1.00  0.00     0.039 C 
ATOM      2  C   UNL     1     -12.002  14.201 -30.402  1.00  0.00    -0.070 C 
ATOM      3  C   UNL     1     -13.306  14.281 -30.786  1.00  0.00    -0.006 C 
ATOM      4  C   UNL     1     -14.053  13.133 -31.426  1.00  0.00     0.047 C 
ATOM      5  C   UNL     1     -15.425  12.892 -30.751  1.00  0.00     0.025 C 
ATOM      6  C   UNL     1     -15.278  12.172 -29.414  1.00  0.00    -0.073 C 
ATOM      7  C   UNL     1     -14.775  10.926 -29.367  1.00  0.00     0.008 C 
ATOM      8  C   UNL     1     -15.744  12.834 -28.142  1.00  0.00     0.031 C 
ATOM      9  C   UNL     1     -17.133  13.486 -28.293  1.00  0.00     0.005 C 
ATOM     10  C   UNL     1     -17.508  13.917 -29.731  1.00  0.00     0.008 C 
ATOM     11  C   UNL     1     -16.292  14.201 -30.652  1.00  0.00    -0.018 C 
ATOM     12  C   UNL     1     -15.500  15.436 -30.113  1.00  0.00     0.088 C 
ATOM     13  C   UNL     1     -14.100  15.519 -30.639  1.00  0.00     0.159 C 
ATOM     14  O   UNL     1     -13.608  16.644 -30.923  1.00  0.00    -0.295 OA
ATOM     15  C   UNL     1     -16.839  14.558 -32.059  1.00  0.00     0.012 C 
ATOM     16  C   UNL     1     -11.199  12.937 -30.602  1.00  0.00     0.039 C 
ENDROOT
TORSDOF 0
ENDMDL
MODEL 4
REMARK VINA RESULT:    -5.724      1.599      2.299
REMARK INTER + INTRA:          -5.724
REMARK INTER:                  -5.724
REMARK INTRA:                   0.000
REMARK UNBOUND:                 0.000
REMARK SMILES C=C1CCC[C@@]2(C)CC(=O)C(=C(C)C)C[C@@H]12
REMARK SMILES IDX 13 1 12 2 11 3 15 4 16 5 2 6 1 7 3 8 4 9 5 10 6 11 8 12 9 13
REMARK SMILES IDX 10 14 7 15 14 16
REMARK H PARENT
REMARK Flexibility Score: inf
ROOT
ATOM      1  C   UNL     1     -17.450  14.233 -28.702  1.00  0.00     0.039 C 
ATOM      2  C   UNL     1     -16.712  13.674 -29.897  1.00  0.00    -0.070 C 
ATOM      3  C   UNL     1     -15.469  13.133 -29.767  1.00  0.00    -0.006 C 
ATOM      4  C   UNL     1     -14.666  12.612 -30.936  1.00  0.00     0.047 C 
ATOM      5  C   UNL     1     -13.216  13.153 -30.925  1.00  0.00     0.025 C 
ATOM      6  C   UNL     1     -13.149  14.600 -31.406  1.00  0.00    -0.073 C 
ATOM      7  C   UNL     1     -13.504  14.912 -32.665  1.00  0.00     0.008 C 
ATOM      8  C   UNL     1     -12.637  15.680 -30.487  1.00  0.00     0.031 C 
ATOM      9  C   UNL     1     -11.351  15.262 -29.747  1.00  0.00     0.005 C 
ATOM     10  C   UNL     1     -11.170  13.738 -29.547  1.00  0.00     0.008 C 
ATOM     11  C   UNL     1     -12.494  12.930 -29.545  1.00  0.00    -0.018 C 
ATOM     12  C   UNL     1     -13.361  13.344 -28.312  1.00  0.00     0.088 C 
ATOM     13  C   UNL     1     -14.807  12.978 -28.454  1.00  0.00     0.159 C 
ATOM     14  O   UNL     1     -15.447  12.569 -27.449  1.00  0.00    -0.295 OA
ATOM     15  C   UNL     1     -12.132  11.430 -29.396  1.00  0.00     0.012 C 
ATOM     16  C   UNL     1     -17.385  13.783 -31.245  1.00  0.00     0.039 C 
ENDROOT
TORSDOF 0
ENDMDL
MODEL 5
REMARK VINA RESULT:    -5.700      1.968      4.695
REMARK INTER + INTRA:          -5.700
REMARK INTER:                  -5.700
REMARK INTRA:                   0.000
REMARK UNBOUND:                 0.000
REMARK SMILES C=C1CCC[C@@]2(C)CC(=O)C(=C(C)C)C[C@@H]12
REMARK SMILES IDX 13 1 12 2 11 3 15 4 16 5 2 6 1 7 3 8 4 9 5 10 6 11 8 12 9 13
REMARK SMILES IDX 10 14 7 15 14 16
REMARK H PARENT
REMARK Flexibility Score: inf
ROOT
ATOM      1  C   UNL     1     -11.206  13.741 -34.164  1.00  0.00     0.039 C 
ATOM      2  C   UNL     1     -11.244  14.751 -33.040  1.00  0.00    -0.070 C 
ATOM      3  C   UNL     1     -11.640  14.394 -31.786  1.00  0.00    -0.006 C 
ATOM      4  C   UNL     1     -11.750  15.375 -30.642  1.00  0.00     0.047 C 
ATOM      5  C   UNL     1     -13.102  15.245 -29.901  1.00  0.00     0.025 C 
ATOM      6  C   UNL     1     -14.240  15.891 -30.684  1.00  0.00    -0.073 C 
ATOM      7  C   UNL     1     -14.233  17.214 -30.922  1.00  0.00     0.008 C 
ATOM      8  C   UNL     1     -15.406  15.057 -31.151  1.00  0.00     0.031 C 
ATOM      9  C   UNL     1     -15.930  14.110 -30.053  1.00  0.00     0.005 C 
ATOM     10  C   UNL     1     -14.890  13.698 -28.985  1.00  0.00     0.008 C 
ATOM     11  C   UNL     1     -13.416  13.766 -29.465  1.00  0.00    -0.018 C 
ATOM     12  C   UNL     1     -13.184  12.717 -30.601  1.00  0.00     0.088 C 
ATOM     13  C   UNL     1     -11.967  12.998 -31.427  1.00  0.00     0.159 C 
ATOM     14  O   UNL     1     -11.253  12.041 -31.828  1.00  0.00    -0.295 OA
ATOM     15  C   UNL     1     -12.510  13.385 -28.265  1.00  0.00     0.012 C 
ATOM     16  C   UNL     1     -10.875  16.178 -33.372  1.00  0.00     0.039 C 
ENDROOT
TORSDOF 0
ENDMDL
MODEL 6
REMARK VINA RESULT:    -5.349      1.787      4.876
REMARK INTER + INTRA:          -5.349
REMARK INTER:                  -5.349
REMARK INTRA:                   0.000
REMARK UNBOUND:                 0.000
REMARK SMILES C=C1CCC[C@@]2(C)CC(=O)C(=C(C)C)C[C@@H]12
REMARK SMILES IDX 13 1 12 2 11 3 15 4 16 5 2 6 1 7 3 8 4 9 5 10 6 11 8 12 9 13
REMARK SMILES IDX 10 14 7 15 14 16
REMARK H PARENT
REMARK Flexibility Score: inf
ROOT
ATOM      1  C   UNL     1     -13.265  16.121 -30.792  1.00  0.00     0.039 C 
ATOM      2  C   UNL     1     -13.408  14.635 -31.034  1.00  0.00    -0.070 C 
ATOM      3  C   UNL     1     -14.556  13.977 -30.711  1.00  0.00    -0.006 C 
ATOM      4  C   UNL     1     -14.731  12.486 -30.880  1.00  0.00     0.047 C 
ATOM      5  C   UNL     1     -15.310  11.826 -29.606  1.00  0.00     0.025 C 
ATOM      6  C   UNL     1     -14.251  11.671 -28.518  1.00  0.00    -0.073 C 
ATOM      7  C   UNL     1     -13.182  10.882 -28.722  1.00  0.00     0.008 C 
ATOM      8  C   UNL     1     -14.424  12.362 -27.190  1.00  0.00     0.031 C 
ATOM      9  C   UNL     1     -15.851  12.208 -26.626  1.00  0.00     0.005 C 
ATOM     10  C   UNL     1     -16.958  11.985 -27.684  1.00  0.00     0.008 C 
ATOM     11  C   UNL     1     -16.618  12.537 -29.094  1.00  0.00    -0.018 C 
ATOM     12  C   UNL     1     -16.500  14.095 -29.034  1.00  0.00     0.088 C 
ATOM     13  C   UNL     1     -15.751  14.677 -30.194  1.00  0.00     0.159 C 
ATOM     14  O   UNL     1     -16.132  15.769 -30.695  1.00  0.00    -0.295 OA
ATOM     15  C   UNL     1     -17.795  12.180 -30.038  1.00  0.00     0.012 C 
ATOM     16  C   UNL     1     -12.215  13.903 -31.601  1.00  0.00     0.039 C 
ENDROOT
TORSDOF 0
ENDMDL
MODEL 7
REMARK VINA RESULT:    -5.227      1.895      4.736
REMARK INTER + INTRA:          -5.227
REMARK INTER:                  -5.227
REMARK INTRA:                   0.000
REMARK UNBOUND:                 0.000
REMARK SMILES C=C1CCC[C@@]2(C)CC(=O)C(=C(C)C)C[C@@H]12
REMARK SMILES IDX 13 1 12 2 11 3 15 4 16 5 2 6 1 7 3 8 4 9 5 10 6 11 8 12 9 13
REMARK SMILES IDX 10 14 7 15 14 16
REMARK H PARENT
REMARK Flexibility Score: inf
ROOT
ATOM      1  C   UNL     1     -14.257  16.973 -30.873  1.00  0.00     0.039 C 
ATOM      2  C   UNL     1     -13.600  15.662 -31.237  1.00  0.00    -0.070 C 
ATOM      3  C   UNL     1     -14.099  14.476 -30.788  1.00  0.00    -0.006 C 
ATOM      4  C   UNL     1     -13.448  13.142 -31.076  1.00  0.00     0.047 C 
ATOM      5  C   UNL     1     -13.296  12.289 -29.795  1.00  0.00     0.025 C 
ATOM      6  C   UNL     1     -12.135  12.771 -28.929  1.00  0.00    -0.073 C 
ATOM      7  C   UNL     1     -10.876  12.717 -29.394  1.00  0.00     0.008 C 
ATOM      8  C   UNL     1     -12.391  13.262 -27.527  1.00  0.00     0.031 C 
ATOM      9  C   UNL     1     -13.346  12.339 -26.744  1.00  0.00     0.005 C 
ATOM     10  C   UNL     1     -14.330  11.519 -27.611  1.00  0.00     0.008 C 
ATOM     11  C   UNL     1     -14.643  12.147 -28.994  1.00  0.00    -0.018 C 
ATOM     12  C   UNL     1     -15.398  13.502 -28.797  1.00  0.00     0.088 C 
ATOM     13  C   UNL     1     -15.348  14.389 -30.003  1.00  0.00     0.159 C 
ATOM     14  O   UNL     1     -16.360  15.071 -30.317  1.00  0.00    -0.295 OA
ATOM     15  C   UNL     1     -15.586  11.177 -29.752  1.00  0.00     0.012 C 
ATOM     16  C   UNL     1     -12.343  15.721 -32.073  1.00  0.00     0.039 C 
ENDROOT
TORSDOF 0
ENDMDL
MODEL 8
REMARK VINA RESULT:    -5.069      1.761      3.447
REMARK INTER + INTRA:          -5.069
REMARK INTER:                  -5.069
REMARK INTRA:                   0.000
REMARK UNBOUND:                 0.000
REMARK SMILES C=C1CCC[C@@]2(C)CC(=O)C(=C(C)C)C[C@@H]12
REMARK SMILES IDX 13 1 12 2 11 3 15 4 16 5 2 6 1 7 3 8 4 9 5 10 6 11 8 12 9 13
REMARK SMILES IDX 10 14 7 15 14 16
REMARK H PARENT
REMARK Flexibility Score: inf
ROOT
ATOM      1  C   UNL     1     -16.126  11.411 -29.706  1.00  0.00     0.039 C 
ATOM      2  C   UNL     1     -15.010  12.243 -29.117  1.00  0.00    -0.070 C 
ATOM      3  C   UNL     1     -14.760  13.505 -29.566  1.00  0.00    -0.006 C 
ATOM      4  C   UNL     1     -13.623  14.357 -29.052  1.00  0.00     0.047 C 
ATOM      5  C   UNL     1     -12.804  14.981 -30.207  1.00  0.00     0.025 C 
ATOM      6  C   UNL     1     -11.869  13.963 -30.852  1.00  0.00    -0.073 C 
ATOM      7  C   UNL     1     -10.875  13.407 -30.138  1.00  0.00     0.008 C 
ATOM      8  C   UNL     1     -12.024  13.611 -32.310  1.00  0.00     0.031 C 
ATOM      9  C   UNL     1     -12.217  14.856 -33.199  1.00  0.00     0.005 C 
ATOM     10  C   UNL     1     -12.837  16.083 -32.490  1.00  0.00     0.008 C 
ATOM     11  C   UNL     1     -13.705  15.738 -31.252  1.00  0.00    -0.018 C 
ATOM     12  C   UNL     1     -14.961  14.922 -31.700  1.00  0.00     0.088 C 
ATOM     13  C   UNL     1     -15.608  14.166 -30.580  1.00  0.00     0.159 C 
ATOM     14  O   UNL     1     -16.864  14.081 -30.532  1.00  0.00    -0.295 OA
ATOM     15  C   UNL     1     -14.195  17.072 -30.631  1.00  0.00     0.012 C 
ATOM     16  C   UNL     1     -14.153  11.605 -28.049  1.00  0.00     0.039 C 
ENDROOT
TORSDOF 0
ENDMDL
MODEL 9
REMARK VINA RESULT:    -4.945      9.908     12.741
REMARK INTER + INTRA:          -4.945
REMARK INTER:                  -4.945
REMARK INTRA:                   0.000
REMARK UNBOUND:                 0.000
REMARK SMILES C=C1CCC[C@@]2(C)CC(=O)C(=C(C)C)C[C@@H]12
REMARK SMILES IDX 13 1 12 2 11 3 15 4 16 5 2 6 1 7 3 8 4 9 5 10 6 11 8 12 9 13
REMARK SMILES IDX 10 14 7 15 14 16
REMARK H PARENT
REMARK Flexibility Score: inf
ROOT
ATOM      1  C   UNL     1     -23.466  10.875 -28.445  1.00  0.00     0.039 C 
ATOM      2  C   UNL     1     -24.074  12.130 -29.029  1.00  0.00    -0.070 C 
ATOM      3  C   UNL     1     -25.414  12.364 -28.952  1.00  0.00    -0.006 C 
ATOM      4  C   UNL     1     -26.080  13.573 -29.568  1.00  0.00     0.047 C 
ATOM      5  C   UNL     1     -27.323  13.182 -30.403  1.00  0.00     0.025 C 
ATOM      6  C   UNL     1     -26.934  12.594 -31.756  1.00  0.00    -0.073 C 
ATOM      7  C   UNL     1     -26.277  13.345 -32.657  1.00  0.00     0.008 C 
ATOM      8  C   UNL     1     -27.330  11.183 -32.109  1.00  0.00     0.031 C 
ATOM      9  C   UNL     1     -28.797  10.875 -31.751  1.00  0.00     0.005 C 
ATOM     10  C   UNL     1     -29.386  11.721 -30.597  1.00  0.00     0.008 C 
ATOM     11  C   UNL     1     -28.330  12.275 -29.604  1.00  0.00    -0.018 C 
ATOM     12  C   UNL     1     -27.643  11.089 -28.852  1.00  0.00     0.088 C 
ATOM     13  C   UNL     1     -26.334  11.464 -28.226  1.00  0.00     0.159 C 
ATOM     14  O   UNL     1     -26.023  10.986 -27.103  1.00  0.00    -0.295 OA
ATOM     15  C   UNL     1     -29.076  13.141 -28.556  1.00  0.00     0.012 C 
ATOM     16  C   UNL     1     -23.148  13.087 -29.742  1.00  0.00     0.039 C 
ENDROOT
TORSDOF 0
ENDMDL
