MODEL 1
REMARK VINA RESULT:    -2.792      0.000      0.000
REMARK INTER + INTRA:          -2.690
REMARK INTER:                  -3.445
REMARK INTRA:                   0.754
REMARK UNBOUND:                 0.754
REMARK SMILES CC1=CC=CC(C)(C)CC1=O
REMARK SMILES IDX 1 1 2 2 3 3 10 4 11 5 9 6 4 8 5 9 6 10 7 11 8 12
REMARK H PARENT
REMARK Flexibility Score: 80.00
ROOT
ATOM      1  C   UNL     1    -116.587-100.394   0.807  1.00  0.00     0.048 C 
ATOM      2  C   UNL     1    -118.064-100.337   1.119  1.00  0.00    -0.008 C 
ATOM      3  C   UNL     1    -118.637 -99.118   1.218  1.00  0.00     0.007 C 
ENDROOT
BRANCH   2   4
ATOM      4  C   UNL     1    -118.784-101.631   1.217  1.00  0.00     0.159 C 
ATOM      5  O   UNL     1    -118.200-102.683   0.839  1.00  0.00    -0.295 OA
BRANCH   4   6
ATOM      6  C   UNL     1    -120.175-101.765   1.758  1.00  0.00     0.091 CG0
ATOM      7  G   UNL     1    -121.220-100.956   0.956  1.00  0.00     0.000 G0
ENDBRANCH   4   6
ENDBRANCH   2   4
BRANCH   3   8
ATOM      8  C   UNL     1    -120.047 -98.747   1.484  1.00  0.00    -0.003 C 
ATOM      9  C   UNL     1    -121.152 -99.497   1.375  1.00  0.00    -0.020 C 
BRANCH   9  10
ATOM     10  C   UNL     1    -121.214-100.950   0.967  1.00  0.00    -0.010 CG0
ATOM     11  C   UNL     1    -121.028-101.079  -0.562  1.00  0.00     0.016 C 
ATOM     12  C   UNL     1    -122.615-101.495   1.325  1.00  0.00     0.016 C 
ATOM     13  G   UNL     1    -120.166-101.760   1.765  1.00  0.00     0.000 G0
ENDBRANCH   9  10
ENDBRANCH   3   8
TORSDOF 0
ENDMDL
MODEL 2
REMARK VINA RESULT:    -2.760      1.771      3.289
REMARK INTER + INTRA:          -2.651
REMARK INTER:                  -3.395
REMARK INTRA:                   0.744
REMARK UNBOUND:                 0.754
REMARK SMILES CC1=CC=CC(C)(C)CC1=O
REMARK SMILES IDX 1 1 2 2 3 3 10 4 11 5 9 6 4 8 5 9 6 10 7 11 8 12
REMARK H PARENT
REMARK Flexibility Score: 80.00
ROOT
ATOM      1  C   UNL     1    -121.393-100.656   3.059  1.00  0.00     0.048 C 
ATOM      2  C   UNL     1    -120.514-100.385   1.861  1.00  0.00    -0.008 C 
ATOM      3  C   UNL     1    -120.125 -99.111   1.644  1.00  0.00     0.007 C 
ENDROOT
BRANCH   2   4
ATOM      4  C   UNL     1    -120.084-101.559   1.060  1.00  0.00     0.159 C 
ATOM      5  O   UNL     1    -120.279-102.717   1.523  1.00  0.00    -0.295 OA
BRANCH   4   6
ATOM      6  C   UNL     1    -119.438-101.450  -0.287  1.00  0.00     0.091 CG0
ATOM      7  G   UNL     1    -118.104-100.669  -0.260  1.00  0.00     0.000 G0
ENDBRANCH   4   6
ENDBRANCH   2   4
BRANCH   3   8
ATOM      8  C   UNL     1    -119.256 -98.548   0.584  1.00  0.00    -0.003 C 
ATOM      9  C   UNL     1    -118.390 -99.178  -0.221  1.00  0.00    -0.020 C 
BRANCH   9  10
ATOM     10  C   UNL     1    -118.111-100.663  -0.252  1.00  0.00    -0.010 CG0
ATOM     11  C   UNL     1    -117.205-101.055   0.937  1.00  0.00     0.016 C 
ATOM     12  C   UNL     1    -117.351-100.986  -1.558  1.00  0.00     0.016 C 
ATOM     13  G   UNL     1    -119.445-101.443  -0.267  1.00  0.00     0.000 G0
ENDBRANCH   9  10
ENDBRANCH   3   8
TORSDOF 0
ENDMDL
MODEL 3
REMARK VINA RESULT:    -2.639      1.983      2.843
REMARK INTER + INTRA:          -2.502
REMARK INTER:                  -3.253
REMARK INTRA:                   0.751
REMARK UNBOUND:                 0.754
REMARK SMILES CC1=CC=CC(C)(C)CC1=O
REMARK SMILES IDX 1 1 2 2 3 3 10 4 11 5 9 6 4 8 5 9 6 10 7 11 8 12
REMARK H PARENT
REMARK Flexibility Score: 80.00
ROOT
ATOM      1  C   UNL     1    -117.990 -99.023   1.259  1.00  0.00     0.048 C 
ATOM      2  C   UNL     1    -119.259 -99.838   1.178  1.00  0.00    -0.008 C 
ATOM      3  C   UNL     1    -119.142-101.183   1.186  1.00  0.00     0.007 C 
ENDROOT
BRANCH   2   4
ATOM      4  C   UNL     1    -120.542 -99.091   1.173  1.00  0.00     0.159 C 
ATOM      5  O   UNL     1    -120.528 -97.855   1.428  1.00  0.00    -0.295 OA
BRANCH   4   6
ATOM      6  C   UNL     1    -121.865 -99.722   0.867  1.00  0.00     0.091 CG0
ATOM      7  G   UNL     1    -122.229-100.871   1.834  1.00  0.00     0.000 G0
ENDBRANCH   4   6
ENDBRANCH   2   4
BRANCH   3   8
ATOM      8  C   UNL     1    -120.189-102.230   1.145  1.00  0.00    -0.003 C 
ATOM      9  C   UNL     1    -121.495-102.129   1.424  1.00  0.00    -0.020 C 
BRANCH   9  10
ATOM     10  C   UNL     1    -122.231-100.875   1.834  1.00  0.00    -0.010 CG0
ATOM     11  C   UNL     1    -121.935-100.550   3.315  1.00  0.00     0.016 C 
ATOM     12  C   UNL     1    -123.748-101.136   1.696  1.00  0.00     0.016 C 
ATOM     13  G   UNL     1    -121.855 -99.716   0.882  1.00  0.00     0.000 G0
ENDBRANCH   9  10
ENDBRANCH   3   8
TORSDOF 0
ENDMDL
MODEL 4
REMARK VINA RESULT:    -2.638      2.166      3.714
REMARK INTER + INTRA:          -2.501
REMARK INTER:                  -3.250
REMARK INTRA:                   0.749
REMARK UNBOUND:                 0.754
REMARK SMILES CC1=CC=CC(C)(C)CC1=O
REMARK SMILES IDX 1 1 2 2 3 3 10 4 11 5 9 6 4 8 5 9 6 10 7 11 8 12
REMARK H PARENT
REMARK Flexibility Score: 80.00
ROOT
ATOM      1  C   UNL     1    -121.978 -99.910   3.115  1.00  0.00     0.048 C 
ATOM      2  C   UNL     1    -120.877-100.357   2.183  1.00  0.00    -0.008 C 
ATOM      3  C   UNL     1    -120.851-101.657   1.820  1.00  0.00     0.007 C 
ENDROOT
BRANCH   2   4
ATOM      4  C   UNL     1    -119.954 -99.309   1.677  1.00  0.00     0.159 C 
ATOM      5  O   UNL     1    -120.245 -98.097   1.870  1.00  0.00    -0.295 OA
BRANCH   4   6
ATOM      6  C   UNL     1    -118.676 -99.611   0.956  1.00  0.00     0.091 CG0
ATOM      7  G   UNL     1    -118.887-100.422  -0.343  1.00  0.00     0.000 G0
ENDBRANCH   4   6
ENDBRANCH   2   4
BRANCH   3   8
ATOM      8  C   UNL     1    -119.924-102.375   0.914  1.00  0.00    -0.003 C 
ATOM      9  C   UNL     1    -119.095-101.876  -0.013  1.00  0.00    -0.020 C 
BRANCH   9  10
ATOM     10  C   UNL     1    -118.889-100.416  -0.341  1.00  0.00    -0.010 CG0
ATOM     11  C   UNL     1    -120.072 -99.892  -1.186  1.00  0.00     0.016 C 
ATOM     12  C   UNL     1    -117.604-100.287  -1.188  1.00  0.00     0.016 C 
ATOM     13  G   UNL     1    -118.687 -99.614   0.964  1.00  0.00     0.000 G0
ENDBRANCH   9  10
ENDBRANCH   3   8
TORSDOF 0
ENDMDL
MODEL 5
REMARK VINA RESULT:    -2.620     15.662     16.417
REMARK INTER + INTRA:          -2.478
REMARK INTER:                  -3.219
REMARK INTRA:                   0.741
REMARK UNBOUND:                 0.754
REMARK SMILES CC1=CC=CC(C)(C)CC1=O
REMARK SMILES IDX 1 1 2 2 3 3 10 4 11 5 9 6 4 8 5 9 6 10 7 11 8 12
REMARK H PARENT
REMARK Flexibility Score: 80.00
ROOT
ATOM      1  C   UNL     1    -115.417 -98.747  14.354  1.00  0.00     0.048 C 
ATOM      2  C   UNL     1    -115.557 -97.311  14.802  1.00  0.00    -0.008 C 
ATOM      3  C   UNL     1    -116.447 -96.534  14.149  1.00  0.00     0.007 C 
ENDROOT
BRANCH   2   4
ATOM      4  C   UNL     1    -114.756 -96.891  15.980  1.00  0.00     0.159 C 
ATOM      5  O   UNL     1    -114.173 -97.775  16.666  1.00  0.00    -0.295 OA
BRANCH   4   6
ATOM      6  C   UNL     1    -114.587 -95.463  16.398  1.00  0.00     0.091 CG0
ATOM      7  G   UNL     1    -115.924 -94.765  16.736  1.00  0.00     0.000 G0
ENDBRANCH   4   6
ENDBRANCH   2   4
BRANCH   3   8
ATOM      8  C   UNL     1    -116.819 -95.117  14.374  1.00  0.00    -0.003 C 
ATOM      9  C   UNL     1    -116.620 -94.354  15.457  1.00  0.00    -0.020 C 
BRANCH   9  10
ATOM     10  C   UNL     1    -115.924 -94.768  16.732  1.00  0.00    -0.010 CG0
ATOM     11  C   UNL     1    -116.869 -95.641  17.589  1.00  0.00     0.016 C 
ATOM     12  C   UNL     1    -115.591 -93.493  17.538  1.00  0.00     0.016 C 
ATOM     13  G   UNL     1    -114.597 -95.483  16.392  1.00  0.00     0.000 G0
ENDBRANCH   9  10
ENDBRANCH   3   8
TORSDOF 0
ENDMDL
MODEL 6
REMARK VINA RESULT:    -2.565      2.233      3.729
REMARK INTER + INTRA:          -2.411
REMARK INTER:                  -3.162
REMARK INTRA:                   0.751
REMARK UNBOUND:                 0.754
REMARK SMILES CC1=CC=CC(C)(C)CC1=O
REMARK SMILES IDX 1 1 2 2 3 3 10 4 11 5 9 6 4 8 5 9 6 10 7 11 8 12
REMARK H PARENT
REMARK Flexibility Score: 80.00
ROOT
ATOM      1  C   UNL     1    -123.488-100.121   4.081  1.00  0.00     0.048 C 
ATOM      2  C   UNL     1    -122.556-100.089   2.893  1.00  0.00    -0.008 C 
ATOM      3  C   UNL     1    -121.385 -99.431   3.033  1.00  0.00     0.007 C 
ENDROOT
BRANCH   2   4
ATOM      4  C   UNL     1    -122.971-100.850   1.688  1.00  0.00     0.159 C 
ATOM      5  O   UNL     1    -123.967-101.621   1.768  1.00  0.00    -0.295 OA
BRANCH   4   6
ATOM      6  C   UNL     1    -122.277-100.746   0.365  1.00  0.00     0.091 CG0
ATOM      7  G   UNL     1    -120.781-101.129   0.430  1.00  0.00     0.000 G0
ENDBRANCH   4   6
ENDBRANCH   2   4
BRANCH   3   8
ATOM      8  C   UNL     1    -120.273 -99.251   2.070  1.00  0.00    -0.003 C 
ATOM      9  C   UNL     1    -119.990 -99.956   0.967  1.00  0.00    -0.020 C 
BRANCH   9  10
ATOM     10  C   UNL     1    -120.780-101.119   0.417  1.00  0.00    -0.010 CG0
ATOM     11  C   UNL     1    -120.500-102.390   1.251  1.00  0.00     0.016 C 
ATOM     12  C   UNL     1    -120.309-101.385  -1.030  1.00  0.00     0.016 C 
ATOM     13  G   UNL     1    -122.282-100.755   0.374  1.00  0.00     0.000 G0
ENDBRANCH   9  10
ENDBRANCH   3   8
TORSDOF 0
ENDMDL
MODEL 7
REMARK VINA RESULT:    -2.552      2.654      4.550
REMARK INTER + INTRA:          -2.394
REMARK INTER:                  -3.159
REMARK INTRA:                   0.765
REMARK UNBOUND:                 0.754
REMARK SMILES CC1=CC=CC(C)(C)CC1=O
REMARK SMILES IDX 1 1 2 2 3 3 10 4 11 5 9 6 4 8 5 9 6 10 7 11 8 12
REMARK H PARENT
REMARK Flexibility Score: 80.00
ROOT
ATOM      1  C   UNL     1    -124.626 -99.302   4.593  1.00  0.00     0.048 C 
ATOM      2  C   UNL     1    -123.815-100.076   3.580  1.00  0.00    -0.008 C 
ATOM      3  C   UNL     1    -124.488-100.774   2.640  1.00  0.00     0.007 C 
ENDROOT
BRANCH   2   4
ATOM      4  C   UNL     1    -122.338 -99.943   3.653  1.00  0.00     0.159 C 
ATOM      5  O   UNL     1    -121.844 -99.048   4.393  1.00  0.00    -0.295 OA
BRANCH   4   6
ATOM      6  C   UNL     1    -121.390-100.827   2.902  1.00  0.00     0.091 CG0
ATOM      7  G   UNL     1    -121.580-100.760   1.370  1.00  0.00     0.000 G0
ENDBRANCH   4   6
ENDBRANCH   2   4
BRANCH   3   8
ATOM      8  C   UNL     1    -123.978-101.595   1.517  1.00  0.00    -0.003 C 
ATOM      9  C   UNL     1    -122.760-101.598   0.959  1.00  0.00    -0.020 C 
BRANCH   9  10
ATOM     10  C   UNL     1    -121.579-100.756   1.378  1.00  0.00    -0.010 CG0
ATOM     11  C   UNL     1    -121.758 -99.306   0.873  1.00  0.00     0.016 C 
ATOM     12  C   UNL     1    -120.310-101.338   0.716  1.00  0.00     0.016 C 
ATOM     13  G   UNL     1    -121.400-100.835   2.911  1.00  0.00     0.000 G0
ENDBRANCH   9  10
ENDBRANCH   3   8
TORSDOF 0
ENDMDL
MODEL 8
REMARK VINA RESULT:    -2.508      3.187      4.480
REMARK INTER + INTRA:          -2.341
REMARK INTER:                  -3.100
REMARK INTRA:                   0.760
REMARK UNBOUND:                 0.754
REMARK SMILES CC1=CC=CC(C)(C)CC1=O
REMARK SMILES IDX 1 1 2 2 3 3 10 4 11 5 9 6 4 8 5 9 6 10 7 11 8 12
REMARK H PARENT
REMARK Flexibility Score: 80.00
ROOT
ATOM      1  C   UNL     1    -122.764-100.515   5.313  1.00  0.00     0.048 C 
ATOM      2  C   UNL     1    -122.624-100.327   3.821  1.00  0.00    -0.008 C 
ATOM      3  C   UNL     1    -121.407-100.537   3.274  1.00  0.00     0.007 C 
ENDROOT
BRANCH   2   4
ATOM      4  C   UNL     1    -123.857 -99.999   3.062  1.00  0.00     0.159 C 
ATOM      5  O   UNL     1    -124.971-100.075   3.650  1.00  0.00    -0.295 OA
BRANCH   4   6
ATOM      6  C   UNL     1    -123.856 -99.567   1.628  1.00  0.00     0.091 CG0
ATOM      7  G   UNL     1    -123.205-100.601   0.682  1.00  0.00     0.000 G0
ENDBRANCH   4   6
ENDBRANCH   2   4
BRANCH   3   8
ATOM      8  C   UNL     1    -120.972-100.457   1.860  1.00  0.00    -0.003 C 
ATOM      9  C   UNL     1    -121.714-100.490   0.745  1.00  0.00    -0.020 C 
BRANCH   9  10
ATOM     10  C   UNL     1    -123.219-100.594   0.672  1.00  0.00    -0.010 CG0
ATOM     11  C   UNL     1    -123.664-102.044   0.970  1.00  0.00     0.016 C 
ATOM     12  C   UNL     1    -123.659-100.247  -0.768  1.00  0.00     0.016 C 
ATOM     13  G   UNL     1    -123.859 -99.565   1.631  1.00  0.00     0.000 G0
ENDBRANCH   9  10
ENDBRANCH   3   8
TORSDOF 0
ENDMDL
MODEL 9
REMARK VINA RESULT:    -2.452      2.809      3.820
REMARK INTER + INTRA:          -2.271
REMARK INTER:                  -3.030
REMARK INTRA:                   0.759
REMARK UNBOUND:                 0.754
REMARK SMILES CC1=CC=CC(C)(C)CC1=O
REMARK SMILES IDX 1 1 2 2 3 3 10 4 11 5 9 6 4 8 5 9 6 10 7 11 8 12
REMARK H PARENT
REMARK Flexibility Score: 80.00
ROOT
ATOM      1  C   UNL     1    -121.842 -99.664   3.518  1.00  0.00     0.048 C 
ATOM      2  C   UNL     1    -121.624-100.367   2.199  1.00  0.00    -0.008 C 
ATOM      3  C   UNL     1    -120.625-101.273   2.129  1.00  0.00     0.007 C 
ENDROOT
BRANCH   2   4
ATOM      4  C   UNL     1    -122.579-100.061   1.105  1.00  0.00     0.159 C 
ATOM      5  O   UNL     1    -123.622 -99.404   1.373  1.00  0.00    -0.295 OA
BRANCH   4   6
ATOM      6  C   UNL     1    -122.367-100.478  -0.318  1.00  0.00     0.091 CG0
ATOM      7  G   UNL     1    -122.265-102.010  -0.494  1.00  0.00     0.000 G0
ENDBRANCH   4   6
ENDBRANCH   2   4
BRANCH   3   8
ATOM      8  C   UNL     1    -120.191-102.127   0.999  1.00  0.00    -0.003 C 
ATOM      9  C   UNL     1    -120.863-102.464  -0.110  1.00  0.00    -0.020 C 
BRANCH   9  10
ATOM     10  C   UNL     1    -122.254-102.014  -0.488  1.00  0.00    -0.010 CG0
ATOM     11  C   UNL     1    -123.304-102.789   0.340  1.00  0.00     0.016 C 
ATOM     12  C   UNL     1    -122.483-102.348  -1.980  1.00  0.00     0.016 C 
ATOM     13  G   UNL     1    -122.371-100.483  -0.316  1.00  0.00     0.000 G0
ENDBRANCH   9  10
ENDBRANCH   3   8
TORSDOF 0
ENDMDL
