MODEL 1
REMARK VINA RESULT:    -4.242      0.000      0.000
REMARK INTER + INTRA:          -5.976
REMARK INTER:                  -5.606
REMARK INTRA:                  -0.370
REMARK UNBOUND:                -0.370
REMARK SMILES CCCCCCCO
REMARK SMILES IDX 5 1 4 2 3 3 2 4 1 5 6 6 7 7 8 8
REMARK H PARENT 8 9
REMARK Flexibility Score: inf
ROOT
ATOM      1  C   UNL     1      10.476   3.324  -1.134  1.00  0.00     0.002 C 
ENDROOT
BRANCH   1   2
ATOM      2  C   UNL     1      10.277   2.841  -2.579  1.00  0.00     0.000 C 
BRANCH   2   3
ATOM      3  C   UNL     1      11.016   3.716  -3.604  1.00  0.00    -0.000 C 
BRANCH   3   4
ATOM      4  C   UNL     1      10.032   4.597  -4.381  1.00  0.00    -0.003 C 
ATOM      5  C   UNL     1       8.620   4.019  -4.336  1.00  0.00     0.004 C 
ENDBRANCH   3   4
ENDBRANCH   2   3
ENDBRANCH   1   2
BRANCH   1   6
ATOM      6  C   UNL     1       9.389   4.316  -0.688  1.00  0.00     0.028 C 
BRANCH   6   7
ATOM      7  C   UNL     1       9.886   5.764  -0.727  1.00  0.00     0.156 C 
BRANCH   7   8
ATOM      8  O   UNL     1      11.283   5.805  -0.852  1.00  0.00    -0.396 OA
ATOM      9  H   UNL     1      11.656   5.302  -0.082  1.00  0.00     0.210 HD
ENDBRANCH   7   8
ENDBRANCH   6   7
ENDBRANCH   1   6
TORSDOF 6
ENDMDL
MODEL 2
REMARK VINA RESULT:    -4.221      1.523      2.942
REMARK INTER + INTRA:          -5.948
REMARK INTER:                  -5.584
REMARK INTRA:                  -0.364
REMARK UNBOUND:                -0.370
REMARK SMILES CCCCCCCO
REMARK SMILES IDX 5 1 4 2 3 3 2 4 1 5 6 6 7 7 8 8
REMARK H PARENT 8 9
REMARK Flexibility Score: inf
ROOT
ATOM      1  C   UNL     1      10.188   3.301  -2.302  1.00  0.00     0.002 C 
ENDROOT
BRANCH   1   2
ATOM      2  C   UNL     1      10.105   3.428  -0.772  1.00  0.00     0.000 C 
BRANCH   2   3
ATOM      3  C   UNL     1       8.947   4.329  -0.315  1.00  0.00    -0.000 C 
BRANCH   3   4
ATOM      4  C   UNL     1       8.331   5.075  -1.504  1.00  0.00    -0.003 C 
ATOM      5  C   UNL     1       8.455   6.587  -1.330  1.00  0.00     0.004 C 
ENDBRANCH   3   4
ENDBRANCH   2   3
ENDBRANCH   1   2
BRANCH   1   6
ATOM      6  C   UNL     1      11.568   3.694  -2.853  1.00  0.00     0.028 C 
BRANCH   6   7
ATOM      7  C   UNL     1      11.640   5.184  -3.202  1.00  0.00     0.156 C 
BRANCH   7   8
ATOM      8  O   UNL     1      12.096   5.929  -2.104  1.00  0.00    -0.396 OA
ATOM      9  H   UNL     1      11.479   6.700  -2.004  1.00  0.00     0.210 HD
ENDBRANCH   7   8
ENDBRANCH   6   7
ENDBRANCH   1   6
TORSDOF 6
ENDMDL
MODEL 3
REMARK VINA RESULT:    -4.102      1.043      1.758
REMARK INTER + INTRA:          -5.791
REMARK INTER:                  -5.536
REMARK INTRA:                  -0.255
REMARK UNBOUND:                -0.370
REMARK SMILES CCCCCCCO
REMARK SMILES IDX 5 1 4 2 3 3 2 4 1 5 6 6 7 7 8 8
REMARK H PARENT 8 9
REMARK Flexibility Score: inf
ROOT
ATOM      1  C   UNL     1       9.950   3.333  -2.377  1.00  0.00     0.002 C 
ENDROOT
BRANCH   1   2
ATOM      2  C   UNL     1       8.945   4.358  -2.926  1.00  0.00     0.000 C 
BRANCH   2   3
ATOM      3  C   UNL     1       9.159   4.657  -4.418  1.00  0.00    -0.000 C 
BRANCH   3   4
ATOM      4  C   UNL     1      10.651   4.664  -4.766  1.00  0.00    -0.003 C 
ATOM      5  C   UNL     1      11.048   5.963  -5.465  1.00  0.00     0.004 C 
ENDBRANCH   3   4
ENDBRANCH   2   3
ENDBRANCH   1   2
BRANCH   1   6
ATOM      6  C   UNL     1      10.458   3.698  -0.973  1.00  0.00     0.028 C 
BRANCH   6   7
ATOM      7  C   UNL     1      10.337   5.199  -0.694  1.00  0.00     0.156 C 
BRANCH   7   8
ATOM      8  O   UNL     1      11.513   5.868  -1.065  1.00  0.00    -0.396 OA
ATOM      9  H   UNL     1      11.741   6.483  -0.321  1.00  0.00     0.210 HD
ENDBRANCH   7   8
ENDBRANCH   6   7
ENDBRANCH   1   6
TORSDOF 6
ENDMDL
MODEL 4
REMARK VINA RESULT:    -4.059      1.952      3.608
REMARK INTER + INTRA:          -5.734
REMARK INTER:                  -5.338
REMARK INTRA:                  -0.396
REMARK UNBOUND:                -0.370
REMARK SMILES CCCCCCCO
REMARK SMILES IDX 5 1 4 2 3 3 2 4 1 5 6 6 7 7 8 8
REMARK H PARENT 8 9
REMARK Flexibility Score: inf
ROOT
ATOM      1  C   UNL     1      11.147   3.728  -3.207  1.00  0.00     0.002 C 
ENDROOT
BRANCH   1   2
ATOM      2  C   UNL     1      11.102   4.261  -1.766  1.00  0.00     0.000 C 
BRANCH   2   3
ATOM      3  C   UNL     1      10.017   3.581  -0.918  1.00  0.00    -0.000 C 
BRANCH   3   4
ATOM      4  C   UNL     1       8.834   4.526  -0.681  1.00  0.00    -0.003 C 
ATOM      5  C   UNL     1       9.257   5.985  -0.824  1.00  0.00     0.004 C 
ENDBRANCH   3   4
ENDBRANCH   2   3
ENDBRANCH   1   2
BRANCH   1   6
ATOM      6  C   UNL     1      10.697   4.776  -4.239  1.00  0.00     0.028 C 
BRANCH   6   7
ATOM      7  C   UNL     1       9.182   4.745  -4.460  1.00  0.00     0.156 C 
BRANCH   7   8
ATOM      8  O   UNL     1       8.720   3.422  -4.546  1.00  0.00    -0.396 OA
ATOM      9  H   UNL     1       9.323   2.870  -3.983  1.00  0.00     0.210 HD
ENDBRANCH   7   8
ENDBRANCH   6   7
ENDBRANCH   1   6
TORSDOF 6
ENDMDL
MODEL 5
REMARK VINA RESULT:    -4.047      1.578      3.294
REMARK INTER + INTRA:          -5.718
REMARK INTER:                  -5.433
REMARK INTRA:                  -0.285
REMARK UNBOUND:                -0.370
REMARK SMILES CCCCCCCO
REMARK SMILES IDX 5 1 4 2 3 3 2 4 1 5 6 6 7 7 8 8
REMARK H PARENT 8 9
REMARK Flexibility Score: inf
ROOT
ATOM      1  C   UNL     1      10.497   4.764  -4.743  1.00  0.00     0.002 C 
ENDROOT
BRANCH   1   2
ATOM      2  C   UNL     1       9.061   5.060  -4.283  1.00  0.00     0.000 C 
BRANCH   2   3
ATOM      3  C   UNL     1       8.714   4.379  -2.950  1.00  0.00    -0.000 C 
BRANCH   3   4
ATOM      4  C   UNL     1       8.553   5.414  -1.831  1.00  0.00    -0.003 C 
ATOM      5  C   UNL     1       8.664   4.761  -0.456  1.00  0.00     0.004 C 
ENDBRANCH   3   4
ENDBRANCH   2   3
ENDBRANCH   1   2
BRANCH   1   6
ATOM      6  C   UNL     1      11.520   5.753  -4.161  1.00  0.00     0.028 C 
BRANCH   6   7
ATOM      7  C   UNL     1      12.273   5.159  -2.967  1.00  0.00     0.156 C 
BRANCH   7   8
ATOM      8  O   UNL     1      12.042   5.917  -1.808  1.00  0.00    -0.396 OA
ATOM      9  H   UNL     1      12.404   6.824  -1.981  1.00  0.00     0.210 HD
ENDBRANCH   7   8
ENDBRANCH   6   7
ENDBRANCH   1   6
TORSDOF 6
ENDMDL
MODEL 6
REMARK VINA RESULT:    -4.042      1.979      3.582
REMARK INTER + INTRA:          -5.712
REMARK INTER:                  -5.405
REMARK INTRA:                  -0.307
REMARK UNBOUND:                -0.370
REMARK SMILES CCCCCCCO
REMARK SMILES IDX 5 1 4 2 3 3 2 4 1 5 6 6 7 7 8 8
REMARK H PARENT 8 9
REMARK Flexibility Score: inf
ROOT
ATOM      1  C   UNL     1      11.964   5.050  -2.258  1.00  0.00     0.002 C 
ENDROOT
BRANCH   1   2
ATOM      2  C   UNL     1      10.940   5.461  -1.187  1.00  0.00     0.000 C 
BRANCH   2   3
ATOM      3  C   UNL     1      10.071   4.284  -0.717  1.00  0.00    -0.000 C 
BRANCH   3   4
ATOM      4  C   UNL     1       8.609   4.714  -0.553  1.00  0.00    -0.003 C 
ATOM      5  C   UNL     1       8.345   6.045  -1.251  1.00  0.00     0.004 C 
ENDBRANCH   3   4
ENDBRANCH   2   3
ENDBRANCH   1   2
BRANCH   1   6
ATOM      6  C   UNL     1      11.562   5.515  -3.668  1.00  0.00     0.028 C 
BRANCH   6   7
ATOM      7  C   UNL     1      10.668   4.491  -4.373  1.00  0.00     0.156 C 
BRANCH   7   8
ATOM      8  O   UNL     1      10.961   3.191  -3.935  1.00  0.00    -0.396 OA
ATOM      9  H   UNL     1      10.151   2.642  -4.100  1.00  0.00     0.210 HD
ENDBRANCH   7   8
ENDBRANCH   6   7
ENDBRANCH   1   6
TORSDOF 6
ENDMDL
MODEL 7
REMARK VINA RESULT:    -3.960      1.883      2.184
REMARK INTER + INTRA:          -5.603
REMARK INTER:                  -5.323
REMARK INTRA:                  -0.280
REMARK UNBOUND:                -0.370
REMARK SMILES CCCCCCCO
REMARK SMILES IDX 5 1 4 2 3 3 2 4 1 5 6 6 7 7 8 8
REMARK H PARENT 8 9
REMARK Flexibility Score: inf
ROOT
ATOM      1  C   UNL     1      10.066   4.531  -0.658  1.00  0.00     0.002 C 
ENDROOT
BRANCH   1   2
ATOM      2  C   UNL     1      10.401   3.199  -1.348  1.00  0.00     0.000 C 
BRANCH   2   3
ATOM      3  C   UNL     1      11.029   3.393  -2.737  1.00  0.00    -0.000 C 
BRANCH   3   4
ATOM      4  C   UNL     1      11.953   4.615  -2.754  1.00  0.00    -0.003 C 
ATOM      5  C   UNL     1      11.636   5.529  -3.935  1.00  0.00     0.004 C 
ENDBRANCH   3   4
ENDBRANCH   2   3
ENDBRANCH   1   2
BRANCH   1   6
ATOM      6  C   UNL     1       8.613   4.973  -0.900  1.00  0.00     0.028 C 
BRANCH   6   7
ATOM      7  C   UNL     1       8.534   6.404  -1.441  1.00  0.00     0.156 C 
BRANCH   7   8
ATOM      8  O   UNL     1       8.173   7.299  -0.423  1.00  0.00    -0.396 OA
ATOM      9  H   UNL     1       8.256   8.213  -0.801  1.00  0.00     0.210 HD
ENDBRANCH   7   8
ENDBRANCH   6   7
ENDBRANCH   1   6
TORSDOF 6
ENDMDL
MODEL 8
REMARK VINA RESULT:    -3.954      2.191      3.418
REMARK INTER + INTRA:          -5.596
REMARK INTER:                  -5.309
REMARK INTRA:                  -0.287
REMARK UNBOUND:                -0.370
REMARK SMILES CCCCCCCO
REMARK SMILES IDX 5 1 4 2 3 3 2 4 1 5 6 6 7 7 8 8
REMARK H PARENT 8 9
REMARK Flexibility Score: inf
ROOT
ATOM      1  C   UNL     1      10.149   3.469  -0.976  1.00  0.00     0.002 C 
ENDROOT
BRANCH   1   2
ATOM      2  C   UNL     1       9.003   4.275  -0.345  1.00  0.00     0.000 C 
BRANCH   2   3
ATOM      3  C   UNL     1       8.244   5.128  -1.373  1.00  0.00    -0.000 C 
BRANCH   3   4
ATOM      4  C   UNL     1       8.223   6.602  -0.954  1.00  0.00    -0.003 C 
ATOM      5  C   UNL     1       8.965   7.473  -1.964  1.00  0.00     0.004 C 
ENDBRANCH   3   4
ENDBRANCH   2   3
ENDBRANCH   1   2
BRANCH   1   6
ATOM      6  C   UNL     1      11.134   4.353  -1.757  1.00  0.00     0.028 C 
BRANCH   6   7
ATOM      7  C   UNL     1      11.588   3.689  -3.061  1.00  0.00     0.156 C 
BRANCH   7   8
ATOM      8  O   UNL     1      10.537   2.958  -3.636  1.00  0.00    -0.396 OA
ATOM      9  H   UNL     1      10.632   2.022  -3.319  1.00  0.00     0.210 HD
ENDBRANCH   7   8
ENDBRANCH   6   7
ENDBRANCH   1   6
TORSDOF 6
ENDMDL
MODEL 9
REMARK VINA RESULT:    -3.934      1.774      2.048
REMARK INTER + INTRA:          -5.569
REMARK INTER:                  -5.252
REMARK INTRA:                  -0.317
REMARK UNBOUND:                -0.370
REMARK SMILES CCCCCCCO
REMARK SMILES IDX 5 1 4 2 3 3 2 4 1 5 6 6 7 7 8 8
REMARK H PARENT 8 9
REMARK Flexibility Score: inf
ROOT
ATOM      1  C   UNL     1      10.257   3.032  -2.163  1.00  0.00     0.002 C 
ENDROOT
BRANCH   1   2
ATOM      2  C   UNL     1      11.393   3.493  -3.090  1.00  0.00     0.000 C 
BRANCH   2   3
ATOM      3  C   UNL     1      11.920   4.891  -2.730  1.00  0.00    -0.000 C 
BRANCH   3   4
ATOM      4  C   UNL     1      11.249   5.967  -3.590  1.00  0.00    -0.003 C 
ATOM      5  C   UNL     1      11.163   5.532  -5.050  1.00  0.00     0.004 C 
ENDBRANCH   3   4
ENDBRANCH   2   3
ENDBRANCH   1   2
BRANCH   1   6
ATOM      6  C   UNL     1      10.302   3.717  -0.787  1.00  0.00     0.028 C 
BRANCH   6   7
ATOM      7  C   UNL     1       9.013   4.490  -0.493  1.00  0.00     0.156 C 
BRANCH   7   8
ATOM      8  O   UNL     1       8.316   4.764  -1.679  1.00  0.00    -0.396 OA
ATOM      9  H   UNL     1       8.447   5.728  -1.874  1.00  0.00     0.210 HD
ENDBRANCH   7   8
ENDBRANCH   6   7
ENDBRANCH   1   6
TORSDOF 6
ENDMDL
