MODEL 1
REMARK VINA RESULT:    -5.614      0.000      0.000
REMARK INTER + INTRA:          -6.152
REMARK INTER:                  -6.106
REMARK INTRA:                  -0.046
REMARK UNBOUND:                -0.046
REMARK SMILES COc1cc2ccc(=O)oc2cc1O
REMARK SMILES IDX 3 1 13 2 12 3 11 4 5 5 4 6 6 7 7 8 8 9 9 10 10 11 2 12 1 13
REMARK SMILES IDX 14 14
REMARK H PARENT 14 15
REMARK Flexibility Score: inf
ROOT
ATOM      1  C   UNL     1       5.518   9.514   2.647  1.00  0.00     0.161 A 
ATOM      2  C   UNL     1       5.985  10.822   2.854  1.00  0.00     0.161 A 
ATOM      3  C   UNL     1       5.410  11.631   3.844  1.00  0.00     0.098 A 
ATOM      4  C   UNL     1       4.365  11.143   4.633  1.00  0.00     0.142 A 
ATOM      5  C   UNL     1       3.889   9.830   4.432  1.00  0.00     0.022 A 
ATOM      6  C   UNL     1       4.464   9.020   3.442  1.00  0.00     0.062 A 
ATOM      7  C   UNL     1       2.843   9.370   5.237  1.00  0.00     0.019 A 
ATOM      8  C   UNL     1       2.304  10.215   6.208  1.00  0.00     0.094 A 
ATOM      9  C   UNL     1       2.827  11.504   6.351  1.00  0.00     0.336 A 
ATOM     10  O   UNL     1       2.354  12.281   7.221  1.00  0.00    -0.246 OA
ATOM     11  O   UNL     1       3.823  11.917   5.571  1.00  0.00    -0.423 OA
ENDROOT
BRANCH   1  12
ATOM     12  O   UNL     1       6.124   8.740   1.645  1.00  0.00    -0.493 OA
ATOM     13  C   UNL     1       5.573   7.542   1.108  1.00  0.00     0.278 C 
ENDBRANCH   1  12
BRANCH   2  14
ATOM     14  O   UNL     1       7.027  11.311   2.068  1.00  0.00    -0.504 OA
ATOM     15  H   UNL     1       7.320  10.837   1.221  1.00  0.00     0.293 HD
ENDBRANCH   2  14
TORSDOF 2
ENDMDL
MODEL 2
REMARK VINA RESULT:    -5.165      1.323      4.697
REMARK INTER + INTRA:          -5.664
REMARK INTER:                  -5.616
REMARK INTRA:                  -0.048
REMARK UNBOUND:                -0.046
REMARK SMILES COc1cc2ccc(=O)oc2cc1O
REMARK SMILES IDX 3 1 13 2 12 3 11 4 5 5 4 6 6 7 7 8 8 9 9 10 10 11 2 12 1 13
REMARK SMILES IDX 14 14
REMARK H PARENT 14 15
REMARK Flexibility Score: inf
ROOT
ATOM      1  C   UNL     1       4.415  11.615   4.514  1.00  0.00     0.161 A 
ATOM      2  C   UNL     1       5.422  11.947   3.592  1.00  0.00     0.161 A 
ATOM      3  C   UNL     1       5.923  10.979   2.712  1.00  0.00     0.098 A 
ATOM      4  C   UNL     1       5.427   9.673   2.744  1.00  0.00     0.142 A 
ATOM      5  C   UNL     1       4.415   9.331   3.666  1.00  0.00     0.022 A 
ATOM      6  C   UNL     1       3.913  10.299   4.547  1.00  0.00     0.062 A 
ATOM      7  C   UNL     1       3.939   8.016   3.674  1.00  0.00     0.019 A 
ATOM      8  C   UNL     1       4.471   7.089   2.777  1.00  0.00     0.094 A 
ATOM      9  C   UNL     1       5.472   7.502   1.891  1.00  0.00     0.336 A 
ATOM     10  O   UNL     1       5.965   6.680   1.074  1.00  0.00    -0.246 OA
ATOM     11  O   UNL     1       5.908   8.758   1.905  1.00  0.00    -0.423 OA
ENDROOT
BRANCH   1  12
ATOM     12  O   UNL     1       3.943  12.617   5.376  1.00  0.00    -0.493 OA
ATOM     13  C   UNL     1       3.432  12.380   6.683  1.00  0.00     0.278 C 
ENDBRANCH   1  12
BRANCH   2  14
ATOM     14  O   UNL     1       5.918  13.249   3.559  1.00  0.00    -0.504 OA
ATOM     15  H   UNL     1       5.304  14.049   3.460  1.00  0.00     0.293 HD
ENDBRANCH   2  14
TORSDOF 2
ENDMDL
MODEL 3
REMARK VINA RESULT:    -5.063      1.700      5.502
REMARK INTER + INTRA:          -5.552
REMARK INTER:                  -5.507
REMARK INTRA:                  -0.045
REMARK UNBOUND:                -0.046
REMARK SMILES COc1cc2ccc(=O)oc2cc1O
REMARK SMILES IDX 3 1 13 2 12 3 11 4 5 5 4 6 6 7 7 8 8 9 9 10 10 11 2 12 1 13
REMARK SMILES IDX 14 14
REMARK H PARENT 14 15
REMARK Flexibility Score: inf
ROOT
ATOM      1  C   UNL     1       3.888  10.545   4.587  1.00  0.00     0.161 A 
ATOM      2  C   UNL     1       3.261   9.289   4.630  1.00  0.00     0.161 A 
ATOM      3  C   UNL     1       3.747   8.228   3.854  1.00  0.00     0.098 A 
ATOM      4  C   UNL     1       4.861   8.411   3.030  1.00  0.00     0.142 A 
ATOM      5  C   UNL     1       5.498   9.669   2.981  1.00  0.00     0.022 A 
ATOM      6  C   UNL     1       5.012  10.731   3.757  1.00  0.00     0.062 A 
ATOM      7  C   UNL     1       6.610   9.820   2.147  1.00  0.00     0.019 A 
ATOM      8  C   UNL     1       7.055   8.733   1.395  1.00  0.00     0.094 A 
ATOM      9  C   UNL     1       6.374   7.515   1.495  1.00  0.00     0.336 A 
ATOM     10  O   UNL     1       6.760   6.523   0.824  1.00  0.00    -0.246 OA
ATOM     11  O   UNL     1       5.318   7.398   2.296  1.00  0.00    -0.423 OA
ENDROOT
BRANCH   1  12
ATOM     12  O   UNL     1       3.367  11.579   5.381  1.00  0.00    -0.493 OA
ATOM     13  C   UNL     1       3.915  12.890   5.458  1.00  0.00     0.278 C 
ENDBRANCH   1  12
BRANCH   2  14
ATOM     14  O   UNL     1       2.149   9.105   5.451  1.00  0.00    -0.504 OA
ATOM     15  H   UNL     1       2.115   8.361   6.138  1.00  0.00     0.293 HD
ENDBRANCH   2  14
TORSDOF 2
ENDMDL
MODEL 4
REMARK VINA RESULT:    -4.912      4.877      7.012
REMARK INTER + INTRA:          -5.389
REMARK INTER:                  -5.324
REMARK INTRA:                  -0.065
REMARK UNBOUND:                -0.046
REMARK SMILES COc1cc2ccc(=O)oc2cc1O
REMARK SMILES IDX 3 1 13 2 12 3 11 4 5 5 4 6 6 7 7 8 8 9 9 10 10 11 2 12 1 13
REMARK SMILES IDX 14 14
REMARK H PARENT 14 15
REMARK Flexibility Score: inf
ROOT
ATOM      1  C   UNL     1       5.333   7.108   1.157  1.00  0.00     0.161 A 
ATOM      2  C   UNL     1       5.311   6.268   2.282  1.00  0.00     0.161 A 
ATOM      3  C   UNL     1       4.483   5.137   2.304  1.00  0.00     0.098 A 
ATOM      4  C   UNL     1       3.673   4.835   1.206  1.00  0.00     0.142 A 
ATOM      5  C   UNL     1       3.689   5.674   0.072  1.00  0.00     0.022 A 
ATOM      6  C   UNL     1       4.516   6.805   0.049  1.00  0.00     0.062 A 
ATOM      7  C   UNL     1       2.867   5.346  -1.011  1.00  0.00     0.019 A 
ATOM      8  C   UNL     1       2.062   4.209  -0.939  1.00  0.00     0.094 A 
ATOM      9  C   UNL     1       2.098   3.425   0.218  1.00  0.00     0.336 A 
ATOM     10  O   UNL     1       1.378   2.395   0.302  1.00  0.00    -0.246 OA
ATOM     11  O   UNL     1       2.889   3.759   1.234  1.00  0.00    -0.423 OA
ENDROOT
BRANCH   1  12
ATOM     12  O   UNL     1       6.177   8.230   1.178  1.00  0.00    -0.493 OA
ATOM     13  C   UNL     1       7.388   8.341   0.437  1.00  0.00     0.278 C 
ENDBRANCH   1  12
BRANCH   2  14
ATOM     14  O   UNL     1       6.118   6.567   3.378  1.00  0.00    -0.504 OA
ATOM     15  H   UNL     1       6.600   5.841   3.895  1.00  0.00     0.293 HD
ENDBRANCH   2  14
TORSDOF 2
ENDMDL
MODEL 5
REMARK VINA RESULT:    -4.868      6.977     10.022
REMARK INTER + INTRA:          -5.340
REMARK INTER:                  -5.275
REMARK INTRA:                  -0.065
REMARK UNBOUND:                -0.046
REMARK SMILES COc1cc2ccc(=O)oc2cc1O
REMARK SMILES IDX 3 1 13 2 12 3 11 4 5 5 4 6 6 7 7 8 8 9 9 10 10 11 2 12 1 13
REMARK SMILES IDX 14 14
REMARK H PARENT 14 15
REMARK Flexibility Score: inf
ROOT
ATOM      1  C   UNL     1       4.402   0.316  -1.490  1.00  0.00     0.161 A 
ATOM      2  C   UNL     1       3.667   0.909  -2.530  1.00  0.00     0.161 A 
ATOM      3  C   UNL     1       3.313   2.263  -2.464  1.00  0.00     0.098 A 
ATOM      4  C   UNL     1       3.687   3.036  -1.361  1.00  0.00     0.142 A 
ATOM      5  C   UNL     1       4.426   2.449  -0.312  1.00  0.00     0.022 A 
ATOM      6  C   UNL     1       4.781   1.094  -0.378  1.00  0.00     0.062 A 
ATOM      7  C   UNL     1       4.786   3.248   0.778  1.00  0.00     0.019 A 
ATOM      8  C   UNL     1       4.409   4.591   0.796  1.00  0.00     0.094 A 
ATOM      9  C   UNL     1       3.677   5.104  -0.280  1.00  0.00     0.336 A 
ATOM     10  O   UNL     1       3.327   6.314  -0.282  1.00  0.00    -0.246 OA
ATOM     11  O   UNL     1       3.348   4.322  -1.304  1.00  0.00    -0.423 OA
ENDROOT
BRANCH   1  12
ATOM     12  O   UNL     1       4.735  -1.043  -1.599  1.00  0.00    -0.493 OA
ATOM     13  C   UNL     1       6.018  -1.531  -1.980  1.00  0.00     0.278 C 
ENDBRANCH   1  12
BRANCH   2  14
ATOM     14  O   UNL     1       3.293   0.140  -3.631  1.00  0.00    -0.504 OA
ATOM     15  H   UNL     1       2.375  -0.286  -3.693  1.00  0.00     0.293 HD
ENDBRANCH   2  14
TORSDOF 2
ENDMDL
MODEL 6
REMARK VINA RESULT:    -4.847      1.269      1.664
REMARK INTER + INTRA:          -5.317
REMARK INTER:                  -5.252
REMARK INTRA:                  -0.065
REMARK UNBOUND:                -0.046
REMARK SMILES COc1cc2ccc(=O)oc2cc1O
REMARK SMILES IDX 3 1 13 2 12 3 11 4 5 5 4 6 6 7 7 8 8 9 9 10 10 11 2 12 1 13
REMARK SMILES IDX 14 14
REMARK H PARENT 14 15
REMARK Flexibility Score: inf
ROOT
ATOM      1  C   UNL     1       5.144   7.760   2.384  1.00  0.00     0.161 A 
ATOM      2  C   UNL     1       5.948   8.880   2.112  1.00  0.00     0.161 A 
ATOM      3  C   UNL     1       5.720  10.092   2.776  1.00  0.00     0.098 A 
ATOM      4  C   UNL     1       4.691  10.198   3.716  1.00  0.00     0.142 A 
ATOM      5  C   UNL     1       3.880   9.079   3.996  1.00  0.00     0.022 A 
ATOM      6  C   UNL     1       4.107   7.865   3.332  1.00  0.00     0.062 A 
ATOM      7  C   UNL     1       2.858   9.216   4.941  1.00  0.00     0.019 A 
ATOM      8  C   UNL     1       2.673  10.445   5.575  1.00  0.00     0.094 A 
ATOM      9  C   UNL     1       3.516  11.511   5.247  1.00  0.00     0.336 A 
ATOM     10  O   UNL     1       3.365  12.628   5.808  1.00  0.00    -0.246 OA
ATOM     11  O   UNL     1       4.480  11.353   4.344  1.00  0.00    -0.423 OA
ENDROOT
BRANCH   1  12
ATOM     12  O   UNL     1       5.409   6.566   1.695  1.00  0.00    -0.493 OA
ATOM     13  C   UNL     1       4.659   6.096   0.579  1.00  0.00     0.278 C 
ENDBRANCH   1  12
BRANCH   2  14
ATOM     14  O   UNL     1       6.974   8.776   1.175  1.00  0.00    -0.504 OA
ATOM     15  H   UNL     1       7.605   7.982   1.164  1.00  0.00     0.293 HD
ENDBRANCH   2  14
TORSDOF 2
ENDMDL
MODEL 7
REMARK VINA RESULT:    -4.833      4.285      7.055
REMARK INTER + INTRA:          -5.302
REMARK INTER:                  -5.238
REMARK INTRA:                  -0.065
REMARK UNBOUND:                -0.046
REMARK SMILES COc1cc2ccc(=O)oc2cc1O
REMARK SMILES IDX 3 1 13 2 12 3 11 4 5 5 4 6 6 7 7 8 8 9 9 10 10 11 2 12 1 13
REMARK SMILES IDX 14 14
REMARK H PARENT 14 15
REMARK Flexibility Score: inf
ROOT
ATOM      1  C   UNL     1       3.958   3.278  -0.278  1.00  0.00     0.161 A 
ATOM      2  C   UNL     1       3.276   4.289  -0.975  1.00  0.00     0.161 A 
ATOM      3  C   UNL     1       3.449   5.633  -0.621  1.00  0.00     0.098 A 
ATOM      4  C   UNL     1       4.303   5.981   0.430  1.00  0.00     0.142 A 
ATOM      5  C   UNL     1       4.992   4.972   1.135  1.00  0.00     0.022 A 
ATOM      6  C   UNL     1       4.819   3.626   0.782  1.00  0.00     0.062 A 
ATOM      7  C   UNL     1       5.839   5.350   2.182  1.00  0.00     0.019 A 
ATOM      8  C   UNL     1       5.977   6.703   2.496  1.00  0.00     0.094 A 
ATOM      9  C   UNL     1       5.261   7.647   1.752  1.00  0.00     0.336 A 
ATOM     10  O   UNL     1       5.372   8.872   2.020  1.00  0.00    -0.246 OA
ATOM     11  O   UNL     1       4.463   7.260   0.762  1.00  0.00    -0.423 OA
ENDROOT
BRANCH   1  12
ATOM     12  O   UNL     1       3.755   1.945  -0.668  1.00  0.00    -0.493 OA
ATOM     13  C   UNL     1       4.656   1.195  -1.476  1.00  0.00     0.278 C 
ENDBRANCH   1  12
BRANCH   2  14
ATOM     14  O   UNL     1       2.424   3.944  -2.024  1.00  0.00    -0.504 OA
ATOM     15  H   UNL     1       1.437   4.170  -2.001  1.00  0.00     0.293 HD
ENDBRANCH   2  14
TORSDOF 2
ENDMDL
MODEL 8
REMARK VINA RESULT:    -4.814      2.108      5.253
REMARK INTER + INTRA:          -5.281
REMARK INTER:                  -5.217
REMARK INTRA:                  -0.064
REMARK UNBOUND:                -0.046
REMARK SMILES COc1cc2ccc(=O)oc2cc1O
REMARK SMILES IDX 3 1 13 2 12 3 11 4 5 5 4 6 6 7 7 8 8 9 9 10 10 11 2 12 1 13
REMARK SMILES IDX 14 14
REMARK H PARENT 14 15
REMARK Flexibility Score: inf
ROOT
ATOM      1  C   UNL     1       5.390  10.041   3.660  1.00  0.00     0.161 A 
ATOM      2  C   UNL     1       4.396   9.489   4.484  1.00  0.00     0.161 A 
ATOM      3  C   UNL     1       3.778   8.280   4.136  1.00  0.00     0.098 A 
ATOM      4  C   UNL     1       4.145   7.613   2.964  1.00  0.00     0.142 A 
ATOM      5  C   UNL     1       5.143   8.160   2.130  1.00  0.00     0.022 A 
ATOM      6  C   UNL     1       5.762   9.369   2.478  1.00  0.00     0.062 A 
ATOM      7  C   UNL     1       5.489   7.470   0.964  1.00  0.00     0.019 A 
ATOM      8  C   UNL     1       4.844   6.270   0.662  1.00  0.00     0.094 A 
ATOM      9  C   UNL     1       3.864   5.789   1.536  1.00  0.00     0.336 A 
ATOM     10  O   UNL     1       3.270   4.709   1.281  1.00  0.00    -0.246 OA
ATOM     11  O   UNL     1       3.554   6.466   2.639  1.00  0.00    -0.423 OA
ENDROOT
BRANCH   1  12
ATOM     12  O   UNL     1       5.982  11.253   4.049  1.00  0.00    -0.493 OA
ATOM     13  C   UNL     1       5.627  12.528   3.525  1.00  0.00     0.278 C 
ENDBRANCH   1  12
BRANCH   2  14
ATOM     14  O   UNL     1       4.028  10.152   5.654  1.00  0.00    -0.504 OA
ATOM     15  H   UNL     1       4.663  10.786   6.126  1.00  0.00     0.293 HD
ENDBRANCH   2  14
TORSDOF 2
ENDMDL
MODEL 9
REMARK VINA RESULT:    -4.762      1.793      3.069
REMARK INTER + INTRA:          -5.225
REMARK INTER:                  -5.160
REMARK INTRA:                  -0.065
REMARK UNBOUND:                -0.046
REMARK SMILES COc1cc2ccc(=O)oc2cc1O
REMARK SMILES IDX 3 1 13 2 12 3 11 4 5 5 4 6 6 7 7 8 8 9 9 10 10 11 2 12 1 13
REMARK SMILES IDX 14 14
REMARK H PARENT 14 15
REMARK Flexibility Score: inf
ROOT
ATOM      1  C   UNL     1       5.655   7.896   1.740  1.00  0.00     0.161 A 
ATOM      2  C   UNL     1       4.694   6.958   2.150  1.00  0.00     0.161 A 
ATOM      3  C   UNL     1       3.771   7.281   3.154  1.00  0.00     0.098 A 
ATOM      4  C   UNL     1       3.801   8.541   3.758  1.00  0.00     0.142 A 
ATOM      5  C   UNL     1       4.763   9.490   3.353  1.00  0.00     0.022 A 
ATOM      6  C   UNL     1       5.686   9.167   2.348  1.00  0.00     0.062 A 
ATOM      7  C   UNL     1       4.767  10.742   3.976  1.00  0.00     0.019 A 
ATOM      8  C   UNL     1       3.828  11.015   4.971  1.00  0.00     0.094 A 
ATOM      9  C   UNL     1       2.904  10.024   5.321  1.00  0.00     0.336 A 
ATOM     10  O   UNL     1       2.049  10.251   6.216  1.00  0.00    -0.246 OA
ATOM     11  O   UNL     1       2.922   8.842   4.712  1.00  0.00    -0.423 OA
ENDROOT
BRANCH   1  12
ATOM     12  O   UNL     1       6.558   7.529   0.730  1.00  0.00    -0.493 OA
ATOM     13  C   UNL     1       7.926   7.200   0.952  1.00  0.00     0.278 C 
ENDBRANCH   1  12
BRANCH   2  14
ATOM     14  O   UNL     1       4.663   5.701   1.548  1.00  0.00    -0.504 OA
ATOM     15  H   UNL     1       5.483   5.304   1.105  1.00  0.00     0.293 HD
ENDBRANCH   2  14
TORSDOF 2
ENDMDL
