MODEL 1
REMARK VINA RESULT:    -5.421      0.000      0.000
REMARK INTER + INTRA:         -10.216
REMARK INTER:                  -8.431
REMARK INTRA:                  -1.785
REMARK UNBOUND:                -1.785
REMARK SMILES COc1cc(CNC(=O)CCCCC=CC(C)C)ccc1O
REMARK SMILES IDX 11 1 12 2 13 3 14 4 15 5 16 6 17 7 18 8 10 9 8 10 9 11 7 12
REMARK SMILES IDX 6 14 5 15 4 16 19 17 3 18 20 19 21 20 2 21 1 22 22 23
REMARK H PARENT 7 13 22 24
REMARK Flexibility Score: inf
ROOT
ATOM      1  C   UNL     1     174.629 175.297 176.558  1.00  0.00     0.010 C 
ENDROOT
BRANCH   1   2
ATOM      2  C   UNL     1     175.922 174.470 176.660  1.00  0.00     0.005 C 
BRANCH   2   3
ATOM      3  C   UNL     1     175.892 173.501 177.851  1.00  0.00     0.027 C 
BRANCH   3   4
ATOM      4  C   UNL     1     174.725 172.547 177.767  1.00  0.00    -0.031 C 
ATOM      5  C   UNL     1     173.785 172.402 178.720  1.00  0.00    -0.028 C 
BRANCH   5   6
ATOM      6  C   UNL     1     173.695 173.245 179.976  1.00  0.00     0.005 C 
ATOM      7  C   UNL     1     172.493 174.190 179.885  1.00  0.00     0.012 C 
ATOM      8  C   UNL     1     173.575 172.343 181.208  1.00  0.00     0.012 C 
ENDBRANCH   5   6
ENDBRANCH   3   4
ENDBRANCH   2   3
ENDBRANCH   1   2
BRANCH   1   9
ATOM      9  C   UNL     1     174.203 175.538 175.104  1.00  0.00     0.100 C 
BRANCH   9  10
ATOM     10  C   UNL     1     174.172 174.262 174.314  1.00  0.00     0.220 C 
ATOM     11  O   UNL     1     175.106 174.013 173.504  1.00  0.00    -0.275 OA
ATOM     12  N   UNL     1     173.111 173.317 174.511  1.00  0.00    -0.352 N 
ATOM     13  H   UNL     1     172.366 173.529 175.213  1.00  0.00     0.163 HD
BRANCH  12  14
ATOM     14  C   UNL     1     173.055 172.038 173.805  1.00  0.00     0.151 C 
BRANCH  14  15
ATOM     15  C   UNL     1     173.438 170.910 174.727  1.00  0.00    -0.025 A 
ATOM     16  C   UNL     1     174.668 170.249 174.574  1.00  0.00     0.056 A 
ATOM     17  C   UNL     1     172.556 170.500 175.737  1.00  0.00     0.009 A 
ATOM     18  C   UNL     1     175.018 169.183 175.427  1.00  0.00     0.160 A 
ATOM     19  C   UNL     1     172.897 169.444 176.584  1.00  0.00     0.050 A 
ATOM     20  C   UNL     1     174.124 168.786 176.433  1.00  0.00     0.157 A 
BRANCH  18  21
ATOM     21  O   UNL     1     176.238 168.500 175.307  1.00  0.00    -0.493 OA
ATOM     22  C   UNL     1     177.421 169.055 174.739  1.00  0.00     0.278 C 
ENDBRANCH  18  21
BRANCH  20  23
ATOM     23  O   UNL     1     174.464 167.730 177.278  1.00  0.00    -0.504 OA
ATOM     24  H   UNL     1     175.419 167.404 177.361  1.00  0.00     0.293 HD
ENDBRANCH  20  23
ENDBRANCH  14  15
ENDBRANCH  12  14
ENDBRANCH   9  10
ENDBRANCH   1   9
TORSDOF 10
ENDMDL
MODEL 2
REMARK VINA RESULT:    -5.420      2.526      5.906
REMARK INTER + INTRA:         -10.216
REMARK INTER:                  -8.647
REMARK INTRA:                  -1.569
REMARK UNBOUND:                -1.785
REMARK SMILES COc1cc(CNC(=O)CCCCC=CC(C)C)ccc1O
REMARK SMILES IDX 11 1 12 2 13 3 14 4 15 5 16 6 17 7 18 8 10 9 8 10 9 11 7 12
REMARK SMILES IDX 6 14 5 15 4 16 19 17 3 18 20 19 21 20 2 21 1 22 22 23
REMARK H PARENT 7 13 22 24
REMARK Flexibility Score: inf
ROOT
ATOM      1  C   UNL     1     173.752 171.403 176.896  1.00  0.00     0.010 C 
ENDROOT
BRANCH   1   2
ATOM      2  C   UNL     1     172.356 171.751 176.349  1.00  0.00     0.005 C 
BRANCH   2   3
ATOM      3  C   UNL     1     171.426 172.286 177.448  1.00  0.00     0.027 C 
BRANCH   3   4
ATOM      4  C   UNL     1     171.795 173.692 177.857  1.00  0.00    -0.031 C 
ATOM      5  C   UNL     1     172.352 174.024 179.036  1.00  0.00    -0.028 C 
BRANCH   5   6
ATOM      6  C   UNL     1     172.788 173.030 180.093  1.00  0.00     0.005 C 
ATOM      7  C   UNL     1     174.317 172.996 180.177  1.00  0.00     0.012 C 
ATOM      8  C   UNL     1     172.187 173.406 181.451  1.00  0.00     0.012 C 
ENDBRANCH   5   6
ENDBRANCH   3   4
ENDBRANCH   2   3
ENDBRANCH   1   2
BRANCH   1   9
ATOM      9  C   UNL     1     174.829 171.432 175.804  1.00  0.00     0.100 C 
BRANCH   9  10
ATOM     10  C   UNL     1     175.297 172.830 175.520  1.00  0.00     0.220 C 
ATOM     11  O   UNL     1     175.676 173.131 174.356  1.00  0.00    -0.275 OA
ATOM     12  N   UNL     1     175.272 173.824 176.555  1.00  0.00    -0.352 N 
ATOM     13  H   UNL     1     174.922 173.560 177.504  1.00  0.00     0.163 HD
BRANCH  12  14
ATOM     14  C   UNL     1     175.670 175.211 176.323  1.00  0.00     0.151 C 
BRANCH  14  15
ATOM     15  C   UNL     1     174.515 176.005 175.771  1.00  0.00    -0.025 A 
ATOM     16  C   UNL     1     174.496 176.393 174.421  1.00  0.00     0.056 A 
ATOM     17  C   UNL     1     173.456 176.378 176.610  1.00  0.00     0.009 A 
ATOM     18  C   UNL     1     173.423 177.150 173.909  1.00  0.00     0.160 A 
ATOM     19  C   UNL     1     172.391 177.129 176.109  1.00  0.00     0.050 A 
ATOM     20  C   UNL     1     172.371 177.514 174.762  1.00  0.00     0.157 A 
BRANCH  18  21
ATOM     21  O   UNL     1     173.367 177.554 172.566  1.00  0.00    -0.493 OA
ATOM     22  C   UNL     1     172.928 176.727 171.492  1.00  0.00     0.278 C 
ENDBRANCH  18  21
BRANCH  20  23
ATOM     23  O   UNL     1     171.307 178.265 174.262  1.00  0.00    -0.504 OA
ATOM     24  H   UNL     1     170.821 177.997 173.415  1.00  0.00     0.293 HD
ENDBRANCH  20  23
ENDBRANCH  14  15
ENDBRANCH  12  14
ENDBRANCH   9  10
ENDBRANCH   1   9
TORSDOF 10
ENDMDL
MODEL 3
REMARK VINA RESULT:    -5.390      2.944      6.244
REMARK INTER + INTRA:         -10.169
REMARK INTER:                  -8.278
REMARK INTRA:                  -1.890
REMARK UNBOUND:                -1.785
REMARK SMILES COc1cc(CNC(=O)CCCCC=CC(C)C)ccc1O
REMARK SMILES IDX 11 1 12 2 13 3 14 4 15 5 16 6 17 7 18 8 10 9 8 10 9 11 7 12
REMARK SMILES IDX 6 14 5 15 4 16 19 17 3 18 20 19 21 20 2 21 1 22 22 23
REMARK H PARENT 7 13 22 24
REMARK Flexibility Score: inf
ROOT
ATOM      1  C   UNL     1     171.643 170.852 176.424  1.00  0.00     0.010 C 
ENDROOT
BRANCH   1   2
ATOM      2  C   UNL     1     170.469 171.846 176.449  1.00  0.00     0.005 C 
BRANCH   2   3
ATOM      3  C   UNL     1     170.449 172.678 177.740  1.00  0.00     0.027 C 
BRANCH   3   4
ATOM      4  C   UNL     1     171.472 173.787 177.707  1.00  0.00    -0.031 C 
ATOM      5  C   UNL     1     172.435 173.967 178.631  1.00  0.00    -0.028 C 
BRANCH   5   6
ATOM      6  C   UNL     1     172.704 173.027 179.789  1.00  0.00     0.005 C 
ATOM      7  C   UNL     1     174.077 172.369 179.618  1.00  0.00     0.012 C 
ATOM      8  C   UNL     1     172.639 173.791 181.115  1.00  0.00     0.012 C 
ENDBRANCH   5   6
ENDBRANCH   3   4
ENDBRANCH   2   3
ENDBRANCH   1   2
BRANCH   1   9
ATOM      9  C   UNL     1     172.370 170.841 175.074  1.00  0.00     0.100 C 
BRANCH   9  10
ATOM     10  C   UNL     1     173.155 172.102 174.853  1.00  0.00     0.220 C 
ATOM     11  O   UNL     1     174.287 172.229 175.392  1.00  0.00    -0.275 OA
ATOM     12  N   UNL     1     172.637 173.133 174.000  1.00  0.00    -0.352 N 
ATOM     13  H   UNL     1     171.711 172.992 173.536  1.00  0.00     0.163 HD
BRANCH  12  14
ATOM     14  C   UNL     1     173.378 174.360 173.710  1.00  0.00     0.151 C 
BRANCH  14  15
ATOM     15  C   UNL     1     172.990 175.450 174.675  1.00  0.00    -0.025 A 
ATOM     16  C   UNL     1     171.776 176.139 174.522  1.00  0.00     0.056 A 
ATOM     17  C   UNL     1     173.851 175.796 175.725  1.00  0.00     0.009 A 
ATOM     18  C   UNL     1     171.420 177.169 175.415  1.00  0.00     0.160 A 
ATOM     19  C   UNL     1     173.505 176.817 176.613  1.00  0.00     0.050 A 
ATOM     20  C   UNL     1     172.293 177.503 176.462  1.00  0.00     0.157 A 
BRANCH  18  21
ATOM     21  O   UNL     1     170.216 177.879 175.296  1.00  0.00    -0.493 OA
ATOM     22  C   UNL     1     169.053 177.390 174.633  1.00  0.00     0.278 C 
ENDBRANCH  18  21
BRANCH  20  23
ATOM     23  O   UNL     1     171.949 178.524 177.348  1.00  0.00    -0.504 OA
ATOM     24  H   UNL     1     171.447 178.332 178.206  1.00  0.00     0.293 HD
ENDBRANCH  20  23
ENDBRANCH  14  15
ENDBRANCH  12  14
ENDBRANCH   9  10
ENDBRANCH   1   9
TORSDOF 10
ENDMDL
MODEL 4
REMARK VINA RESULT:    -5.378      2.167      5.274
REMARK INTER + INTRA:         -10.150
REMARK INTER:                  -8.609
REMARK INTRA:                  -1.541
REMARK UNBOUND:                -1.785
REMARK SMILES COc1cc(CNC(=O)CCCCC=CC(C)C)ccc1O
REMARK SMILES IDX 11 1 12 2 13 3 14 4 15 5 16 6 17 7 18 8 10 9 8 10 9 11 7 12
REMARK SMILES IDX 6 14 5 15 4 16 19 17 3 18 20 19 21 20 2 21 1 22 22 23
REMARK H PARENT 7 13 22 24
REMARK Flexibility Score: inf
ROOT
ATOM      1  C   UNL     1     170.821 171.085 176.240  1.00  0.00     0.010 C 
ENDROOT
BRANCH   1   2
ATOM      2  C   UNL     1     170.892 172.609 176.436  1.00  0.00     0.005 C 
BRANCH   2   3
ATOM      3  C   UNL     1     171.006 172.993 177.918  1.00  0.00     0.027 C 
BRANCH   3   4
ATOM      4  C   UNL     1     172.084 174.024 178.149  1.00  0.00    -0.031 C 
ATOM      5  C   UNL     1     172.896 174.056 179.222  1.00  0.00    -0.028 C 
BRANCH   5   6
ATOM      6  C   UNL     1     172.922 173.005 180.314  1.00  0.00     0.005 C 
ATOM      7  C   UNL     1     174.334 172.894 180.897  1.00  0.00     0.012 C 
ATOM      8  C   UNL     1     171.916 173.362 181.413  1.00  0.00     0.012 C 
ENDBRANCH   5   6
ENDBRANCH   3   4
ENDBRANCH   2   3
ENDBRANCH   1   2
BRANCH   1   9
ATOM      9  C   UNL     1     172.134 170.387 176.617  1.00  0.00     0.100 C 
BRANCH   9  10
ATOM     10  C   UNL     1     173.296 170.926 175.834  1.00  0.00     0.220 C 
ATOM     11  O   UNL     1     173.329 170.764 174.584  1.00  0.00    -0.275 OA
ATOM     12  N   UNL     1     174.337 171.656 176.498  1.00  0.00    -0.352 N 
ATOM     13  H   UNL     1     174.271 171.808 177.530  1.00  0.00     0.163 HD
BRANCH  12  14
ATOM     14  C   UNL     1     175.466 172.244 175.781  1.00  0.00     0.151 C 
BRANCH  14  15
ATOM     15  C   UNL     1     175.112 173.619 175.277  1.00  0.00    -0.025 A 
ATOM     16  C   UNL     1     174.863 173.837 173.912  1.00  0.00     0.056 A 
ATOM     17  C   UNL     1     175.046 174.698 176.170  1.00  0.00     0.009 A 
ATOM     18  C   UNL     1     174.547 175.126 173.439  1.00  0.00     0.160 A 
ATOM     19  C   UNL     1     174.735 175.978 175.707  1.00  0.00     0.050 A 
ATOM     20  C   UNL     1     174.485 176.195 174.346  1.00  0.00     0.157 A 
BRANCH  18  21
ATOM     21  O   UNL     1     174.290 175.383 172.083  1.00  0.00    -0.493 OA
ATOM     22  C   UNL     1     175.294 175.650 171.108  1.00  0.00     0.278 C 
ENDBRANCH  18  21
BRANCH  20  23
ATOM     23  O   UNL     1     174.175 177.474 173.884  1.00  0.00    -0.504 OA
ATOM     24  H   UNL     1     174.503 178.304 174.362  1.00  0.00     0.293 HD
ENDBRANCH  20  23
ENDBRANCH  14  15
ENDBRANCH  12  14
ENDBRANCH   9  10
ENDBRANCH   1   9
TORSDOF 10
ENDMDL
MODEL 5
REMARK VINA RESULT:    -5.366      1.605      1.849
REMARK INTER + INTRA:         -10.132
REMARK INTER:                  -7.989
REMARK INTRA:                  -2.143
REMARK UNBOUND:                -1.785
REMARK SMILES COc1cc(CNC(=O)CCCCC=CC(C)C)ccc1O
REMARK SMILES IDX 11 1 12 2 13 3 14 4 15 5 16 6 17 7 18 8 10 9 8 10 9 11 7 12
REMARK SMILES IDX 6 14 5 15 4 16 19 17 3 18 20 19 21 20 2 21 1 22 22 23
REMARK H PARENT 7 13 22 24
REMARK Flexibility Score: inf
ROOT
ATOM      1  C   UNL     1     173.386 175.654 176.996  1.00  0.00     0.010 C 
ENDROOT
BRANCH   1   2
ATOM      2  C   UNL     1     174.565 174.916 176.338  1.00  0.00     0.005 C 
BRANCH   2   3
ATOM      3  C   UNL     1     175.409 174.151 177.367  1.00  0.00     0.027 C 
BRANCH   3   4
ATOM      4  C   UNL     1     174.862 172.767 177.621  1.00  0.00    -0.031 C 
ATOM      5  C   UNL     1     174.142 172.416 178.703  1.00  0.00    -0.028 C 
BRANCH   5   6
ATOM      6  C   UNL     1     173.682 173.377 179.780  1.00  0.00     0.005 C 
ATOM      7  C   UNL     1     172.152 173.373 179.863  1.00  0.00     0.012 C 
ATOM      8  C   UNL     1     174.290 172.985 181.131  1.00  0.00     0.012 C 
ENDBRANCH   5   6
ENDBRANCH   3   4
ENDBRANCH   2   3
ENDBRANCH   1   2
BRANCH   1   9
ATOM      9  C   UNL     1     172.225 175.886 176.020  1.00  0.00     0.100 C 
BRANCH   9  10
ATOM     10  C   UNL     1     171.739 174.602 175.416  1.00  0.00     0.220 C 
ATOM     11  O   UNL     1     171.635 174.506 174.163  1.00  0.00    -0.275 OA
ATOM     12  N   UNL     1     171.438 173.478 176.257  1.00  0.00    -0.352 N 
ATOM     13  H   UNL     1     171.565 173.569 177.290  1.00  0.00     0.163 HD
BRANCH  12  14
ATOM     14  C   UNL     1     171.007 172.188 175.721  1.00  0.00     0.151 C 
BRANCH  14  15
ATOM     15  C   UNL     1     172.160 171.218 175.691  1.00  0.00    -0.025 A 
ATOM     16  C   UNL     1     173.147 171.312 174.696  1.00  0.00     0.056 A 
ATOM     17  C   UNL     1     172.244 170.201 176.652  1.00  0.00     0.009 A 
ATOM     18  C   UNL     1     174.216 170.395 174.660  1.00  0.00     0.160 A 
ATOM     19  C   UNL     1     173.301 169.288 176.620  1.00  0.00     0.050 A 
ATOM     20  C   UNL     1     174.286 169.383 175.629  1.00  0.00     0.157 A 
BRANCH  18  21
ATOM     21  O   UNL     1     175.222 170.458 173.683  1.00  0.00    -0.493 OA
ATOM     22  C   UNL     1     176.377 171.288 173.767  1.00  0.00     0.278 C 
ENDBRANCH  18  21
BRANCH  20  23
ATOM     23  O   UNL     1     175.341 168.471 175.597  1.00  0.00    -0.504 OA
ATOM     24  H   UNL     1     175.575 167.962 174.753  1.00  0.00     0.293 HD
ENDBRANCH  20  23
ENDBRANCH  14  15
ENDBRANCH  12  14
ENDBRANCH   9  10
ENDBRANCH   1   9
TORSDOF 10
ENDMDL
MODEL 6
REMARK VINA RESULT:    -5.361      2.991      5.204
REMARK INTER + INTRA:         -10.124
REMARK INTER:                  -9.388
REMARK INTRA:                  -0.736
REMARK UNBOUND:                -1.785
REMARK SMILES COc1cc(CNC(=O)CCCCC=CC(C)C)ccc1O
REMARK SMILES IDX 11 1 12 2 13 3 14 4 15 5 16 6 17 7 18 8 10 9 8 10 9 11 7 12
REMARK SMILES IDX 6 14 5 15 4 16 19 17 3 18 20 19 21 20 2 21 1 22 22 23
REMARK H PARENT 7 13 22 24
REMARK Flexibility Score: inf
ROOT
ATOM      1  C   UNL     1     173.253 170.182 176.137  1.00  0.00     0.010 C 
ENDROOT
BRANCH   1   2
ATOM      2  C   UNL     1     173.602 171.210 177.228  1.00  0.00     0.005 C 
BRANCH   2   3
ATOM      3  C   UNL     1     172.442 172.181 177.491  1.00  0.00     0.027 C 
BRANCH   3   4
ATOM      4  C   UNL     1     172.937 173.542 177.915  1.00  0.00    -0.031 C 
ATOM      5  C   UNL     1     173.191 173.903 179.186  1.00  0.00    -0.028 C 
BRANCH   5   6
ATOM      6  C   UNL     1     173.117 172.969 180.377  1.00  0.00     0.005 C 
ATOM      7  C   UNL     1     174.440 173.002 181.148  1.00  0.00     0.012 C 
ATOM      8  C   UNL     1     171.956 173.372 181.292  1.00  0.00     0.012 C 
ENDBRANCH   5   6
ENDBRANCH   3   4
ENDBRANCH   2   3
ENDBRANCH   1   2
BRANCH   1   9
ATOM      9  C   UNL     1     174.047 168.878 176.290  1.00  0.00     0.100 C 
BRANCH   9  10
ATOM     10  C   UNL     1     174.876 168.584 175.075  1.00  0.00     0.220 C 
ATOM     11  O   UNL     1     174.304 168.326 173.981  1.00  0.00    -0.275 OA
ATOM     12  N   UNL     1     176.308 168.639 175.148  1.00  0.00    -0.352 N 
ATOM     13  H   UNL     1     176.761 168.889 176.056  1.00  0.00     0.163 HD
BRANCH  12  14
ATOM     14  C   UNL     1     177.165 168.410 173.986  1.00  0.00     0.151 C 
BRANCH  14  15
ATOM     15  C   UNL     1     177.898 169.671 173.613  1.00  0.00    -0.025 A 
ATOM     16  C   UNL     1     179.302 169.700 173.586  1.00  0.00     0.056 A 
ATOM     17  C   UNL     1     177.179 170.835 173.306  1.00  0.00     0.009 A 
ATOM     18  C   UNL     1     179.987 170.885 173.252  1.00  0.00     0.160 A 
ATOM     19  C   UNL     1     177.852 172.013 172.976  1.00  0.00     0.050 A 
ATOM     20  C   UNL     1     179.253 172.041 172.948  1.00  0.00     0.157 A 
BRANCH  18  21
ATOM     21  O   UNL     1     181.389 170.952 173.213  1.00  0.00    -0.493 OA
ATOM     22  C   UNL     1     182.236 169.882 172.806  1.00  0.00     0.278 C 
ENDBRANCH  18  21
BRANCH  20  23
ATOM     23  O   UNL     1     179.925 173.218 172.619  1.00  0.00    -0.504 OA
ATOM     24  H   UNL     1     180.937 173.269 172.624  1.00  0.00     0.293 HD
ENDBRANCH  20  23
ENDBRANCH  14  15
ENDBRANCH  12  14
ENDBRANCH   9  10
ENDBRANCH   1   9
TORSDOF 10
ENDMDL
MODEL 7
REMARK VINA RESULT:    -5.339      5.557      7.392
REMARK INTER + INTRA:         -10.090
REMARK INTER:                  -9.273
REMARK INTRA:                  -0.816
REMARK UNBOUND:                -1.785
REMARK SMILES COc1cc(CNC(=O)CCCCC=CC(C)C)ccc1O
REMARK SMILES IDX 11 1 12 2 13 3 14 4 15 5 16 6 17 7 18 8 10 9 8 10 9 11 7 12
REMARK SMILES IDX 6 14 5 15 4 16 19 17 3 18 20 19 21 20 2 21 1 22 22 23
REMARK H PARENT 7 13 22 24
REMARK Flexibility Score: inf
ROOT
ATOM      1  C   UNL     1     173.357 176.393 175.611  1.00  0.00     0.010 C 
ENDROOT
BRANCH   1   2
ATOM      2  C   UNL     1     173.595 175.269 176.634  1.00  0.00     0.005 C 
BRANCH   2   3
ATOM      3  C   UNL     1     172.434 175.146 177.631  1.00  0.00     0.027 C 
BRANCH   3   4
ATOM      4  C   UNL     1     172.106 173.703 177.933  1.00  0.00    -0.031 C 
ATOM      5  C   UNL     1     172.483 173.050 179.048  1.00  0.00    -0.028 C 
BRANCH   5   6
ATOM      6  C   UNL     1     173.205 173.688 180.217  1.00  0.00     0.005 C 
ATOM      7  C   UNL     1     172.305 173.675 181.457  1.00  0.00     0.012 C 
ATOM      8  C   UNL     1     174.513 172.943 180.499  1.00  0.00     0.012 C 
ENDBRANCH   5   6
ENDBRANCH   3   4
ENDBRANCH   2   3
ENDBRANCH   1   2
BRANCH   1   9
ATOM      9  C   UNL     1     172.265 177.371 176.063  1.00  0.00     0.100 C 
BRANCH   9  10
ATOM     10  C   UNL     1     171.337 177.730 174.939  1.00  0.00     0.220 C 
ATOM     11  O   UNL     1     171.818 178.046 173.817  1.00  0.00    -0.275 OA
ATOM     12  N   UNL     1     169.916 177.670 175.129  1.00  0.00    -0.352 N 
ATOM     13  H   UNL     1     169.540 177.371 176.058  1.00  0.00     0.163 HD
BRANCH  12  14
ATOM     14  C   UNL     1     168.967 177.961 174.057  1.00  0.00     0.151 C 
BRANCH  14  15
ATOM     15  C   UNL     1     168.252 176.706 173.630  1.00  0.00    -0.025 A 
ATOM     16  C   UNL     1     166.848 176.646 173.639  1.00  0.00     0.056 A 
ATOM     17  C   UNL     1     168.987 175.580 173.236  1.00  0.00     0.009 A 
ATOM     18  C   UNL     1     166.180 175.466 173.253  1.00  0.00     0.160 A 
ATOM     19  C   UNL     1     168.332 174.408 172.854  1.00  0.00     0.050 A 
ATOM     20  C   UNL     1     166.932 174.348 172.861  1.00  0.00     0.157 A 
BRANCH  18  21
ATOM     21  O   UNL     1     164.780 175.368 173.247  1.00  0.00    -0.493 OA
ATOM     22  C   UNL     1     163.903 176.314 173.850  1.00  0.00     0.278 C 
ENDBRANCH  18  21
BRANCH  20  23
ATOM     23  O   UNL     1     166.277 173.177 172.482  1.00  0.00    -0.504 OA
ATOM     24  H   UNL     1     166.699 172.519 171.837  1.00  0.00     0.293 HD
ENDBRANCH  20  23
ENDBRANCH  14  15
ENDBRANCH  12  14
ENDBRANCH   9  10
ENDBRANCH   1   9
TORSDOF 10
ENDMDL
MODEL 8
REMARK VINA RESULT:    -5.250      1.972      5.230
REMARK INTER + INTRA:          -9.951
REMARK INTER:                  -7.910
REMARK INTRA:                  -2.041
REMARK UNBOUND:                -1.785
REMARK SMILES COc1cc(CNC(=O)CCCCC=CC(C)C)ccc1O
REMARK SMILES IDX 11 1 12 2 13 3 14 4 15 5 16 6 17 7 18 8 10 9 8 10 9 11 7 12
REMARK SMILES IDX 6 14 5 15 4 16 19 17 3 18 20 19 21 20 2 21 1 22 22 23
REMARK H PARENT 7 13 22 24
REMARK Flexibility Score: inf
ROOT
ATOM      1  C   UNL     1     173.629 169.249 176.538  1.00  0.00     0.010 C 
ENDROOT
BRANCH   1   2
ATOM      2  C   UNL     1     172.374 170.110 176.310  1.00  0.00     0.005 C 
BRANCH   2   3
ATOM      3  C   UNL     1     172.501 171.493 176.966  1.00  0.00     0.027 C 
BRANCH   3   4
ATOM      4  C   UNL     1     173.713 171.578 177.862  1.00  0.00    -0.031 C 
ATOM      5  C   UNL     1     173.760 172.257 179.024  1.00  0.00    -0.028 C 
BRANCH   5   6
ATOM      6  C   UNL     1     172.575 172.955 179.661  1.00  0.00     0.005 C 
ATOM      7  C   UNL     1     172.671 172.855 181.187  1.00  0.00     0.012 C 
ATOM      8  C   UNL     1     172.530 174.422 179.224  1.00  0.00     0.012 C 
ENDBRANCH   5   6
ENDBRANCH   3   4
ENDBRANCH   2   3
ENDBRANCH   1   2
BRANCH   1   9
ATOM      9  C   UNL     1     174.347 168.907 175.226  1.00  0.00     0.100 C 
BRANCH   9  10
ATOM     10  C   UNL     1     174.747 170.140 174.471  1.00  0.00     0.220 C 
ATOM     11  O   UNL     1     174.230 170.371 173.345  1.00  0.00    -0.275 OA
ATOM     12  N   UNL     1     175.676 171.070 175.047  1.00  0.00    -0.352 N 
ATOM     13  H   UNL     1     176.065 170.875 175.998  1.00  0.00     0.163 HD
BRANCH  12  14
ATOM     14  C   UNL     1     176.064 172.310 174.379  1.00  0.00     0.151 C 
BRANCH  14  15
ATOM     15  C   UNL     1     175.305 173.478 174.953  1.00  0.00    -0.025 A 
ATOM     16  C   UNL     1     174.089 173.890 174.382  1.00  0.00     0.056 A 
ATOM     17  C   UNL     1     175.819 174.175 176.055  1.00  0.00     0.009 A 
ATOM     18  C   UNL     1     173.387 174.992 174.910  1.00  0.00     0.160 A 
ATOM     19  C   UNL     1     175.129 175.268 176.582  1.00  0.00     0.050 A 
ATOM     20  C   UNL     1     173.916 175.678 176.014  1.00  0.00     0.157 A 
BRANCH  18  21
ATOM     21  O   UNL     1     172.170 175.432 174.368  1.00  0.00    -0.493 OA
ATOM     22  C   UNL     1     172.050 176.212 173.182  1.00  0.00     0.278 C 
ENDBRANCH  18  21
BRANCH  20  23
ATOM     23  O   UNL     1     173.227 176.771 176.539  1.00  0.00    -0.504 OA
ATOM     24  H   UNL     1     172.224 176.751 176.672  1.00  0.00     0.293 HD
ENDBRANCH  20  23
ENDBRANCH  14  15
ENDBRANCH  12  14
ENDBRANCH   9  10
ENDBRANCH   1   9
TORSDOF 10
ENDMDL
MODEL 9
REMARK VINA RESULT:    -5.231      2.148      3.763
REMARK INTER + INTRA:          -9.922
REMARK INTER:                  -8.047
REMARK INTRA:                  -1.875
REMARK UNBOUND:                -1.785
REMARK SMILES COc1cc(CNC(=O)CCCCC=CC(C)C)ccc1O
REMARK SMILES IDX 11 1 12 2 13 3 14 4 15 5 16 6 17 7 18 8 10 9 8 10 9 11 7 12
REMARK SMILES IDX 6 14 5 15 4 16 19 17 3 18 20 19 21 20 2 21 1 22 22 23
REMARK H PARENT 7 13 22 24
REMARK Flexibility Score: inf
ROOT
ATOM      1  C   UNL     1     172.578 173.097 179.703  1.00  0.00     0.010 C 
ENDROOT
BRANCH   1   2
ATOM      2  C   UNL     1     174.096 173.341 179.763  1.00  0.00     0.005 C 
BRANCH   2   3
ATOM      3  C   UNL     1     174.845 172.567 178.669  1.00  0.00     0.027 C 
BRANCH   3   4
ATOM      4  C   UNL     1     175.995 173.367 178.106  1.00  0.00    -0.031 C 
ATOM      5  C   UNL     1     175.934 174.111 176.986  1.00  0.00    -0.028 C 
BRANCH   5   6
ATOM      6  C   UNL     1     174.676 174.343 176.174  1.00  0.00     0.005 C 
ATOM      7  C   UNL     1     174.518 175.837 175.875  1.00  0.00     0.012 C 
ATOM      8  C   UNL     1     174.735 173.541 174.870  1.00  0.00     0.012 C 
ENDBRANCH   5   6
ENDBRANCH   3   4
ENDBRANCH   2   3
ENDBRANCH   1   2
BRANCH   1   9
ATOM      9  C   UNL     1     171.867 174.079 178.762  1.00  0.00     0.100 C 
BRANCH   9  10
ATOM     10  C   UNL     1     171.407 173.409 177.501  1.00  0.00     0.220 C 
ATOM     11  O   UNL     1     171.284 174.090 176.447  1.00  0.00    -0.275 OA
ATOM     12  N   UNL     1     171.153 171.997 177.485  1.00  0.00    -0.352 N 
ATOM     13  H   UNL     1     171.295 171.446 178.362  1.00  0.00     0.163 HD
BRANCH  12  14
ATOM     14  C   UNL     1     170.750 171.284 176.275  1.00  0.00     0.151 C 
BRANCH  14  15
ATOM     15  C   UNL     1     171.902 170.483 175.726  1.00  0.00    -0.025 A 
ATOM     16  C   UNL     1     171.863 169.981 174.415  1.00  0.00     0.056 A 
ATOM     17  C   UNL     1     173.019 170.218 176.532  1.00  0.00     0.009 A 
ATOM     18  C   UNL     1     172.934 169.219 173.908  1.00  0.00     0.160 A 
ATOM     19  C   UNL     1     174.083 169.463 176.036  1.00  0.00     0.050 A 
ATOM     20  C   UNL     1     174.044 168.964 174.727  1.00  0.00     0.157 A 
BRANCH  18  21
ATOM     21  O   UNL     1     172.932 168.702 172.603  1.00  0.00    -0.493 OA
ATOM     22  C   UNL     1     172.021 169.096 171.581  1.00  0.00     0.278 C 
ENDBRANCH  18  21
BRANCH  20  23
ATOM     23  O   UNL     1     175.107 168.208 174.232  1.00  0.00    -0.504 OA
ATOM     24  H   UNL     1     175.181 167.980 173.248  1.00  0.00     0.293 HD
ENDBRANCH  20  23
ENDBRANCH  14  15
ENDBRANCH  12  14
ENDBRANCH   9  10
ENDBRANCH   1   9
TORSDOF 10
ENDMDL
