MODEL 1
REMARK VINA RESULT:    -0.068      0.000      0.000
REMARK INTER + INTRA:          -0.755
REMARK INTER:                  -0.124
REMARK INTRA:                  -0.630
REMARK UNBOUND:                -0.630
REMARK SMILES CCCCCCCCCCCCCC[C@H](C)C(=O)[O-]
REMARK SMILES IDX 9 1 10 2 11 3 12 4 13 5 14 6 15 7 16 8 17 9 18 10 19 11 8 12
REMARK SMILES IDX 7 13 6 14 5 15 4 16 3 17 2 18 1 19
REMARK H PARENT
REMARK Flexibility Score: inf
ROOT
ATOM      1  C   UNL     1      21.155  54.496  32.061  1.00  0.00     0.000 C 
ENDROOT
BRANCH   1   2
ATOM      2  C   UNL     1      22.326  54.032  31.177  1.00  0.00     0.000 C 
BRANCH   2   3
ATOM      3  C   UNL     1      22.483  54.886  29.910  1.00  0.00     0.000 C 
BRANCH   3   4
ATOM      4  C   UNL     1      21.474  54.503  28.813  1.00  0.00     0.000 C 
BRANCH   4   5
ATOM      5  C   UNL     1      21.817  53.169  28.130  1.00  0.00     0.001 C 
BRANCH   5   6
ATOM      6  C   UNL     1      23.324  53.016  27.856  1.00  0.00     0.009 C 
BRANCH   6   7
ATOM      7  C   UNL     1      23.626  51.969  26.761  1.00  0.00     0.032 C 
ATOM      8  C   UNL     1      24.321  50.720  27.321  1.00  0.00     0.014 C 
BRANCH   7   9
ATOM      9  C   UNL     1      24.481  52.584  25.686  1.00  0.00     0.044 C 
ATOM     10  O   UNL     1      25.102  51.854  24.867  1.00  0.00    -0.550 OA
ATOM     11  O   UNL     1      24.589  53.965  25.589  1.00  0.00    -0.550 OA
ENDBRANCH   7   9
ENDBRANCH   6   7
ENDBRANCH   5   6
ENDBRANCH   4   5
ENDBRANCH   3   4
ENDBRANCH   2   3
ENDBRANCH   1   2
BRANCH   1  12
ATOM     12  C   UNL     1      21.068  53.714  33.382  1.00  0.00     0.000 C 
BRANCH  12  13
ATOM     13  C   UNL     1      21.346  54.599  34.609  1.00  0.00    -0.000 C 
BRANCH  13  14
ATOM     14  C   UNL     1      21.799  53.790  35.838  1.00  0.00    -0.000 C 
BRANCH  14  15
ATOM     15  C   UNL     1      23.317  53.794  36.091  1.00  0.00    -0.000 C 
BRANCH  15  16
ATOM     16  C   UNL     1      23.994  55.103  35.646  1.00  0.00    -0.000 C 
BRANCH  16  17
ATOM     17  C   UNL     1      24.278  55.125  34.129  1.00  0.00    -0.000 C 
BRANCH  17  18
ATOM     18  C   UNL     1      25.776  55.125  33.784  1.00  0.00    -0.003 C 
ATOM     19  C   UNL     1      26.046  54.957  32.290  1.00  0.00     0.004 C 
ENDBRANCH  17  18
ENDBRANCH  16  17
ENDBRANCH  15  16
ENDBRANCH  14  15
ENDBRANCH  13  14
ENDBRANCH  12  13
ENDBRANCH   1  12
TORSDOF 14
ENDMDL
MODEL 2
REMARK VINA RESULT:     0.607      3.519      7.684
REMARK INTER + INTRA:           0.474
REMARK INTER:                   1.197
REMARK INTRA:                  -0.723
REMARK UNBOUND:                -0.630
REMARK SMILES CCCCCCCCCCCCCC[C@H](C)C(=O)[O-]
REMARK SMILES IDX 9 1 10 2 11 3 12 4 13 5 14 6 15 7 16 8 17 9 18 10 19 11 8 12
REMARK SMILES IDX 7 13 6 14 5 15 4 16 3 17 2 18 1 19
REMARK H PARENT
REMARK Flexibility Score: inf
ROOT
ATOM      1  C   UNL     1      21.264  54.491  29.602  1.00  0.00     0.000 C 
ENDROOT
BRANCH   1   2
ATOM      2  C   UNL     1      21.865  55.124  30.870  1.00  0.00     0.000 C 
BRANCH   2   3
ATOM      3  C   UNL     1      22.965  54.255  31.499  1.00  0.00     0.000 C 
BRANCH   3   4
ATOM      4  C   UNL     1      24.372  54.838  31.281  1.00  0.00     0.000 C 
BRANCH   4   5
ATOM      5  C   UNL     1      25.129  55.072  32.599  1.00  0.00     0.001 C 
BRANCH   5   6
ATOM      6  C   UNL     1      24.604  54.188  33.746  1.00  0.00     0.009 C 
BRANCH   6   7
ATOM      7  C   UNL     1      23.901  55.006  34.852  1.00  0.00     0.032 C 
ATOM      8  C   UNL     1      24.754  55.125  36.124  1.00  0.00     0.014 C 
BRANCH   7   9
ATOM      9  C   UNL     1      22.576  54.379  35.189  1.00  0.00     0.044 C 
ATOM     10  O   UNL     1      22.515  53.391  35.969  1.00  0.00    -0.550 OA
ATOM     11  O   UNL     1      21.407  54.890  34.640  1.00  0.00    -0.550 OA
ENDBRANCH   7   9
ENDBRANCH   6   7
ENDBRANCH   5   6
ENDBRANCH   4   5
ENDBRANCH   3   4
ENDBRANCH   2   3
ENDBRANCH   1   2
BRANCH   1  12
ATOM     12  C   UNL     1      21.878  55.058  28.313  1.00  0.00     0.000 C 
BRANCH  12  13
ATOM     13  C   UNL     1      22.587  53.981  27.475  1.00  0.00    -0.000 C 
BRANCH  13  14
ATOM     14  C   UNL     1      23.849  53.426  28.161  1.00  0.00    -0.000 C 
BRANCH  14  15
ATOM     15  C   UNL     1      23.920  51.890  28.237  1.00  0.00    -0.000 C 
BRANCH  15  16
ATOM     16  C   UNL     1      23.717  51.212  26.870  1.00  0.00    -0.000 C 
BRANCH  16  17
ATOM     17  C   UNL     1      24.159  52.118  25.701  1.00  0.00    -0.000 C 
BRANCH  17  18
ATOM     18  C   UNL     1      25.467  51.664  25.032  1.00  0.00    -0.003 C 
ATOM     19  C   UNL     1      26.271  50.691  25.892  1.00  0.00     0.004 C 
ENDBRANCH  17  18
ENDBRANCH  16  17
ENDBRANCH  15  16
ENDBRANCH  14  15
ENDBRANCH  13  14
ENDBRANCH  12  13
ENDBRANCH   1  12
TORSDOF 14
ENDMDL
MODEL 3
REMARK VINA RESULT:     0.927     16.374     20.707
REMARK INTER + INTRA:           1.055
REMARK INTER:                   1.721
REMARK INTRA:                  -0.666
REMARK UNBOUND:                -0.630
REMARK SMILES CCCCCCCCCCCCCC[C@H](C)C(=O)[O-]
REMARK SMILES IDX 9 1 10 2 11 3 12 4 13 5 14 6 15 7 16 8 17 9 18 10 19 11 8 12
REMARK SMILES IDX 7 13 6 14 5 15 4 16 3 17 2 18 1 19
REMARK H PARENT
REMARK Flexibility Score: inf
ROOT
ATOM      1  C   UNL     1      40.750  45.144  23.511  1.00  0.00     0.000 C 
ENDROOT
BRANCH   1   2
ATOM      2  C   UNL     1      39.420  44.816  24.212  1.00  0.00     0.000 C 
BRANCH   2   3
ATOM      3  C   UNL     1      38.771  46.051  24.854  1.00  0.00     0.000 C 
BRANCH   3   4
ATOM      4  C   UNL     1      37.233  45.988  24.829  1.00  0.00     0.000 C 
BRANCH   4   5
ATOM      5  C   UNL     1      36.638  46.530  23.519  1.00  0.00     0.001 C 
BRANCH   5   6
ATOM      6  C   UNL     1      35.250  47.164  23.719  1.00  0.00     0.009 C 
BRANCH   6   7
ATOM      7  C   UNL     1      34.207  46.157  24.253  1.00  0.00     0.032 C 
ATOM      8  C   UNL     1      32.913  46.160  23.426  1.00  0.00     0.014 C 
BRANCH   7   9
ATOM      9  C   UNL     1      33.889  46.463  25.691  1.00  0.00     0.044 C 
ATOM     10  O   UNL     1      34.206  45.653  26.604  1.00  0.00    -0.550 OA
ATOM     11  O   UNL     1      33.241  47.646  26.023  1.00  0.00    -0.550 OA
ENDBRANCH   7   9
ENDBRANCH   6   7
ENDBRANCH   5   6
ENDBRANCH   4   5
ENDBRANCH   3   4
ENDBRANCH   2   3
ENDBRANCH   1   2
BRANCH   1  12
ATOM     12  C   UNL     1      40.594  46.222  22.427  1.00  0.00     0.000 C 
BRANCH  12  13
ATOM     13  C   UNL     1      41.047  45.732  21.041  1.00  0.00    -0.000 C 
BRANCH  13  14
ATOM     14  C   UNL     1      41.090  44.197  20.935  1.00  0.00    -0.000 C 
BRANCH  14  15
ATOM     15  C   UNL     1      41.075  43.648  19.497  1.00  0.00    -0.000 C 
BRANCH  15  16
ATOM     16  C   UNL     1      40.982  42.112  19.442  1.00  0.00    -0.000 C 
BRANCH  16  17
ATOM     17  C   UNL     1      40.453  41.609  18.083  1.00  0.00    -0.000 C 
BRANCH  17  18
ATOM     18  C   UNL     1      39.949  40.157  18.120  1.00  0.00    -0.003 C 
ATOM     19  C   UNL     1      40.324  39.361  16.871  1.00  0.00     0.004 C 
ENDBRANCH  17  18
ENDBRANCH  16  17
ENDBRANCH  15  16
ENDBRANCH  14  15
ENDBRANCH  13  14
ENDBRANCH  12  13
ENDBRANCH   1  12
TORSDOF 14
ENDMDL
MODEL 4
REMARK VINA RESULT:     2.452     22.835     25.762
REMARK INTER + INTRA:           3.828
REMARK INTER:                   1.960
REMARK INTRA:                   1.868
REMARK UNBOUND:                -0.630
REMARK SMILES CCCCCCCCCCCCCC[C@H](C)C(=O)[O-]
REMARK SMILES IDX 9 1 10 2 11 3 12 4 13 5 14 6 15 7 16 8 17 9 18 10 19 11 8 12
REMARK SMILES IDX 7 13 6 14 5 15 4 16 3 17 2 18 1 19
REMARK H PARENT
REMARK Flexibility Score: inf
ROOT
ATOM      1  C   UNL     1      36.565  38.032  19.733  1.00  0.00     0.000 C 
ENDROOT
BRANCH   1   2
ATOM      2  C   UNL     1      36.648  39.492  20.209  1.00  0.00     0.000 C 
BRANCH   2   3
ATOM      3  C   UNL     1      38.042  40.103  19.998  1.00  0.00     0.000 C 
BRANCH   3   4
ATOM      4  C   UNL     1      38.549  39.930  18.555  1.00  0.00     0.000 C 
BRANCH   4   5
ATOM      5  C   UNL     1      39.788  39.024  18.466  1.00  0.00     0.001 C 
BRANCH   5   6
ATOM      6  C   UNL     1      41.099  39.792  18.709  1.00  0.00     0.009 C 
BRANCH   6   7
ATOM      7  C   UNL     1      41.124  41.165  18.001  1.00  0.00     0.032 C 
ATOM      8  C   UNL     1      40.297  42.224  18.747  1.00  0.00     0.014 C 
BRANCH   7   9
ATOM      9  C   UNL     1      40.615  41.025  16.593  1.00  0.00     0.044 C 
ATOM     10  O   UNL     1      40.428  42.046  15.875  1.00  0.00    -0.550 OA
ATOM     11  O   UNL     1      40.346  39.766  16.073  1.00  0.00    -0.550 OA
ENDBRANCH   7   9
ENDBRANCH   6   7
ENDBRANCH   5   6
ENDBRANCH   4   5
ENDBRANCH   3   4
ENDBRANCH   2   3
ENDBRANCH   1   2
BRANCH   1  12
ATOM     12  C   UNL     1      36.656  37.028  20.893  1.00  0.00     0.000 C 
BRANCH  12  13
ATOM     13  C   UNL     1      38.092  36.532  21.131  1.00  0.00    -0.000 C 
BRANCH  13  14
ATOM     14  C   UNL     1      38.678  35.793  19.914  1.00  0.00    -0.000 C 
BRANCH  14  15
ATOM     15  C   UNL     1      37.790  35.813  18.657  1.00  0.00    -0.000 C 
BRANCH  15  16
ATOM     16  C   UNL     1      38.300  34.875  17.548  1.00  0.00    -0.000 C 
BRANCH  16  17
ATOM     17  C   UNL     1      38.970  35.649  16.393  1.00  0.00    -0.000 C 
BRANCH  17  18
ATOM     18  C   UNL     1      40.505  35.671  16.478  1.00  0.00    -0.003 C 
ATOM     19  C   UNL     1      41.110  37.004  16.043  1.00  0.00     0.004 C 
ENDBRANCH  17  18
ENDBRANCH  16  17
ENDBRANCH  15  16
ENDBRANCH  14  15
ENDBRANCH  13  14
ENDBRANCH  12  13
ENDBRANCH   1  12
TORSDOF 14
ENDMDL
MODEL 5
REMARK VINA RESULT:     2.649      3.827      8.219
REMARK INTER + INTRA:           4.186
REMARK INTER:                   4.746
REMARK INTRA:                  -0.560
REMARK UNBOUND:                -0.630
REMARK SMILES CCCCCCCCCCCCCC[C@H](C)C(=O)[O-]
REMARK SMILES IDX 9 1 10 2 11 3 12 4 13 5 14 6 15 7 16 8 17 9 18 10 19 11 8 12
REMARK SMILES IDX 7 13 6 14 5 15 4 16 3 17 2 18 1 19
REMARK H PARENT
REMARK Flexibility Score: inf
ROOT
ATOM      1  C   UNL     1      23.234  54.050  29.302  1.00  0.00     0.000 C 
ENDROOT
BRANCH   1   2
ATOM      2  C   UNL     1      22.288  54.422  30.457  1.00  0.00     0.000 C 
BRANCH   2   3
ATOM      3  C   UNL     1      23.016  55.125  31.613  1.00  0.00     0.000 C 
BRANCH   3   4
ATOM      4  C   UNL     1      24.547  55.047  31.478  1.00  0.00     0.000 C 
BRANCH   4   5
ATOM      5  C   UNL     1      25.257  54.913  32.836  1.00  0.00     0.001 C 
BRANCH   5   6
ATOM      6  C   UNL     1      24.457  54.062  33.839  1.00  0.00     0.009 C 
BRANCH   6   7
ATOM      7  C   UNL     1      23.965  54.880  35.053  1.00  0.00     0.032 C 
ATOM      8  C   UNL     1      25.068  55.099  36.098  1.00  0.00     0.014 C 
BRANCH   7   9
ATOM      9  C   UNL     1      22.791  54.191  35.694  1.00  0.00     0.044 C 
ATOM     10  O   UNL     1      21.698  54.800  35.851  1.00  0.00    -0.550 OA
ATOM     11  O   UNL     1      22.905  52.874  36.118  1.00  0.00    -0.550 OA
ENDBRANCH   7   9
ENDBRANCH   6   7
ENDBRANCH   5   6
ENDBRANCH   4   5
ENDBRANCH   3   4
ENDBRANCH   2   3
ENDBRANCH   1   2
BRANCH   1  12
ATOM     12  C   UNL     1      23.169  52.557  28.945  1.00  0.00     0.000 C 
BRANCH  12  13
ATOM     13  C   UNL     1      22.952  52.321  27.440  1.00  0.00    -0.000 C 
BRANCH  13  14
ATOM     14  C   UNL     1      23.350  53.536  26.582  1.00  0.00    -0.000 C 
BRANCH  14  15
ATOM     15  C   UNL     1      24.547  53.300  25.643  1.00  0.00    -0.000 C 
BRANCH  15  16
ATOM     16  C   UNL     1      24.475  51.949  24.909  1.00  0.00    -0.000 C 
BRANCH  16  17
ATOM     17  C   UNL     1      25.843  51.234  24.871  1.00  0.00    -0.000 C 
BRANCH  17  18
ATOM     18  C   UNL     1      26.279  50.671  26.233  1.00  0.00    -0.003 C 
ATOM     19  C   UNL     1      25.104  50.228  27.102  1.00  0.00     0.004 C 
ENDBRANCH  17  18
ENDBRANCH  16  17
ENDBRANCH  15  16
ENDBRANCH  14  15
ENDBRANCH  13  14
ENDBRANCH  12  13
ENDBRANCH   1  12
TORSDOF 14
ENDMDL
