MODEL 1
REMARK VINA RESULT:    -3.983      0.000      0.000
REMARK INTER + INTRA:          -3.983
REMARK INTER:                  -3.983
REMARK INTRA:                   0.000
REMARK UNBOUND:                 0.000
REMARK SMILES CC1=CC[C@H]2[C@@H](C1)C2(C)C
REMARK SMILES IDX 1 1 2 2 3 3 4 4 5 5 6 6 7 7 8 8 9 9 10 10
REMARK H PARENT
REMARK Flexibility Score: inf
ROOT
ATOM      1  C   UNL     1     -24.214 -11.584  -5.106  1.00  0.00     0.039 C 
ATOM      2  C   UNL     1     -23.382 -11.467  -6.354  1.00  0.00    -0.077 C 
ATOM      3  C   UNL     1     -23.460 -10.352  -7.099  1.00  0.00    -0.028 C 
ATOM      4  C   UNL     1     -22.656 -10.186  -8.356  1.00  0.00     0.031 C 
ATOM      5  C   UNL     1     -21.243 -10.793  -8.221  1.00  0.00     0.003 C 
ATOM      6  C   UNL     1     -21.144 -12.081  -7.370  1.00  0.00     0.003 C 
ATOM      7  C   UNL     1     -22.469 -12.598  -6.766  1.00  0.00     0.034 C 
ATOM      8  C   UNL     1     -20.904 -12.136  -8.887  1.00  0.00    -0.029 C 
ATOM      9  C   UNL     1     -21.926 -12.826  -9.812  1.00  0.00     0.012 C 
ATOM     10  C   UNL     1     -19.435 -12.292  -9.296  1.00  0.00     0.012 C 
ENDROOT
TORSDOF 0
ENDMDL
MODEL 2
REMARK VINA RESULT:    -3.924      1.574      4.008
REMARK INTER + INTRA:          -3.924
REMARK INTER:                  -3.924
REMARK INTRA:                   0.000
REMARK UNBOUND:                 0.000
REMARK SMILES CC1=CC[C@H]2[C@@H](C1)C2(C)C
REMARK SMILES IDX 1 1 2 2 3 3 4 4 5 5 6 6 7 7 8 8 9 9 10 10
REMARK H PARENT
REMARK Flexibility Score: inf
ROOT
ATOM      1  C   UNL     1     -18.904 -12.428  -9.739  1.00  0.00     0.039 C 
ATOM      2  C   UNL     1     -20.202 -11.920  -9.172  1.00  0.00    -0.077 C 
ATOM      3  C   UNL     1     -20.458 -12.078  -7.863  1.00  0.00    -0.028 C 
ATOM      4  C   UNL     1     -21.740 -11.595  -7.247  1.00  0.00     0.031 C 
ATOM      5  C   UNL     1     -22.200 -10.252  -7.854  1.00  0.00     0.003 C 
ATOM      6  C   UNL     1     -21.916 -10.064  -9.363  1.00  0.00     0.003 C 
ATOM      7  C   UNL     1     -21.209 -11.242 -10.071  1.00  0.00     0.034 C 
ATOM      8  C   UNL     1     -23.361 -10.209  -8.861  1.00  0.00    -0.029 C 
ATOM      9  C   UNL     1     -24.169 -11.484  -9.173  1.00  0.00     0.012 C 
ATOM     10  C   UNL     1     -24.167  -8.905  -8.850  1.00  0.00     0.012 C 
ENDROOT
TORSDOF 0
ENDMDL
MODEL 3
REMARK VINA RESULT:    -3.915      1.303      3.979
REMARK INTER + INTRA:          -3.915
REMARK INTER:                  -3.915
REMARK INTRA:                   0.000
REMARK UNBOUND:                 0.000
REMARK SMILES CC1=CC[C@H]2[C@@H](C1)C2(C)C
REMARK SMILES IDX 1 1 2 2 3 3 4 4 5 5 6 6 7 7 8 8 9 9 10 10
REMARK H PARENT
REMARK Flexibility Score: inf
ROOT
ATOM      1  C   UNL     1     -19.794 -12.013  -8.279  1.00  0.00     0.039 C 
ATOM      2  C   UNL     1     -21.208 -11.639  -7.926  1.00  0.00    -0.077 C 
ATOM      3  C   UNL     1     -21.863 -12.344  -6.987  1.00  0.00    -0.028 C 
ATOM      4  C   UNL     1     -23.277 -12.017  -6.601  1.00  0.00     0.031 C 
ATOM      5  C   UNL     1     -23.532 -10.495  -6.583  1.00  0.00     0.003 C 
ATOM      6  C   UNL     1     -22.787  -9.676  -7.663  1.00  0.00     0.003 C 
ATOM      7  C   UNL     1     -21.885 -10.483  -8.623  1.00  0.00     0.034 C 
ATOM      8  C   UNL     1     -24.316  -9.822  -7.721  1.00  0.00    -0.029 C 
ATOM      9  C   UNL     1     -24.975 -10.675  -8.822  1.00  0.00     0.012 C 
ATOM     10  C   UNL     1     -25.093  -8.568  -7.305  1.00  0.00     0.012 C 
ENDROOT
TORSDOF 0
ENDMDL
MODEL 4
REMARK VINA RESULT:    -3.904      1.348      1.579
REMARK INTER + INTRA:          -3.904
REMARK INTER:                  -3.904
REMARK INTRA:                   0.000
REMARK UNBOUND:                 0.000
REMARK SMILES CC1=CC[C@H]2[C@@H](C1)C2(C)C
REMARK SMILES IDX 1 1 2 2 3 3 4 4 5 5 6 6 7 7 8 8 9 9 10 10
REMARK H PARENT
REMARK Flexibility Score: inf
ROOT
ATOM      1  C   UNL     1     -24.200 -11.582  -4.259  1.00  0.00     0.039 C 
ATOM      2  C   UNL     1     -23.864 -11.131  -5.655  1.00  0.00    -0.077 C 
ATOM      3  C   UNL     1     -24.204  -9.893  -6.049  1.00  0.00    -0.028 C 
ATOM      4  C   UNL     1     -23.898  -9.394  -7.432  1.00  0.00     0.031 C 
ATOM      5  C   UNL     1     -22.526  -9.895  -7.934  1.00  0.00     0.003 C 
ATOM      6  C   UNL     1     -22.128 -11.322  -7.491  1.00  0.00     0.003 C 
ATOM      7  C   UNL     1     -23.152 -12.066  -6.604  1.00  0.00     0.034 C 
ATOM      8  C   UNL     1     -22.440 -11.030  -8.967  1.00  0.00    -0.029 C 
ATOM      9  C   UNL     1     -23.721 -11.590  -9.617  1.00  0.00     0.012 C 
ATOM     10  C   UNL     1     -21.211 -10.970  -9.880  1.00  0.00     0.012 C 
ENDROOT
TORSDOF 0
ENDMDL
MODEL 5
REMARK VINA RESULT:    -3.886      1.313      1.812
REMARK INTER + INTRA:          -3.886
REMARK INTER:                  -3.886
REMARK INTRA:                   0.000
REMARK UNBOUND:                 0.000
REMARK SMILES CC1=CC[C@H]2[C@@H](C1)C2(C)C
REMARK SMILES IDX 1 1 2 2 3 3 4 4 5 5 6 6 7 7 8 8 9 9 10 10
REMARK H PARENT
REMARK Flexibility Score: inf
ROOT
ATOM      1  C   UNL     1     -23.930  -8.633  -6.828  1.00  0.00     0.039 C 
ATOM      2  C   UNL     1     -23.208  -9.566  -7.764  1.00  0.00    -0.077 C 
ATOM      3  C   UNL     1     -23.023  -9.203  -9.045  1.00  0.00    -0.028 C 
ATOM      4  C   UNL     1     -22.316 -10.097 -10.022  1.00  0.00     0.031 C 
ATOM      5  C   UNL     1     -21.133 -10.843  -9.368  1.00  0.00     0.003 C 
ATOM      6  C   UNL     1     -21.338 -11.269  -7.896  1.00  0.00     0.003 C 
ATOM      7  C   UNL     1     -22.700 -10.898  -7.267  1.00  0.00     0.034 C 
ATOM      8  C   UNL     1     -21.254 -12.331  -9.003  1.00  0.00    -0.029 C 
ATOM      9  C   UNL     1     -22.506 -13.132  -9.411  1.00  0.00     0.012 C 
ATOM     10  C   UNL     1     -19.933 -13.108  -9.045  1.00  0.00     0.012 C 
ENDROOT
TORSDOF 0
ENDMDL
MODEL 6
REMARK VINA RESULT:    -3.783      1.126      4.174
REMARK INTER + INTRA:          -3.783
REMARK INTER:                  -3.783
REMARK INTRA:                   0.000
REMARK UNBOUND:                 0.000
REMARK SMILES CC1=CC[C@H]2[C@@H](C1)C2(C)C
REMARK SMILES IDX 1 1 2 2 3 3 4 4 5 5 6 6 7 7 8 8 9 9 10 10
REMARK H PARENT
REMARK Flexibility Score: inf
ROOT
ATOM      1  C   UNL     1     -20.465 -11.675  -8.447  1.00  0.00     0.039 C 
ATOM      2  C   UNL     1     -21.723 -11.347  -7.689  1.00  0.00    -0.077 C 
ATOM      3  C   UNL     1     -22.257 -10.119  -7.795  1.00  0.00    -0.028 C 
ATOM      4  C   UNL     1     -23.507  -9.737  -7.056  1.00  0.00     0.031 C 
ATOM      5  C   UNL     1     -24.523 -10.898  -7.005  1.00  0.00     0.003 C 
ATOM      6  C   UNL     1     -23.918 -12.315  -6.877  1.00  0.00     0.003 C 
ATOM      7  C   UNL     1     -22.376 -12.390  -6.814  1.00  0.00     0.034 C 
ATOM      8  C   UNL     1     -24.718 -11.708  -5.713  1.00  0.00    -0.029 C 
ATOM      9  C   UNL     1     -24.003 -11.285  -4.415  1.00  0.00     0.012 C 
ATOM     10  C   UNL     1     -26.123 -12.291  -5.532  1.00  0.00     0.012 C 
ENDROOT
TORSDOF 0
ENDMDL
MODEL 7
REMARK VINA RESULT:    -3.748      1.638      3.330
REMARK INTER + INTRA:          -3.748
REMARK INTER:                  -3.748
REMARK INTRA:                   0.000
REMARK UNBOUND:                 0.000
REMARK SMILES CC1=CC[C@H]2[C@@H](C1)C2(C)C
REMARK SMILES IDX 1 1 2 2 3 3 4 4 5 5 6 6 7 7 8 8 9 9 10 10
REMARK H PARENT
REMARK Flexibility Score: inf
ROOT
ATOM      1  C   UNL     1     -22.251 -15.038  -7.862  1.00  0.00     0.039 C 
ATOM      2  C   UNL     1     -22.063 -13.551  -7.997  1.00  0.00    -0.077 C 
ATOM      3  C   UNL     1     -20.857 -13.012  -7.750  1.00  0.00    -0.028 C 
ATOM      4  C   UNL     1     -20.616 -11.534  -7.864  1.00  0.00     0.031 C 
ATOM      5  C   UNL     1     -21.386 -10.915  -9.049  1.00  0.00     0.003 C 
ATOM      6  C   UNL     1     -22.778 -11.524  -9.338  1.00  0.00     0.003 C 
ATOM      7  C   UNL     1     -23.222 -12.672  -8.404  1.00  0.00     0.034 C 
ATOM      8  C   UNL     1     -22.659 -10.087  -8.806  1.00  0.00    -0.029 C 
ATOM      9  C   UNL     1     -23.104  -9.750  -7.369  1.00  0.00     0.012 C 
ATOM     10  C   UNL     1     -22.919  -8.996  -9.850  1.00  0.00     0.012 C 
ENDROOT
TORSDOF 0
ENDMDL
MODEL 8
REMARK VINA RESULT:    -3.747     12.182     14.028
REMARK INTER + INTRA:          -3.747
REMARK INTER:                  -3.747
REMARK INTRA:                   0.000
REMARK UNBOUND:                 0.000
REMARK SMILES CC1=CC[C@H]2[C@@H](C1)C2(C)C
REMARK SMILES IDX 1 1 2 2 3 3 4 4 5 5 6 6 7 7 8 8 9 9 10 10
REMARK H PARENT
REMARK Flexibility Score: inf
ROOT
ATOM      1  C   UNL     1      -7.761 -10.627  -8.240  1.00  0.00     0.039 C 
ATOM      2  C   UNL     1      -8.395 -11.245  -7.022  1.00  0.00    -0.077 C 
ATOM      3  C   UNL     1      -9.574 -11.878  -7.140  1.00  0.00    -0.028 C 
ATOM      4  C   UNL     1     -10.253 -12.506  -5.957  1.00  0.00     0.031 C 
ATOM      5  C   UNL     1      -9.240 -13.167  -4.997  1.00  0.00     0.003 C 
ATOM      6  C   UNL     1      -7.882 -12.442  -4.849  1.00  0.00     0.003 C 
ATOM      7  C   UNL     1      -7.710 -11.150  -5.679  1.00  0.00     0.034 C 
ATOM      8  C   UNL     1      -8.866 -12.487  -3.670  1.00  0.00    -0.029 C 
ATOM      9  C   UNL     1      -9.597 -11.208  -3.217  1.00  0.00     0.012 C 
ATOM     10  C   UNL     1      -8.473 -13.453  -2.547  1.00  0.00     0.012 C 
ENDROOT
TORSDOF 0
ENDMDL
MODEL 9
REMARK VINA RESULT:    -3.698     15.139     16.738
REMARK INTER + INTRA:          -3.698
REMARK INTER:                  -3.698
REMARK INTRA:                   0.000
REMARK UNBOUND:                 0.000
REMARK SMILES CC1=CC[C@H]2[C@@H](C1)C2(C)C
REMARK SMILES IDX 1 1 2 2 3 3 4 4 5 5 6 6 7 7 8 8 9 9 10 10
REMARK H PARENT
REMARK Flexibility Score: inf
ROOT
ATOM      1  C   UNL     1      -8.105 -13.582  -2.664  1.00  0.00     0.039 C 
ATOM      2  C   UNL     1      -7.962 -14.516  -1.493  1.00  0.00    -0.077 C 
ATOM      3  C   UNL     1      -7.056 -14.246  -0.539  1.00  0.00    -0.028 C 
ATOM      4  C   UNL     1      -6.868 -15.147   0.647  1.00  0.00     0.031 C 
ATOM      5  C   UNL     1      -8.209 -15.721   1.152  1.00  0.00     0.003 C 
ATOM      6  C   UNL     1      -9.257 -16.042   0.061  1.00  0.00     0.003 C 
ATOM      7  C   UNL     1      -8.829 -15.749  -1.395  1.00  0.00     0.034 C 
ATOM      8  C   UNL     1      -8.595 -17.179   0.854  1.00  0.00    -0.029 C 
ATOM      9  C   UNL     1      -7.591 -18.126   0.168  1.00  0.00     0.012 C 
ATOM     10  C   UNL     1      -9.497 -17.829   1.910  1.00  0.00     0.012 C 
ENDROOT
TORSDOF 0
ENDMDL
