MODEL 1
REMARK VINA RESULT:    -2.476      0.000      0.000
REMARK INTER + INTRA:          -3.516
REMARK INTER:                  -3.272
REMARK INTRA:                  -0.244
REMARK UNBOUND:                -0.244
REMARK SMILES C=C[C@H](O)CCCCC
REMARK SMILES IDX 6 1 7 2 8 3 9 4 5 5 3 6 2 7 1 8 4 9
REMARK H PARENT 4 10
REMARK Flexibility Score: inf
ROOT
ATOM      1  C   UNL     1     -36.014  33.670 -10.904  1.00  0.00     0.003 C 
ENDROOT
BRANCH   1   2
ATOM      2  C   UNL     1     -35.275  34.940 -11.349  1.00  0.00    -0.000 C 
BRANCH   2   3
ATOM      3  C   UNL     1     -33.986  34.632 -12.125  1.00  0.00    -0.003 C 
ATOM      4  C   UNL     1     -32.823  35.541 -11.727  1.00  0.00     0.004 C 
ENDBRANCH   2   3
ENDBRANCH   1   2
BRANCH   1   5
ATOM      5  C   UNL     1     -37.275  33.443 -11.751  1.00  0.00     0.036 C 
BRANCH   5   6
ATOM      6  C   UNL     1     -38.552  33.449 -10.885  1.00  0.00     0.136 C 
BRANCH   6   7
ATOM      7  C   UNL     1     -39.019  34.861 -10.612  1.00  0.00    -0.004 C 
ATOM      8  C   UNL     1     -38.835  35.445  -9.424  1.00  0.00     0.007 C 
ENDBRANCH   6   7
BRANCH   6   9
ATOM      9  O   UNL     1     -38.339  32.771  -9.671  1.00  0.00    -0.389 OA
ATOM     10  H   UNL     1     -38.416  31.797  -9.850  1.00  0.00     0.211 HD
ENDBRANCH   6   9
ENDBRANCH   5   6
ENDBRANCH   1   5
TORSDOF 6
ENDMDL
MODEL 2
REMARK VINA RESULT:    -2.470      1.985      3.482
REMARK INTER + INTRA:          -3.508
REMARK INTER:                  -2.902
REMARK INTRA:                  -0.606
REMARK UNBOUND:                -0.244
REMARK SMILES C=C[C@H](O)CCCCC
REMARK SMILES IDX 6 1 7 2 8 3 9 4 5 5 3 6 2 7 1 8 4 9
REMARK H PARENT 4 10
REMARK Flexibility Score: inf
ROOT
ATOM      1  C   UNL     1     -36.104  33.650 -10.481  1.00  0.00     0.003 C 
ENDROOT
BRANCH   1   2
ATOM      2  C   UNL     1     -36.453  32.728 -11.658  1.00  0.00    -0.000 C 
BRANCH   2   3
ATOM      3  C   UNL     1     -37.968  32.578 -11.862  1.00  0.00    -0.003 C 
ATOM      4  C   UNL     1     -38.756  32.695 -10.557  1.00  0.00     0.004 C 
ENDBRANCH   2   3
ENDBRANCH   1   2
BRANCH   1   5
ATOM      5  C   UNL     1     -35.668  35.035 -10.980  1.00  0.00     0.036 C 
BRANCH   5   6
ATOM      6  C   UNL     1     -36.729  36.112 -10.672  1.00  0.00     0.136 C 
BRANCH   6   7
ATOM      7  C   UNL     1     -37.287  35.945  -9.277  1.00  0.00    -0.004 C 
ATOM      8  C   UNL     1     -38.590  36.091  -9.019  1.00  0.00     0.007 C 
ENDBRANCH   6   7
BRANCH   6   9
ATOM      9  O   UNL     1     -37.773  36.072 -11.614  1.00  0.00    -0.389 OA
ATOM     10  H   UNL     1     -37.365  36.107 -12.520  1.00  0.00     0.211 HD
ENDBRANCH   6   9
ENDBRANCH   5   6
ENDBRANCH   1   5
TORSDOF 6
ENDMDL
MODEL 3
REMARK VINA RESULT:    -2.246     19.913     20.927
REMARK INTER + INTRA:          -3.212
REMARK INTER:                  -2.838
REMARK INTRA:                  -0.375
REMARK UNBOUND:                -0.244
REMARK SMILES C=C[C@H](O)CCCCC
REMARK SMILES IDX 6 1 7 2 8 3 9 4 5 5 3 6 2 7 1 8 4 9
REMARK H PARENT 4 10
REMARK Flexibility Score: inf
ROOT
ATOM      1  C   UNL     1     -37.525  23.899   6.890  1.00  0.00     0.003 C 
ENDROOT
BRANCH   1   2
ATOM      2  C   UNL     1     -37.272  22.554   7.587  1.00  0.00    -0.000 C 
BRANCH   2   3
ATOM      3  C   UNL     1     -38.563  21.911   8.115  1.00  0.00    -0.003 C 
ATOM      4  C   UNL     1     -38.555  20.386   8.000  1.00  0.00     0.004 C 
ENDBRANCH   2   3
ENDBRANCH   1   2
BRANCH   1   5
ATOM      5  C   UNL     1     -38.991  24.022   6.450  1.00  0.00     0.036 C 
BRANCH   5   6
ATOM      6  C   UNL     1     -39.125  24.035   4.913  1.00  0.00     0.136 C 
BRANCH   6   7
ATOM      7  C   UNL     1     -38.402  22.860   4.293  1.00  0.00    -0.004 C 
ATOM      8  C   UNL     1     -38.817  21.603   4.478  1.00  0.00     0.007 C 
ENDBRANCH   6   7
BRANCH   6   9
ATOM      9  O   UNL     1     -38.635  25.239   4.376  1.00  0.00    -0.389 OA
ATOM     10  H   UNL     1     -37.662  25.122   4.210  1.00  0.00     0.211 HD
ENDBRANCH   6   9
ENDBRANCH   5   6
ENDBRANCH   1   5
TORSDOF 6
ENDMDL
MODEL 4
REMARK VINA RESULT:    -2.049     19.814     20.711
REMARK INTER + INTRA:          -2.952
REMARK INTER:                  -3.271
REMARK INTRA:                   0.319
REMARK UNBOUND:                -0.244
REMARK SMILES C=C[C@H](O)CCCCC
REMARK SMILES IDX 6 1 7 2 8 3 9 4 5 5 3 6 2 7 1 8 4 9
REMARK H PARENT 4 10
REMARK Flexibility Score: inf
ROOT
ATOM      1  C   UNL     1     -38.149  22.650   5.212  1.00  0.00     0.003 C 
ENDROOT
BRANCH   1   2
ATOM      2  C   UNL     1     -39.095  23.846   5.034  1.00  0.00    -0.000 C 
BRANCH   2   3
ATOM      3  C   UNL     1     -39.027  24.449   3.623  1.00  0.00    -0.003 C 
ATOM      4  C   UNL     1     -39.117  25.975   3.625  1.00  0.00     0.004 C 
ENDBRANCH   2   3
ENDBRANCH   1   2
BRANCH   1   5
ATOM      5  C   UNL     1     -38.713  21.651   6.232  1.00  0.00     0.036 C 
BRANCH   5   6
ATOM      6  C   UNL     1     -38.082  21.844   7.627  1.00  0.00     0.136 C 
BRANCH   6   7
ATOM      7  C   UNL     1     -37.156  23.039   7.645  1.00  0.00    -0.004 C 
ATOM      8  C   UNL     1     -35.862  22.930   7.327  1.00  0.00     0.007 C 
ENDBRANCH   6   7
BRANCH   6   9
ATOM      9  O   UNL     1     -37.386  20.690   8.028  1.00  0.00    -0.389 OA
ATOM     10  H   UNL     1     -37.522  19.996   7.330  1.00  0.00     0.211 HD
ENDBRANCH   6   9
ENDBRANCH   5   6
ENDBRANCH   1   5
TORSDOF 6
ENDMDL
MODEL 5
REMARK VINA RESULT:    -1.081     20.299     21.300
REMARK INTER + INTRA:          -1.672
REMARK INTER:                  -2.008
REMARK INTRA:                   0.335
REMARK UNBOUND:                -0.244
REMARK SMILES C=C[C@H](O)CCCCC
REMARK SMILES IDX 6 1 7 2 8 3 9 4 5 5 3 6 2 7 1 8 4 9
REMARK H PARENT 4 10
REMARK Flexibility Score: inf
ROOT
ATOM      1  C   UNL     1     -38.291  22.502   4.937  1.00  0.00     0.003 C 
ENDROOT
BRANCH   1   2
ATOM      2  C   UNL     1     -38.781  21.137   5.442  1.00  0.00    -0.000 C 
BRANCH   2   3
ATOM      3  C   UNL     1     -39.125  21.151   6.939  1.00  0.00    -0.003 C 
ATOM      4  C   UNL     1     -38.349  20.101   7.734  1.00  0.00     0.004 C 
ENDBRANCH   2   3
ENDBRANCH   1   2
BRANCH   1   5
ATOM      5  C   UNL     1     -39.122  23.642   5.542  1.00  0.00     0.036 C 
BRANCH   5   6
ATOM      6  C   UNL     1     -38.269  24.543   6.460  1.00  0.00     0.136 C 
BRANCH   6   7
ATOM      7  C   UNL     1     -37.490  23.720   7.461  1.00  0.00    -0.004 C 
ATOM      8  C   UNL     1     -36.221  23.361   7.240  1.00  0.00     0.007 C 
ENDBRANCH   6   7
BRANCH   6   9
ATOM      9  O   UNL     1     -39.073  25.481   7.131  1.00  0.00    -0.389 OA
ATOM     10  H   UNL     1     -39.304  25.101   8.020  1.00  0.00     0.211 HD
ENDBRANCH   6   9
ENDBRANCH   5   6
ENDBRANCH   1   5
TORSDOF 6
ENDMDL
