MODEL 1
REMARK VINA RESULT:    -3.622      0.000      0.000
REMARK INTER + INTRA:          -9.978
REMARK INTER:                  -7.010
REMARK INTRA:                  -2.967
REMARK UNBOUND:                -2.967
REMARK SMILES CCCCCCCCCCCCCCCCCC(=O)[O-]
REMARK SMILES IDX 10 1 11 2 12 3 13 4 14 5 15 6 16 7 17 8 18 9 19 10 20 11
REMARK SMILES IDX 9 12 8 13 7 14 6 15 5 16 4 17 3 18 2 19 1 20
REMARK H PARENT
REMARK Flexibility Score: inf
ROOT
ATOM      1  C   UNL     1      10.255 -21.072 -38.852  1.00  0.00     0.000 C 
ENDROOT
BRANCH   1   2
ATOM      2  C   UNL     1      10.358 -19.647 -38.279  1.00  0.00     0.000 C 
BRANCH   2   3
ATOM      3  C   UNL     1      11.472 -19.515 -37.229  1.00  0.00     0.000 C 
BRANCH   3   4
ATOM      4  C   UNL     1      12.349 -20.774 -37.138  1.00  0.00     0.000 C 
BRANCH   4   5
ATOM      5  C   UNL     1      13.838 -20.410 -37.173  1.00  0.00     0.000 C 
BRANCH   5   6
ATOM      6  C   UNL     1      14.682 -21.600 -37.655  1.00  0.00     0.000 C 
BRANCH   6   7
ATOM      7  C   UNL     1      13.840 -22.863 -37.895  1.00  0.00     0.006 C 
BRANCH   7   8
ATOM      8  C   UNL     1      13.808 -23.278 -39.371  1.00  0.00     0.053 C 
BRANCH   8   9
ATOM      9  C   UNL     1      14.463 -24.611 -39.553  1.00  0.00     0.041 C 
ATOM     10  O   UNL     1      15.706 -24.686 -39.736  1.00  0.00    -0.550 OA
ATOM     11  O   UNL     1      13.692 -25.766 -39.576  1.00  0.00    -0.550 OA
ENDBRANCH   8   9
ENDBRANCH   7   8
ENDBRANCH   6   7
ENDBRANCH   5   6
ENDBRANCH   4   5
ENDBRANCH   3   4
ENDBRANCH   2   3
ENDBRANCH   1   2
BRANCH   1  12
ATOM     12  C   UNL     1       8.801 -21.492 -39.125  1.00  0.00     0.000 C 
BRANCH  12  13
ATOM     13  C   UNL     1       7.814 -20.884 -38.114  1.00  0.00    -0.000 C 
BRANCH  13  14
ATOM     14  C   UNL     1       6.931 -21.943 -37.435  1.00  0.00    -0.000 C 
BRANCH  14  15
ATOM     15  C   UNL     1       7.243 -22.100 -35.939  1.00  0.00    -0.000 C 
BRANCH  15  16
ATOM     16  C   UNL     1       8.399 -21.196 -35.468  1.00  0.00    -0.000 C 
BRANCH  16  17
ATOM     17  C   UNL     1       9.634 -21.937 -34.924  1.00  0.00    -0.000 C 
BRANCH  17  18
ATOM     18  C   UNL     1       9.579 -23.455 -35.167  1.00  0.00    -0.000 C 
BRANCH  18  19
ATOM     19  C   UNL     1      10.419 -23.887 -36.380  1.00  0.00    -0.003 C 
ATOM     20  C   UNL     1       9.612 -24.682 -37.407  1.00  0.00     0.004 C 
ENDBRANCH  18  19
ENDBRANCH  17  18
ENDBRANCH  16  17
ENDBRANCH  15  16
ENDBRANCH  14  15
ENDBRANCH  13  14
ENDBRANCH  12  13
ENDBRANCH   1  12
TORSDOF 16
ENDMDL
MODEL 2
REMARK VINA RESULT:    -3.596      5.520      8.347
REMARK INTER + INTRA:          -9.927
REMARK INTER:                  -7.749
REMARK INTRA:                  -2.178
REMARK UNBOUND:                -2.967
REMARK SMILES CCCCCCCCCCCCCCCCCC(=O)[O-]
REMARK SMILES IDX 10 1 11 2 12 3 13 4 14 5 15 6 16 7 17 8 18 9 19 10 20 11
REMARK SMILES IDX 9 12 8 13 7 14 6 15 5 16 4 17 3 18 2 19 1 20
REMARK H PARENT
REMARK Flexibility Score: inf
ROOT
ATOM      1  C   UNL     1       7.226 -22.286 -35.962  1.00  0.00     0.000 C 
ENDROOT
BRANCH   1   2
ATOM      2  C   UNL     1       6.999 -21.602 -37.323  1.00  0.00     0.000 C 
BRANCH   2   3
ATOM      3  C   UNL     1       5.993 -20.442 -37.237  1.00  0.00     0.000 C 
BRANCH   3   4
ATOM      4  C   UNL     1       6.682 -19.071 -37.148  1.00  0.00     0.000 C 
BRANCH   4   5
ATOM      5  C   UNL     1       6.144 -18.262 -35.962  1.00  0.00     0.000 C 
BRANCH   5   6
ATOM      6  C   UNL     1       4.736 -17.724 -36.258  1.00  0.00     0.000 C 
BRANCH   6   7
ATOM      7  C   UNL     1       4.369 -16.517 -35.381  1.00  0.00     0.006 C 
BRANCH   7   8
ATOM      8  C   UNL     1       5.469 -16.164 -34.373  1.00  0.00     0.053 C 
BRANCH   8   9
ATOM      9  C   UNL     1       4.985 -16.379 -32.973  1.00  0.00     0.041 C 
ATOM     10  O   UNL     1       5.023 -17.528 -32.460  1.00  0.00    -0.550 OA
ATOM     11  O   UNL     1       4.440 -15.322 -32.256  1.00  0.00    -0.550 OA
ENDBRANCH   8   9
ENDBRANCH   7   8
ENDBRANCH   6   7
ENDBRANCH   5   6
ENDBRANCH   4   5
ENDBRANCH   3   4
ENDBRANCH   2   3
ENDBRANCH   1   2
BRANCH   1  12
ATOM     12  C   UNL     1       8.297 -21.575 -35.119  1.00  0.00     0.000 C 
BRANCH  12  13
ATOM     13  C   UNL     1       9.513 -22.474 -34.833  1.00  0.00    -0.000 C 
BRANCH  13  14
ATOM     14  C   UNL     1       9.423 -23.836 -35.540  1.00  0.00    -0.000 C 
BRANCH  14  15
ATOM     15  C   UNL     1      10.505 -24.012 -36.617  1.00  0.00    -0.000 C 
BRANCH  15  16
ATOM     16  C   UNL     1      11.063 -22.673 -37.134  1.00  0.00    -0.000 C 
BRANCH  16  17
ATOM     17  C   UNL     1      10.720 -22.337 -38.597  1.00  0.00    -0.000 C 
BRANCH  17  18
ATOM     18  C   UNL     1      10.155 -20.916 -38.769  1.00  0.00    -0.000 C 
BRANCH  18  19
ATOM     19  C   UNL     1      10.440 -20.019 -37.554  1.00  0.00    -0.003 C 
ATOM     20  C   UNL     1      10.470 -18.532 -37.909  1.00  0.00     0.004 C 
ENDBRANCH  18  19
ENDBRANCH  17  18
ENDBRANCH  16  17
ENDBRANCH  15  16
ENDBRANCH  14  15
ENDBRANCH  13  14
ENDBRANCH  12  13
ENDBRANCH   1  12
TORSDOF 16
ENDMDL
MODEL 3
REMARK VINA RESULT:    -3.585      1.110      3.061
REMARK INTER + INTRA:          -9.907
REMARK INTER:                  -6.931
REMARK INTRA:                  -2.976
REMARK UNBOUND:                -2.967
REMARK SMILES CCCCCCCCCCCCCCCCCC(=O)[O-]
REMARK SMILES IDX 10 1 11 2 12 3 13 4 14 5 15 6 16 7 17 8 18 9 19 10 20 11
REMARK SMILES IDX 9 12 8 13 7 14 6 15 5 16 4 17 3 18 2 19 1 20
REMARK H PARENT
REMARK Flexibility Score: inf
ROOT
ATOM      1  C   UNL     1       9.146 -23.411 -38.455  1.00  0.00     0.000 C 
ENDROOT
BRANCH   1   2
ATOM      2  C   UNL     1      10.541 -22.787 -38.642  1.00  0.00     0.000 C 
BRANCH   2   3
ATOM      3  C   UNL     1      10.476 -21.355 -39.197  1.00  0.00     0.000 C 
BRANCH   3   4
ATOM      4  C   UNL     1      11.023 -20.314 -38.207  1.00  0.00     0.000 C 
BRANCH   4   5
ATOM      5  C   UNL     1      12.111 -20.924 -37.315  1.00  0.00     0.000 C 
BRANCH   5   6
ATOM      6  C   UNL     1      13.511 -20.581 -37.845  1.00  0.00     0.000 C 
BRANCH   6   7
ATOM      7  C   UNL     1      14.551 -21.662 -37.512  1.00  0.00     0.006 C 
BRANCH   7   8
ATOM      8  C   UNL     1      14.142 -23.050 -38.021  1.00  0.00     0.053 C 
BRANCH   8   9
ATOM      9  C   UNL     1      15.041 -23.483 -39.136  1.00  0.00     0.041 C 
ATOM     10  O   UNL     1      15.314 -24.702 -39.291  1.00  0.00    -0.550 OA
ATOM     11  O   UNL     1      15.620 -22.535 -39.970  1.00  0.00    -0.550 OA
ENDBRANCH   8   9
ENDBRANCH   7   8
ENDBRANCH   6   7
ENDBRANCH   5   6
ENDBRANCH   4   5
ENDBRANCH   3   4
ENDBRANCH   2   3
ENDBRANCH   1   2
BRANCH   1  12
ATOM     12  C   UNL     1       8.989 -24.103 -37.092  1.00  0.00     0.000 C 
BRANCH  12  13
ATOM     13  C   UNL     1      10.170 -23.817 -36.148  1.00  0.00    -0.000 C 
BRANCH  13  14
ATOM     14  C   UNL     1       9.718 -23.299 -34.773  1.00  0.00    -0.000 C 
BRANCH  14  15
ATOM     15  C   UNL     1       8.496 -22.372 -34.866  1.00  0.00    -0.000 C 
BRANCH  15  16
ATOM     16  C   UNL     1       8.860 -20.937 -35.291  1.00  0.00    -0.000 C 
BRANCH  16  17
ATOM     17  C   UNL     1       7.808 -20.221 -36.159  1.00  0.00    -0.000 C 
BRANCH  17  18
ATOM     18  C   UNL     1       6.721 -21.171 -36.691  1.00  0.00    -0.000 C 
BRANCH  18  19
ATOM     19  C   UNL     1       6.345 -20.874 -38.152  1.00  0.00    -0.003 C 
ATOM     20  C   UNL     1       7.199 -19.770 -38.773  1.00  0.00     0.004 C 
ENDBRANCH  18  19
ENDBRANCH  17  18
ENDBRANCH  16  17
ENDBRANCH  15  16
ENDBRANCH  14  15
ENDBRANCH  13  14
ENDBRANCH  12  13
ENDBRANCH   1  12
TORSDOF 16
ENDMDL
MODEL 4
REMARK VINA RESULT:    -3.570      5.613      8.508
REMARK INTER + INTRA:          -9.876
REMARK INTER:                  -7.783
REMARK INTRA:                  -2.094
REMARK UNBOUND:                -2.967
REMARK SMILES CCCCCCCCCCCCCCCCCC(=O)[O-]
REMARK SMILES IDX 10 1 11 2 12 3 13 4 14 5 15 6 16 7 17 8 18 9 19 10 20 11
REMARK SMILES IDX 9 12 8 13 7 14 6 15 5 16 4 17 3 18 2 19 1 20
REMARK H PARENT
REMARK Flexibility Score: inf
ROOT
ATOM      1  C   UNL     1       8.240 -23.172 -36.950  1.00  0.00     0.000 C 
ENDROOT
BRANCH   1   2
ATOM      2  C   UNL     1       7.133 -22.405 -37.695  1.00  0.00     0.000 C 
BRANCH   2   3
ATOM      3  C   UNL     1       6.328 -21.483 -36.765  1.00  0.00     0.000 C 
BRANCH   3   4
ATOM      4  C   UNL     1       6.401 -20.008 -37.190  1.00  0.00     0.000 C 
BRANCH   4   5
ATOM      5  C   UNL     1       6.444 -19.085 -35.966  1.00  0.00     0.000 C 
BRANCH   5   6
ATOM      6  C   UNL     1       6.158 -17.629 -36.366  1.00  0.00     0.000 C 
BRANCH   6   7
ATOM      7  C   UNL     1       5.019 -17.004 -35.547  1.00  0.00     0.006 C 
BRANCH   7   8
ATOM      8  C   UNL     1       5.185 -17.227 -34.039  1.00  0.00     0.053 C 
BRANCH   8   9
ATOM      9  C   UNL     1       5.114 -15.925 -33.306  1.00  0.00     0.041 C 
ATOM     10  O   UNL     1       5.561 -14.874 -33.838  1.00  0.00    -0.550 OA
ATOM     11  O   UNL     1       4.604 -15.881 -32.016  1.00  0.00    -0.550 OA
ENDBRANCH   8   9
ENDBRANCH   7   8
ENDBRANCH   6   7
ENDBRANCH   5   6
ENDBRANCH   4   5
ENDBRANCH   3   4
ENDBRANCH   2   3
ENDBRANCH   1   2
BRANCH   1  12
ATOM     12  C   UNL     1       8.268 -22.852 -35.446  1.00  0.00     0.000 C 
BRANCH  12  13
ATOM     13  C   UNL     1       9.614 -22.259 -34.997  1.00  0.00    -0.000 C 
BRANCH  13  14
ATOM     14  C   UNL     1       9.714 -20.748 -35.261  1.00  0.00    -0.000 C 
BRANCH  14  15
ATOM     15  C   UNL     1      10.687 -20.413 -36.403  1.00  0.00    -0.000 C 
BRANCH  15  16
ATOM     16  C   UNL     1       9.987 -19.790 -37.626  1.00  0.00    -0.000 C 
BRANCH  16  17
ATOM     17  C   UNL     1      10.620 -18.489 -38.155  1.00  0.00    -0.000 C 
BRANCH  17  18
ATOM     18  C   UNL     1       9.820 -17.860 -39.309  1.00  0.00    -0.000 C 
BRANCH  18  19
ATOM     19  C   UNL     1       8.532 -17.173 -38.825  1.00  0.00    -0.003 C 
ATOM     20  C   UNL     1       7.782 -16.460 -39.949  1.00  0.00     0.004 C 
ENDBRANCH  18  19
ENDBRANCH  17  18
ENDBRANCH  16  17
ENDBRANCH  15  16
ENDBRANCH  14  15
ENDBRANCH  13  14
ENDBRANCH  12  13
ENDBRANCH   1  12
TORSDOF 16
ENDMDL
MODEL 5
REMARK VINA RESULT:    -3.557      3.166      6.392
REMARK INTER + INTRA:          -9.852
REMARK INTER:                  -6.605
REMARK INTRA:                  -3.247
REMARK UNBOUND:                -2.967
REMARK SMILES CCCCCCCCCCCCCCCCCC(=O)[O-]
REMARK SMILES IDX 10 1 11 2 12 3 13 4 14 5 15 6 16 7 17 8 18 9 19 10 20 11
REMARK SMILES IDX 9 12 8 13 7 14 6 15 5 16 4 17 3 18 2 19 1 20
REMARK H PARENT
REMARK Flexibility Score: inf
ROOT
ATOM      1  C   UNL     1      11.213 -20.794 -37.496  1.00  0.00     0.000 C 
ENDROOT
BRANCH   1   2
ATOM      2  C   UNL     1      10.337 -21.486 -38.556  1.00  0.00     0.000 C 
BRANCH   2   3
ATOM      3  C   UNL     1      10.312 -23.014 -38.392  1.00  0.00     0.000 C 
BRANCH   3   4
ATOM      4  C   UNL     1      10.881 -23.471 -37.039  1.00  0.00     0.000 C 
BRANCH   4   5
ATOM      5  C   UNL     1       9.759 -23.927 -36.098  1.00  0.00     0.000 C 
BRANCH   5   6
ATOM      6  C   UNL     1       9.717 -23.058 -34.832  1.00  0.00     0.000 C 
BRANCH   6   7
ATOM      7  C   UNL     1       8.612 -21.992 -34.884  1.00  0.00     0.006 C 
BRANCH   7   8
ATOM      8  C   UNL     1       7.552 -22.293 -35.950  1.00  0.00     0.053 C 
BRANCH   8   9
ATOM      9  C   UNL     1       7.055 -21.024 -36.567  1.00  0.00     0.041 C 
ATOM     10  O   UNL     1       7.766 -19.985 -36.537  1.00  0.00    -0.550 OA
ATOM     11  O   UNL     1       5.785 -20.974 -37.127  1.00  0.00    -0.550 OA
ENDBRANCH   8   9
ENDBRANCH   7   8
ENDBRANCH   6   7
ENDBRANCH   5   6
ENDBRANCH   4   5
ENDBRANCH   3   4
ENDBRANCH   2   3
ENDBRANCH   1   2
BRANCH   1  12
ATOM     12  C   UNL     1      11.879 -19.515 -38.028  1.00  0.00     0.000 C 
BRANCH  12  13
ATOM     13  C   UNL     1      13.416 -19.590 -37.985  1.00  0.00    -0.000 C 
BRANCH  13  14
ATOM     14  C   UNL     1      13.929 -20.745 -37.110  1.00  0.00    -0.000 C 
BRANCH  14  15
ATOM     15  C   UNL     1      14.955 -21.627 -37.841  1.00  0.00    -0.000 C 
BRANCH  15  16
ATOM     16  C   UNL     1      14.561 -23.116 -37.863  1.00  0.00    -0.000 C 
BRANCH  16  17
ATOM     17  C   UNL     1      13.965 -23.619 -39.192  1.00  0.00    -0.000 C 
BRANCH  17  18
ATOM     18  C   UNL     1      14.171 -22.631 -40.353  1.00  0.00    -0.000 C 
BRANCH  18  19
ATOM     19  C   UNL     1      12.859 -22.301 -41.083  1.00  0.00    -0.003 C 
ATOM     20  C   UNL     1      12.738 -20.821 -41.447  1.00  0.00     0.004 C 
ENDBRANCH  18  19
ENDBRANCH  17  18
ENDBRANCH  16  17
ENDBRANCH  15  16
ENDBRANCH  14  15
ENDBRANCH  13  14
ENDBRANCH  12  13
ENDBRANCH   1  12
TORSDOF 16
ENDMDL
MODEL 6
REMARK VINA RESULT:    -3.529      2.862      4.894
REMARK INTER + INTRA:          -9.798
REMARK INTER:                  -7.740
REMARK INTRA:                  -2.058
REMARK UNBOUND:                -2.967
REMARK SMILES CCCCCCCCCCCCCCCCCC(=O)[O-]
REMARK SMILES IDX 10 1 11 2 12 3 13 4 14 5 15 6 16 7 17 8 18 9 19 10 20 11
REMARK SMILES IDX 9 12 8 13 7 14 6 15 5 16 4 17 3 18 2 19 1 20
REMARK H PARENT
REMARK Flexibility Score: inf
ROOT
ATOM      1  C   UNL     1       9.339 -23.269 -35.028  1.00  0.00     0.000 C 
ENDROOT
BRANCH   1   2
ATOM      2  C   UNL     1       9.640 -23.903 -36.398  1.00  0.00     0.000 C 
BRANCH   2   3
ATOM      3  C   UNL     1      10.782 -23.188 -37.138  1.00  0.00     0.000 C 
BRANCH   3   4
ATOM      4  C   UNL     1      10.282 -22.352 -38.327  1.00  0.00     0.000 C 
BRANCH   4   5
ATOM      5  C   UNL     1      10.494 -20.855 -38.074  1.00  0.00     0.000 C 
BRANCH   5   6
ATOM      6  C   UNL     1      11.357 -20.626 -36.824  1.00  0.00     0.000 C 
BRANCH   6   7
ATOM      7  C   UNL     1      12.625 -19.812 -37.123  1.00  0.00     0.006 C 
BRANCH   7   8
ATOM      8  C   UNL     1      13.400 -20.350 -38.332  1.00  0.00     0.053 C 
BRANCH   8   9
ATOM      9  C   UNL     1      14.105 -21.621 -37.978  1.00  0.00     0.041 C 
ATOM     10  O   UNL     1      14.952 -21.637 -37.046  1.00  0.00    -0.550 OA
ATOM     11  O   UNL     1      13.868 -22.775 -38.713  1.00  0.00    -0.550 OA
ENDBRANCH   8   9
ENDBRANCH   7   8
ENDBRANCH   6   7
ENDBRANCH   5   6
ENDBRANCH   4   5
ENDBRANCH   3   4
ENDBRANCH   2   3
ENDBRANCH   1   2
BRANCH   1  12
ATOM     12  C   UNL     1       8.288 -22.151 -35.115  1.00  0.00     0.000 C 
BRANCH  12  13
ATOM     13  C   UNL     1       7.279 -22.380 -36.254  1.00  0.00    -0.000 C 
BRANCH  13  14
ATOM     14  C   UNL     1       6.546 -21.093 -36.666  1.00  0.00    -0.000 C 
BRANCH  14  15
ATOM     15  C   UNL     1       7.300 -19.824 -36.237  1.00  0.00    -0.000 C 
BRANCH  15  16
ATOM     16  C   UNL     1       6.934 -18.592 -37.086  1.00  0.00    -0.000 C 
BRANCH  16  17
ATOM     17  C   UNL     1       5.769 -17.742 -36.545  1.00  0.00    -0.000 C 
BRANCH  17  18
ATOM     18  C   UNL     1       5.826 -17.547 -35.020  1.00  0.00    -0.000 C 
BRANCH  18  19
ATOM     19  C   UNL     1       4.710 -16.624 -34.504  1.00  0.00    -0.003 C 
ATOM     20  C   UNL     1       5.138 -15.798 -33.291  1.00  0.00     0.004 C 
ENDBRANCH  18  19
ENDBRANCH  17  18
ENDBRANCH  16  17
ENDBRANCH  15  16
ENDBRANCH  14  15
ENDBRANCH  13  14
ENDBRANCH  12  13
ENDBRANCH   1  12
TORSDOF 16
ENDMDL
MODEL 7
REMARK VINA RESULT:    -3.466      1.954      4.121
REMARK INTER + INTRA:          -9.675
REMARK INTER:                  -7.018
REMARK INTRA:                  -2.657
REMARK UNBOUND:                -2.967
REMARK SMILES CCCCCCCCCCCCCCCCCC(=O)[O-]
REMARK SMILES IDX 10 1 11 2 12 3 13 4 14 5 15 6 16 7 17 8 18 9 19 10 20 11
REMARK SMILES IDX 9 12 8 13 7 14 6 15 5 16 4 17 3 18 2 19 1 20
REMARK H PARENT
REMARK Flexibility Score: inf
ROOT
ATOM      1  C   UNL     1      10.057 -24.227 -36.668  1.00  0.00     0.000 C 
ENDROOT
BRANCH   1   2
ATOM      2  C   UNL     1      10.943 -23.068 -37.158  1.00  0.00     0.000 C 
BRANCH   2   3
ATOM      3  C   UNL     1      10.471 -22.495 -38.505  1.00  0.00     0.000 C 
BRANCH   3   4
ATOM      4  C   UNL     1      10.257 -20.974 -38.455  1.00  0.00     0.000 C 
BRANCH   4   5
ATOM      5  C   UNL     1      11.005 -20.352 -37.270  1.00  0.00     0.000 C 
BRANCH   5   6
ATOM      6  C   UNL     1      12.191 -19.504 -37.753  1.00  0.00     0.000 C 
BRANCH   6   7
ATOM      7  C   UNL     1      13.508 -19.878 -37.055  1.00  0.00     0.006 C 
BRANCH   7   8
ATOM      8  C   UNL     1      14.090 -21.203 -37.564  1.00  0.00     0.053 C 
BRANCH   8   9
ATOM      9  C   UNL     1      14.234 -21.173 -39.053  1.00  0.00     0.041 C 
ATOM     10  O   UNL     1      13.694 -22.064 -39.760  1.00  0.00    -0.550 OA
ATOM     11  O   UNL     1      15.009 -20.191 -39.657  1.00  0.00    -0.550 OA
ENDBRANCH   8   9
ENDBRANCH   7   8
ENDBRANCH   6   7
ENDBRANCH   5   6
ENDBRANCH   4   5
ENDBRANCH   3   4
ENDBRANCH   2   3
ENDBRANCH   1   2
BRANCH   1  12
ATOM     12  C   UNL     1       9.373 -23.918 -35.327  1.00  0.00     0.000 C 
BRANCH  12  13
ATOM     13  C   UNL     1       9.658 -22.487 -34.837  1.00  0.00    -0.000 C 
BRANCH  13  14
ATOM     14  C   UNL     1       8.418 -21.580 -34.899  1.00  0.00    -0.000 C 
BRANCH  14  15
ATOM     15  C   UNL     1       7.385 -22.064 -35.929  1.00  0.00    -0.000 C 
BRANCH  15  16
ATOM     16  C   UNL     1       6.880 -20.937 -36.849  1.00  0.00    -0.000 C 
BRANCH  16  17
ATOM     17  C   UNL     1       6.918 -19.523 -36.240  1.00  0.00    -0.000 C 
BRANCH  17  18
ATOM     18  C   UNL     1       6.518 -18.427 -37.243  1.00  0.00    -0.000 C 
BRANCH  18  19
ATOM     19  C   UNL     1       7.728 -17.628 -37.754  1.00  0.00    -0.003 C 
ATOM     20  C   UNL     1       8.154 -18.032 -39.165  1.00  0.00     0.004 C 
ENDBRANCH  18  19
ENDBRANCH  17  18
ENDBRANCH  16  17
ENDBRANCH  15  16
ENDBRANCH  14  15
ENDBRANCH  13  14
ENDBRANCH  12  13
ENDBRANCH   1  12
TORSDOF 16
ENDMDL
MODEL 8
REMARK VINA RESULT:    -3.438      3.722      6.385
REMARK INTER + INTRA:          -9.621
REMARK INTER:                  -6.259
REMARK INTRA:                  -3.362
REMARK UNBOUND:                -2.967
REMARK SMILES CCCCCCCCCCCCCCCCCC(=O)[O-]
REMARK SMILES IDX 10 1 11 2 12 3 13 4 14 5 15 6 16 7 17 8 18 9 19 10 20 11
REMARK SMILES IDX 9 12 8 13 7 14 6 15 5 16 4 17 3 18 2 19 1 20
REMARK H PARENT
REMARK Flexibility Score: inf
ROOT
ATOM      1  C   UNL     1      10.845 -22.777 -38.717  1.00  0.00     0.000 C 
ENDROOT
BRANCH   1   2
ATOM      2  C   UNL     1      11.095 -23.307 -37.294  1.00  0.00     0.000 C 
BRANCH   2   3
ATOM      3  C   UNL     1       9.801 -23.416 -36.472  1.00  0.00     0.000 C 
BRANCH   3   4
ATOM      4  C   UNL     1       9.851 -22.585 -35.180  1.00  0.00     0.000 C 
BRANCH   4   5
ATOM      5  C   UNL     1       8.732 -21.536 -35.158  1.00  0.00     0.000 C 
BRANCH   5   6
ATOM      6  C   UNL     1       7.470 -22.065 -35.857  1.00  0.00     0.000 C 
BRANCH   6   7
ATOM      7  C   UNL     1       6.724 -20.970 -36.636  1.00  0.00     0.006 C 
BRANCH   7   8
ATOM      8  C   UNL     1       6.981 -19.567 -36.073  1.00  0.00     0.053 C 
BRANCH   8   9
ATOM      9  C   UNL     1       6.378 -18.527 -36.964  1.00  0.00     0.041 C 
ATOM     10  O   UNL     1       5.267 -18.011 -36.672  1.00  0.00    -0.550 OA
ATOM     11  O   UNL     1       7.015 -18.170 -38.145  1.00  0.00    -0.550 OA
ENDBRANCH   8   9
ENDBRANCH   7   8
ENDBRANCH   6   7
ENDBRANCH   5   6
ENDBRANCH   4   5
ENDBRANCH   3   4
ENDBRANCH   2   3
ENDBRANCH   1   2
BRANCH   1  12
ATOM     12  C   UNL     1       9.362 -22.471 -38.979  1.00  0.00     0.000 C 
BRANCH  12  13
ATOM     13  C   UNL     1       9.095 -20.965 -39.155  1.00  0.00    -0.000 C 
BRANCH  13  14
ATOM     14  C   UNL     1      10.365 -20.114 -38.993  1.00  0.00    -0.000 C 
BRANCH  14  15
ATOM     15  C   UNL     1      10.360 -19.291 -37.695  1.00  0.00    -0.000 C 
BRANCH  15  16
ATOM     16  C   UNL     1      11.566 -19.593 -36.787  1.00  0.00    -0.000 C 
BRANCH  16  17
ATOM     17  C   UNL     1      12.940 -19.559 -37.482  1.00  0.00    -0.000 C 
BRANCH  17  18
ATOM     18  C   UNL     1      13.767 -20.832 -37.239  1.00  0.00    -0.000 C 
BRANCH  18  19
ATOM     19  C   UNL     1      14.617 -21.224 -38.460  1.00  0.00    -0.003 C 
ATOM     20  C   UNL     1      13.891 -20.995 -39.785  1.00  0.00     0.004 C 
ENDBRANCH  18  19
ENDBRANCH  17  18
ENDBRANCH  16  17
ENDBRANCH  15  16
ENDBRANCH  14  15
ENDBRANCH  13  14
ENDBRANCH  12  13
ENDBRANCH   1  12
TORSDOF 16
ENDMDL
MODEL 9
REMARK VINA RESULT:    -3.411      1.364      2.690
REMARK INTER + INTRA:          -9.569
REMARK INTER:                  -6.553
REMARK INTRA:                  -3.016
REMARK UNBOUND:                -2.967
REMARK SMILES CCCCCCCCCCCCCCCCCC(=O)[O-]
REMARK SMILES IDX 10 1 11 2 12 3 13 4 14 5 15 6 16 7 17 8 18 9 19 10 20 11
REMARK SMILES IDX 9 12 8 13 7 14 6 15 5 16 4 17 3 18 2 19 1 20
REMARK H PARENT
REMARK Flexibility Score: inf
ROOT
ATOM      1  C   UNL     1       9.561 -20.464 -39.648  1.00  0.00     0.000 C 
ENDROOT
BRANCH   1   2
ATOM      2  C   UNL     1       8.804 -19.313 -38.962  1.00  0.00     0.000 C 
BRANCH   2   3
ATOM      3  C   UNL     1       9.618 -18.667 -37.829  1.00  0.00     0.000 C 
BRANCH   3   4
ATOM      4  C   UNL     1      11.133 -18.834 -38.023  1.00  0.00     0.000 C 
BRANCH   4   5
ATOM      5  C   UNL     1      11.769 -19.531 -36.813  1.00  0.00     0.000 C 
BRANCH   5   6
ATOM      6  C   UNL     1      13.231 -19.904 -37.101  1.00  0.00     0.000 C 
BRANCH   6   7
ATOM      7  C   UNL     1      13.387 -21.357 -37.578  1.00  0.00     0.006 C 
BRANCH   7   8
ATOM      8  C   UNL     1      13.797 -21.452 -39.053  1.00  0.00     0.053 C 
BRANCH   8   9
ATOM      9  C   UNL     1      15.133 -22.113 -39.182  1.00  0.00     0.041 C 
ATOM     10  O   UNL     1      16.187 -21.428 -39.114  1.00  0.00    -0.550 OA
ATOM     11  O   UNL     1      15.213 -23.477 -39.431  1.00  0.00    -0.550 OA
ENDBRANCH   8   9
ENDBRANCH   7   8
ENDBRANCH   6   7
ENDBRANCH   5   6
ENDBRANCH   4   5
ENDBRANCH   3   4
ENDBRANCH   2   3
ENDBRANCH   1   2
BRANCH   1  12
ATOM     12  C   UNL     1       9.082 -21.846 -39.178  1.00  0.00     0.000 C 
BRANCH  12  13
ATOM     13  C   UNL     1      10.240 -22.738 -38.697  1.00  0.00    -0.000 C 
BRANCH  13  14
ATOM     14  C   UNL     1       9.798 -23.771 -37.648  1.00  0.00    -0.000 C 
BRANCH  14  15
ATOM     15  C   UNL     1      10.336 -23.452 -36.244  1.00  0.00    -0.000 C 
BRANCH  15  16
ATOM     16  C   UNL     1       9.248 -22.927 -35.288  1.00  0.00    -0.000 C 
BRANCH  16  17
ATOM     17  C   UNL     1       9.086 -21.396 -35.253  1.00  0.00    -0.000 C 
BRANCH  17  18
ATOM     18  C   UNL     1       7.699 -20.929 -35.727  1.00  0.00    -0.000 C 
BRANCH  18  19
ATOM     19  C   UNL     1       6.854 -22.079 -36.297  1.00  0.00    -0.003 C 
ATOM     20  C   UNL     1       5.804 -21.604 -37.301  1.00  0.00     0.004 C 
ENDBRANCH  18  19
ENDBRANCH  17  18
ENDBRANCH  16  17
ENDBRANCH  15  16
ENDBRANCH  14  15
ENDBRANCH  13  14
ENDBRANCH  12  13
ENDBRANCH   1  12
TORSDOF 16
ENDMDL
