MODEL 1
REMARK VINA RESULT:    -4.057      0.000      0.000
REMARK INTER + INTRA:          -5.626
REMARK INTER:                  -5.361
REMARK INTRA:                  -0.265
REMARK UNBOUND:                -0.265
REMARK SMILES C=C[C@H](O)CCCCC
REMARK SMILES IDX 6 1 7 2 8 3 9 4 5 5 3 6 2 7 1 8 4 9
REMARK H PARENT 4 10
REMARK Flexibility Score: inf
ROOT
ATOM      1  C   UNL     1      -4.859  23.132  48.698  1.00  0.00     0.003 C 
ENDROOT
BRANCH   1   2
ATOM      2  C   UNL     1      -5.409  22.081  47.727  1.00  0.00    -0.000 C 
BRANCH   2   3
ATOM      3  C   UNL     1      -4.623  20.769  47.831  1.00  0.00    -0.003 C 
ATOM      4  C   UNL     1      -3.427  20.916  48.767  1.00  0.00     0.004 C 
ENDBRANCH   2   3
ENDBRANCH   1   2
BRANCH   1   5
ATOM      5  C   UNL     1      -5.808  24.339  48.797  1.00  0.00     0.036 C 
BRANCH   5   6
ATOM      6  C   UNL     1      -5.658  25.144  50.105  1.00  0.00     0.136 C 
BRANCH   6   7
ATOM      7  C   UNL     1      -5.074  24.316  51.230  1.00  0.00    -0.004 C 
ATOM      8  C   UNL     1      -4.175  24.833  52.074  1.00  0.00     0.007 C 
ENDBRANCH   6   7
BRANCH   6   9
ATOM      9  O   UNL     1      -6.877  25.740  50.476  1.00  0.00    -0.389 OA
ATOM     10  H   UNL     1      -6.991  26.568  49.942  1.00  0.00     0.211 HD
ENDBRANCH   6   9
ENDBRANCH   5   6
ENDBRANCH   1   5
TORSDOF 6
ENDMDL
MODEL 2
REMARK VINA RESULT:    -4.047      3.760      6.243
REMARK INTER + INTRA:          -5.613
REMARK INTER:                  -5.329
REMARK INTRA:                  -0.285
REMARK UNBOUND:                -0.265
REMARK SMILES C=C[C@H](O)CCCCC
REMARK SMILES IDX 6 1 7 2 8 3 9 4 5 5 3 6 2 7 1 8 4 9
REMARK H PARENT 4 10
REMARK Flexibility Score: inf
ROOT
ATOM      1  C   UNL     1      -4.341  20.082  48.012  1.00  0.00     0.003 C 
ENDROOT
BRANCH   1   2
ATOM      2  C   UNL     1      -3.633  21.159  48.843  1.00  0.00    -0.000 C 
BRANCH   2   3
ATOM      3  C   UNL     1      -4.410  22.480  48.809  1.00  0.00    -0.003 C 
ATOM      4  C   UNL     1      -5.531  22.434  47.776  1.00  0.00     0.004 C 
ENDBRANCH   2   3
ENDBRANCH   1   2
BRANCH   1   5
ATOM      5  C   UNL     1      -4.329  18.728  48.742  1.00  0.00     0.036 C 
BRANCH   5   6
ATOM      6  C   UNL     1      -2.913  18.215  49.081  1.00  0.00     0.136 C 
BRANCH   6   7
ATOM      7  C   UNL     1      -2.447  17.132  48.131  1.00  0.00    -0.004 C 
ATOM      8  C   UNL     1      -1.770  17.434  47.019  1.00  0.00     0.007 C 
ENDBRANCH   6   7
BRANCH   6   9
ATOM      9  O   UNL     1      -2.832  17.800  50.423  1.00  0.00    -0.389 OA
ATOM     10  H   UNL     1      -2.979  16.819  50.452  1.00  0.00     0.211 HD
ENDBRANCH   6   9
ENDBRANCH   5   6
ENDBRANCH   1   5
TORSDOF 6
ENDMDL
MODEL 3
REMARK VINA RESULT:    -4.020      4.458      6.943
REMARK INTER + INTRA:          -5.578
REMARK INTER:                  -5.272
REMARK INTRA:                  -0.306
REMARK UNBOUND:                -0.265
REMARK SMILES C=C[C@H](O)CCCCC
REMARK SMILES IDX 6 1 7 2 8 3 9 4 5 5 3 6 2 7 1 8 4 9
REMARK H PARENT 4 10
REMARK Flexibility Score: inf
ROOT
ATOM      1  C   UNL     1      -4.281  19.083  48.489  1.00  0.00     0.003 C 
ENDROOT
BRANCH   1   2
ATOM      2  C   UNL     1      -3.693  20.498  48.522  1.00  0.00    -0.000 C 
BRANCH   2   3
ATOM      3  C   UNL     1      -4.229  21.344  47.361  1.00  0.00    -0.003 C 
ATOM      4  C   UNL     1      -5.435  22.172  47.793  1.00  0.00     0.004 C 
ENDBRANCH   2   3
ENDBRANCH   1   2
BRANCH   1   5
ATOM      5  C   UNL     1      -3.167  18.028  48.367  1.00  0.00     0.036 C 
BRANCH   5   6
ATOM      6  C   UNL     1      -2.169  18.306  47.223  1.00  0.00     0.136 C 
BRANCH   6   7
ATOM      7  C   UNL     1      -2.809  18.192  45.856  1.00  0.00    -0.004 C 
ATOM      8  C   UNL     1      -3.321  17.034  45.427  1.00  0.00     0.007 C 
ENDBRANCH   6   7
BRANCH   6   9
ATOM      9  O   UNL     1      -1.031  17.486  47.334  1.00  0.00    -0.389 OA
ATOM     10  H   UNL     1      -0.931  17.223  48.286  1.00  0.00     0.211 HD
ENDBRANCH   6   9
ENDBRANCH   5   6
ENDBRANCH   1   5
TORSDOF 6
ENDMDL
MODEL 4
REMARK VINA RESULT:    -3.958      3.189      4.690
REMARK INTER + INTRA:          -5.496
REMARK INTER:                  -5.239
REMARK INTRA:                  -0.257
REMARK UNBOUND:                -0.265
REMARK SMILES C=C[C@H](O)CCCCC
REMARK SMILES IDX 6 1 7 2 8 3 9 4 5 5 3 6 2 7 1 8 4 9
REMARK H PARENT 4 10
REMARK Flexibility Score: inf
ROOT
ATOM      1  C   UNL     1      -4.289  19.096  48.313  1.00  0.00     0.003 C 
ENDROOT
BRANCH   1   2
ATOM      2  C   UNL     1      -3.328  17.991  48.765  1.00  0.00    -0.000 C 
BRANCH   2   3
ATOM      3  C   UNL     1      -2.389  17.577  47.625  1.00  0.00    -0.003 C 
ATOM      4  C   UNL     1      -3.126  17.543  46.290  1.00  0.00     0.004 C 
ENDBRANCH   2   3
ENDBRANCH   1   2
BRANCH   1   5
ATOM      5  C   UNL     1      -3.699  20.489  48.600  1.00  0.00     0.036 C 
BRANCH   5   6
ATOM      6  C   UNL     1      -4.047  21.545  47.530  1.00  0.00     0.136 C 
BRANCH   6   7
ATOM      7  C   UNL     1      -5.429  22.133  47.726  1.00  0.00    -0.004 C 
ATOM      8  C   UNL     1      -5.597  23.316  48.324  1.00  0.00     0.007 C 
ENDBRANCH   6   7
BRANCH   6   9
ATOM      9  O   UNL     1      -3.882  21.025  46.233  1.00  0.00    -0.389 OA
ATOM     10  H   UNL     1      -4.178  20.078  46.240  1.00  0.00     0.211 HD
ENDBRANCH   6   9
ENDBRANCH   5   6
ENDBRANCH   1   5
TORSDOF 6
ENDMDL
MODEL 5
REMARK VINA RESULT:    -3.883      2.970      5.180
REMARK INTER + INTRA:          -5.396
REMARK INTER:                  -5.236
REMARK INTRA:                  -0.160
REMARK UNBOUND:                -0.265
REMARK SMILES C=C[C@H](O)CCCCC
REMARK SMILES IDX 6 1 7 2 8 3 9 4 5 5 3 6 2 7 1 8 4 9
REMARK H PARENT 4 10
REMARK Flexibility Score: inf
ROOT
ATOM      1  C   UNL     1      -5.304  22.013  47.737  1.00  0.00     0.003 C 
ENDROOT
BRANCH   1   2
ATOM      2  C   UNL     1      -5.572  23.400  48.334  1.00  0.00    -0.000 C 
BRANCH   2   3
ATOM      3  C   UNL     1      -4.727  23.630  49.593  1.00  0.00    -0.003 C 
ATOM      4  C   UNL     1      -5.461  24.515  50.595  1.00  0.00     0.004 C 
ENDBRANCH   2   3
ENDBRANCH   1   2
BRANCH   1   5
ATOM      5  C   UNL     1      -4.252  21.253  48.564  1.00  0.00     0.036 C 
BRANCH   5   6
ATOM      6  C   UNL     1      -4.177  19.745  48.240  1.00  0.00     0.136 C 
BRANCH   6   7
ATOM      7  C   UNL     1      -3.210  19.007  49.143  1.00  0.00    -0.004 C 
ATOM      8  C   UNL     1      -2.928  17.716  48.943  1.00  0.00     0.007 C 
ENDBRANCH   6   7
BRANCH   6   9
ATOM      9  O   UNL     1      -3.884  19.533  46.881  1.00  0.00    -0.389 OA
ATOM     10  H   UNL     1      -3.098  18.930  46.825  1.00  0.00     0.211 HD
ENDBRANCH   6   9
ENDBRANCH   5   6
ENDBRANCH   1   5
TORSDOF 6
ENDMDL
MODEL 6
REMARK VINA RESULT:    -3.823      1.797      4.361
REMARK INTER + INTRA:          -5.317
REMARK INTER:                  -5.051
REMARK INTRA:                  -0.266
REMARK UNBOUND:                -0.265
REMARK SMILES C=C[C@H](O)CCCCC
REMARK SMILES IDX 6 1 7 2 8 3 9 4 5 5 3 6 2 7 1 8 4 9
REMARK H PARENT 4 10
REMARK Flexibility Score: inf
ROOT
ATOM      1  C   UNL     1      -4.636  24.495  49.794  1.00  0.00     0.003 C 
ENDROOT
BRANCH   1   2
ATOM      2  C   UNL     1      -4.926  24.303  51.287  1.00  0.00    -0.000 C 
BRANCH   2   3
ATOM      3  C   UNL     1      -3.682  24.601  52.133  1.00  0.00    -0.003 C 
ATOM      4  C   UNL     1      -3.880  25.852  52.982  1.00  0.00     0.004 C 
ENDBRANCH   2   3
ENDBRANCH   1   2
BRANCH   1   5
ATOM      5  C   UNL     1      -5.828  24.031  48.939  1.00  0.00     0.036 C 
BRANCH   5   6
ATOM      6  C   UNL     1      -5.461  22.967  47.883  1.00  0.00     0.136 C 
BRANCH   6   7
ATOM      7  C   UNL     1      -4.192  22.218  48.234  1.00  0.00    -0.004 C 
ATOM      8  C   UNL     1      -4.222  20.922  48.558  1.00  0.00     0.007 C 
ENDBRANCH   6   7
BRANCH   6   9
ATOM      9  O   UNL     1      -5.393  23.532  46.597  1.00  0.00    -0.389 OA
ATOM     10  H   UNL     1      -5.396  22.793  45.935  1.00  0.00     0.211 HD
ENDBRANCH   6   9
ENDBRANCH   5   6
ENDBRANCH   1   5
TORSDOF 6
ENDMDL
MODEL 7
REMARK VINA RESULT:    -3.819      2.607      4.163
REMARK INTER + INTRA:          -5.311
REMARK INTER:                  -4.750
REMARK INTRA:                  -0.561
REMARK UNBOUND:                -0.265
REMARK SMILES C=C[C@H](O)CCCCC
REMARK SMILES IDX 6 1 7 2 8 3 9 4 5 5 3 6 2 7 1 8 4 9
REMARK H PARENT 4 10
REMARK Flexibility Score: inf
ROOT
ATOM      1  C   UNL     1      -4.671  24.466  50.432  1.00  0.00     0.003 C 
ENDROOT
BRANCH   1   2
ATOM      2  C   UNL     1      -4.348  24.356  51.927  1.00  0.00    -0.000 C 
BRANCH   2   3
ATOM      3  C   UNL     1      -3.350  25.438  52.356  1.00  0.00    -0.003 C 
ATOM      4  C   UNL     1      -3.988  26.422  53.330  1.00  0.00     0.004 C 
ENDBRANCH   2   3
ENDBRANCH   1   2
BRANCH   1   5
ATOM      5  C   UNL     1      -6.158  24.801  50.215  1.00  0.00     0.036 C 
BRANCH   5   6
ATOM      6  C   UNL     1      -6.403  26.230  49.686  1.00  0.00     0.136 C 
BRANCH   6   7
ATOM      7  C   UNL     1      -5.113  26.975  49.412  1.00  0.00    -0.004 C 
ATOM      8  C   UNL     1      -4.845  28.137  50.017  1.00  0.00     0.007 C 
ENDBRANCH   6   7
BRANCH   6   9
ATOM      9  O   UNL     1      -7.247  26.952  50.550  1.00  0.00    -0.389 OA
ATOM     10  H   UNL     1      -8.172  26.614  50.431  1.00  0.00     0.211 HD
ENDBRANCH   6   9
ENDBRANCH   5   6
ENDBRANCH   1   5
TORSDOF 6
ENDMDL
MODEL 8
REMARK VINA RESULT:    -3.748      3.977      5.683
REMARK INTER + INTRA:          -5.218
REMARK INTER:                  -4.951
REMARK INTRA:                  -0.267
REMARK UNBOUND:                -0.265
REMARK SMILES C=C[C@H](O)CCCCC
REMARK SMILES IDX 6 1 7 2 8 3 9 4 5 5 3 6 2 7 1 8 4 9
REMARK H PARENT 4 10
REMARK Flexibility Score: inf
ROOT
ATOM      1  C   UNL     1      -1.354  19.472  46.560  1.00  0.00     0.003 C 
ENDROOT
BRANCH   1   2
ATOM      2  C   UNL     1      -1.502  17.952  46.687  1.00  0.00    -0.000 C 
BRANCH   2   3
ATOM      3  C   UNL     1      -1.826  17.314  45.331  1.00  0.00    -0.003 C 
ATOM      4  C   UNL     1      -3.331  17.151  45.145  1.00  0.00     0.004 C 
ENDBRANCH   2   3
ENDBRANCH   1   2
BRANCH   1   5
ATOM      5  C   UNL     1      -2.257  20.199  47.573  1.00  0.00     0.036 C 
BRANCH   5   6
ATOM      6  C   UNL     1      -3.335  21.090  46.920  1.00  0.00     0.136 C 
BRANCH   6   7
ATOM      7  C   UNL     1      -4.625  21.112  47.713  1.00  0.00    -0.004 C 
ATOM      8  C   UNL     1      -5.412  22.192  47.720  1.00  0.00     0.007 C 
ENDBRANCH   6   7
BRANCH   6   9
ATOM      9  O   UNL     1      -3.553  20.721  45.580  1.00  0.00    -0.389 OA
ATOM     10  H   UNL     1      -3.311  19.764  45.481  1.00  0.00     0.211 HD
ENDBRANCH   6   9
ENDBRANCH   5   6
ENDBRANCH   1   5
TORSDOF 6
ENDMDL
MODEL 9
REMARK VINA RESULT:    -3.729      2.334      4.684
REMARK INTER + INTRA:          -5.192
REMARK INTER:                  -4.865
REMARK INTRA:                  -0.327
REMARK UNBOUND:                -0.265
REMARK SMILES C=C[C@H](O)CCCCC
REMARK SMILES IDX 6 1 7 2 8 3 9 4 5 5 3 6 2 7 1 8 4 9
REMARK H PARENT 4 10
REMARK Flexibility Score: inf
ROOT
ATOM      1  C   UNL     1      -4.950  24.233  51.458  1.00  0.00     0.003 C 
ENDROOT
BRANCH   1   2
ATOM      2  C   UNL     1      -3.836  24.978  52.202  1.00  0.00    -0.000 C 
BRANCH   2   3
ATOM      3  C   UNL     1      -4.257  26.415  52.529  1.00  0.00    -0.003 C 
ATOM      4  C   UNL     1      -3.689  26.865  53.871  1.00  0.00     0.004 C 
ENDBRANCH   2   3
ENDBRANCH   1   2
BRANCH   1   5
ATOM      5  C   UNL     1      -4.527  23.912  50.014  1.00  0.00     0.036 C 
BRANCH   5   6
ATOM      6  C   UNL     1      -5.553  24.356  48.950  1.00  0.00     0.136 C 
BRANCH   6   7
ATOM      7  C   UNL     1      -6.713  25.123  49.550  1.00  0.00    -0.004 C 
ATOM      8  C   UNL     1      -6.966  26.385  49.190  1.00  0.00     0.007 C 
ENDBRANCH   6   7
BRANCH   6   9
ATOM      9  O   UNL     1      -5.994  23.261  48.184  1.00  0.00    -0.389 OA
ATOM     10  H   UNL     1      -6.492  23.613  47.401  1.00  0.00     0.211 HD
ENDBRANCH   6   9
ENDBRANCH   5   6
ENDBRANCH   1   5
TORSDOF 6
ENDMDL
