MODEL 1
REMARK VINA RESULT:     1.724      0.000      0.000
REMARK INTER + INTRA:           2.052
REMARK INTER:                   2.128
REMARK INTRA:                  -0.076
REMARK UNBOUND:                -0.076
REMARK SMILES O=c1c(O)c(-c2cc(O)c(O)c(O)c2)oc2cc(O)cc(O)c12
REMARK SMILES IDX 5 1 3 2 2 3 1 4 23 5 21 6 20 7 18 8 17 9 16 10 15 11 6 12
REMARK SMILES IDX 7 13 8 14 14 15 10 16 12 17 9 18 11 20 13 22 4 24 22 26
REMARK SMILES IDX 19 28
REMARK H PARENT 9 19 11 21 13 23 4 25 22 27 19 29
REMARK Flexibility Score: inf
ROOT
ATOM      1  C   UNL     1     -18.775   9.078  26.400  1.00  0.00     0.180 A 
ATOM      2  C   UNL     1     -17.395   9.207  26.628  1.00  0.00     0.208 A 
ATOM      3  C   UNL     1     -16.545   9.455  25.539  1.00  0.00     0.238 A 
ATOM      4  O   UNL     1     -15.316   9.625  25.757  1.00  0.00    -0.285 OA
ATOM      5  C   UNL     1     -17.083   9.555  24.234  1.00  0.00     0.111 A 
ATOM      6  C   UNL     1     -16.310   9.765  23.052  1.00  0.00     0.134 A 
ATOM      7  C   UNL     1     -16.961   9.978  21.830  1.00  0.00     0.093 A 
ATOM      8  C   UNL     1     -18.351   9.924  21.736  1.00  0.00     0.123 A 
ATOM      9  C   UNL     1     -19.114   9.660  22.874  1.00  0.00     0.094 A 
ATOM     10  C   UNL     1     -18.495   9.479  24.114  1.00  0.00     0.146 A 
ATOM     11  O   UNL     1     -19.257   9.242  25.174  1.00  0.00    -0.452 OA
ENDROOT
BRANCH   1  12
ATOM     12  C   UNL     1     -19.731   8.791  27.495  1.00  0.00     0.029 A 
ATOM     13  C   UNL     1     -20.888   9.573  27.624  1.00  0.00     0.062 A 
ATOM     14  C   UNL     1     -21.818   9.312  28.635  1.00  0.00     0.162 A 
ATOM     15  C   UNL     1     -19.533   7.712  28.374  1.00  0.00     0.062 A 
ATOM     16  C   UNL     1     -21.606   8.245  29.525  1.00  0.00     0.200 A 
ATOM     17  C   UNL     1     -20.461   7.442  29.390  1.00  0.00     0.162 A 
BRANCH  14  18
ATOM     18  O   UNL     1     -22.948  10.122  28.738  1.00  0.00    -0.504 OA
ATOM     19  H   UNL     1     -23.617  10.022  29.493  1.00  0.00     0.293 HD
ENDBRANCH  14  18
BRANCH  16  20
ATOM     20  O   UNL     1     -22.537   7.993  30.533  1.00  0.00    -0.502 OA
ATOM     21  H   UNL     1     -22.385   8.281  31.493  1.00  0.00     0.293 HD
ENDBRANCH  16  20
BRANCH  17  22
ATOM     22  O   UNL     1     -20.251   6.374  30.260  1.00  0.00    -0.504 OA
ATOM     23  H   UNL     1     -20.906   5.604  30.326  1.00  0.00     0.293 HD
ENDBRANCH  17  22
ENDBRANCH   1  12
BRANCH   2  24
ATOM     24  O   UNL     1     -16.886   9.127  27.929  1.00  0.00    -0.502 OA
ATOM     25  H   UNL     1     -15.893   9.083  28.122  1.00  0.00     0.293 HD
ENDBRANCH   2  24
BRANCH   6  26
ATOM     26  O   UNL     1     -14.913   9.747  23.020  1.00  0.00    -0.507 OA
ATOM     27  H   UNL     1     -14.318  10.382  23.530  1.00  0.00     0.293 HD
ENDBRANCH   6  26
BRANCH   8  28
ATOM     28  O   UNL     1     -18.964  10.125  20.501  1.00  0.00    -0.508 OA
ATOM     29  H   UNL     1     -19.639  10.867  20.359  1.00  0.00     0.293 HD
ENDBRANCH   8  28
TORSDOF 7
ENDMDL
MODEL 2
REMARK VINA RESULT:     3.631      1.248      6.945
REMARK INTER + INTRA:           4.405
REMARK INTER:                   3.979
REMARK INTRA:                   0.425
REMARK UNBOUND:                -0.076
REMARK SMILES O=c1c(O)c(-c2cc(O)c(O)c(O)c2)oc2cc(O)cc(O)c12
REMARK SMILES IDX 5 1 3 2 2 3 1 4 23 5 21 6 20 7 18 8 17 9 16 10 15 11 6 12
REMARK SMILES IDX 7 13 8 14 14 15 10 16 12 17 9 18 11 20 13 22 4 24 22 26
REMARK SMILES IDX 19 28
REMARK H PARENT 9 19 11 21 13 23 4 25 22 27 19 29
REMARK Flexibility Score: inf
ROOT
ATOM      1  C   UNL     1     -18.621   9.331  26.117  1.00  0.00     0.180 A 
ATOM      2  C   UNL     1     -17.771   8.748  27.072  1.00  0.00     0.208 A 
ATOM      3  C   UNL     1     -18.236   8.584  28.386  1.00  0.00     0.238 A 
ATOM      4  O   UNL     1     -17.490   8.010  29.224  1.00  0.00    -0.285 OA
ATOM      5  C   UNL     1     -19.537   9.019  28.734  1.00  0.00     0.111 A 
ATOM      6  C   UNL     1     -20.096   8.938  30.044  1.00  0.00     0.134 A 
ATOM      7  C   UNL     1     -21.440   9.280  30.243  1.00  0.00     0.093 A 
ATOM      8  C   UNL     1     -22.224   9.759  29.195  1.00  0.00     0.123 A 
ATOM      9  C   UNL     1     -21.671   9.899  27.923  1.00  0.00     0.094 A 
ATOM     10  C   UNL     1     -20.344   9.532  27.684  1.00  0.00     0.146 A 
ATOM     11  O   UNL     1     -19.858   9.669  26.457  1.00  0.00    -0.452 OA
ENDROOT
BRANCH   1  12
ATOM     12  C   UNL     1     -18.192   9.560  24.718  1.00  0.00     0.029 A 
ATOM     13  C   UNL     1     -16.826   9.535  24.401  1.00  0.00     0.062 A 
ATOM     14  C   UNL     1     -16.393   9.727  23.085  1.00  0.00     0.162 A 
ATOM     15  C   UNL     1     -19.130   9.744  23.686  1.00  0.00     0.062 A 
ATOM     16  C   UNL     1     -17.333   9.931  22.060  1.00  0.00     0.200 A 
ATOM     17  C   UNL     1     -18.705   9.936  22.364  1.00  0.00     0.162 A 
BRANCH  14  18
ATOM     18  O   UNL     1     -15.026   9.709  22.815  1.00  0.00    -0.504 OA
ATOM     19  H   UNL     1     -14.656   9.408  21.921  1.00  0.00     0.293 HD
ENDBRANCH  14  18
BRANCH  16  20
ATOM     20  O   UNL     1     -16.893  10.125  20.750  1.00  0.00    -0.502 OA
ATOM     21  H   UNL     1     -17.499   9.981  19.951  1.00  0.00     0.293 HD
ENDBRANCH  16  20
BRANCH  17  22
ATOM     22  O   UNL     1     -19.644  10.124  21.350  1.00  0.00    -0.504 OA
ATOM     23  H   UNL     1     -20.476   9.550  21.282  1.00  0.00     0.293 HD
ENDBRANCH  17  22
ENDBRANCH   1  12
BRANCH   2  24
ATOM     24  O   UNL     1     -16.497   8.304  26.703  1.00  0.00    -0.502 OA
ATOM     25  H   UNL     1     -15.960   7.660  27.271  1.00  0.00     0.293 HD
ENDBRANCH   2  24
BRANCH   6  26
ATOM     26  O   UNL     1     -19.374   8.559  31.179  1.00  0.00    -0.507 OA
ATOM     27  H   UNL     1     -18.772   7.751  31.234  1.00  0.00     0.293 HD
ENDBRANCH   6  26
BRANCH   8  28
ATOM     28  O   UNL     1     -23.553  10.104  29.434  1.00  0.00    -0.508 OA
ATOM     29  H   UNL     1     -24.148  10.464  28.697  1.00  0.00     0.293 HD
ENDBRANCH   8  28
TORSDOF 7
ENDMDL
MODEL 3
REMARK VINA RESULT:     3.712      1.260      6.785
REMARK INTER + INTRA:           4.504
REMARK INTER:                   4.178
REMARK INTRA:                   0.326
REMARK UNBOUND:                -0.076
REMARK SMILES O=c1c(O)c(-c2cc(O)c(O)c(O)c2)oc2cc(O)cc(O)c12
REMARK SMILES IDX 5 1 3 2 2 3 1 4 23 5 21 6 20 7 18 8 17 9 16 10 15 11 6 12
REMARK SMILES IDX 7 13 8 14 14 15 10 16 12 17 9 18 11 20 13 22 4 24 22 26
REMARK SMILES IDX 19 28
REMARK H PARENT 9 19 11 21 13 23 4 25 22 27 19 29
REMARK Flexibility Score: inf
ROOT
ATOM      1  C   UNL     1     -18.559   9.240  26.192  1.00  0.00     0.180 A 
ATOM      2  C   UNL     1     -17.732   8.656  27.167  1.00  0.00     0.208 A 
ATOM      3  C   UNL     1     -18.219   8.515  28.477  1.00  0.00     0.238 A 
ATOM      4  O   UNL     1     -17.495   7.941  29.332  1.00  0.00    -0.285 OA
ATOM      5  C   UNL     1     -19.519   8.973  28.799  1.00  0.00     0.111 A 
ATOM      6  C   UNL     1     -20.099   8.917  30.102  1.00  0.00     0.134 A 
ATOM      7  C   UNL     1     -21.440   9.280  30.277  1.00  0.00     0.093 A 
ATOM      8  C   UNL     1     -22.202   9.758  29.212  1.00  0.00     0.123 A 
ATOM      9  C   UNL     1     -21.627   9.874  27.946  1.00  0.00     0.094 A 
ATOM     10  C   UNL     1     -20.302   9.485  27.732  1.00  0.00     0.146 A 
ATOM     11  O   UNL     1     -19.797   9.600  26.510  1.00  0.00    -0.452 OA
ENDROOT
BRANCH   1  12
ATOM     12  C   UNL     1     -18.107   9.446  24.797  1.00  0.00     0.029 A 
ATOM     13  C   UNL     1     -19.055   9.683  23.791  1.00  0.00     0.062 A 
ATOM     14  C   UNL     1     -18.657   9.901  22.469  1.00  0.00     0.162 A 
ATOM     15  C   UNL     1     -16.741   9.467  24.466  1.00  0.00     0.062 A 
ATOM     16  C   UNL     1     -17.290   9.900  22.140  1.00  0.00     0.200 A 
ATOM     17  C   UNL     1     -16.331   9.687  23.144  1.00  0.00     0.162 A 
BRANCH  14  18
ATOM     18  O   UNL     1     -19.632  10.118  21.497  1.00  0.00    -0.504 OA
ATOM     19  H   UNL     1     -20.527   9.642  21.515  1.00  0.00     0.293 HD
ENDBRANCH  14  18
BRANCH  16  20
ATOM     20  O   UNL     1     -16.900  10.116  20.817  1.00  0.00    -0.502 OA
ATOM     21  H   UNL     1     -17.139   9.472  20.073  1.00  0.00     0.293 HD
ENDBRANCH  16  20
BRANCH  17  22
ATOM     22  O   UNL     1     -14.974   9.698  22.827  1.00  0.00    -0.504 OA
ATOM     23  H   UNL     1     -14.440   8.841  22.742  1.00  0.00     0.293 HD
ENDBRANCH  17  22
ENDBRANCH   1  12
BRANCH   2  24
ATOM     24  O   UNL     1     -16.460   8.189  26.823  1.00  0.00    -0.502 OA
ATOM     25  H   UNL     1     -15.631   8.766  26.897  1.00  0.00     0.293 HD
ENDBRANCH   2  24
BRANCH   6  26
ATOM     26  O   UNL     1     -19.398   8.541  31.252  1.00  0.00    -0.507 OA
ATOM     27  H   UNL     1     -19.335   7.597  31.603  1.00  0.00     0.293 HD
ENDBRANCH   6  26
BRANCH   8  28
ATOM     28  O   UNL     1     -23.529  10.125  29.426  1.00  0.00    -0.508 OA
ATOM     29  H   UNL     1     -24.282   9.450  29.364  1.00  0.00     0.293 HD
ENDBRANCH   8  28
TORSDOF 7
ENDMDL
