MODEL 1
REMARK VINA RESULT:    -5.545      0.000      0.000
REMARK INTER + INTRA:         -10.007
REMARK INTER:                  -8.462
REMARK INTRA:                  -1.545
REMARK UNBOUND:                -1.545
REMARK SMILES CC(=O)CCC=C(C)CCC=C(C)CCC=C(C)C
REMARK SMILES IDX 10 1 11 2 12 3 13 4 14 5 15 6 16 7 18 8 17 9 19 10 9 11 7 12
REMARK SMILES IDX 6 13 8 14 5 15 4 16 2 17 3 18 1 19
REMARK H PARENT
REMARK Flexibility Score: inf
ROOT
ATOM      1  C   UNL     1      11.482 117.351  18.243  1.00  0.00     0.032 C 
ENDROOT
BRANCH   1   2
ATOM      2  C   UNL     1      11.415 115.850  18.110  1.00  0.00    -0.028 C 
ATOM      3  C   UNL     1      11.214 115.001  19.144  1.00  0.00    -0.077 C 
ATOM      4  C   UNL     1      10.948 115.500  20.545  1.00  0.00     0.039 C 
BRANCH   3   5
ATOM      5  C   UNL     1      11.248 113.509  18.889  1.00  0.00     0.034 C 
BRANCH   5   6
ATOM      6  C   UNL     1      11.643 113.185  17.440  1.00  0.00     0.032 C 
BRANCH   6   7
ATOM      7  C   UNL     1      12.695 112.104  17.373  1.00  0.00    -0.028 C 
ATOM      8  C   UNL     1      14.588 113.676  17.840  1.00  0.00     0.039 C 
ATOM      9  C   UNL     1      14.022 112.313  17.520  1.00  0.00    -0.080 C 
ATOM     10  C   UNL     1      14.954 111.137  17.377  1.00  0.00     0.039 C 
ENDBRANCH   6   7
ENDBRANCH   5   6
ENDBRANCH   3   5
ENDBRANCH   1   2
BRANCH   1  11
ATOM     11  C   UNL     1      10.285 118.008  17.550  1.00  0.00     0.034 C 
BRANCH  11  12
ATOM     12  C   UNL     1       9.274 118.491  18.565  1.00  0.00    -0.077 C 
ATOM     13  C   UNL     1       8.384 117.610  19.077  1.00  0.00    -0.028 C 
ATOM     14  C   UNL     1       9.297 119.940  18.993  1.00  0.00     0.039 C 
BRANCH  13  15
ATOM     15  C   UNL     1       7.301 117.963  20.065  1.00  0.00     0.035 C 
BRANCH  15  16
ATOM     16  C   UNL     1       7.763 117.676  21.502  1.00  0.00     0.079 C 
BRANCH  16  17
ATOM     17  C   UNL     1       7.578 118.831  22.461  1.00  0.00     0.130 C 
ATOM     18  O   UNL     1       7.779 118.634  23.649  1.00  0.00    -0.300 OA
ATOM     19  C   UNL     1       7.154 120.204  22.017  1.00  0.00     0.087 C 
ENDBRANCH  16  17
ENDBRANCH  15  16
ENDBRANCH  13  15
ENDBRANCH  11  12
ENDBRANCH   1  11
TORSDOF 9
ENDMDL
MODEL 2
REMARK VINA RESULT:    -5.475      2.524      4.345
REMARK INTER + INTRA:          -9.900
REMARK INTER:                  -8.344
REMARK INTRA:                  -1.556
REMARK UNBOUND:                -1.545
REMARK SMILES CC(=O)CCC=C(C)CCC=C(C)CCC=C(C)C
REMARK SMILES IDX 10 1 11 2 12 3 13 4 14 5 15 6 16 7 18 8 17 9 19 10 9 11 7 12
REMARK SMILES IDX 6 13 8 14 5 15 4 16 2 17 3 18 1 19
REMARK H PARENT
REMARK Flexibility Score: inf
ROOT
ATOM      1  C   UNL     1      11.711 113.185  17.479  1.00  0.00     0.032 C 
ENDROOT
BRANCH   1   2
ATOM      2  C   UNL     1      12.439 111.899  17.776  1.00  0.00    -0.028 C 
ATOM      3  C   UNL     1      13.777 111.803  17.954  1.00  0.00    -0.077 C 
ATOM      4  C   UNL     1      14.670 113.021  17.954  1.00  0.00     0.039 C 
BRANCH   3   5
ATOM      5  C   UNL     1      14.395 110.437  18.166  1.00  0.00     0.034 C 
BRANCH   5   6
ATOM      6  C   UNL     1      14.761 110.197  19.639  1.00  0.00     0.032 C 
BRANCH   6   7
ATOM      7  C   UNL     1      13.617 109.578  20.407  1.00  0.00    -0.028 C 
ATOM      8  C   UNL     1      12.975 111.728  21.520  1.00  0.00     0.039 C 
ATOM      9  C   UNL     1      12.827 110.244  21.277  1.00  0.00    -0.080 C 
ATOM     10  C   UNL     1      11.756 109.476  22.007  1.00  0.00     0.039 C 
ENDBRANCH   6   7
ENDBRANCH   5   6
ENDBRANCH   3   5
ENDBRANCH   1   2
BRANCH   1  11
ATOM     11  C   UNL     1      11.171 113.810  18.770  1.00  0.00     0.034 C 
BRANCH  11  12
ATOM     12  C   UNL     1      11.256 115.319  18.714  1.00  0.00    -0.077 C 
ATOM     13  C   UNL     1      10.373 116.053  19.427  1.00  0.00    -0.028 C 
ATOM     14  C   UNL     1      12.337 115.963  17.877  1.00  0.00     0.039 C 
BRANCH  13  15
ATOM     15  C   UNL     1      10.321 117.561  19.433  1.00  0.00     0.035 C 
BRANCH  15  16
ATOM     16  C   UNL     1       9.317 118.073  18.388  1.00  0.00     0.079 C 
BRANCH  16  17
ATOM     17  C   UNL     1       7.866 117.924  18.789  1.00  0.00     0.130 C 
ATOM     18  O   UNL     1       7.056 117.618  17.928  1.00  0.00    -0.300 OA
ATOM     19  C   UNL     1       7.379 118.138  20.196  1.00  0.00     0.087 C 
ENDBRANCH  16  17
ENDBRANCH  15  16
ENDBRANCH  13  15
ENDBRANCH  11  12
ENDBRANCH   1  11
TORSDOF 9
ENDMDL
MODEL 3
REMARK VINA RESULT:    -5.436      1.970      3.085
REMARK INTER + INTRA:          -9.841
REMARK INTER:                  -8.468
REMARK INTRA:                  -1.373
REMARK UNBOUND:                -1.545
REMARK SMILES CC(=O)CCC=C(C)CCC=C(C)CCC=C(C)C
REMARK SMILES IDX 10 1 11 2 12 3 13 4 14 5 15 6 16 7 18 8 17 9 19 10 9 11 7 12
REMARK SMILES IDX 6 13 8 14 5 15 4 16 2 17 3 18 1 19
REMARK H PARENT
REMARK Flexibility Score: inf
ROOT
ATOM      1  C   UNL     1      13.464 116.046  18.138  1.00  0.00     0.032 C 
ENDROOT
BRANCH   1   2
ATOM      2  C   UNL     1      13.193 114.670  17.586  1.00  0.00    -0.028 C 
ATOM      3  C   UNL     1      12.185 113.867  17.999  1.00  0.00    -0.077 C 
ATOM      4  C   UNL     1      11.167 114.325  19.018  1.00  0.00     0.039 C 
BRANCH   3   5
ATOM      5  C   UNL     1      12.070 112.473  17.420  1.00  0.00     0.034 C 
BRANCH   5   6
ATOM      6  C   UNL     1      13.251 111.582  17.832  1.00  0.00     0.032 C 
BRANCH   6   7
ATOM      7  C   UNL     1      13.074 111.025  19.225  1.00  0.00    -0.028 C 
ATOM      8  C   UNL     1      14.459 108.987  18.774  1.00  0.00     0.039 C 
ATOM      9  C   UNL     1      13.583 109.849  19.653  1.00  0.00    -0.080 C 
ATOM     10  C   UNL     1      13.276 109.403  21.059  1.00  0.00     0.039 C 
ENDBRANCH   6   7
ENDBRANCH   5   6
ENDBRANCH   3   5
ENDBRANCH   1   2
BRANCH   1  11
ATOM     11  C   UNL     1      13.033 117.124  17.139  1.00  0.00     0.034 C 
BRANCH  11  12
ATOM     12  C   UNL     1      11.709 117.732  17.542  1.00  0.00    -0.077 C 
ATOM     13  C   UNL     1      11.479 118.000  18.848  1.00  0.00    -0.028 C 
ATOM     14  C   UNL     1      10.686 118.039  16.473  1.00  0.00     0.039 C 
BRANCH  13  15
ATOM     15  C   UNL     1      10.192 118.570  19.391  1.00  0.00     0.035 C 
BRANCH  15  16
ATOM     16  C   UNL     1       9.150 117.459  19.593  1.00  0.00     0.079 C 
BRANCH  16  17
ATOM     17  C   UNL     1       7.718 117.902  19.391  1.00  0.00     0.130 C 
ATOM     18  O   UNL     1       7.144 118.447  20.321  1.00  0.00    -0.300 OA
ATOM     19  C   UNL     1       6.971 117.697  18.101  1.00  0.00     0.087 C 
ENDBRANCH  16  17
ENDBRANCH  15  16
ENDBRANCH  13  15
ENDBRANCH  11  12
ENDBRANCH   1  11
TORSDOF 9
ENDMDL
MODEL 4
REMARK VINA RESULT:    -5.414      3.635      8.476
REMARK INTER + INTRA:          -9.808
REMARK INTER:                  -8.299
REMARK INTRA:                  -1.509
REMARK UNBOUND:                -1.545
REMARK SMILES CC(=O)CCC=C(C)CCC=C(C)CCC=C(C)C
REMARK SMILES IDX 10 1 11 2 12 3 13 4 14 5 15 6 16 7 18 8 17 9 19 10 9 11 7 12
REMARK SMILES IDX 6 13 8 14 5 15 4 16 2 17 3 18 1 19
REMARK H PARENT
REMARK Flexibility Score: inf
ROOT
ATOM      1  C   UNL     1      11.639 114.035  19.878  1.00  0.00     0.032 C 
ENDROOT
BRANCH   1   2
ATOM      2  C   UNL     1      11.217 115.157  18.964  1.00  0.00    -0.028 C 
ATOM      3  C   UNL     1      12.074 115.913  18.239  1.00  0.00    -0.077 C 
ATOM      4  C   UNL     1      13.559 115.636  18.217  1.00  0.00     0.039 C 
BRANCH   3   5
ATOM      5  C   UNL     1      11.528 117.065  17.421  1.00  0.00     0.034 C 
BRANCH   5   6
ATOM      6  C   UNL     1      10.700 118.034  18.278  1.00  0.00     0.032 C 
BRANCH   6   7
ATOM      7  C   UNL     1       9.237 118.003  17.905  1.00  0.00    -0.028 C 
ATOM      8  C   UNL     1       8.467 117.633  20.260  1.00  0.00     0.039 C 
ATOM      9  C   UNL     1       8.226 117.794  18.777  1.00  0.00    -0.080 C 
ATOM     10  C   UNL     1       6.818 117.740  18.243  1.00  0.00     0.039 C 
ENDBRANCH   6   7
ENDBRANCH   5   6
ENDBRANCH   3   5
ENDBRANCH   1   2
BRANCH   1  11
ATOM     11  C   UNL     1      11.194 112.682  19.313  1.00  0.00     0.034 C 
BRANCH  11  12
ATOM     12  C   UNL     1      12.070 112.269  18.152  1.00  0.00    -0.077 C 
ATOM     13  C   UNL     1      13.359 111.932  18.389  1.00  0.00    -0.028 C 
ATOM     14  C   UNL     1      11.478 112.228  16.763  1.00  0.00     0.039 C 
BRANCH  13  15
ATOM     15  C   UNL     1      14.351 111.538  17.323  1.00  0.00     0.035 C 
BRANCH  15  16
ATOM     16  C   UNL     1      15.486 110.695  17.923  1.00  0.00     0.079 C 
BRANCH  16  17
ATOM     17  C   UNL     1      15.282 109.200  17.808  1.00  0.00     0.130 C 
ATOM     18  O   UNL     1      15.672 108.639  16.796  1.00  0.00    -0.300 OA
ATOM     19  C   UNL     1      14.618 108.379  18.879  1.00  0.00     0.087 C 
ENDBRANCH  16  17
ENDBRANCH  15  16
ENDBRANCH  13  15
ENDBRANCH  11  12
ENDBRANCH   1  11
TORSDOF 9
ENDMDL
MODEL 5
REMARK VINA RESULT:    -5.399      3.250      7.744
REMARK INTER + INTRA:          -9.784
REMARK INTER:                  -8.474
REMARK INTRA:                  -1.311
REMARK UNBOUND:                -1.545
REMARK SMILES CC(=O)CCC=C(C)CCC=C(C)CCC=C(C)C
REMARK SMILES IDX 10 1 11 2 12 3 13 4 14 5 15 6 16 7 18 8 17 9 19 10 9 11 7 12
REMARK SMILES IDX 6 13 8 14 5 15 4 16 2 17 3 18 1 19
REMARK H PARENT
REMARK Flexibility Score: inf
ROOT
ATOM      1  C   UNL     1      11.454 112.705  17.616  1.00  0.00     0.032 C 
ENDROOT
BRANCH   1   2
ATOM      2  C   UNL     1      11.614 114.195  17.778  1.00  0.00    -0.028 C 
ATOM      3  C   UNL     1      11.558 114.844  18.965  1.00  0.00    -0.077 C 
ATOM      4  C   UNL     1      11.411 114.102  20.273  1.00  0.00     0.039 C 
BRANCH   3   5
ATOM      5  C   UNL     1      11.653 116.355  18.983  1.00  0.00     0.034 C 
BRANCH   5   6
ATOM      6  C   UNL     1      10.479 116.993  19.740  1.00  0.00     0.032 C 
BRANCH   6   7
ATOM      7  C   UNL     1       9.289 117.222  18.838  1.00  0.00    -0.028 C 
ATOM      8  C   UNL     1       7.779 117.907  20.715  1.00  0.00     0.039 C 
ATOM      9  C   UNL     1       8.064 117.602  19.263  1.00  0.00    -0.080 C 
ATOM     10  C   UNL     1       6.962 117.741  18.245  1.00  0.00     0.039 C 
ENDBRANCH   6   7
ENDBRANCH   5   6
ENDBRANCH   3   5
ENDBRANCH   1   2
BRANCH   1  11
ATOM     11  C   UNL     1      12.719 112.088  17.011  1.00  0.00     0.034 C 
BRANCH  11  12
ATOM     12  C   UNL     1      13.661 111.619  18.097  1.00  0.00    -0.077 C 
ATOM     13  C   UNL     1      13.157 110.948  19.158  1.00  0.00    -0.028 C 
ATOM     14  C   UNL     1      15.139 111.897  17.958  1.00  0.00     0.039 C 
BRANCH  13  15
ATOM     15  C   UNL     1      13.975 110.456  20.327  1.00  0.00     0.035 C 
BRANCH  15  16
ATOM     16  C   UNL     1      13.242 109.325  21.064  1.00  0.00     0.079 C 
BRANCH  16  17
ATOM     17  C   UNL     1      12.181 109.795  22.034  1.00  0.00     0.130 C 
ATOM     18  O   UNL     1      11.097 109.231  22.025  1.00  0.00    -0.300 OA
ATOM     19  C   UNL     1      12.400 110.924  23.003  1.00  0.00     0.087 C 
ENDBRANCH  16  17
ENDBRANCH  15  16
ENDBRANCH  13  15
ENDBRANCH  11  12
ENDBRANCH   1  11
TORSDOF 9
ENDMDL
MODEL 6
REMARK VINA RESULT:    -5.349      2.119      3.568
REMARK INTER + INTRA:          -9.708
REMARK INTER:                  -8.367
REMARK INTRA:                  -1.340
REMARK UNBOUND:                -1.545
REMARK SMILES CC(=O)CCC=C(C)CCC=C(C)CCC=C(C)C
REMARK SMILES IDX 10 1 11 2 12 3 13 4 14 5 15 6 16 7 18 8 17 9 19 10 9 11 7 12
REMARK SMILES IDX 6 13 8 14 5 15 4 16 2 17 3 18 1 19
REMARK H PARENT
REMARK Flexibility Score: inf
ROOT
ATOM      1  C   UNL     1      11.103 114.026  18.934  1.00  0.00     0.032 C 
ENDROOT
BRANCH   1   2
ATOM      2  C   UNL     1      12.403 113.432  18.454  1.00  0.00    -0.028 C 
ATOM      3  C   UNL     1      12.505 112.531  17.451  1.00  0.00    -0.077 C 
ATOM      4  C   UNL     1      11.302 112.092  16.648  1.00  0.00     0.039 C 
BRANCH   3   5
ATOM      5  C   UNL     1      13.863 111.949  17.118  1.00  0.00     0.034 C 
BRANCH   5   6
ATOM      6  C   UNL     1      14.712 111.721  18.378  1.00  0.00     0.032 C 
BRANCH   6   7
ATOM      7  C   UNL     1      14.732 110.267  18.785  1.00  0.00    -0.028 C 
ATOM      8  C   UNL     1      13.068 110.581  20.631  1.00  0.00     0.039 C 
ATOM      9  C   UNL     1      14.025 109.746  19.811  1.00  0.00    -0.080 C 
ATOM     10  C   UNL     1      14.189 108.282  20.127  1.00  0.00     0.039 C 
ENDBRANCH   6   7
ENDBRANCH   5   6
ENDBRANCH   3   5
ENDBRANCH   1   2
BRANCH   1  11
ATOM     11  C   UNL     1      11.321 114.841  20.213  1.00  0.00     0.034 C 
BRANCH  11  12
ATOM     12  C   UNL     1      10.635 116.185  20.118  1.00  0.00    -0.077 C 
ATOM     13  C   UNL     1      10.138 116.586  18.926  1.00  0.00    -0.028 C 
ATOM     14  C   UNL     1      10.509 117.035  21.361  1.00  0.00     0.039 C 
BRANCH  13  15
ATOM     15  C   UNL     1       9.466 117.915  18.682  1.00  0.00     0.035 C 
BRANCH  15  16
ATOM     16  C   UNL     1       7.952 117.730  18.494  1.00  0.00     0.079 C 
BRANCH  16  17
ATOM     17  C   UNL     1       7.102 118.717  19.262  1.00  0.00     0.130 C 
ATOM     18  O   UNL     1       6.039 119.068  18.774  1.00  0.00    -0.300 OA
ATOM     19  C   UNL     1       7.509 119.286  20.594  1.00  0.00     0.087 C 
ENDBRANCH  16  17
ENDBRANCH  15  16
ENDBRANCH  13  15
ENDBRANCH  11  12
ENDBRANCH   1  11
TORSDOF 9
ENDMDL
MODEL 7
REMARK VINA RESULT:    -5.331      2.302      4.525
REMARK INTER + INTRA:          -9.681
REMARK INTER:                  -7.855
REMARK INTRA:                  -1.826
REMARK UNBOUND:                -1.545
REMARK SMILES CC(=O)CCC=C(C)CCC=C(C)CCC=C(C)C
REMARK SMILES IDX 10 1 11 2 12 3 13 4 14 5 15 6 16 7 18 8 17 9 19 10 9 11 7 12
REMARK SMILES IDX 6 13 8 14 5 15 4 16 2 17 3 18 1 19
REMARK H PARENT
REMARK Flexibility Score: inf
ROOT
ATOM      1  C   UNL     1      11.633 113.030  17.485  1.00  0.00     0.032 C 
ENDROOT
BRANCH   1   2
ATOM      2  C   UNL     1      12.715 111.995  17.303  1.00  0.00    -0.028 C 
ATOM      3  C   UNL     1      14.036 112.235  17.473  1.00  0.00    -0.077 C 
ATOM      4  C   UNL     1      14.548 113.572  17.955  1.00  0.00     0.039 C 
BRANCH   3   5
ATOM      5  C   UNL     1      15.028 111.129  17.180  1.00  0.00     0.034 C 
BRANCH   5   6
ATOM      6  C   UNL     1      15.661 110.572  18.464  1.00  0.00     0.032 C 
BRANCH   6   7
ATOM      7  C   UNL     1      14.683 109.732  19.251  1.00  0.00    -0.028 C 
ATOM      8  C   UNL     1      14.405 111.442  21.061  1.00  0.00     0.039 C 
ATOM      9  C   UNL     1      14.135 110.095  20.432  1.00  0.00    -0.080 C 
ATOM     10  C   UNL     1      13.213 109.125  21.124  1.00  0.00     0.039 C 
ENDBRANCH   6   7
ENDBRANCH   5   6
ENDBRANCH   3   5
ENDBRANCH   1   2
BRANCH   1  11
ATOM     11  C   UNL     1      11.018 112.926  18.884  1.00  0.00     0.034 C 
BRANCH  11  12
ATOM     12  C   UNL     1      11.240 114.202  19.665  1.00  0.00    -0.077 C 
ATOM     13  C   UNL     1      10.962 115.388  19.078  1.00  0.00    -0.028 C 
ATOM     14  C   UNL     1      11.749 114.114  21.084  1.00  0.00     0.039 C 
BRANCH  13  15
ATOM     15  C   UNL     1      11.173 116.735  19.726  1.00  0.00     0.035 C 
BRANCH  15  16
ATOM     16  C   UNL     1       9.825 117.400  20.043  1.00  0.00     0.079 C 
BRANCH  16  17
ATOM     17  C   UNL     1       9.062 117.878  18.828  1.00  0.00     0.130 C 
ATOM     18  O   UNL     1       9.686 118.429  17.933  1.00  0.00    -0.300 OA
ATOM     19  C   UNL     1       7.576 117.710  18.675  1.00  0.00     0.087 C 
ENDBRANCH  16  17
ENDBRANCH  15  16
ENDBRANCH  13  15
ENDBRANCH  11  12
ENDBRANCH   1  11
TORSDOF 9
ENDMDL
MODEL 8
REMARK VINA RESULT:    -5.230      3.639      8.414
REMARK INTER + INTRA:          -9.526
REMARK INTER:                  -7.801
REMARK INTRA:                  -1.725
REMARK UNBOUND:                -1.545
REMARK SMILES CC(=O)CCC=C(C)CCC=C(C)CCC=C(C)C
REMARK SMILES IDX 10 1 11 2 12 3 13 4 14 5 15 6 16 7 18 8 17 9 19 10 9 11 7 12
REMARK SMILES IDX 6 13 8 14 5 15 4 16 2 17 3 18 1 19
REMARK H PARENT
REMARK Flexibility Score: inf
ROOT
ATOM      1  C   UNL     1      11.804 113.921  17.541  1.00  0.00     0.032 C 
ENDROOT
BRANCH   1   2
ATOM      2  C   UNL     1      11.113 114.593  18.700  1.00  0.00    -0.028 C 
ATOM      3  C   UNL     1      11.755 115.145  19.755  1.00  0.00    -0.077 C 
ATOM      4  C   UNL     1      13.263 115.213  19.823  1.00  0.00     0.039 C 
BRANCH   3   5
ATOM      5  C   UNL     1      10.941 115.719  20.896  1.00  0.00     0.034 C 
BRANCH   5   6
ATOM      6  C   UNL     1      10.530 117.175  20.630  1.00  0.00     0.032 C 
BRANCH   6   7
ATOM      7  C   UNL     1       9.100 117.275  20.154  1.00  0.00    -0.028 C 
ATOM      8  C   UNL     1       9.740 117.898  17.813  1.00  0.00     0.039 C 
ATOM      9  C   UNL     1       8.729 117.628  18.903  1.00  0.00    -0.080 C 
ATOM     10  C   UNL     1       7.258 117.733  18.593  1.00  0.00     0.039 C 
ENDBRANCH   6   7
ENDBRANCH   5   6
ENDBRANCH   3   5
ENDBRANCH   1   2
BRANCH   1  11
ATOM     11  C   UNL     1      11.670 112.398  17.641  1.00  0.00     0.034 C 
BRANCH  11  12
ATOM     12  C   UNL     1      12.893 111.792  18.291  1.00  0.00    -0.077 C 
ATOM     13  C   UNL     1      12.783 111.259  19.529  1.00  0.00    -0.028 C 
ATOM     14  C   UNL     1      14.199 111.783  17.532  1.00  0.00     0.039 C 
BRANCH  13  15
ATOM     15  C   UNL     1      13.928 110.658  20.307  1.00  0.00     0.035 C 
BRANCH  15  16
ATOM     16  C   UNL     1      13.923 109.127  20.182  1.00  0.00     0.079 C 
BRANCH  16  17
ATOM     17  C   UNL     1      15.107 108.557  19.432  1.00  0.00     0.130 C 
ATOM     18  O   UNL     1      16.146 108.370  20.046  1.00  0.00    -0.300 OA
ATOM     19  C   UNL     1      15.061 108.216  17.968  1.00  0.00     0.087 C 
ENDBRANCH  16  17
ENDBRANCH  15  16
ENDBRANCH  13  15
ENDBRANCH  11  12
ENDBRANCH   1  11
TORSDOF 9
ENDMDL
MODEL 9
REMARK VINA RESULT:    -5.215      3.182      8.054
REMARK INTER + INTRA:          -9.504
REMARK INTER:                  -8.056
REMARK INTRA:                  -1.448
REMARK UNBOUND:                -1.545
REMARK SMILES CC(=O)CCC=C(C)CCC=C(C)CCC=C(C)C
REMARK SMILES IDX 10 1 11 2 12 3 13 4 14 5 15 6 16 7 18 8 17 9 19 10 9 11 7 12
REMARK SMILES IDX 6 13 8 14 5 15 4 16 2 17 3 18 1 19
REMARK H PARENT
REMARK Flexibility Score: inf
ROOT
ATOM      1  C   UNL     1      11.504 115.821  18.996  1.00  0.00     0.032 C 
ENDROOT
BRANCH   1   2
ATOM      2  C   UNL     1      10.058 116.234  19.106  1.00  0.00    -0.028 C 
ATOM      3  C   UNL     1       9.521 117.305  18.478  1.00  0.00    -0.077 C 
ATOM      4  C   UNL     1      10.324 118.153  17.520  1.00  0.00     0.039 C 
BRANCH   3   5
ATOM      5  C   UNL     1       8.071 117.660  18.736  1.00  0.00     0.034 C 
BRANCH   5   6
ATOM      6  C   UNL     1       7.826 118.031  20.207  1.00  0.00     0.032 C 
BRANCH   6   7
ATOM      7  C   UNL     1       7.953 119.518  20.438  1.00  0.00    -0.028 C 
ATOM      8  C   UNL     1      10.244 119.343  21.436  1.00  0.00     0.039 C 
ATOM      9  C   UNL     1       9.017 120.118  21.016  1.00  0.00    -0.080 C 
ATOM     10  C   UNL     1       8.974 121.610  21.225  1.00  0.00     0.039 C 
ENDBRANCH   6   7
ENDBRANCH   5   6
ENDBRANCH   3   5
ENDBRANCH   1   2
BRANCH   1  11
ATOM     11  C   UNL     1      11.723 114.949  17.756  1.00  0.00     0.034 C 
BRANCH  11  12
ATOM     12  C   UNL     1      11.783 113.485  18.132  1.00  0.00    -0.077 C 
ATOM     13  C   UNL     1      12.038 113.147  19.417  1.00  0.00    -0.028 C 
ATOM     14  C   UNL     1      11.540 112.443  17.066  1.00  0.00     0.039 C 
BRANCH  13  15
ATOM     15  C   UNL     1      12.163 111.731  19.921  1.00  0.00     0.035 C 
BRANCH  15  16
ATOM     16  C   UNL     1      13.639 111.311  19.996  1.00  0.00     0.079 C 
BRANCH  16  17
ATOM     17  C   UNL     1      14.093 110.416  18.863  1.00  0.00     0.130 C 
ATOM     18  O   UNL     1      13.798 109.231  18.908  1.00  0.00    -0.300 OA
ATOM     19  C   UNL     1      14.891 110.918  17.692  1.00  0.00     0.087 C 
ENDBRANCH  16  17
ENDBRANCH  15  16
ENDBRANCH  13  15
ENDBRANCH  11  12
ENDBRANCH   1  11
TORSDOF 9
ENDMDL
