MODEL 1
REMARK VINA RESULT:    -3.689      0.000      0.000
REMARK INTER + INTRA:          -4.597
REMARK INTER:                  -4.552
REMARK INTRA:                  -0.045
REMARK UNBOUND:                -0.045
REMARK SMILES CCCCCC(=O)[O-]
REMARK SMILES IDX 4 1 5 2 6 3 7 4 8 5 3 6 2 7 1 8
REMARK H PARENT
REMARK Flexibility Score: inf
ROOT
ATOM      1  C   UNL     1      42.044  50.122   8.705  1.00  0.00     0.006 C 
ENDROOT
BRANCH   1   2
ATOM      2  C   UNL     1      42.118  51.633   8.434  1.00  0.00     0.053 C 
BRANCH   2   3
ATOM      3  C   UNL     1      40.869  52.341   8.860  1.00  0.00     0.041 C 
ATOM      4  O   UNL     1      40.908  53.559   9.177  1.00  0.00    -0.550 OA
ATOM      5  O   UNL     1      39.668  51.648   8.938  1.00  0.00    -0.550 OA
ENDBRANCH   2   3
ENDBRANCH   1   2
BRANCH   1   6
ATOM      6  C   UNL     1      43.347  49.360   8.402  1.00  0.00     0.000 C 
BRANCH   6   7
ATOM      7  C   UNL     1      43.984  48.750   9.659  1.00  0.00    -0.003 C 
ATOM      8  C   UNL     1      44.462  47.324   9.396  1.00  0.00     0.004 C 
ENDBRANCH   6   7
ENDBRANCH   1   6
TORSDOF 4
ENDMDL
MODEL 2
REMARK VINA RESULT:    -3.400      2.944      4.711
REMARK INTER + INTRA:          -4.240
REMARK INTER:                  -4.158
REMARK INTRA:                  -0.081
REMARK UNBOUND:                -0.045
REMARK SMILES CCCCCC(=O)[O-]
REMARK SMILES IDX 4 1 5 2 6 3 7 4 8 5 3 6 2 7 1 8
REMARK H PARENT
REMARK Flexibility Score: inf
ROOT
ATOM      1  C   UNL     1      42.338  51.030   8.502  1.00  0.00     0.006 C 
ENDROOT
BRANCH   1   2
ATOM      2  C   UNL     1      42.567  49.511   8.476  1.00  0.00     0.053 C 
BRANCH   2   3
ATOM      3  C   UNL     1      43.910  49.136   9.021  1.00  0.00     0.041 C 
ATOM      4  O   UNL     1      44.895  49.905   8.864  1.00  0.00    -0.550 OA
ATOM      5  O   UNL     1      44.083  47.922   9.672  1.00  0.00    -0.550 OA
ENDBRANCH   2   3
ENDBRANCH   1   2
BRANCH   1   6
ATOM      6  C   UNL     1      40.909  51.449   8.891  1.00  0.00     0.000 C 
BRANCH   6   7
ATOM      7  C   UNL     1      40.725  52.974   8.924  1.00  0.00    -0.003 C 
ATOM      8  C   UNL     1      41.741  53.668   8.021  1.00  0.00     0.004 C 
ENDBRANCH   6   7
ENDBRANCH   1   6
TORSDOF 4
ENDMDL
MODEL 3
REMARK VINA RESULT:    -3.097     18.872     19.801
REMARK INTER + INTRA:          -3.866
REMARK INTER:                  -3.633
REMARK INTRA:                  -0.233
REMARK UNBOUND:                -0.045
REMARK SMILES CCCCCC(=O)[O-]
REMARK SMILES IDX 4 1 5 2 6 3 7 4 8 5 3 6 2 7 1 8
REMARK H PARENT
REMARK Flexibility Score: inf
ROOT
ATOM      1  C   UNL     1      32.710  52.020  25.890  1.00  0.00     0.006 C 
ENDROOT
BRANCH   1   2
ATOM      2  C   UNL     1      32.243  50.944  24.898  1.00  0.00     0.053 C 
BRANCH   2   3
ATOM      3  C   UNL     1      30.775  51.038  24.617  1.00  0.00     0.041 C 
ATOM      4  O   UNL     1      29.939  50.793  25.526  1.00  0.00    -0.550 OA
ATOM      5  O   UNL     1      30.330  51.363  23.342  1.00  0.00    -0.550 OA
ENDBRANCH   2   3
ENDBRANCH   1   2
BRANCH   1   6
ATOM      6  C   UNL     1      32.739  53.446  25.311  1.00  0.00     0.000 C 
BRANCH   6   7
ATOM      7  C   UNL     1      31.582  54.317  25.823  1.00  0.00    -0.003 C 
ATOM      8  C   UNL     1      30.711  54.805  24.669  1.00  0.00     0.004 C 
ENDBRANCH   6   7
ENDBRANCH   1   6
TORSDOF 4
ENDMDL
MODEL 4
REMARK VINA RESULT:    -3.077     18.079     18.964
REMARK INTER + INTRA:          -3.842
REMARK INTER:                  -3.747
REMARK INTRA:                  -0.095
REMARK UNBOUND:                -0.045
REMARK SMILES CCCCCC(=O)[O-]
REMARK SMILES IDX 4 1 5 2 6 3 7 4 8 5 3 6 2 7 1 8
REMARK H PARENT
REMARK Flexibility Score: inf
ROOT
ATOM      1  C   UNL     1      32.820  50.356  24.661  1.00  0.00     0.006 C 
ENDROOT
BRANCH   1   2
ATOM      2  C   UNL     1      34.289  50.014  24.954  1.00  0.00     0.053 C 
BRANCH   2   3
ATOM      3  C   UNL     1      34.471  48.567  25.296  1.00  0.00     0.041 C 
ATOM      4  O   UNL     1      33.496  47.886  25.709  1.00  0.00    -0.550 OA
ATOM      5  O   UNL     1      35.725  47.980  25.190  1.00  0.00    -0.550 OA
ENDBRANCH   2   3
ENDBRANCH   1   2
BRANCH   1   6
ATOM      6  C   UNL     1      32.337  51.672  25.298  1.00  0.00     0.000 C 
BRANCH   6   7
ATOM      7  C   UNL     1      31.280  52.390  24.447  1.00  0.00    -0.003 C 
ATOM      8  C   UNL     1      30.441  51.391  23.654  1.00  0.00     0.004 C 
ENDBRANCH   6   7
ENDBRANCH   1   6
TORSDOF 4
ENDMDL
MODEL 5
REMARK VINA RESULT:    -3.058     18.770     19.698
REMARK INTER + INTRA:          -3.818
REMARK INTER:                  -3.604
REMARK INTRA:                  -0.214
REMARK UNBOUND:                -0.045
REMARK SMILES CCCCCC(=O)[O-]
REMARK SMILES IDX 4 1 5 2 6 3 7 4 8 5 3 6 2 7 1 8
REMARK H PARENT
REMARK Flexibility Score: inf
ROOT
ATOM      1  C   UNL     1      32.637  53.201  25.382  1.00  0.00     0.006 C 
ENDROOT
BRANCH   1   2
ATOM      2  C   UNL     1      31.755  54.281  26.030  1.00  0.00     0.053 C 
BRANCH   2   3
ATOM      3  C   UNL     1      30.664  54.739  25.113  1.00  0.00     0.041 C 
ATOM      4  O   UNL     1      30.923  55.033  23.916  1.00  0.00    -0.550 OA
ATOM      5  O   UNL     1      29.366  54.873  25.589  1.00  0.00    -0.550 OA
ENDBRANCH   2   3
ENDBRANCH   1   2
BRANCH   1   6
ATOM      6  C   UNL     1      32.167  51.759  25.644  1.00  0.00     0.000 C 
BRANCH   6   7
ATOM      7  C   UNL     1      31.858  50.991  24.350  1.00  0.00    -0.003 C 
ATOM      8  C   UNL     1      30.449  51.300  23.851  1.00  0.00     0.004 C 
ENDBRANCH   6   7
ENDBRANCH   1   6
TORSDOF 4
ENDMDL
MODEL 6
REMARK VINA RESULT:    -3.043     18.413     19.235
REMARK INTER + INTRA:          -3.799
REMARK INTER:                  -3.601
REMARK INTRA:                  -0.198
REMARK UNBOUND:                -0.045
REMARK SMILES CCCCCC(=O)[O-]
REMARK SMILES IDX 4 1 5 2 6 3 7 4 8 5 3 6 2 7 1 8
REMARK H PARENT
REMARK Flexibility Score: inf
ROOT
ATOM      1  C   UNL     1      32.110  53.198  25.746  1.00  0.00     0.006 C 
ENDROOT
BRANCH   1   2
ATOM      2  C   UNL     1      31.116  53.203  24.574  1.00  0.00     0.053 C 
BRANCH   2   3
ATOM      3  C   UNL     1      30.395  51.897  24.443  1.00  0.00     0.041 C 
ATOM      4  O   UNL     1      30.794  51.033  23.619  1.00  0.00    -0.550 OA
ATOM      5  O   UNL     1      29.263  51.647  25.209  1.00  0.00    -0.550 OA
ENDBRANCH   2   3
ENDBRANCH   1   2
BRANCH   1   6
ATOM      6  C   UNL     1      33.481  52.583  25.412  1.00  0.00     0.000 C 
BRANCH   6   7
ATOM      7  C   UNL     1      33.678  51.196  26.040  1.00  0.00    -0.003 C 
ATOM      8  C   UNL     1      34.271  50.216  25.032  1.00  0.00     0.004 C 
ENDBRANCH   6   7
ENDBRANCH   1   6
TORSDOF 4
ENDMDL
MODEL 7
REMARK VINA RESULT:    -3.001     18.351     19.212
REMARK INTER + INTRA:          -3.748
REMARK INTER:                  -3.687
REMARK INTRA:                  -0.061
REMARK UNBOUND:                -0.045
REMARK SMILES CCCCCC(=O)[O-]
REMARK SMILES IDX 4 1 5 2 6 3 7 4 8 5 3 6 2 7 1 8
REMARK H PARENT
REMARK Flexibility Score: inf
ROOT
ATOM      1  C   UNL     1      31.641  51.057  24.208  1.00  0.00     0.006 C 
ENDROOT
BRANCH   1   2
ATOM      2  C   UNL     1      32.269  50.384  25.439  1.00  0.00     0.053 C 
BRANCH   2   3
ATOM      3  C   UNL     1      33.513  49.627  25.092  1.00  0.00     0.041 C 
ATOM      4  O   UNL     1      34.590  50.243  24.875  1.00  0.00    -0.550 OA
ATOM      5  O   UNL     1      33.477  48.243  24.975  1.00  0.00    -0.550 OA
ENDBRANCH   2   3
ENDBRANCH   1   2
BRANCH   1   6
ATOM      6  C   UNL     1      30.772  52.286  24.533  1.00  0.00     0.000 C 
BRANCH   6   7
ATOM      7  C   UNL     1      31.603  53.556  24.768  1.00  0.00    -0.003 C 
ATOM      8  C   UNL     1      30.947  54.770  24.116  1.00  0.00     0.004 C 
ENDBRANCH   6   7
ENDBRANCH   1   6
TORSDOF 4
ENDMDL
MODEL 8
REMARK VINA RESULT:    -2.944     18.630     19.318
REMARK INTER + INTRA:          -3.678
REMARK INTER:                  -3.460
REMARK INTRA:                  -0.218
REMARK UNBOUND:                -0.045
REMARK SMILES CCCCCC(=O)[O-]
REMARK SMILES IDX 4 1 5 2 6 3 7 4 8 5 3 6 2 7 1 8
REMARK H PARENT
REMARK Flexibility Score: inf
ROOT
ATOM      1  C   UNL     1      32.360  52.440  25.821  1.00  0.00     0.006 C 
ENDROOT
BRANCH   1   2
ATOM      2  C   UNL     1      33.750  51.911  25.437  1.00  0.00     0.053 C 
BRANCH   2   3
ATOM      3  C   UNL     1      33.834  50.420  25.547  1.00  0.00     0.041 C 
ATOM      4  O   UNL     1      34.956  49.847  25.559  1.00  0.00    -0.550 OA
ATOM      5  O   UNL     1      32.673  49.660  25.602  1.00  0.00    -0.550 OA
ENDBRANCH   2   3
ENDBRANCH   1   2
BRANCH   1   6
ATOM      6  C   UNL     1      31.598  53.116  24.666  1.00  0.00     0.000 C 
BRANCH   6   7
ATOM      7  C   UNL     1      30.928  52.105  23.724  1.00  0.00    -0.003 C 
ATOM      8  C   UNL     1      29.767  51.396  24.416  1.00  0.00     0.004 C 
ENDBRANCH   6   7
ENDBRANCH   1   6
TORSDOF 4
ENDMDL
MODEL 9
REMARK VINA RESULT:    -2.925     19.083     20.243
REMARK INTER + INTRA:          -3.654
REMARK INTER:                  -3.408
REMARK INTRA:                  -0.246
REMARK UNBOUND:                -0.045
REMARK SMILES CCCCCC(=O)[O-]
REMARK SMILES IDX 4 1 5 2 6 3 7 4 8 5 3 6 2 7 1 8
REMARK H PARENT
REMARK Flexibility Score: inf
ROOT
ATOM      1  C   UNL     1      29.390  52.650  25.744  1.00  0.00     0.006 C 
ENDROOT
BRANCH   1   2
ATOM      2  C   UNL     1      29.872  51.206  25.537  1.00  0.00     0.053 C 
BRANCH   2   3
ATOM      3  C   UNL     1      30.910  51.109  24.462  1.00  0.00     0.041 C 
ATOM      4  O   UNL     1      30.630  51.438  23.279  1.00  0.00    -0.550 OA
ATOM      5  O   UNL     1      32.178  50.625  24.760  1.00  0.00    -0.550 OA
ENDBRANCH   2   3
ENDBRANCH   1   2
BRANCH   1   6
ATOM      6  C   UNL     1      30.505  53.643  26.120  1.00  0.00     0.000 C 
BRANCH   6   7
ATOM      7  C   UNL     1      30.390  54.977  25.368  1.00  0.00    -0.003 C 
ATOM      8  C   UNL     1      31.012  54.880  23.978  1.00  0.00     0.004 C 
ENDBRANCH   6   7
ENDBRANCH   1   6
TORSDOF 4
ENDMDL
