MODEL 1
REMARK VINA RESULT:    -4.305      0.000      0.000
REMARK INTER + INTRA:          -6.944
REMARK INTER:                  -6.570
REMARK INTRA:                  -0.374
REMARK UNBOUND:                -0.374
REMARK SMILES CC1=CCC[C@@H](C)C(=O)C[C@H](C(C)C)C(=O)C1
REMARK SMILES IDX 8 1 9 2 6 3 7 4 5 5 4 6 3 7 2 8 1 9 10 11 11 12 15 13 16 14
REMARK SMILES IDX 17 15 12 17 13 18 14 19
REMARK H PARENT
REMARK Flexibility Score: 70.00
ROOT
ATOM      1  C   UNL     1      16.984 -29.968  22.193  1.00  0.00     0.136 C 
ATOM      2  O   UNL     1      16.307 -29.060  21.733  1.00  0.00    -0.299 OA
ENDROOT
BRANCH   1   3
ATOM      3  C   UNL     1      18.422 -30.134  21.744  1.00  0.00     0.053 C 
ATOM      4  C   UNL     1      18.903 -28.859  21.042  1.00  0.00     0.016 C 
BRANCH   3   5
ATOM      5  C   UNL     1      18.614 -31.363  20.823  1.00  0.00     0.015 C 
BRANCH   5   6
ATOM      6  C   UNL     1      19.363 -32.543  21.468  1.00  0.00     0.028 C 
BRANCH   6   7
ATOM      7  C   UNL     1      18.691 -33.866  21.182  1.00  0.00    -0.028 C 
ATOM      8  C   UNL     1      17.818 -34.494  22.005  1.00  0.00    -0.070 CG0
ATOM      9  C   UNL     1      17.271 -35.828  21.559  1.00  0.00     0.039 C 
ATOM     10  G   UNL     1      17.299 -33.879  23.293  1.00  0.00     0.000 G0
ENDBRANCH   6   7
ENDBRANCH   5   6
ENDBRANCH   3   5
ENDBRANCH   1   3
BRANCH   1  11
ATOM     11  C   UNL     1      16.398 -30.877  23.253  1.00  0.00     0.087 C 
BRANCH  11  12
ATOM     12  C   UNL     1      15.493 -31.999  22.681  1.00  0.00     0.066 C 
BRANCH  12  13
ATOM     13  C   UNL     1      15.875 -33.368  23.235  1.00  0.00     0.140 C 
ATOM     14  O   UNL     1      14.986 -34.072  23.693  1.00  0.00    -0.299 OA
BRANCH  13  15
ATOM     15  C   UNL     1      17.300 -33.884  23.309  1.00  0.00     0.106 CG0
ATOM     16  G   UNL     1      17.824 -34.482  22.015  1.00  0.00     0.000 G0
ENDBRANCH  13  15
ENDBRANCH  12  13
BRANCH  12  17
ATOM     17  C   UNL     1      13.970 -31.704  22.858  1.00  0.00    -0.006 C 
ATOM     18  C   UNL     1      13.706 -30.558  23.850  1.00  0.00     0.008 C 
ATOM     19  C   UNL     1      13.315 -31.351  21.509  1.00  0.00     0.008 C 
ENDBRANCH  12  17
ENDBRANCH  11  12
ENDBRANCH   1  11
TORSDOF 1
ENDMDL
MODEL 2
REMARK VINA RESULT:    -4.284      2.078      4.275
REMARK INTER + INTRA:          -6.912
REMARK INTER:                  -6.976
REMARK INTRA:                   0.064
REMARK UNBOUND:                -0.374
REMARK SMILES CC1=CCC[C@@H](C)C(=O)C[C@H](C(C)C)C(=O)C1
REMARK SMILES IDX 8 1 9 2 6 3 7 4 5 5 4 6 3 7 2 8 1 9 10 11 11 12 15 13 16 14
REMARK SMILES IDX 17 15 12 17 13 18 14 19
REMARK H PARENT
REMARK Flexibility Score: 70.00
ROOT
ATOM      1  C   UNL     1      13.990 -32.268  21.034  1.00  0.00     0.136 C 
ATOM      2  O   UNL     1      13.158 -31.941  20.199  1.00  0.00    -0.299 OA
ENDROOT
BRANCH   1   3
ATOM      3  C   UNL     1      14.265 -31.360  22.215  1.00  0.00     0.053 C 
ATOM      4  C   UNL     1      12.963 -31.077  22.974  1.00  0.00     0.016 C 
BRANCH   3   5
ATOM      5  C   UNL     1      14.944 -30.035  21.795  1.00  0.00     0.015 C 
BRANCH   5   6
ATOM      6  C   UNL     1      16.484 -30.066  21.808  1.00  0.00     0.028 C 
BRANCH   6   7
ATOM      7  C   UNL     1      17.031 -30.519  23.141  1.00  0.00    -0.028 C 
ATOM      8  C   UNL     1      17.708 -31.671  23.359  1.00  0.00    -0.070 CG0
ATOM      9  C   UNL     1      18.153 -31.966  24.770  1.00  0.00     0.039 C 
ATOM     10  G   UNL     1      18.119 -32.617  22.244  1.00  0.00     0.000 G0
ENDBRANCH   6   7
ENDBRANCH   5   6
ENDBRANCH   3   5
ENDBRANCH   1   3
BRANCH   1  11
ATOM     11  C   UNL     1      14.690 -33.606  20.910  1.00  0.00     0.087 C 
BRANCH  11  12
ATOM     12  C   UNL     1      16.201 -33.491  20.579  1.00  0.00     0.066 C 
BRANCH  12  13
ATOM     13  C   UNL     1      17.064 -33.634  21.829  1.00  0.00     0.140 C 
ATOM     14  O   UNL     1      16.857 -34.588  22.564  1.00  0.00    -0.299 OA
BRANCH  13  15
ATOM     15  C   UNL     1      18.122 -32.630  22.246  1.00  0.00     0.106 CG0
ATOM     16  G   UNL     1      17.692 -31.680  23.350  1.00  0.00     0.000 G0
ENDBRANCH  13  15
ENDBRANCH  12  13
BRANCH  12  17
ATOM     17  C   UNL     1      16.653 -34.464  19.445  1.00  0.00    -0.006 C 
ATOM     18  C   UNL     1      18.153 -34.337  19.125  1.00  0.00     0.008 C 
ATOM     19  C   UNL     1      16.350 -35.928  19.820  1.00  0.00     0.008 C 
ENDBRANCH  12  17
ENDBRANCH  11  12
ENDBRANCH   1  11
TORSDOF 1
ENDMDL
MODEL 3
REMARK VINA RESULT:    -4.134      2.011      4.294
REMARK INTER + INTRA:          -6.683
REMARK INTER:                  -6.505
REMARK INTRA:                  -0.178
REMARK UNBOUND:                -0.374
REMARK SMILES CC1=CCC[C@@H](C)C(=O)C[C@H](C(C)C)C(=O)C1
REMARK SMILES IDX 8 1 9 2 6 3 7 4 5 5 4 6 3 7 2 8 1 9 10 11 11 12 15 13 16 14
REMARK SMILES IDX 17 15 12 17 13 18 14 19
REMARK H PARENT
REMARK Flexibility Score: 70.00
ROOT
ATOM      1  C   UNL     1      18.528 -32.151  20.846  1.00  0.00     0.136 C 
ATOM      2  O   UNL     1      19.750 -32.163  20.778  1.00  0.00    -0.299 OA
ENDROOT
BRANCH   1   3
ATOM      3  C   UNL     1      17.823 -30.970  21.484  1.00  0.00     0.053 C 
ATOM      4  C   UNL     1      18.480 -29.661  21.033  1.00  0.00     0.016 C 
BRANCH   3   5
ATOM      5  C   UNL     1      17.802 -31.060  23.028  1.00  0.00     0.015 C 
BRANCH   5   6
ATOM      6  C   UNL     1      16.395 -31.080  23.654  1.00  0.00     0.028 C 
BRANCH   6   7
ATOM      7  C   UNL     1      15.309 -30.935  22.614  1.00  0.00    -0.028 C 
ATOM      8  C   UNL     1      14.670 -31.960  22.003  1.00  0.00    -0.070 CG0
ATOM      9  C   UNL     1      13.629 -31.617  20.965  1.00  0.00     0.039 C 
ATOM     10  G   UNL     1      14.881 -33.416  22.380  1.00  0.00     0.000 G0
ENDBRANCH   6   7
ENDBRANCH   5   6
ENDBRANCH   3   5
ENDBRANCH   1   3
BRANCH   1  11
ATOM     11  C   UNL     1      17.733 -33.286  20.237  1.00  0.00     0.087 C 
BRANCH  11  12
ATOM     12  C   UNL     1      17.179 -34.291  21.280  1.00  0.00     0.066 C 
BRANCH  12  13
ATOM     13  C   UNL     1      15.657 -34.242  21.357  1.00  0.00     0.140 C 
ATOM     14  O   UNL     1      15.019 -34.853  20.512  1.00  0.00    -0.299 OA
BRANCH  13  15
ATOM     15  C   UNL     1      14.886 -33.430  22.381  1.00  0.00     0.106 CG0
ATOM     16  G   UNL     1      14.681 -31.972  22.009  1.00  0.00     0.000 G0
ENDBRANCH  13  15
ENDBRANCH  12  13
BRANCH  12  17
ATOM     17  C   UNL     1      17.705 -35.745  21.066  1.00  0.00    -0.006 C 
ATOM     18  C   UNL     1      18.059 -36.030  19.595  1.00  0.00     0.008 C 
ATOM     19  C   UNL     1      18.948 -36.018  21.934  1.00  0.00     0.008 C 
ENDBRANCH  12  17
ENDBRANCH  11  12
ENDBRANCH   1  11
TORSDOF 1
ENDMDL
MODEL 4
REMARK VINA RESULT:    -4.102      1.143      1.365
REMARK INTER + INTRA:          -6.635
REMARK INTER:                  -6.608
REMARK INTRA:                  -0.027
REMARK UNBOUND:                -0.374
REMARK SMILES CC1=CCC[C@@H](C)C(=O)C[C@H](C(C)C)C(=O)C1
REMARK SMILES IDX 8 1 9 2 6 3 7 4 5 5 4 6 3 7 2 8 1 9 10 11 11 12 15 13 16 14
REMARK SMILES IDX 17 15 12 17 13 18 14 19
REMARK H PARENT
REMARK Flexibility Score: 70.00
ROOT
ATOM      1  C   UNL     1      17.157 -30.486  22.404  1.00  0.00     0.136 C 
ATOM      2  O   UNL     1      17.322 -29.356  21.968  1.00  0.00    -0.299 OA
ENDROOT
BRANCH   1   3
ATOM      3  C   UNL     1      18.170 -31.569  22.088  1.00  0.00     0.053 C 
ATOM      4  C   UNL     1      19.578 -31.097  22.468  1.00  0.00     0.016 C 
BRANCH   3   5
ATOM      5  C   UNL     1      18.127 -32.001  20.602  1.00  0.00     0.015 C 
BRANCH   5   6
ATOM      6  C   UNL     1      17.780 -33.483  20.371  1.00  0.00     0.028 C 
BRANCH   6   7
ATOM      7  C   UNL     1      18.020 -34.322  21.605  1.00  0.00    -0.028 C 
ATOM      8  C   UNL     1      17.079 -34.654  22.519  1.00  0.00    -0.070 CG0
ATOM      9  C   UNL     1      17.516 -35.478  23.706  1.00  0.00     0.039 C 
ATOM     10  G   UNL     1      15.606 -34.323  22.355  1.00  0.00     0.000 G0
ENDBRANCH   6   7
ENDBRANCH   5   6
ENDBRANCH   3   5
ENDBRANCH   1   3
BRANCH   1  11
ATOM     11  C   UNL     1      15.975 -30.776  23.306  1.00  0.00     0.087 C 
BRANCH  11  12
ATOM     12  C   UNL     1      14.937 -31.745  22.682  1.00  0.00     0.066 C 
BRANCH  12  13
ATOM     13  C   UNL     1      15.108 -33.167  23.206  1.00  0.00     0.140 C 
ATOM     14  O   UNL     1      14.887 -33.374  24.390  1.00  0.00    -0.299 OA
BRANCH  13  15
ATOM     15  C   UNL     1      15.594 -34.329  22.359  1.00  0.00     0.106 CG0
ATOM     16  G   UNL     1      17.071 -34.647  22.512  1.00  0.00     0.000 G0
ENDBRANCH  13  15
ENDBRANCH  12  13
BRANCH  12  17
ATOM     17  C   UNL     1      13.467 -31.242  22.832  1.00  0.00    -0.006 C 
ATOM     18  C   UNL     1      13.380 -29.895  23.571  1.00  0.00     0.008 C 
ATOM     19  C   UNL     1      12.790 -31.095  21.455  1.00  0.00     0.008 C 
ENDBRANCH  12  17
ENDBRANCH  11  12
ENDBRANCH   1  11
TORSDOF 1
ENDMDL
MODEL 5
REMARK VINA RESULT:    -4.008      1.966      3.926
REMARK INTER + INTRA:          -6.490
REMARK INTER:                  -6.882
REMARK INTRA:                   0.392
REMARK UNBOUND:                -0.374
REMARK SMILES CC1=CCC[C@@H](C)C(=O)C[C@H](C(C)C)C(=O)C1
REMARK SMILES IDX 8 1 9 2 6 3 7 4 5 5 4 6 3 7 2 8 1 9 10 11 11 12 15 13 16 14
REMARK SMILES IDX 17 15 12 17 13 18 14 19
REMARK H PARENT
REMARK Flexibility Score: 70.00
ROOT
ATOM      1  C   UNL     1      14.070 -32.141  21.856  1.00  0.00     0.136 C 
ATOM      2  O   UNL     1      13.521 -31.750  20.836  1.00  0.00    -0.299 OA
ENDROOT
BRANCH   1   3
ATOM      3  C   UNL     1      15.244 -33.093  21.759  1.00  0.00     0.053 C 
ATOM      4  C   UNL     1      15.014 -34.096  20.622  1.00  0.00     0.016 C 
BRANCH   3   5
ATOM      5  C   UNL     1      15.513 -33.837  23.089  1.00  0.00     0.015 C 
BRANCH   5   6
ATOM      6  C   UNL     1      16.776 -33.380  23.841  1.00  0.00     0.028 C 
BRANCH   6   7
ATOM      7  C   UNL     1      17.700 -32.572  22.960  1.00  0.00    -0.028 C 
ATOM      8  C   UNL     1      17.667 -31.226  22.818  1.00  0.00    -0.070 CG0
ATOM      9  C   UNL     1      18.655 -30.598  21.866  1.00  0.00     0.039 C 
ATOM     10  G   UNL     1      16.759 -30.325  23.637  1.00  0.00     0.000 G0
ENDBRANCH   6   7
ENDBRANCH   5   6
ENDBRANCH   3   5
ENDBRANCH   1   3
BRANCH   1  11
ATOM     11  C   UNL     1      13.610 -31.620  23.202  1.00  0.00     0.087 C 
BRANCH  11  12
ATOM     12  C   UNL     1      14.080 -30.174  23.505  1.00  0.00     0.066 C 
BRANCH  12  13
ATOM     13  C   UNL     1      15.475 -29.906  22.948  1.00  0.00     0.140 C 
ATOM     14  O   UNL     1      15.564 -29.353  21.862  1.00  0.00    -0.299 OA
BRANCH  13  15
ATOM     15  C   UNL     1      16.758 -30.341  23.633  1.00  0.00     0.106 CG0
ATOM     16  G   UNL     1      17.650 -31.238  22.792  1.00  0.00     0.000 G0
ENDBRANCH  13  15
ENDBRANCH  12  13
BRANCH  12  17
ATOM     17  C   UNL     1      13.054 -29.090  23.049  1.00  0.00    -0.006 C 
ATOM     18  C   UNL     1      11.622 -29.644  22.944  1.00  0.00     0.008 C 
ATOM     19  C   UNL     1      13.049 -27.890  24.016  1.00  0.00     0.008 C 
ENDBRANCH  12  17
ENDBRANCH  11  12
ENDBRANCH   1  11
TORSDOF 1
ENDMDL
MODEL 6
REMARK VINA RESULT:    -3.922      2.212      4.194
REMARK INTER + INTRA:          -6.359
REMARK INTER:                  -6.142
REMARK INTRA:                  -0.218
REMARK UNBOUND:                -0.374
REMARK SMILES CC1=CCC[C@@H](C)C(=O)C[C@H](C(C)C)C(=O)C1
REMARK SMILES IDX 8 1 9 2 6 3 7 4 5 5 4 6 3 7 2 8 1 9 10 11 11 12 15 13 16 14
REMARK SMILES IDX 17 15 12 17 13 18 14 19
REMARK H PARENT
REMARK Flexibility Score: 70.00
ROOT
ATOM      1  C   UNL     1      15.079 -33.102  22.063  1.00  0.00     0.136 C 
ATOM      2  O   UNL     1      14.428 -32.610  21.152  1.00  0.00    -0.299 OA
ENDROOT
BRANCH   1   3
ATOM      3  C   UNL     1      15.230 -32.349  23.370  1.00  0.00     0.053 C 
ATOM      4  C   UNL     1      13.911 -31.659  23.733  1.00  0.00     0.016 C 
BRANCH   3   5
ATOM      5  C   UNL     1      16.385 -31.319  23.326  1.00  0.00     0.015 C 
BRANCH   5   6
ATOM      6  C   UNL     1      17.403 -31.442  24.475  1.00  0.00     0.028 C 
BRANCH   6   7
ATOM      7  C   UNL     1      18.776 -31.831  23.977  1.00  0.00    -0.028 C 
ATOM      8  C   UNL     1      19.221 -33.101  23.822  1.00  0.00    -0.070 CG0
ATOM      9  C   UNL     1      20.637 -33.292  23.338  1.00  0.00     0.039 C 
ATOM     10  G   UNL     1      18.339 -34.321  24.018  1.00  0.00     0.000 G0
ENDBRANCH   6   7
ENDBRANCH   5   6
ENDBRANCH   3   5
ENDBRANCH   1   3
BRANCH   1  11
ATOM     11  C   UNL     1      15.674 -34.485  21.898  1.00  0.00     0.087 C 
BRANCH  11  12
ATOM     12  C   UNL     1      17.192 -34.478  21.585  1.00  0.00     0.066 C 
BRANCH  12  13
ATOM     13  C   UNL     1      18.006 -35.073  22.730  1.00  0.00     0.140 C 
ATOM     14  O   UNL     1      18.376 -36.234  22.629  1.00  0.00    -0.299 OA
BRANCH  13  15
ATOM     15  C   UNL     1      18.332 -34.331  24.013  1.00  0.00     0.106 CG0
ATOM     16  G   UNL     1      19.214 -33.108  23.829  1.00  0.00     0.000 G0
ENDBRANCH  13  15
ENDBRANCH  12  13
BRANCH  12  17
ATOM     17  C   UNL     1      17.537 -35.147  20.217  1.00  0.00    -0.006 C 
ATOM     18  C   UNL     1      16.370 -35.983  19.663  1.00  0.00     0.008 C 
ATOM     19  C   UNL     1      17.928 -34.089  19.167  1.00  0.00     0.008 C 
ENDBRANCH  12  17
ENDBRANCH  11  12
ENDBRANCH   1  11
TORSDOF 1
ENDMDL
MODEL 7
REMARK VINA RESULT:    -3.779      1.831      4.079
REMARK INTER + INTRA:          -6.142
REMARK INTER:                  -5.885
REMARK INTRA:                  -0.257
REMARK UNBOUND:                -0.374
REMARK SMILES CC1=CCC[C@@H](C)C(=O)C[C@H](C(C)C)C(=O)C1
REMARK SMILES IDX 8 1 9 2 6 3 7 4 5 5 4 6 3 7 2 8 1 9 10 11 11 12 15 13 16 14
REMARK SMILES IDX 17 15 12 17 13 18 14 19
REMARK H PARENT
REMARK Flexibility Score: 70.00
ROOT
ATOM      1  C   UNL     1      16.898 -30.669  21.989  1.00  0.00     0.136 C 
ATOM      2  O   UNL     1      17.216 -29.532  22.308  1.00  0.00    -0.299 OA
ENDROOT
BRANCH   1   3
ATOM      3  C   UNL     1      15.538 -31.208  22.387  1.00  0.00     0.053 C 
ATOM      4  C   UNL     1      14.506 -30.075  22.394  1.00  0.00     0.016 C 
BRANCH   3   5
ATOM      5  C   UNL     1      15.566 -31.923  23.760  1.00  0.00     0.015 C 
BRANCH   5   6
ATOM      6  C   UNL     1      15.267 -33.432  23.708  1.00  0.00     0.028 C 
BRANCH   6   7
ATOM      7  C   UNL     1      14.988 -33.908  22.300  1.00  0.00    -0.028 C 
ATOM      8  C   UNL     1      15.887 -34.505  21.484  1.00  0.00    -0.070 CG0
ATOM      9  C   UNL     1      15.430 -34.885  20.097  1.00  0.00     0.039 C 
ATOM     10  G   UNL     1      17.287 -34.892  21.929  1.00  0.00     0.000 G0
ENDBRANCH   6   7
ENDBRANCH   5   6
ENDBRANCH   3   5
ENDBRANCH   1   3
BRANCH   1  11
ATOM     11  C   UNL     1      17.840 -31.503  21.146  1.00  0.00     0.087 C 
BRANCH  11  12
ATOM     12  C   UNL     1      18.626 -32.566  21.956  1.00  0.00     0.066 C 
BRANCH  12  13
ATOM     13  C   UNL     1      18.387 -33.974  21.419  1.00  0.00     0.140 C 
ATOM     14  O   UNL     1      19.088 -34.364  20.496  1.00  0.00    -0.299 OA
BRANCH  13  15
ATOM     15  C   UNL     1      17.290 -34.896  21.918  1.00  0.00     0.106 CG0
ATOM     16  G   UNL     1      15.888 -34.504  21.485  1.00  0.00     0.000 G0
ENDBRANCH  13  15
ENDBRANCH  12  13
BRANCH  12  17
ATOM     17  C   UNL     1      20.148 -32.240  22.076  1.00  0.00    -0.006 C 
ATOM     18  C   UNL     1      20.628 -31.268  20.984  1.00  0.00     0.008 C 
ATOM     19  C   UNL     1      20.477 -31.635  23.455  1.00  0.00     0.008 C 
ENDBRANCH  12  17
ENDBRANCH  11  12
ENDBRANCH   1  11
TORSDOF 1
ENDMDL
MODEL 8
REMARK VINA RESULT:    -3.777      2.261      3.602
REMARK INTER + INTRA:          -6.139
REMARK INTER:                  -6.072
REMARK INTRA:                  -0.067
REMARK UNBOUND:                -0.374
REMARK SMILES CC1=CCC[C@@H](C)C(=O)C[C@H](C(C)C)C(=O)C1
REMARK SMILES IDX 8 1 9 2 6 3 7 4 5 5 4 6 3 7 2 8 1 9 10 11 11 12 15 13 16 14
REMARK SMILES IDX 17 15 12 17 13 18 14 19
REMARK H PARENT
REMARK Flexibility Score: 70.00
ROOT
ATOM      1  C   UNL     1      16.174 -34.176  20.581  1.00  0.00     0.136 C 
ATOM      2  O   UNL     1      15.165 -34.866  20.589  1.00  0.00    -0.299 OA
ENDROOT
BRANCH   1   3
ATOM      3  C   UNL     1      17.470 -34.748  20.043  1.00  0.00     0.053 C 
ATOM      4  C   UNL     1      17.235 -36.164  19.504  1.00  0.00     0.016 C 
BRANCH   3   5
ATOM      5  C   UNL     1      18.598 -34.754  21.103  1.00  0.00     0.015 C 
BRANCH   5   6
ATOM      6  C   UNL     1      18.222 -35.417  22.441  1.00  0.00     0.028 C 
BRANCH   6   7
ATOM      7  C   UNL     1      18.889 -34.740  23.616  1.00  0.00    -0.028 C 
ATOM      8  C   UNL     1      18.283 -33.888  24.476  1.00  0.00    -0.070 CG0
ATOM      9  C   UNL     1      19.124 -33.288  25.576  1.00  0.00     0.039 C 
ATOM     10  G   UNL     1      16.794 -33.591  24.442  1.00  0.00     0.000 G0
ENDBRANCH   6   7
ENDBRANCH   5   6
ENDBRANCH   3   5
ENDBRANCH   1   3
BRANCH   1  11
ATOM     11  C   UNL     1      16.103 -32.738  21.050  1.00  0.00     0.087 C 
BRANCH  11  12
ATOM     12  C   UNL     1      15.387 -32.561  22.414  1.00  0.00     0.066 C 
BRANCH  12  13
ATOM     13  C   UNL     1      16.384 -32.441  23.562  1.00  0.00     0.140 C 
ATOM     14  O   UNL     1      16.926 -31.360  23.743  1.00  0.00    -0.299 OA
BRANCH  13  15
ATOM     15  C   UNL     1      16.792 -33.600  24.454  1.00  0.00     0.106 CG0
ATOM     16  G   UNL     1      18.282 -33.892  24.469  1.00  0.00     0.000 G0
ENDBRANCH  13  15
ENDBRANCH  12  13
BRANCH  12  17
ATOM     17  C   UNL     1      14.356 -31.389  22.415  1.00  0.00    -0.006 C 
ATOM     18  C   UNL     1      13.464 -31.392  21.160  1.00  0.00     0.008 C 
ATOM     19  C   UNL     1      13.453 -31.447  23.662  1.00  0.00     0.008 C 
ENDBRANCH  12  17
ENDBRANCH  11  12
ENDBRANCH   1  11
TORSDOF 1
ENDMDL
MODEL 9
REMARK VINA RESULT:    -3.750      1.881      3.815
REMARK INTER + INTRA:          -6.097
REMARK INTER:                  -5.898
REMARK INTRA:                  -0.199
REMARK UNBOUND:                -0.374
REMARK SMILES CC1=CCC[C@@H](C)C(=O)C[C@H](C(C)C)C(=O)C1
REMARK SMILES IDX 8 1 9 2 6 3 7 4 5 5 4 6 3 7 2 8 1 9 10 11 11 12 15 13 16 14
REMARK SMILES IDX 17 15 12 17 13 18 14 19
REMARK H PARENT
REMARK Flexibility Score: 70.00
ROOT
ATOM      1  C   UNL     1      16.187 -34.411  20.861  1.00  0.00     0.136 C 
ATOM      2  O   UNL     1      15.091 -34.929  20.703  1.00  0.00    -0.299 OA
ENDROOT
BRANCH   1   3
ATOM      3  C   UNL     1      17.438 -35.265  20.795  1.00  0.00     0.053 C 
ATOM      4  C   UNL     1      17.321 -36.278  19.650  1.00  0.00     0.016 C 
BRANCH   3   5
ATOM      5  C   UNL     1      17.728 -35.991  22.131  1.00  0.00     0.015 C 
BRANCH   5   6
ATOM      6  C   UNL     1      18.653 -35.225  23.094  1.00  0.00     0.028 C 
BRANCH   6   7
ATOM      7  C   UNL     1      19.517 -34.218  22.371  1.00  0.00    -0.028 C 
ATOM      8  C   UNL     1      19.458 -32.876  22.534  1.00  0.00    -0.070 CG0
ATOM      9  C   UNL     1      20.385 -32.027  21.699  1.00  0.00     0.039 C 
ATOM     10  G   UNL     1      18.581 -32.202  23.576  1.00  0.00     0.000 G0
ENDBRANCH   6   7
ENDBRANCH   5   6
ENDBRANCH   3   5
ENDBRANCH   1   3
BRANCH   1  11
ATOM     11  C   UNL     1      16.287 -32.913  21.059  1.00  0.00     0.087 C 
BRANCH  11  12
ATOM     12  C   UNL     1      16.111 -32.465  22.533  1.00  0.00     0.066 C 
BRANCH  12  13
ATOM     13  C   UNL     1      17.286 -31.615  23.008  1.00  0.00     0.140 C 
ATOM     14  O   UNL     1      17.206 -30.402  22.881  1.00  0.00    -0.299 OA
BRANCH  13  15
ATOM     15  C   UNL     1      18.573 -32.189  23.571  1.00  0.00     0.106 CG0
ATOM     16  G   UNL     1      19.463 -32.870  22.546  1.00  0.00     0.000 G0
ENDBRANCH  13  15
ENDBRANCH  12  13
BRANCH  12  17
ATOM     17  C   UNL     1      14.741 -31.765  22.799  1.00  0.00    -0.006 C 
ATOM     18  C   UNL     1      13.819 -31.794  21.567  1.00  0.00     0.008 C 
ATOM     19  C   UNL     1      14.005 -32.422  23.982  1.00  0.00     0.008 C 
ENDBRANCH  12  17
ENDBRANCH  11  12
ENDBRANCH   1  11
TORSDOF 1
ENDMDL
