MODEL 1
REMARK VINA RESULT:    -3.366      0.000      0.000
REMARK INTER + INTRA:          -6.228
REMARK INTER:                  -5.334
REMARK INTRA:                  -0.894
REMARK UNBOUND:                -0.894
REMARK SMILES CCCCCCCCCCCC(=O)[O-]
REMARK SMILES IDX 7 1 8 2 9 3 10 4 11 5 12 6 13 7 14 8 6 9 5 10 4 11 3 12 2 13
REMARK SMILES IDX 1 14
REMARK H PARENT
REMARK Flexibility Score: inf
ROOT
ATOM      1  C   UNL     1      13.813  38.357   7.745  1.00  0.00     0.000 C 
ENDROOT
BRANCH   1   2
ATOM      2  C   UNL     1      14.163  38.844   9.159  1.00  0.00     0.000 C 
BRANCH   2   3
ATOM      3  C   UNL     1      14.115  37.687  10.165  1.00  0.00     0.000 C 
BRANCH   3   4
ATOM      4  C   UNL     1      15.357  37.687  11.065  1.00  0.00     0.006 C 
BRANCH   4   5
ATOM      5  C   UNL     1      15.220  38.715  12.191  1.00  0.00     0.053 C 
BRANCH   5   6
ATOM      6  C   UNL     1      14.332  38.190  13.274  1.00  0.00     0.041 C 
ATOM      7  O   UNL     1      14.770  37.350  14.103  1.00  0.00    -0.550 OA
ATOM      8  O   UNL     1      13.032  38.666  13.398  1.00  0.00    -0.550 OA
ENDBRANCH   5   6
ENDBRANCH   4   5
ENDBRANCH   3   4
ENDBRANCH   2   3
ENDBRANCH   1   2
BRANCH   1   9
ATOM      9  C   UNL     1      14.844  38.798   6.694  1.00  0.00     0.000 C 
BRANCH   9  10
ATOM     10  C   UNL     1      16.238  39.031   7.295  1.00  0.00    -0.000 C 
BRANCH  10  11
ATOM     11  C   UNL     1      16.740  40.446   6.982  1.00  0.00    -0.000 C 
BRANCH  11  12
ATOM     12  C   UNL     1      16.687  41.337   8.232  1.00  0.00    -0.000 C 
BRANCH  12  13
ATOM     13  C   UNL     1      15.537  42.355   8.181  1.00  0.00    -0.003 C 
ATOM     14  C   UNL     1      15.518  43.288   9.391  1.00  0.00     0.004 C 
ENDBRANCH  12  13
ENDBRANCH  11  12
ENDBRANCH  10  11
ENDBRANCH   9  10
ENDBRANCH   1   9
TORSDOF 10
ENDMDL
MODEL 2
REMARK VINA RESULT:    -3.338      1.542      1.677
REMARK INTER + INTRA:          -6.184
REMARK INTER:                  -5.008
REMARK INTRA:                  -1.175
REMARK UNBOUND:                -0.894
REMARK SMILES CCCCCCCCCCCC(=O)[O-]
REMARK SMILES IDX 7 1 8 2 9 3 10 4 11 5 12 6 13 7 14 8 6 9 5 10 4 11 3 12 2 13
REMARK SMILES IDX 1 14
REMARK H PARENT
REMARK Flexibility Score: inf
ROOT
ATOM      1  C   UNL     1      13.794  38.317   7.754  1.00  0.00     0.000 C 
ENDROOT
BRANCH   1   2
ATOM      2  C   UNL     1      14.196  38.797   9.157  1.00  0.00     0.000 C 
BRANCH   2   3
ATOM      3  C   UNL     1      14.067  37.664  10.182  1.00  0.00     0.000 C 
BRANCH   3   4
ATOM      4  C   UNL     1      15.182  37.741  11.232  1.00  0.00     0.006 C 
BRANCH   4   5
ATOM      5  C   UNL     1      16.170  38.863  10.903  1.00  0.00     0.053 C 
BRANCH   5   6
ATOM      6  C   UNL     1      16.270  39.825  12.044  1.00  0.00     0.041 C 
ATOM      7  O   UNL     1      16.045  39.438  13.221  1.00  0.00    -0.550 OA
ATOM      8  O   UNL     1      16.659  41.138  11.814  1.00  0.00    -0.550 OA
ENDBRANCH   5   6
ENDBRANCH   4   5
ENDBRANCH   3   4
ENDBRANCH   2   3
ENDBRANCH   1   2
BRANCH   1   9
ATOM      9  C   UNL     1      14.766  38.795   6.663  1.00  0.00     0.000 C 
BRANCH   9  10
ATOM     10  C   UNL     1      16.166  39.105   7.212  1.00  0.00    -0.000 C 
BRANCH  10  11
ATOM     11  C   UNL     1      16.554  40.563   6.935  1.00  0.00    -0.000 C 
BRANCH  11  12
ATOM     12  C   UNL     1      16.558  41.386   8.232  1.00  0.00    -0.000 C 
BRANCH  12  13
ATOM     13  C   UNL     1      15.293  42.244   8.390  1.00  0.00    -0.003 C 
ATOM     14  C   UNL     1      15.513  43.463   9.285  1.00  0.00     0.004 C 
ENDBRANCH  12  13
ENDBRANCH  11  12
ENDBRANCH  10  11
ENDBRANCH   9  10
ENDBRANCH   1   9
TORSDOF 10
ENDMDL
MODEL 3
REMARK VINA RESULT:    -3.318      1.925      2.478
REMARK INTER + INTRA:          -6.151
REMARK INTER:                  -5.316
REMARK INTRA:                  -0.834
REMARK UNBOUND:                -0.894
REMARK SMILES CCCCCCCCCCCC(=O)[O-]
REMARK SMILES IDX 7 1 8 2 9 3 10 4 11 5 12 6 13 7 14 8 6 9 5 10 4 11 3 12 2 13
REMARK SMILES IDX 1 14
REMARK H PARENT
REMARK Flexibility Score: inf
ROOT
ATOM      1  C   UNL     1      14.264  38.786   9.133  1.00  0.00     0.000 C 
ENDROOT
BRANCH   1   2
ATOM      2  C   UNL     1      14.115  37.624  10.127  1.00  0.00     0.000 C 
BRANCH   2   3
ATOM      3  C   UNL     1      14.728  37.983  11.487  1.00  0.00     0.000 C 
BRANCH   3   4
ATOM      4  C   UNL     1      16.233  37.690  11.507  1.00  0.00     0.006 C 
BRANCH   4   5
ATOM      5  C   UNL     1      16.645  37.024  12.822  1.00  0.00     0.053 C 
BRANCH   5   6
ATOM      6  C   UNL     1      16.753  35.542  12.648  1.00  0.00     0.041 C 
ATOM      7  O   UNL     1      16.675  35.031  11.500  1.00  0.00    -0.550 OA
ATOM      8  O   UNL     1      16.988  34.728  13.749  1.00  0.00    -0.550 OA
ENDBRANCH   5   6
ENDBRANCH   4   5
ENDBRANCH   3   4
ENDBRANCH   2   3
ENDBRANCH   1   2
BRANCH   1   9
ATOM      9  C   UNL     1      13.907  38.383   7.693  1.00  0.00     0.000 C 
BRANCH   9  10
ATOM     10  C   UNL     1      15.007  38.750   6.686  1.00  0.00    -0.000 C 
BRANCH  10  11
ATOM     11  C   UNL     1      16.306  39.130   7.407  1.00  0.00    -0.000 C 
BRANCH  11  12
ATOM     12  C   UNL     1      16.768  40.538   7.001  1.00  0.00    -0.000 C 
BRANCH  12  13
ATOM     13  C   UNL     1      15.623  41.563   7.022  1.00  0.00    -0.003 C 
ATOM     14  C   UNL     1      15.409  42.183   8.402  1.00  0.00     0.004 C 
ENDBRANCH  12  13
ENDBRANCH  11  12
ENDBRANCH  10  11
ENDBRANCH   9  10
ENDBRANCH   1   9
TORSDOF 10
ENDMDL
MODEL 4
REMARK VINA RESULT:    -3.299      2.525      5.314
REMARK INTER + INTRA:          -6.121
REMARK INTER:                  -5.346
REMARK INTRA:                  -0.775
REMARK UNBOUND:                -0.894
REMARK SMILES CCCCCCCCCCCC(=O)[O-]
REMARK SMILES IDX 7 1 8 2 9 3 10 4 11 5 12 6 13 7 14 8 6 9 5 10 4 11 3 12 2 13
REMARK SMILES IDX 1 14
REMARK H PARENT
REMARK Flexibility Score: inf
ROOT
ATOM      1  C   UNL     1      14.312  38.738   9.281  1.00  0.00     0.000 C 
ENDROOT
BRANCH   1   2
ATOM      2  C   UNL     1      13.846  38.333   7.873  1.00  0.00     0.000 C 
BRANCH   2   3
ATOM      3  C   UNL     1      14.852  38.791   6.810  1.00  0.00     0.000 C 
BRANCH   3   4
ATOM      4  C   UNL     1      16.033  39.530   7.450  1.00  0.00     0.006 C 
BRANCH   4   5
ATOM      5  C   UNL     1      15.994  41.023   7.114  1.00  0.00     0.053 C 
BRANCH   5   6
ATOM      6  C   UNL     1      15.812  41.835   8.357  1.00  0.00     0.041 C 
ATOM      7  O   UNL     1      14.913  42.716   8.413  1.00  0.00    -0.550 OA
ATOM      8  O   UNL     1      16.602  41.587   9.472  1.00  0.00    -0.550 OA
ENDBRANCH   5   6
ENDBRANCH   4   5
ENDBRANCH   3   4
ENDBRANCH   2   3
ENDBRANCH   1   2
BRANCH   1   9
ATOM      9  C   UNL     1      14.055  37.642  10.327  1.00  0.00     0.000 C 
BRANCH   9  10
ATOM     10  C   UNL     1      15.303  37.316  11.161  1.00  0.00    -0.000 C 
BRANCH  10  11
ATOM     11  C   UNL     1      15.761  38.539  11.966  1.00  0.00    -0.000 C 
BRANCH  11  12
ATOM     12  C   UNL     1      15.386  38.392  13.449  1.00  0.00    -0.000 C 
BRANCH  12  13
ATOM     13  C   UNL     1      14.260  39.349  13.870  1.00  0.00    -0.003 C 
ATOM     14  C   UNL     1      12.876  38.706  13.793  1.00  0.00     0.004 C 
ENDBRANCH  12  13
ENDBRANCH  11  12
ENDBRANCH  10  11
ENDBRANCH   9  10
ENDBRANCH   1   9
TORSDOF 10
ENDMDL
MODEL 5
REMARK VINA RESULT:    -3.253      2.825      5.279
REMARK INTER + INTRA:          -6.049
REMARK INTER:                  -5.002
REMARK INTRA:                  -1.047
REMARK UNBOUND:                -0.894
REMARK SMILES CCCCCCCCCCCC(=O)[O-]
REMARK SMILES IDX 7 1 8 2 9 3 10 4 11 5 12 6 13 7 14 8 6 9 5 10 4 11 3 12 2 13
REMARK SMILES IDX 1 14
REMARK H PARENT
REMARK Flexibility Score: inf
ROOT
ATOM      1  C   UNL     1      13.913  38.375   7.721  1.00  0.00     0.000 C 
ENDROOT
BRANCH   1   2
ATOM      2  C   UNL     1      14.865  39.032   6.709  1.00  0.00     0.000 C 
BRANCH   2   3
ATOM      3  C   UNL     1      16.286  39.134   7.279  1.00  0.00     0.000 C 
BRANCH   3   4
ATOM      4  C   UNL     1      16.819  40.568   7.177  1.00  0.00     0.006 C 
BRANCH   4   5
ATOM      5  C   UNL     1      16.891  41.227   8.556  1.00  0.00     0.053 C 
BRANCH   5   6
ATOM      6  C   UNL     1      16.054  42.467   8.588  1.00  0.00     0.041 C 
ATOM      7  O   UNL     1      14.832  42.415   8.288  1.00  0.00    -0.550 OA
ATOM      8  O   UNL     1      16.612  43.672   8.997  1.00  0.00    -0.550 OA
ENDBRANCH   5   6
ENDBRANCH   4   5
ENDBRANCH   3   4
ENDBRANCH   2   3
ENDBRANCH   1   2
BRANCH   1   9
ATOM      9  C   UNL     1      14.196  38.808   9.168  1.00  0.00     0.000 C 
BRANCH   9  10
ATOM     10  C   UNL     1      14.128  37.637  10.160  1.00  0.00    -0.000 C 
BRANCH  10  11
ATOM     11  C   UNL     1      14.642  38.058  11.542  1.00  0.00    -0.000 C 
BRANCH  11  12
ATOM     12  C   UNL     1      16.051  38.663  11.443  1.00  0.00    -0.000 C 
BRANCH  12  13
ATOM     13  C   UNL     1      17.125  37.609  11.132  1.00  0.00    -0.003 C 
ATOM     14  C   UNL     1      16.914  36.305  11.902  1.00  0.00     0.004 C 
ENDBRANCH  12  13
ENDBRANCH  11  12
ENDBRANCH  10  11
ENDBRANCH   9  10
ENDBRANCH   1   9
TORSDOF 10
ENDMDL
MODEL 6
REMARK VINA RESULT:    -3.046      0.939      1.677
REMARK INTER + INTRA:          -5.720
REMARK INTER:                  -4.836
REMARK INTRA:                  -0.884
REMARK UNBOUND:                -0.894
REMARK SMILES CCCCCCCCCCCC(=O)[O-]
REMARK SMILES IDX 7 1 8 2 9 3 10 4 11 5 12 6 13 7 14 8 6 9 5 10 4 11 3 12 2 13
REMARK SMILES IDX 1 14
REMARK H PARENT
REMARK Flexibility Score: inf
ROOT
ATOM      1  C   UNL     1      14.662  39.065   6.889  1.00  0.00     0.000 C 
ENDROOT
BRANCH   1   2
ATOM      2  C   UNL     1      13.983  38.465   8.130  1.00  0.00     0.000 C 
BRANCH   2   3
ATOM      3  C   UNL     1      14.838  38.688   9.384  1.00  0.00     0.000 C 
BRANCH   3   4
ATOM      4  C   UNL     1      14.081  38.268  10.649  1.00  0.00     0.006 C 
BRANCH   4   5
ATOM      5  C   UNL     1      15.022  37.603  11.657  1.00  0.00     0.053 C 
BRANCH   5   6
ATOM      6  C   UNL     1      14.582  37.896  13.057  1.00  0.00     0.041 C 
ATOM      7  O   UNL     1      13.435  38.366  13.275  1.00  0.00    -0.550 OA
ATOM      8  O   UNL     1      15.421  37.604  14.125  1.00  0.00    -0.550 OA
ENDBRANCH   5   6
ENDBRANCH   4   5
ENDBRANCH   3   4
ENDBRANCH   2   3
ENDBRANCH   1   2
BRANCH   1   9
ATOM      9  C   UNL     1      16.192  39.129   7.022  1.00  0.00     0.000 C 
BRANCH   9  10
ATOM     10  C   UNL     1      16.727  40.569   7.008  1.00  0.00    -0.000 C 
BRANCH  10  11
ATOM     11  C   UNL     1      15.633  41.565   7.413  1.00  0.00    -0.000 C 
BRANCH  11  12
ATOM     12  C   UNL     1      16.106  42.461   8.568  1.00  0.00    -0.000 C 
BRANCH  12  13
ATOM     13  C   UNL     1      17.044  41.725   9.538  1.00  0.00    -0.003 C 
ATOM     14  C   UNL     1      16.714  42.001  11.004  1.00  0.00     0.004 C 
ENDBRANCH  12  13
ENDBRANCH  11  12
ENDBRANCH  10  11
ENDBRANCH   9  10
ENDBRANCH   1   9
TORSDOF 10
ENDMDL
MODEL 7
REMARK VINA RESULT:    -2.891      3.119      5.581
REMARK INTER + INTRA:          -5.475
REMARK INTER:                  -4.379
REMARK INTRA:                  -1.096
REMARK UNBOUND:                -0.894
REMARK SMILES CCCCCCCCCCCC(=O)[O-]
REMARK SMILES IDX 7 1 8 2 9 3 10 4 11 5 12 6 13 7 14 8 6 9 5 10 4 11 3 12 2 13
REMARK SMILES IDX 1 14
REMARK H PARENT
REMARK Flexibility Score: inf
ROOT
ATOM      1  C   UNL     1      15.106  38.635  10.525  1.00  0.00     0.000 C 
ENDROOT
BRANCH   1   2
ATOM      2  C   UNL     1      16.483  39.315  10.491  1.00  0.00     0.000 C 
BRANCH   2   3
ATOM      3  C   UNL     1      16.468  40.539   9.567  1.00  0.00     0.000 C 
BRANCH   3   4
ATOM      4  C   UNL     1      15.186  40.579   8.726  1.00  0.00     0.006 C 
BRANCH   4   5
ATOM      5  C   UNL     1      15.499  40.401   7.239  1.00  0.00     0.053 C 
BRANCH   5   6
ATOM      6  C   UNL     1      15.233  38.992   6.813  1.00  0.00     0.041 C 
ATOM      7  O   UNL     1      16.118  38.335   6.205  1.00  0.00    -0.550 OA
ATOM      8  O   UNL     1      14.023  38.387   7.130  1.00  0.00    -0.550 OA
ENDBRANCH   5   6
ENDBRANCH   4   5
ENDBRANCH   3   4
ENDBRANCH   2   3
ENDBRANCH   1   2
BRANCH   1   9
ATOM      9  C   UNL     1      15.080  37.395  11.433  1.00  0.00     0.000 C 
BRANCH   9  10
ATOM     10  C   UNL     1      15.151  37.754  12.925  1.00  0.00    -0.000 C 
BRANCH  10  11
ATOM     11  C   UNL     1      13.848  38.414  13.394  1.00  0.00    -0.000 C 
BRANCH  11  12
ATOM     12  C   UNL     1      14.128  39.769  14.061  1.00  0.00    -0.000 C 
BRANCH  12  13
ATOM     13  C   UNL     1      15.604  40.183  13.957  1.00  0.00    -0.003 C 
ATOM     14  C   UNL     1      15.783  41.683  13.726  1.00  0.00     0.004 C 
ENDBRANCH  12  13
ENDBRANCH  11  12
ENDBRANCH  10  11
ENDBRANCH   9  10
ENDBRANCH   1   9
TORSDOF 10
ENDMDL
MODEL 8
REMARK VINA RESULT:    -2.796      1.396      3.147
REMARK INTER + INTRA:          -5.324
REMARK INTER:                  -4.128
REMARK INTRA:                  -1.197
REMARK UNBOUND:                -0.894
REMARK SMILES CCCCCCCCCCCC(=O)[O-]
REMARK SMILES IDX 7 1 8 2 9 3 10 4 11 5 12 6 13 7 14 8 6 9 5 10 4 11 3 12 2 13
REMARK SMILES IDX 1 14
REMARK H PARENT
REMARK Flexibility Score: inf
ROOT
ATOM      1  C   UNL     1      16.666  42.180   9.215  1.00  0.00     0.000 C 
ENDROOT
BRANCH   1   2
ATOM      2  C   UNL     1      16.651  41.528  10.606  1.00  0.00     0.000 C 
BRANCH   2   3
ATOM      3  C   UNL     1      17.111  40.067  10.532  1.00  0.00     0.000 C 
BRANCH   3   4
ATOM      4  C   UNL     1      15.933  39.107  10.741  1.00  0.00     0.006 C 
BRANCH   4   5
ATOM      5  C   UNL     1      16.273  38.038  11.783  1.00  0.00     0.053 C 
BRANCH   5   6
ATOM      6  C   UNL     1      15.489  38.262  13.037  1.00  0.00     0.041 C 
ATOM      7  O   UNL     1      15.224  37.296  13.799  1.00  0.00    -0.550 OA
ATOM      8  O   UNL     1      15.094  39.546  13.391  1.00  0.00    -0.550 OA
ENDBRANCH   5   6
ENDBRANCH   4   5
ENDBRANCH   3   4
ENDBRANCH   2   3
ENDBRANCH   1   2
BRANCH   1   9
ATOM      9  C   UNL     1      15.348  41.978   8.452  1.00  0.00     0.000 C 
BRANCH   9  10
ATOM     10  C   UNL     1      15.562  41.416   7.039  1.00  0.00    -0.000 C 
BRANCH  10  11
ATOM     11  C   UNL     1      16.697  40.384   7.025  1.00  0.00    -0.000 C 
BRANCH  11  12
ATOM     12  C   UNL     1      16.138  38.953   7.021  1.00  0.00    -0.000 C 
BRANCH  12  13
ATOM     13  C   UNL     1      14.641  38.906   6.675  1.00  0.00    -0.003 C 
ATOM     14  C   UNL     1      13.795  38.295   7.792  1.00  0.00     0.004 C 
ENDBRANCH  12  13
ENDBRANCH  11  12
ENDBRANCH  10  11
ENDBRANCH   9  10
ENDBRANCH   1   9
TORSDOF 10
ENDMDL
MODEL 9
REMARK VINA RESULT:    -2.721      3.162      5.803
REMARK INTER + INTRA:          -5.205
REMARK INTER:                  -4.222
REMARK INTRA:                  -0.983
REMARK UNBOUND:                -0.894
REMARK SMILES CCCCCCCCCCCC(=O)[O-]
REMARK SMILES IDX 7 1 8 2 9 3 10 4 11 5 12 6 13 7 14 8 6 9 5 10 4 11 3 12 2 13
REMARK SMILES IDX 1 14
REMARK H PARENT
REMARK Flexibility Score: inf
ROOT
ATOM      1  C   UNL     1      16.404  42.699  10.730  1.00  0.00     0.000 C 
ENDROOT
BRANCH   1   2
ATOM      2  C   UNL     1      16.736  42.029   9.388  1.00  0.00     0.000 C 
BRANCH   2   3
ATOM      3  C   UNL     1      15.676  42.364   8.330  1.00  0.00     0.000 C 
BRANCH   3   4
ATOM      4  C   UNL     1      15.637  41.296   7.231  1.00  0.00     0.006 C 
BRANCH   4   5
ATOM      5  C   UNL     1      16.019  39.921   7.787  1.00  0.00     0.053 C 
BRANCH   5   6
ATOM      6  C   UNL     1      15.696  38.848   6.797  1.00  0.00     0.041 C 
ATOM      7  O   UNL     1      16.621  38.238   6.198  1.00  0.00    -0.550 OA
ATOM      8  O   UNL     1      14.374  38.486   6.569  1.00  0.00    -0.550 OA
ENDBRANCH   5   6
ENDBRANCH   4   5
ENDBRANCH   3   4
ENDBRANCH   2   3
ENDBRANCH   1   2
BRANCH   1   9
ATOM      9  C   UNL     1      16.858  41.864  11.938  1.00  0.00     0.000 C 
BRANCH   9  10
ATOM     10  C   UNL     1      16.763  40.352  11.681  1.00  0.00    -0.000 C 
BRANCH  10  11
ATOM     11  C   UNL     1      16.152  39.628  12.887  1.00  0.00    -0.000 C 
BRANCH  11  12
ATOM     12  C   UNL     1      15.082  38.621  12.439  1.00  0.00    -0.000 C 
BRANCH  12  13
ATOM     13  C   UNL     1      15.327  38.094  11.016  1.00  0.00    -0.003 C 
ATOM     14  C   UNL     1      14.035  37.916  10.220  1.00  0.00     0.004 C 
ENDBRANCH  12  13
ENDBRANCH  11  12
ENDBRANCH  10  11
ENDBRANCH   9  10
ENDBRANCH   1   9
TORSDOF 10
ENDMDL
