MODEL 1
REMARK VINA RESULT:    -0.975      0.000      0.000
REMARK INTER + INTRA:          -1.383
REMARK INTER:                  -1.317
REMARK INTRA:                  -0.066
REMARK UNBOUND:                -0.066
REMARK SMILES [NH3+]CCCC[C@@H]([NH3+])C(=O)[O-]
REMARK SMILES IDX 4 1 3 2 2 3 1 4 5 8 6 9 7 10 8 14 9 15 10 16
REMARK H PARENT 1 5 1 6 1 7 7 11 7 12 7 13
REMARK Flexibility Score: inf
ROOT
ATOM      1  C   UNL     1      -0.339   2.220  -5.703  1.00  0.00     0.012 C 
ENDROOT
BRANCH   1   2
ATOM      2  C   UNL     1      -1.072   2.982  -4.585  1.00  0.00     0.061 C 
BRANCH   2   3
ATOM      3  C   UNL     1      -1.556   4.394  -4.970  1.00  0.00     0.258 C 
BRANCH   3   4
ATOM      4  N   UNL     1      -1.973   5.177  -3.805  1.00  0.00    -0.358 N 
ATOM      5  H   UNL     1      -2.981   5.442  -3.889  1.00  0.00     0.344 HD
ATOM      6  H   UNL     1      -1.382   6.035  -3.709  1.00  0.00     0.344 HD
ATOM      7  H   UNL     1      -1.860   4.594  -2.945  1.00  0.00     0.344 HD
ENDBRANCH   3   4
ENDBRANCH   2   3
ENDBRANCH   1   2
BRANCH   1   8
ATOM      8  C   UNL     1       1.126   1.907  -5.353  1.00  0.00     0.072 C 
BRANCH   8   9
ATOM      9  C   UNL     1       1.637   0.614  -6.028  1.00  0.00     0.227 C 
BRANCH   9  10
ATOM     10  N   UNL     1       1.589   0.704  -7.494  1.00  0.00    -0.350 N 
ATOM     11  H   UNL     1       1.348  -0.230  -7.902  1.00  0.00     0.345 HD
ATOM     12  H   UNL     1       2.510   1.015  -7.879  1.00  0.00     0.345 HD
ATOM     13  H   UNL     1       0.844   1.374  -7.791  1.00  0.00     0.345 HD
ENDBRANCH   9  10
BRANCH   9  14
ATOM     14  C   UNL     1       3.044   0.327  -5.574  1.00  0.00     0.099 C 
ATOM     15  O   UNL     1       3.448   0.731  -4.451  1.00  0.00    -0.544 OA
ATOM     16  O   UNL     1       3.900  -0.407  -6.386  1.00  0.00    -0.544 OA
ENDBRANCH   9  14
ENDBRANCH   8   9
ENDBRANCH   1   8
TORSDOF 7
ENDMDL
MODEL 2
REMARK VINA RESULT:    -0.812      1.550      1.878
REMARK INTER + INTRA:          -1.163
REMARK INTER:                  -1.066
REMARK INTRA:                  -0.097
REMARK UNBOUND:                -0.066
REMARK SMILES [NH3+]CCCC[C@@H]([NH3+])C(=O)[O-]
REMARK SMILES IDX 4 1 3 2 2 3 1 4 5 8 6 9 7 10 8 14 9 15 10 16
REMARK H PARENT 1 5 1 6 1 7 7 11 7 12 7 13
REMARK Flexibility Score: inf
ROOT
ATOM      1  C   UNL     1      -0.801   2.946  -5.663  1.00  0.00     0.012 C 
ENDROOT
BRANCH   1   2
ATOM      2  C   UNL     1      -1.167   3.589  -4.314  1.00  0.00     0.061 C 
BRANCH   2   3
ATOM      3  C   UNL     1      -2.015   4.873  -4.413  1.00  0.00     0.258 C 
BRANCH   3   4
ATOM      4  N   UNL     1      -1.631   5.873  -3.416  1.00  0.00    -0.358 N 
ATOM      5  H   UNL     1      -2.450   6.118  -2.815  1.00  0.00     0.344 HD
ATOM      6  H   UNL     1      -1.258   6.732  -3.884  1.00  0.00     0.344 HD
ATOM      7  H   UNL     1      -0.884   5.474  -2.804  1.00  0.00     0.344 HD
ENDBRANCH   3   4
ENDBRANCH   2   3
ENDBRANCH   1   2
BRANCH   1   8
ATOM      8  C   UNL     1      -0.070   1.602  -5.507  1.00  0.00     0.072 C 
BRANCH   8   9
ATOM      9  C   UNL     1       1.402   1.666  -5.975  1.00  0.00     0.227 C 
BRANCH   9  10
ATOM     10  N   UNL     1       2.325   1.890  -4.853  1.00  0.00    -0.350 N 
ATOM     11  H   UNL     1       2.321   1.059  -4.217  1.00  0.00     0.345 HD
ATOM     12  H   UNL     1       2.047   2.738  -4.307  1.00  0.00     0.345 HD
ATOM     13  H   UNL     1       3.301   2.007  -5.206  1.00  0.00     0.345 HD
ENDBRANCH   9  10
BRANCH   9  14
ATOM     14  C   UNL     1       1.761   0.391  -6.693  1.00  0.00     0.099 C 
ATOM     15  O   UNL     1       1.240   0.116  -7.806  1.00  0.00    -0.544 OA
ATOM     16  O   UNL     1       2.690  -0.480  -6.138  1.00  0.00    -0.544 OA
ENDBRANCH   9  14
ENDBRANCH   8   9
ENDBRANCH   1   8
TORSDOF 7
ENDMDL
MODEL 3
REMARK VINA RESULT:    -0.789      2.132      2.447
REMARK INTER + INTRA:          -1.133
REMARK INTER:                  -1.059
REMARK INTRA:                  -0.073
REMARK UNBOUND:                -0.066
REMARK SMILES [NH3+]CCCC[C@@H]([NH3+])C(=O)[O-]
REMARK SMILES IDX 4 1 3 2 2 3 1 4 5 8 6 9 7 10 8 14 9 15 10 16
REMARK H PARENT 1 5 1 6 1 7 7 11 7 12 7 13
REMARK Flexibility Score: inf
ROOT
ATOM      1  C   UNL     1       0.752   2.079  -5.483  1.00  0.00     0.012 C 
ENDROOT
BRANCH   1   2
ATOM      2  C   UNL     1      -0.696   2.599  -5.538  1.00  0.00     0.061 C 
BRANCH   2   3
ATOM      3  C   UNL     1      -1.096   3.532  -4.378  1.00  0.00     0.258 C 
BRANCH   3   4
ATOM      4  N   UNL     1      -1.809   4.723  -4.841  1.00  0.00    -0.358 N 
ATOM      5  H   UNL     1      -1.919   4.698  -5.880  1.00  0.00     0.344 HD
ATOM      6  H   UNL     1      -1.299   5.591  -4.554  1.00  0.00     0.344 HD
ATOM      7  H   UNL     1      -2.762   4.737  -4.412  1.00  0.00     0.344 HD
ENDBRANCH   3   4
ENDBRANCH   2   3
ENDBRANCH   1   2
BRANCH   1   8
ATOM      8  C   UNL     1       0.918   0.700  -6.144  1.00  0.00     0.072 C 
BRANCH   8   9
ATOM      9  C   UNL     1       2.254   0.563  -6.910  1.00  0.00     0.227 C 
BRANCH   9  10
ATOM     10  N   UNL     1       3.183  -0.351  -6.232  1.00  0.00    -0.350 N 
ATOM     11  H   UNL     1       4.171  -0.059  -6.418  1.00  0.00     0.345 HD
ATOM     12  H   UNL     1       3.050  -1.333  -6.566  1.00  0.00     0.345 HD
ATOM     13  H   UNL     1       3.038  -0.313  -5.198  1.00  0.00     0.345 HD
ENDBRANCH   9  10
BRANCH   9  14
ATOM     14  C   UNL     1       1.987   0.083  -8.312  1.00  0.00     0.099 C 
ATOM     15  O   UNL     1       2.769   0.389  -9.251  1.00  0.00    -0.544 OA
ATOM     16  O   UNL     1       0.885  -0.721  -8.573  1.00  0.00    -0.544 OA
ENDBRANCH   9  14
ENDBRANCH   8   9
ENDBRANCH   1   8
TORSDOF 7
ENDMDL
MODEL 4
REMARK VINA RESULT:    -0.303      4.013      6.196
REMARK INTER + INTRA:          -0.475
REMARK INTER:                  -0.392
REMARK INTRA:                  -0.083
REMARK UNBOUND:                -0.066
REMARK SMILES [NH3+]CCCC[C@@H]([NH3+])C(=O)[O-]
REMARK SMILES IDX 4 1 3 2 2 3 1 4 5 8 6 9 7 10 8 14 9 15 10 16
REMARK H PARENT 1 5 1 6 1 7 7 11 7 12 7 13
REMARK Flexibility Score: inf
ROOT
ATOM      1  C   UNL     1      -0.697   3.030  -4.687  1.00  0.00     0.012 C 
ENDROOT
BRANCH   1   2
ATOM      2  C   UNL     1      -0.230   2.135  -5.849  1.00  0.00     0.061 C 
BRANCH   2   3
ATOM      3  C   UNL     1       1.171   1.518  -5.671  1.00  0.00     0.258 C 
BRANCH   3   4
ATOM      4  N   UNL     1       1.605   0.770  -6.853  1.00  0.00    -0.358 N 
ATOM      5  H   UNL     1       1.430   1.328  -7.719  1.00  0.00     0.344 HD
ATOM      6  H   UNL     1       1.105  -0.147  -6.909  1.00  0.00     0.344 HD
ATOM      7  H   UNL     1       2.631   0.588  -6.782  1.00  0.00     0.344 HD
ENDBRANCH   3   4
ENDBRANCH   2   3
ENDBRANCH   1   2
BRANCH   1   8
ATOM      8  C   UNL     1      -1.589   4.195  -5.149  1.00  0.00     0.072 C 
BRANCH   8   9
ATOM      9  C   UNL     1      -2.140   5.028  -3.970  1.00  0.00     0.227 C 
BRANCH   9  10
ATOM     10  N   UNL     1      -1.766   4.453  -2.670  1.00  0.00    -0.350 N 
ATOM     11  H   UNL     1      -2.455   4.747  -1.938  1.00  0.00     0.345 HD
ATOM     12  H   UNL     1      -0.811   4.769  -2.384  1.00  0.00     0.345 HD
ATOM     13  H   UNL     1      -1.788   3.410  -2.717  1.00  0.00     0.345 HD
ENDBRANCH   9  10
BRANCH   9  14
ATOM     14  C   UNL     1      -1.638   6.445  -4.072  1.00  0.00     0.099 C 
ATOM     15  O   UNL     1      -1.636   7.043  -5.180  1.00  0.00    -0.544 OA
ATOM     16  O   UNL     1      -1.194   7.108  -2.935  1.00  0.00    -0.544 OA
ENDBRANCH   9  14
ENDBRANCH   8   9
ENDBRANCH   1   8
TORSDOF 7
ENDMDL
MODEL 5
REMARK VINA RESULT:     0.109      3.341      5.454
REMARK INTER + INTRA:           0.081
REMARK INTER:                   0.157
REMARK INTRA:                  -0.075
REMARK UNBOUND:                -0.066
REMARK SMILES [NH3+]CCCC[C@@H]([NH3+])C(=O)[O-]
REMARK SMILES IDX 4 1 3 2 2 3 1 4 5 8 6 9 7 10 8 14 9 15 10 16
REMARK H PARENT 1 5 1 6 1 7 7 11 7 12 7 13
REMARK Flexibility Score: inf
ROOT
ATOM      1  C   UNL     1       1.026   1.562  -5.703  1.00  0.00     0.012 C 
ENDROOT
BRANCH   1   2
ATOM      2  C   UNL     1       2.409   1.066  -5.247  1.00  0.00     0.061 C 
BRANCH   2   3
ATOM      3  C   UNL     1       2.990  -0.097  -6.077  1.00  0.00     0.258 C 
BRANCH   3   4
ATOM      4  N   UNL     1       2.522  -0.079  -7.464  1.00  0.00    -0.358 N 
ATOM      5  H   UNL     1       1.574  -0.514  -7.532  1.00  0.00     0.344 HD
ATOM      6  H   UNL     1       3.196  -0.586  -8.084  1.00  0.00     0.344 HD
ATOM      7  H   UNL     1       2.451   0.912  -7.786  1.00  0.00     0.344 HD
ENDBRANCH   3   4
ENDBRANCH   2   3
ENDBRANCH   1   2
BRANCH   1   8
ATOM      8  C   UNL     1       0.379   2.536  -4.704  1.00  0.00     0.072 C 
BRANCH   8   9
ATOM      9  C   UNL     1      -0.710   3.420  -5.353  1.00  0.00     0.227 C 
BRANCH   9  10
ATOM     10  N   UNL     1      -1.615   2.638  -6.206  1.00  0.00    -0.350 N 
ATOM     11  H   UNL     1      -1.946   3.224  -7.008  1.00  0.00     0.345 HD
ATOM     12  H   UNL     1      -2.445   2.306  -5.663  1.00  0.00     0.345 HD
ATOM     13  H   UNL     1      -1.112   1.816  -6.610  1.00  0.00     0.345 HD
ENDBRANCH   9  10
BRANCH   9  14
ATOM     14  C   UNL     1      -1.494   4.128  -4.280  1.00  0.00     0.099 C 
ATOM     15  O   UNL     1      -1.595   3.629  -3.128  1.00  0.00    -0.544 OA
ATOM     16  O   UNL     1      -2.094   5.352  -4.550  1.00  0.00    -0.544 OA
ENDBRANCH   9  14
ENDBRANCH   8   9
ENDBRANCH   1   8
TORSDOF 7
ENDMDL
MODEL 6
REMARK VINA RESULT:     0.187      3.707      5.216
REMARK INTER + INTRA:           0.186
REMARK INTER:                  -0.100
REMARK INTRA:                   0.286
REMARK UNBOUND:                -0.066
REMARK SMILES [NH3+]CCCC[C@@H]([NH3+])C(=O)[O-]
REMARK SMILES IDX 4 1 3 2 2 3 1 4 5 8 6 9 7 10 8 14 9 15 10 16
REMARK H PARENT 1 5 1 6 1 7 7 11 7 12 7 13
REMARK Flexibility Score: inf
ROOT
ATOM      1  C   UNL     1       0.548  -0.368  -8.350  1.00  0.00     0.012 C 
ENDROOT
BRANCH   1   2
ATOM      2  C   UNL     1       0.351  -1.494  -9.381  1.00  0.00     0.061 C 
BRANCH   2   3
ATOM      3  C   UNL     1      -1.088  -2.037  -9.483  1.00  0.00     0.258 C 
BRANCH   3   4
ATOM      4  N   UNL     1      -1.125  -3.445  -9.883  1.00  0.00    -0.358 N 
ATOM      5  H   UNL     1      -1.627  -4.013  -9.163  1.00  0.00     0.344 HD
ATOM      6  H   UNL     1      -0.155  -3.813 -10.018  1.00  0.00     0.344 HD
ATOM      7  H   UNL     1      -1.644  -3.529 -10.786  1.00  0.00     0.344 HD
ENDBRANCH   3   4
ENDBRANCH   2   3
ENDBRANCH   1   2
BRANCH   1   8
ATOM      8  C   UNL     1       2.030  -0.057  -8.078  1.00  0.00     0.072 C 
BRANCH   8   9
ATOM      9  C   UNL     1       2.410  -0.223  -6.590  1.00  0.00     0.227 C 
BRANCH   9  10
ATOM     10  N   UNL     1       3.860  -0.384  -6.409  1.00  0.00    -0.350 N 
ATOM     11  H   UNL     1       4.052  -1.176  -5.752  1.00  0.00     0.345 HD
ATOM     12  H   UNL     1       4.287   0.489  -6.023  1.00  0.00     0.345 HD
ATOM     13  H   UNL     1       4.314  -0.620  -7.320  1.00  0.00     0.345 HD
ENDBRANCH   9  10
BRANCH   9  14
ATOM     14  C   UNL     1       1.921   0.966  -5.806  1.00  0.00     0.099 C 
ATOM     15  O   UNL     1       2.640   1.479  -4.907  1.00  0.00    -0.544 OA
ATOM     16  O   UNL     1       0.678   1.520  -6.086  1.00  0.00    -0.544 OA
ENDBRANCH   9  14
ENDBRANCH   8   9
ENDBRANCH   1   8
TORSDOF 7
ENDMDL
MODEL 7
REMARK VINA RESULT:     0.351      2.085      2.675
REMARK INTER + INTRA:           0.408
REMARK INTER:                   0.512
REMARK INTRA:                  -0.104
REMARK UNBOUND:                -0.066
REMARK SMILES [NH3+]CCCC[C@@H]([NH3+])C(=O)[O-]
REMARK SMILES IDX 4 1 3 2 2 3 1 4 5 8 6 9 7 10 8 14 9 15 10 16
REMARK H PARENT 1 5 1 6 1 7 7 11 7 12 7 13
REMARK Flexibility Score: inf
ROOT
ATOM      1  C   UNL     1      -1.481   3.863  -3.605  1.00  0.00     0.012 C 
ENDROOT
BRANCH   1   2
ATOM      2  C   UNL     1      -2.087   5.175  -4.135  1.00  0.00     0.061 C 
BRANCH   2   3
ATOM      3  C   UNL     1      -1.659   6.444  -3.372  1.00  0.00     0.258 C 
BRANCH   3   4
ATOM      4  N   UNL     1      -1.432   7.581  -4.266  1.00  0.00    -0.358 N 
ATOM      5  H   UNL     1      -1.070   7.250  -5.189  1.00  0.00     0.344 HD
ATOM      6  H   UNL     1      -0.758   8.257  -3.836  1.00  0.00     0.344 HD
ATOM      7  H   UNL     1      -2.340   8.072  -4.428  1.00  0.00     0.344 HD
ENDBRANCH   3   4
ENDBRANCH   2   3
ENDBRANCH   1   2
BRANCH   1   8
ATOM      8  C   UNL     1      -0.191   3.460  -4.339  1.00  0.00     0.072 C 
BRANCH   8   9
ATOM      9  C   UNL     1      -0.385   2.224  -5.247  1.00  0.00     0.227 C 
BRANCH   9  10
ATOM     10  N   UNL     1      -1.158   2.547  -6.455  1.00  0.00    -0.350 N 
ATOM     11  H   UNL     1      -1.366   1.671  -6.990  1.00  0.00     0.345 HD
ATOM     12  H   UNL     1      -0.629   3.204  -7.072  1.00  0.00     0.345 HD
ATOM     13  H   UNL     1      -2.074   2.976  -6.193  1.00  0.00     0.345 HD
ENDBRANCH   9  10
BRANCH   9  14
ATOM     14  C   UNL     1       0.959   1.661  -5.630  1.00  0.00     0.099 C 
ATOM     15  O   UNL     1       1.979   1.913  -4.935  1.00  0.00    -0.544 OA
ATOM     16  O   UNL     1       1.077   0.839  -6.744  1.00  0.00    -0.544 OA
ENDBRANCH   9  14
ENDBRANCH   8   9
ENDBRANCH   1   8
TORSDOF 7
ENDMDL
MODEL 8
REMARK VINA RESULT:     1.326     10.069     11.395
REMARK INTER + INTRA:           1.725
REMARK INTER:                   1.840
REMARK INTRA:                  -0.115
REMARK UNBOUND:                -0.066
REMARK SMILES [NH3+]CCCC[C@@H]([NH3+])C(=O)[O-]
REMARK SMILES IDX 4 1 3 2 2 3 1 4 5 8 6 9 7 10 8 14 9 15 10 16
REMARK H PARENT 1 5 1 6 1 7 7 11 7 12 7 13
REMARK Flexibility Score: inf
ROOT
ATOM      1  C   UNL     1      -1.144  -4.466 -13.898  1.00  0.00     0.012 C 
ENDROOT
BRANCH   1   2
ATOM      2  C   UNL     1      -1.119  -5.149 -12.519  1.00  0.00     0.061 C 
BRANCH   2   3
ATOM      3  C   UNL     1      -1.923  -4.426 -11.421  1.00  0.00     0.258 C 
BRANCH   3   4
ATOM      4  N   UNL     1      -1.077  -3.985 -10.310  1.00  0.00    -0.358 N 
ATOM      5  H   UNL     1      -0.262  -4.629 -10.198  1.00  0.00     0.344 HD
ATOM      6  H   UNL     1      -1.630  -3.946  -9.422  1.00  0.00     0.344 HD
ATOM      7  H   UNL     1      -0.712  -3.029 -10.520  1.00  0.00     0.344 HD
ENDBRANCH   3   4
ENDBRANCH   2   3
ENDBRANCH   1   2
BRANCH   1   8
ATOM      8  C   UNL     1      -2.328  -3.499 -14.066  1.00  0.00     0.072 C 
BRANCH   8   9
ATOM      9  C   UNL     1      -2.706  -3.271 -15.548  1.00  0.00     0.227 C 
BRANCH   9  10
ATOM     10  N   UNL     1      -4.143  -3.469 -15.784  1.00  0.00    -0.350 N 
ATOM     11  H   UNL     1      -4.288  -4.253 -16.461  1.00  0.00     0.345 HD
ATOM     12  H   UNL     1      -4.580  -2.601 -16.170  1.00  0.00     0.345 HD
ATOM     13  H   UNL     1      -4.622  -3.734 -14.894  1.00  0.00     0.345 HD
ENDBRANCH   9  10
BRANCH   9  14
ATOM     14  C   UNL     1      -2.300  -1.882 -15.966  1.00  0.00     0.099 C 
ATOM     15  O   UNL     1      -1.215  -1.385 -15.564  1.00  0.00    -0.544 OA
ATOM     16  O   UNL     1      -3.114  -1.147 -16.819  1.00  0.00    -0.544 OA
ENDBRANCH   9  14
ENDBRANCH   8   9
ENDBRANCH   1   8
TORSDOF 7
ENDMDL
MODEL 9
REMARK VINA RESULT:     1.339      9.554     10.649
REMARK INTER + INTRA:           1.743
REMARK INTER:                   1.906
REMARK INTRA:                  -0.164
REMARK UNBOUND:                -0.066
REMARK SMILES [NH3+]CCCC[C@@H]([NH3+])C(=O)[O-]
REMARK SMILES IDX 4 1 3 2 2 3 1 4 5 8 6 9 7 10 8 14 9 15 10 16
REMARK H PARENT 1 5 1 6 1 7 7 11 7 12 7 13
REMARK Flexibility Score: inf
ROOT
ATOM      1  C   UNL     1      -0.974  -4.395 -14.379  1.00  0.00     0.012 C 
ENDROOT
BRANCH   1   2
ATOM      2  C   UNL     1      -2.279  -3.583 -14.305  1.00  0.00     0.061 C 
BRANCH   2   3
ATOM      3  C   UNL     1      -2.753  -2.991 -15.647  1.00  0.00     0.258 C 
BRANCH   3   4
ATOM      4  N   UNL     1      -4.137  -3.353 -15.958  1.00  0.00    -0.358 N 
ATOM      5  H   UNL     1      -4.566  -2.638 -16.588  1.00  0.00     0.344 HD
ATOM      6  H   UNL     1      -4.699  -3.443 -15.079  1.00  0.00     0.344 HD
ATOM      7  H   UNL     1      -4.145  -4.273 -16.455  1.00  0.00     0.344 HD
ENDBRANCH   3   4
ENDBRANCH   2   3
ENDBRANCH   1   2
BRANCH   1   8
ATOM      8  C   UNL     1      -0.426  -4.776 -12.993  1.00  0.00     0.072 C 
BRANCH   8   9
ATOM      9  C   UNL     1      -1.528  -5.291 -12.039  1.00  0.00     0.227 C 
BRANCH   9  10
ATOM     10  N   UNL     1      -1.439  -6.744 -11.833  1.00  0.00    -0.350 N 
ATOM     11  H   UNL     1      -1.338  -6.954 -10.812  1.00  0.00     0.345 HD
ATOM     12  H   UNL     1      -0.620  -7.144 -12.345  1.00  0.00     0.345 HD
ATOM     13  H   UNL     1      -2.316  -7.209 -12.160  1.00  0.00     0.345 HD
ENDBRANCH   9  10
BRANCH   9  14
ATOM     14  C   UNL     1      -1.429  -4.575 -10.717  1.00  0.00     0.099 C 
ATOM     15  O   UNL     1      -1.180  -5.215  -9.661  1.00  0.00    -0.544 OA
ATOM     16  O   UNL     1      -1.590  -3.196 -10.660  1.00  0.00    -0.544 OA
ENDBRANCH   9  14
ENDBRANCH   8   9
ENDBRANCH   1   8
TORSDOF 7
ENDMDL
