MODEL 1
REMARK VINA RESULT:    -4.082      0.000      0.000
REMARK INTER + INTRA:          -5.139
REMARK INTER:                  -5.514
REMARK INTRA:                   0.375
REMARK UNBOUND:                 0.375
REMARK SMILES C=C1C(=O)O[C@@H]2[C@H]3O[C@]3(C)CCC=C(C)CC[C@@H]12
REMARK SMILES IDX 6 1 18 2 2 3 1 4 3 5 4 6 5 7 17 8 16 9 14 10 15 11 13 12
REMARK SMILES IDX 7 14 9 15 8 16 10 17 11 18 12 19
REMARK H PARENT
REMARK Flexibility Score: 70.00
ROOT
ATOM      1  C   UNL     1     -20.129  29.606 -21.250  1.00  0.00     0.216 C 
ATOM      2  C   UNL     1     -19.162  30.779 -20.900  1.00  0.00     0.070 C 
ATOM      3  C   UNL     1     -17.881  30.062 -20.585  1.00  0.00     0.037 C 
ATOM      4  C   UNL     1     -16.759  30.606 -20.114  1.00  0.00     0.021 C 
ATOM      5  C   UNL     1     -18.017  28.713 -21.084  1.00  0.00     0.334 C 
ATOM      6  O   UNL     1     -17.105  27.846 -21.119  1.00  0.00    -0.247 OA
ATOM      7  O   UNL     1     -19.293  28.498 -21.564  1.00  0.00    -0.455 OA
ENDROOT
BRANCH   2   8
ATOM      8  C   UNL     1     -19.686  31.681 -19.759  1.00  0.00     0.017 C 
BRANCH   8   9
ATOM      9  C   UNL     1     -20.469  32.925 -20.254  1.00  0.00     0.031 C 
BRANCH   9  10
ATOM     10  C   UNL     1     -20.151  33.349 -21.686  1.00  0.00    -0.077 C 
ATOM     11  C   UNL     1     -18.781  33.901 -21.995  1.00  0.00     0.039 C 
ATOM     12  C   UNL     1     -21.065  33.364 -22.694  1.00  0.00    -0.028 CG0
ATOM     13  G   UNL     1     -22.539  33.025 -22.596  1.00  0.00     0.000 G0
ENDBRANCH   9  10
ENDBRANCH   8   9
ENDBRANCH   2   8
BRANCH   1  14
ATOM     14  C   UNL     1     -21.025  30.002 -22.428  1.00  0.00     0.192 C 
ATOM     15  C   UNL     1     -22.376  30.539 -22.093  1.00  0.00     0.096 C 
ATOM     16  O   UNL     1     -22.196  29.240 -22.621  1.00  0.00    -0.362 OA
ATOM     17  C   UNL     1     -23.041  30.447 -20.710  1.00  0.00     0.045 C 
BRANCH  15  18
ATOM     18  C   UNL     1     -22.886  31.590 -23.083  1.00  0.00     0.042 C 
BRANCH  18  19
ATOM     19  C   UNL     1     -22.560  33.012 -22.585  1.00  0.00     0.030 CG0
ATOM     20  G   UNL     1     -21.087  33.352 -22.708  1.00  0.00     0.000 G0
ENDBRANCH  18  19
ENDBRANCH  15  18
ENDBRANCH   1  14
TORSDOF 0
ENDMDL
MODEL 2
REMARK VINA RESULT:    -3.956      5.703      7.872
REMARK INTER + INTRA:          -4.969
REMARK INTER:                  -5.367
REMARK INTRA:                   0.399
REMARK UNBOUND:                 0.375
REMARK SMILES C=C1C(=O)O[C@@H]2[C@H]3O[C@]3(C)CCC=C(C)CC[C@@H]12
REMARK SMILES IDX 6 1 18 2 2 3 1 4 3 5 4 6 5 7 17 8 16 9 14 10 15 11 13 12
REMARK SMILES IDX 7 14 9 15 8 16 10 17 11 18 12 19
REMARK H PARENT
REMARK Flexibility Score: 70.00
ROOT
ATOM      1  C   UNL     1     -27.216  28.377 -18.509  1.00  0.00     0.216 C 
ATOM      2  C   UNL     1     -26.393  28.466 -19.831  1.00  0.00     0.070 C 
ATOM      3  C   UNL     1     -27.022  27.399 -20.679  1.00  0.00     0.037 C 
ATOM      4  C   UNL     1     -26.608  26.987 -21.877  1.00  0.00     0.021 C 
ATOM      5  C   UNL     1     -28.277  27.047 -20.055  1.00  0.00     0.334 C 
ATOM      6  O   UNL     1     -29.148  26.278 -20.539  1.00  0.00    -0.247 OA
ATOM      7  O   UNL     1     -28.423  27.705 -18.850  1.00  0.00    -0.455 OA
ENDROOT
BRANCH   2   8
ATOM      8  C   UNL     1     -24.871  28.297 -19.614  1.00  0.00     0.017 C 
BRANCH   8   9
ATOM      9  C   UNL     1     -24.270  29.297 -18.592  1.00  0.00     0.031 C 
BRANCH   9  10
ATOM     10  C   UNL     1     -24.306  30.757 -19.033  1.00  0.00    -0.077 C 
ATOM     11  C   UNL     1     -23.832  31.112 -20.422  1.00  0.00     0.039 C 
ATOM     12  C   UNL     1     -24.640  31.790 -18.213  1.00  0.00    -0.028 CG0
ATOM     13  G   UNL     1     -24.982  31.711 -16.737  1.00  0.00     0.000 G0
ENDBRANCH   9  10
ENDBRANCH   8   9
ENDBRANCH   2   8
BRANCH   1  14
ATOM     14  C   UNL     1     -27.478  29.784 -17.961  1.00  0.00     0.192 C 
ATOM     15  C   UNL     1     -26.904  30.099 -16.620  1.00  0.00     0.096 C 
ATOM     16  O   UNL     1     -28.287  29.877 -16.809  1.00  0.00    -0.362 OA
ATOM     17  C   UNL     1     -26.344  29.058 -15.635  1.00  0.00     0.045 C 
BRANCH  15  18
ATOM     18  C   UNL     1     -26.485  31.562 -16.455  1.00  0.00     0.042 C 
BRANCH  18  19
ATOM     19  C   UNL     1     -24.976  31.731 -16.723  1.00  0.00     0.030 CG0
ATOM     20  G   UNL     1     -24.645  31.771 -18.202  1.00  0.00     0.000 G0
ENDBRANCH  18  19
ENDBRANCH  15  18
ENDBRANCH   1  14
TORSDOF 0
ENDMDL
MODEL 3
REMARK VINA RESULT:    -3.866      2.524      5.071
REMARK INTER + INTRA:          -4.847
REMARK INTER:                  -5.263
REMARK INTRA:                   0.417
REMARK UNBOUND:                 0.375
REMARK SMILES C=C1C(=O)O[C@@H]2[C@H]3O[C@]3(C)CCC=C(C)CC[C@@H]12
REMARK SMILES IDX 6 1 18 2 2 3 1 4 3 5 4 6 5 7 17 8 16 9 14 10 15 11 13 12
REMARK SMILES IDX 7 14 9 15 8 16 10 17 11 18 12 19
REMARK H PARENT
REMARK Flexibility Score: 70.00
ROOT
ATOM      1  C   UNL     1     -23.715  29.490 -21.329  1.00  0.00     0.216 C 
ATOM      2  C   UNL     1     -24.312  29.711 -19.906  1.00  0.00     0.070 C 
ATOM      3  C   UNL     1     -25.448  28.730 -19.873  1.00  0.00     0.037 C 
ATOM      4  C   UNL     1     -26.359  28.598 -18.909  1.00  0.00     0.021 C 
ATOM      5  C   UNL     1     -25.249  27.816 -20.975  1.00  0.00     0.334 C 
ATOM      6  O   UNL     1     -25.926  26.779 -21.200  1.00  0.00    -0.247 OA
ATOM      7  O   UNL     1     -24.176  28.210 -21.747  1.00  0.00    -0.455 OA
ENDROOT
BRANCH   2   8
ATOM      8  C   UNL     1     -24.726  31.177 -19.640  1.00  0.00     0.017 C 
BRANCH   8   9
ATOM      9  C   UNL     1     -23.569  32.195 -19.815  1.00  0.00     0.031 C 
BRANCH   9  10
ATOM     10  C   UNL     1     -22.424  32.036 -18.818  1.00  0.00    -0.077 C 
ATOM     11  C   UNL     1     -22.748  31.894 -17.351  1.00  0.00     0.039 C 
ATOM     12  C   UNL     1     -21.108  32.121 -19.154  1.00  0.00    -0.028 CG0
ATOM     13  G   UNL     1     -20.533  32.430 -20.523  1.00  0.00     0.000 G0
ENDBRANCH   9  10
ENDBRANCH   8   9
ENDBRANCH   2   8
BRANCH   1  14
ATOM     14  C   UNL     1     -22.185  29.558 -21.270  1.00  0.00     0.192 C 
ATOM     15  C   UNL     1     -21.533  30.663 -22.032  1.00  0.00     0.096 C 
ATOM     16  O   UNL     1     -21.491  29.322 -22.476  1.00  0.00    -0.362 OA
ATOM     17  C   UNL     1     -22.230  31.535 -23.089  1.00  0.00     0.045 C 
BRANCH  15  18
ATOM     18  C   UNL     1     -20.247  31.186 -21.384  1.00  0.00     0.042 C 
BRANCH  18  19
ATOM     19  C   UNL     1     -20.537  32.436 -20.531  1.00  0.00     0.030 CG0
ATOM     20  G   UNL     1     -21.097  32.096 -19.163  1.00  0.00     0.000 G0
ENDBRANCH  18  19
ENDBRANCH  15  18
ENDBRANCH   1  14
TORSDOF 0
ENDMDL
MODEL 4
REMARK VINA RESULT:    -3.810      5.510      7.755
REMARK INTER + INTRA:          -4.771
REMARK INTER:                  -5.205
REMARK INTRA:                   0.434
REMARK UNBOUND:                 0.375
REMARK SMILES C=C1C(=O)O[C@@H]2[C@H]3O[C@]3(C)CCC=C(C)CC[C@@H]12
REMARK SMILES IDX 6 1 18 2 2 3 1 4 3 5 4 6 5 7 17 8 16 9 14 10 15 11 13 12
REMARK SMILES IDX 7 14 9 15 8 16 10 17 11 18 12 19
REMARK H PARENT
REMARK Flexibility Score: 70.00
ROOT
ATOM      1  C   UNL     1     -27.273  28.027 -19.615  1.00  0.00     0.216 C 
ATOM      2  C   UNL     1     -26.611  27.805 -21.009  1.00  0.00     0.070 C 
ATOM      3  C   UNL     1     -27.624  26.955 -21.720  1.00  0.00     0.037 C 
ATOM      4  C   UNL     1     -27.488  26.390 -22.919  1.00  0.00     0.021 C 
ATOM      5  C   UNL     1     -28.851  27.036 -20.961  1.00  0.00     0.334 C 
ATOM      6  O   UNL     1     -29.963  26.559 -21.309  1.00  0.00    -0.247 OA
ATOM      7  O   UNL     1     -28.658  27.752 -19.797  1.00  0.00    -0.455 OA
ENDROOT
BRANCH   2   8
ATOM      8  C   UNL     1     -25.200  27.179 -20.921  1.00  0.00     0.017 C 
BRANCH   8   9
ATOM      9  C   UNL     1     -24.201  28.005 -20.070  1.00  0.00     0.031 C 
BRANCH   9  10
ATOM     10  C   UNL     1     -23.910  29.403 -20.608  1.00  0.00    -0.077 C 
ATOM     11  C   UNL     1     -23.583  29.568 -22.072  1.00  0.00     0.039 C 
ATOM     12  C   UNL     1     -23.820  30.514 -19.827  1.00  0.00    -0.028 CG0
ATOM     13  G   UNL     1     -23.935  30.579 -18.316  1.00  0.00     0.000 G0
ENDBRANCH   9  10
ENDBRANCH   8   9
ENDBRANCH   2   8
BRANCH   1  14
ATOM     14  C   UNL     1     -27.031  29.465 -19.144  1.00  0.00     0.192 C 
ATOM     15  C   UNL     1     -26.258  29.635 -17.879  1.00  0.00     0.096 C 
ATOM     16  O   UNL     1     -27.654  29.853 -17.939  1.00  0.00    -0.362 OA
ATOM     17  C   UNL     1     -25.953  28.511 -16.875  1.00  0.00     0.045 C 
BRANCH  15  18
ATOM     18  C   UNL     1     -25.392  30.898 -17.849  1.00  0.00     0.042 C 
BRANCH  18  19
ATOM     19  C   UNL     1     -23.955  30.584 -18.309  1.00  0.00     0.030 CG0
ATOM     20  G   UNL     1     -23.825  30.511 -19.818  1.00  0.00     0.000 G0
ENDBRANCH  18  19
ENDBRANCH  15  18
ENDBRANCH   1  14
TORSDOF 0
ENDMDL
MODEL 5
REMARK VINA RESULT:    -3.790      3.597      5.905
REMARK INTER + INTRA:          -4.744
REMARK INTER:                  -5.186
REMARK INTRA:                   0.442
REMARK UNBOUND:                 0.375
REMARK SMILES C=C1C(=O)O[C@@H]2[C@H]3O[C@]3(C)CCC=C(C)CC[C@@H]12
REMARK SMILES IDX 6 1 18 2 2 3 1 4 3 5 4 6 5 7 17 8 16 9 14 10 15 11 13 12
REMARK SMILES IDX 7 14 9 15 8 16 10 17 11 18 12 19
REMARK H PARENT
REMARK Flexibility Score: 70.00
ROOT
ATOM      1  C   UNL     1     -24.455  30.515 -19.312  1.00  0.00     0.216 C 
ATOM      2  C   UNL     1     -24.893  29.344 -20.244  1.00  0.00     0.070 C 
ATOM      3  C   UNL     1     -26.061  28.759 -19.504  1.00  0.00     0.037 C 
ATOM      4  C   UNL     1     -26.733  27.652 -19.823  1.00  0.00     0.021 C 
ATOM      5  C   UNL     1     -26.458  29.726 -18.506  1.00  0.00     0.334 C 
ATOM      6  O   UNL     1     -27.478  29.649 -17.774  1.00  0.00    -0.247 OA
ATOM      7  O   UNL     1     -25.578  30.789 -18.481  1.00  0.00    -0.455 OA
ENDROOT
BRANCH   2   8
ATOM      8  C   UNL     1     -23.754  28.339 -20.537  1.00  0.00     0.017 C 
BRANCH   8   9
ATOM      9  C   UNL     1     -22.504  28.985 -21.190  1.00  0.00     0.031 C 
BRANCH   9  10
ATOM     10  C   UNL     1     -22.748  29.593 -22.568  1.00  0.00    -0.077 C 
ATOM     11  C   UNL     1     -23.493  28.783 -23.602  1.00  0.00     0.039 C 
ATOM     12  C   UNL     1     -22.240  30.789 -22.971  1.00  0.00    -0.028 CG0
ATOM     13  G   UNL     1     -21.323  31.704 -22.182  1.00  0.00     0.000 G0
ENDBRANCH   9  10
ENDBRANCH   8   9
ENDBRANCH   2   8
BRANCH   1  14
ATOM     14  C   UNL     1     -24.054  31.731 -20.154  1.00  0.00     0.192 C 
ATOM     15  C   UNL     1     -22.631  32.170 -20.064  1.00  0.00     0.096 C 
ATOM     16  O   UNL     1     -23.679  32.896 -19.451  1.00  0.00    -0.362 OA
ATOM     17  C   UNL     1     -21.632  31.703 -18.991  1.00  0.00     0.045 C 
BRANCH  15  18
ATOM     18  C   UNL     1     -22.084  32.767 -21.363  1.00  0.00     0.042 C 
BRANCH  18  19
ATOM     19  C   UNL     1     -21.318  31.702 -22.172  1.00  0.00     0.030 CG0
ATOM     20  G   UNL     1     -22.237  30.804 -22.977  1.00  0.00     0.000 G0
ENDBRANCH  18  19
ENDBRANCH  15  18
ENDBRANCH   1  14
TORSDOF 0
ENDMDL
MODEL 6
REMARK VINA RESULT:    -3.730      7.276      8.048
REMARK INTER + INTRA:          -4.662
REMARK INTER:                  -5.114
REMARK INTRA:                   0.452
REMARK UNBOUND:                 0.375
REMARK SMILES C=C1C(=O)O[C@@H]2[C@H]3O[C@]3(C)CCC=C(C)CC[C@@H]12
REMARK SMILES IDX 6 1 18 2 2 3 1 4 3 5 4 6 5 7 17 8 16 9 14 10 15 11 13 12
REMARK SMILES IDX 7 14 9 15 8 16 10 17 11 18 12 19
REMARK H PARENT
REMARK Flexibility Score: 70.00
ROOT
ATOM      1  C   UNL     1     -20.751  32.491 -13.060  1.00  0.00     0.216 C 
ATOM      2  C   UNL     1     -19.851  33.463 -13.882  1.00  0.00     0.070 C 
ATOM      3  C   UNL     1     -18.473  33.125 -13.391  1.00  0.00     0.037 C 
ATOM      4  C   UNL     1     -17.340  33.755 -13.699  1.00  0.00     0.021 C 
ATOM      5  C   UNL     1     -18.571  31.863 -12.691  1.00  0.00     0.334 C 
ATOM      6  O   UNL     1     -17.603  31.193 -12.247  1.00  0.00    -0.247 OA
ATOM      7  O   UNL     1     -19.887  31.457 -12.602  1.00  0.00    -0.455 OA
ENDROOT
BRANCH   2   8
ATOM      8  C   UNL     1     -20.243  34.949 -13.710  1.00  0.00     0.017 C 
BRANCH   8   9
ATOM      9  C   UNL     1     -21.713  35.256 -14.099  1.00  0.00     0.031 C 
BRANCH   9  10
ATOM     10  C   UNL     1     -22.055  34.986 -15.562  1.00  0.00    -0.077 C 
ATOM     11  C   UNL     1     -21.132  35.511 -16.635  1.00  0.00     0.039 C 
ATOM     12  C   UNL     1     -23.206  34.390 -15.976  1.00  0.00    -0.028 CG0
ATOM     13  G   UNL     1     -24.361  33.934 -15.106  1.00  0.00     0.000 G0
ENDBRANCH   9  10
ENDBRANCH   8   9
ENDBRANCH   2   8
BRANCH   1  14
ATOM     14  C   UNL     1     -21.878  31.947 -13.945  1.00  0.00     0.192 C 
ATOM     15  C   UNL     1     -23.274  32.271 -13.530  1.00  0.00     0.096 C 
ATOM     16  O   UNL     1     -22.727  30.977 -13.371  1.00  0.00    -0.362 OA
ATOM     17  C   UNL     1     -23.675  32.834 -12.157  1.00  0.00     0.045 C 
BRANCH  15  18
ATOM     18  C   UNL     1     -24.244  32.440 -14.702  1.00  0.00     0.042 C 
BRANCH  18  19
ATOM     19  C   UNL     1     -24.358  33.923 -15.107  1.00  0.00     0.030 CG0
ATOM     20  G   UNL     1     -23.204  34.384 -15.975  1.00  0.00     0.000 G0
ENDBRANCH  18  19
ENDBRANCH  15  18
ENDBRANCH   1  14
TORSDOF 0
ENDMDL
MODEL 7
REMARK VINA RESULT:    -3.566      2.884      4.416
REMARK INTER + INTRA:          -4.442
REMARK INTER:                  -4.886
REMARK INTRA:                   0.444
REMARK UNBOUND:                 0.375
REMARK SMILES C=C1C(=O)O[C@@H]2[C@H]3O[C@]3(C)CCC=C(C)CC[C@@H]12
REMARK SMILES IDX 6 1 18 2 2 3 1 4 3 5 4 6 5 7 17 8 16 9 14 10 15 11 13 12
REMARK SMILES IDX 7 14 9 15 8 16 10 17 11 18 12 19
REMARK H PARENT
REMARK Flexibility Score: 70.00
ROOT
ATOM      1  C   UNL     1     -22.856  30.299 -20.275  1.00  0.00     0.216 C 
ATOM      2  C   UNL     1     -22.840  30.250 -21.833  1.00  0.00     0.070 C 
ATOM      3  C   UNL     1     -23.549  28.960 -22.127  1.00  0.00     0.037 C 
ATOM      4  C   UNL     1     -23.702  28.389 -23.322  1.00  0.00     0.021 C 
ATOM      5  C   UNL     1     -24.216  28.557 -20.909  1.00  0.00     0.334 C 
ATOM      6  O   UNL     1     -25.015  27.592 -20.795  1.00  0.00    -0.247 OA
ATOM      7  O   UNL     1     -23.889  29.406 -19.872  1.00  0.00    -0.455 OA
ENDROOT
BRANCH   2   8
ATOM      8  C   UNL     1     -21.417  30.348 -22.431  1.00  0.00     0.017 C 
BRANCH   8   9
ATOM      9  C   UNL     1     -20.646  31.625 -22.006  1.00  0.00     0.031 C 
BRANCH   9  10
ATOM     10  C   UNL     1     -21.289  32.935 -22.453  1.00  0.00    -0.077 C 
ATOM     11  C   UNL     1     -21.730  33.078 -23.890  1.00  0.00     0.039 C 
ATOM     12  C   UNL     1     -21.396  34.037 -21.662  1.00  0.00    -0.028 CG0
ATOM     13  G   UNL     1     -20.875  34.200 -20.247  1.00  0.00     0.000 G0
ENDBRANCH   9  10
ENDBRANCH   8   9
ENDBRANCH   2   8
BRANCH   1  14
ATOM     14  C   UNL     1     -23.119  31.732 -19.799  1.00  0.00     0.192 C 
ATOM     15  C   UNL     1     -22.060  32.365 -18.960  1.00  0.00     0.096 C 
ATOM     16  O   UNL     1     -23.285  31.921 -18.411  1.00  0.00    -0.362 OA
ATOM     17  C   UNL     1     -20.895  31.611 -18.296  1.00  0.00     0.045 C 
BRANCH  15  18
ATOM     18  C   UNL     1     -21.934  33.877 -19.160  1.00  0.00     0.042 C 
BRANCH  18  19
ATOM     19  C   UNL     1     -20.882  34.198 -20.239  1.00  0.00     0.030 CG0
ATOM     20  G   UNL     1     -21.416  34.026 -21.648  1.00  0.00     0.000 G0
ENDBRANCH  18  19
ENDBRANCH  15  18
ENDBRANCH   1  14
TORSDOF 0
ENDMDL
MODEL 8
REMARK VINA RESULT:    -3.544      4.473      6.350
REMARK INTER + INTRA:          -4.411
REMARK INTER:                  -4.878
REMARK INTRA:                   0.467
REMARK UNBOUND:                 0.375
REMARK SMILES C=C1C(=O)O[C@@H]2[C@H]3O[C@]3(C)CCC=C(C)CC[C@@H]12
REMARK SMILES IDX 6 1 18 2 2 3 1 4 3 5 4 6 5 7 17 8 16 9 14 10 15 11 13 12
REMARK SMILES IDX 7 14 9 15 8 16 10 17 11 18 12 19
REMARK H PARENT
REMARK Flexibility Score: 70.00
ROOT
ATOM      1  C   UNL     1     -25.723  29.625 -18.937  1.00  0.00     0.216 C 
ATOM      2  C   UNL     1     -25.357  28.977 -20.307  1.00  0.00     0.070 C 
ATOM      3  C   UNL     1     -26.322  27.830 -20.393  1.00  0.00     0.037 C 
ATOM      4  C   UNL     1     -26.352  26.882 -21.330  1.00  0.00     0.021 C 
ATOM      5  C   UNL     1     -27.343  28.060 -19.396  1.00  0.00     0.334 C 
ATOM      6  O   UNL     1     -28.393  27.382 -19.248  1.00  0.00    -0.247 OA
ATOM      7  O   UNL     1     -27.035  29.167 -18.631  1.00  0.00    -0.455 OA
ENDROOT
BRANCH   2   8
ATOM      8  C   UNL     1     -23.869  28.569 -20.411  1.00  0.00     0.017 C 
BRANCH   8   9
ATOM      9  C   UNL     1     -22.882  29.747 -20.206  1.00  0.00     0.031 C 
BRANCH   9  10
ATOM     10  C   UNL     1     -22.948  30.828 -21.282  1.00  0.00    -0.077 C 
ATOM     11  C   UNL     1     -22.953  30.412 -22.733  1.00  0.00     0.039 C 
ATOM     12  C   UNL     1     -22.893  32.162 -21.022  1.00  0.00    -0.028 CG0
ATOM     13  G   UNL     1     -22.713  32.822 -19.669  1.00  0.00     0.000 G0
ENDBRANCH   9  10
ENDBRANCH   8   9
ENDBRANCH   2   8
BRANCH   1  14
ATOM     14  C   UNL     1     -25.660  31.152 -19.048  1.00  0.00     0.192 C 
ATOM     15  C   UNL     1     -24.587  31.838 -18.270  1.00  0.00     0.096 C 
ATOM     16  O   UNL     1     -25.944  31.887 -17.877  1.00  0.00    -0.362 OA
ATOM     17  C   UNL     1     -23.751  31.183 -17.157  1.00  0.00     0.045 C 
BRANCH  15  18
ATOM     18  C   UNL     1     -24.046  33.102 -18.944  1.00  0.00     0.042 C 
BRANCH  18  19
ATOM     19  C   UNL     1     -22.710  32.811 -19.656  1.00  0.00     0.030 CG0
ATOM     20  G   UNL     1     -22.899  32.160 -21.013  1.00  0.00     0.000 G0
ENDBRANCH  18  19
ENDBRANCH  15  18
ENDBRANCH   1  14
TORSDOF 0
ENDMDL
MODEL 9
REMARK VINA RESULT:    -3.513      6.413      8.129
REMARK INTER + INTRA:          -4.370
REMARK INTER:                  -4.762
REMARK INTRA:                   0.391
REMARK UNBOUND:                 0.375
REMARK SMILES C=C1C(=O)O[C@@H]2[C@H]3O[C@]3(C)CCC=C(C)CC[C@@H]12
REMARK SMILES IDX 6 1 18 2 2 3 1 4 3 5 4 6 5 7 17 8 16 9 14 10 15 11 13 12
REMARK SMILES IDX 7 14 9 15 8 16 10 17 11 18 12 19
REMARK H PARENT
REMARK Flexibility Score: 70.00
ROOT
ATOM      1  C   UNL     1     -20.900  32.868 -16.034  1.00  0.00     0.216 C 
ATOM      2  C   UNL     1     -22.059  31.947 -16.522  1.00  0.00     0.070 C 
ATOM      3  C   UNL     1     -21.834  31.897 -18.005  1.00  0.00     0.037 C 
ATOM      4  C   UNL     1     -22.626  31.327 -18.912  1.00  0.00     0.021 C 
ATOM      5  C   UNL     1     -20.500  32.396 -18.247  1.00  0.00     0.334 C 
ATOM      6  O   UNL     1     -19.903  32.391 -19.355  1.00  0.00    -0.247 OA
ATOM      7  O   UNL     1     -19.932  32.856 -17.076  1.00  0.00    -0.455 OA
ENDROOT
BRANCH   2   8
ATOM      8  C   UNL     1     -23.459  32.455 -16.104  1.00  0.00     0.017 C 
BRANCH   8   9
ATOM      9  C   UNL     1     -23.987  31.823 -14.790  1.00  0.00     0.031 C 
BRANCH   9  10
ATOM     10  C   UNL     1     -23.312  30.512 -14.397  1.00  0.00    -0.077 C 
ATOM     11  C   UNL     1     -23.562  29.283 -15.236  1.00  0.00     0.039 C 
ATOM     12  C   UNL     1     -22.575  30.347 -13.265  1.00  0.00    -0.028 CG0
ATOM     13  G   UNL     1     -22.325  31.377 -12.180  1.00  0.00     0.000 G0
ENDBRANCH   9  10
ENDBRANCH   8   9
ENDBRANCH   2   8
BRANCH   1  14
ATOM     14  C   UNL     1     -20.330  32.337 -14.714  1.00  0.00     0.192 C 
ATOM     15  C   UNL     1     -20.837  32.968 -13.461  1.00  0.00     0.096 C 
ATOM     16  O   UNL     1     -19.539  33.228 -13.958  1.00  0.00    -0.362 OA
ATOM     17  C   UNL     1     -21.637  34.280 -13.398  1.00  0.00     0.045 C 
BRANCH  15  18
ATOM     18  C   UNL     1     -20.910  32.009 -12.270  1.00  0.00     0.042 C 
BRANCH  18  19
ATOM     19  C   UNL     1     -22.309  31.371 -12.170  1.00  0.00     0.030 CG0
ATOM     20  G   UNL     1     -22.571  30.356 -13.265  1.00  0.00     0.000 G0
ENDBRANCH  18  19
ENDBRANCH  15  18
ENDBRANCH   1  14
TORSDOF 0
ENDMDL
