MODEL 1
REMARK VINA RESULT:    -4.997      0.000      0.000
REMARK INTER + INTRA:          -6.881
REMARK INTER:                  -6.750
REMARK INTRA:                  -0.131
REMARK UNBOUND:                -0.131
REMARK SMILES O=C[C@@H](O)[C@@H](O)[C@H](O)CO
REMARK SMILES IDX 7 1 9 2 10 3 5 5 3 6 2 7 1 8 4 9 6 11 8 13
REMARK H PARENT 10 4 4 10 6 12 8 14
REMARK Flexibility Score: inf
ROOT
ATOM      1  C   UNL     1       2.398   2.204  35.364  1.00  0.00     0.171 C 
ENDROOT
BRANCH   1   2
ATOM      2  C   UNL     1       2.827   3.529  34.710  1.00  0.00     0.190 C 
BRANCH   2   3
ATOM      3  O   UNL     1       2.819   3.393  33.316  1.00  0.00    -0.394 OA
ATOM      4  H   UNL     1       1.867   3.441  33.039  1.00  0.00     0.210 HD
ENDBRANCH   2   3
ENDBRANCH   1   2
BRANCH   1   5
ATOM      5  C   UNL     1       2.676   2.155  36.896  1.00  0.00     0.181 C 
BRANCH   5   6
ATOM      6  C   UNL     1       3.256   3.467  37.503  1.00  0.00     0.209 C 
BRANCH   6   7
ATOM      7  C   UNL     1       2.499   3.908  38.727  1.00  0.00     0.258 C 
ATOM      8  O   UNL     1       2.435   5.091  39.022  1.00  0.00    -0.300 OA
ENDBRANCH   6   7
BRANCH   6   9
ATOM      9  O   UNL     1       4.614   3.321  37.828  1.00  0.00    -0.383 OA
ATOM     10  H   UNL     1       4.740   3.713  38.732  1.00  0.00     0.211 HD
ENDBRANCH   6   9
ENDBRANCH   5   6
BRANCH   5  11
ATOM     11  O   UNL     1       1.501   1.801  37.583  1.00  0.00    -0.387 OA
ATOM     12  H   UNL     1       1.594   2.113  38.521  1.00  0.00     0.211 HD
ENDBRANCH   5  11
ENDBRANCH   1   5
BRANCH   1  13
ATOM     13  O   UNL     1       3.037   1.125  34.727  1.00  0.00    -0.388 OA
ATOM     14  H   UNL     1       2.801   0.300  35.229  1.00  0.00     0.211 HD
ENDBRANCH   1  13
TORSDOF 8
ENDMDL
MODEL 2
REMARK VINA RESULT:    -4.633      2.127      3.108
REMARK INTER + INTRA:          -6.390
REMARK INTER:                  -5.734
REMARK INTRA:                  -0.656
REMARK UNBOUND:                -0.131
REMARK SMILES O=C[C@@H](O)[C@@H](O)[C@H](O)CO
REMARK SMILES IDX 7 1 9 2 10 3 5 5 3 6 2 7 1 8 4 9 6 11 8 13
REMARK H PARENT 10 4 4 10 6 12 8 14
REMARK Flexibility Score: inf
ROOT
ATOM      1  C   UNL     1       3.052   3.209  37.986  1.00  0.00     0.171 C 
ENDROOT
BRANCH   1   2
ATOM      2  C   UNL     1       3.215   3.276  36.458  1.00  0.00     0.190 C 
BRANCH   2   3
ATOM      3  O   UNL     1       3.235   1.980  35.927  1.00  0.00    -0.394 OA
ATOM      4  H   UNL     1       2.596   1.449  36.470  1.00  0.00     0.210 HD
ENDBRANCH   2   3
ENDBRANCH   1   2
BRANCH   1   5
ATOM      5  C   UNL     1       2.449   1.860  38.482  1.00  0.00     0.181 C 
BRANCH   5   6
ATOM      6  C   UNL     1       2.249   1.755  40.024  1.00  0.00     0.209 C 
BRANCH   6   7
ATOM      7  C   UNL     1       0.818   1.986  40.427  1.00  0.00     0.258 C 
ATOM      8  O   UNL     1       0.365   3.117  40.483  1.00  0.00    -0.300 OA
ENDBRANCH   6   7
BRANCH   6   9
ATOM      9  O   UNL     1       2.670   0.506  40.507  1.00  0.00    -0.383 OA
ATOM     10  H   UNL     1       3.282   0.122  39.825  1.00  0.00     0.211 HD
ENDBRANCH   6   9
ENDBRANCH   5   6
BRANCH   5  11
ATOM     11  O   UNL     1       1.223   1.620  37.835  1.00  0.00    -0.387 OA
ATOM     12  H   UNL     1       0.502   1.994  38.406  1.00  0.00     0.211 HD
ENDBRANCH   5  11
ENDBRANCH   1   5
BRANCH   1  13
ATOM     13  O   UNL     1       2.257   4.281  38.432  1.00  0.00    -0.388 OA
ATOM     14  H   UNL     1       2.211   4.225  39.424  1.00  0.00     0.211 HD
ENDBRANCH   1  13
TORSDOF 8
ENDMDL
MODEL 3
REMARK VINA RESULT:    -4.551      3.664      5.063
REMARK INTER + INTRA:          -6.279
REMARK INTER:                  -5.622
REMARK INTRA:                  -0.656
REMARK UNBOUND:                -0.131
REMARK SMILES O=C[C@@H](O)[C@@H](O)[C@H](O)CO
REMARK SMILES IDX 7 1 9 2 10 3 5 5 3 6 2 7 1 8 4 9 6 11 8 13
REMARK H PARENT 10 4 4 10 6 12 8 14
REMARK Flexibility Score: inf
ROOT
ATOM      1  C   UNL     1       1.783   4.985  39.333  1.00  0.00     0.171 C 
ENDROOT
BRANCH   1   2
ATOM      2  C   UNL     1       2.906   5.942  39.770  1.00  0.00     0.190 C 
BRANCH   2   3
ATOM      3  O   UNL     1       2.371   7.210  40.034  1.00  0.00    -0.394 OA
ATOM      4  H   UNL     1       2.484   7.736  39.199  1.00  0.00     0.210 HD
ENDBRANCH   2   3
ENDBRANCH   1   2
BRANCH   1   5
ATOM      5  C   UNL     1       1.149   4.198  40.520  1.00  0.00     0.181 C 
BRANCH   5   6
ATOM      6  C   UNL     1       1.298   2.650  40.438  1.00  0.00     0.209 C 
BRANCH   6   7
ATOM      7  C   UNL     1       0.969   1.978  41.743  1.00  0.00     0.258 C 
ATOM      8  O   UNL     1       1.853   1.705  42.539  1.00  0.00    -0.300 OA
ENDBRANCH   6   7
BRANCH   6   9
ATOM      9  O   UNL     1       0.486   2.114  39.426  1.00  0.00    -0.383 OA
ATOM     10  H   UNL     1      -0.429   2.028  39.802  1.00  0.00     0.211 HD
ENDBRANCH   6   9
ENDBRANCH   5   6
BRANCH   5  11
ATOM     11  O   UNL     1       1.688   4.656  41.736  1.00  0.00    -0.387 OA
ATOM     12  H   UNL     1       1.385   4.037  42.451  1.00  0.00     0.211 HD
ENDBRANCH   5  11
ENDBRANCH   1   5
BRANCH   1  13
ATOM     13  O   UNL     1       2.268   4.084  38.368  1.00  0.00    -0.388 OA
ATOM     14  H   UNL     1       1.957   3.176  38.624  1.00  0.00     0.211 HD
ENDBRANCH   1  13
TORSDOF 8
ENDMDL
MODEL 4
REMARK VINA RESULT:    -4.449      1.213      2.054
REMARK INTER + INTRA:          -6.141
REMARK INTER:                  -5.878
REMARK INTRA:                  -0.263
REMARK UNBOUND:                -0.131
REMARK SMILES O=C[C@@H](O)[C@@H](O)[C@H](O)CO
REMARK SMILES IDX 7 1 9 2 10 3 5 5 3 6 2 7 1 8 4 9 6 11 8 13
REMARK H PARENT 10 4 4 10 6 12 8 14
REMARK Flexibility Score: inf
ROOT
ATOM      1  C   UNL     1       2.372   2.594  36.602  1.00  0.00     0.171 C 
ENDROOT
BRANCH   1   2
ATOM      2  C   UNL     1       2.962   2.049  35.290  1.00  0.00     0.190 C 
BRANCH   2   3
ATOM      3  O   UNL     1       2.068   2.285  34.236  1.00  0.00    -0.394 OA
ATOM      4  H   UNL     1       2.551   2.862  33.589  1.00  0.00     0.210 HD
ENDBRANCH   2   3
ENDBRANCH   1   2
BRANCH   1   5
ATOM      5  C   UNL     1       3.457   3.102  37.600  1.00  0.00     0.181 C 
BRANCH   5   6
ATOM      6  C   UNL     1       3.004   4.271  38.524  1.00  0.00     0.209 C 
BRANCH   6   7
ATOM      7  C   UNL     1       2.740   5.535  37.752  1.00  0.00     0.258 C 
ATOM      8  O   UNL     1       2.636   6.604  38.331  1.00  0.00    -0.300 OA
ENDBRANCH   6   7
BRANCH   6   9
ATOM      9  O   UNL     1       1.855   3.927  39.254  1.00  0.00    -0.383 OA
ATOM     10  H   UNL     1       2.064   4.076  40.213  1.00  0.00     0.211 HD
ENDBRANCH   6   9
ENDBRANCH   5   6
BRANCH   5  11
ATOM     11  O   UNL     1       3.916   2.032  38.389  1.00  0.00    -0.387 OA
ATOM     12  H   UNL     1       3.339   1.983  39.195  1.00  0.00     0.211 HD
ENDBRANCH   5  11
ENDBRANCH   1   5
BRANCH   1  13
ATOM     13  O   UNL     1       1.581   1.607  37.219  1.00  0.00    -0.388 OA
ATOM     14  H   UNL     1       1.459   1.874  38.169  1.00  0.00     0.211 HD
ENDBRANCH   1  13
TORSDOF 8
ENDMDL
MODEL 5
REMARK VINA RESULT:    -4.408      1.228      4.034
REMARK INTER + INTRA:          -6.085
REMARK INTER:                  -5.610
REMARK INTRA:                  -0.475
REMARK UNBOUND:                -0.131
REMARK SMILES O=C[C@@H](O)[C@@H](O)[C@H](O)CO
REMARK SMILES IDX 7 1 9 2 10 3 5 5 3 6 2 7 1 8 4 9 6 11 8 13
REMARK H PARENT 10 4 4 10 6 12 8 14
REMARK Flexibility Score: inf
ROOT
ATOM      1  C   UNL     1       2.790   2.393  37.671  1.00  0.00     0.171 C 
ENDROOT
BRANCH   1   2
ATOM      2  C   UNL     1       2.659   3.425  38.804  1.00  0.00     0.190 C 
BRANCH   2   3
ATOM      3  O   UNL     1       1.467   3.207  39.507  1.00  0.00    -0.394 OA
ATOM      4  H   UNL     1       1.264   4.058  39.978  1.00  0.00     0.210 HD
ENDBRANCH   2   3
ENDBRANCH   1   2
BRANCH   1   5
ATOM      5  C   UNL     1       3.264   3.015  36.323  1.00  0.00     0.181 C 
BRANCH   5   6
ATOM      6  C   UNL     1       2.571   2.440  35.052  1.00  0.00     0.209 C 
BRANCH   6   7
ATOM      7  C   UNL     1       2.879   3.250  33.822  1.00  0.00     0.258 C 
ATOM      8  O   UNL     1       2.415   4.370  33.687  1.00  0.00    -0.300 OA
ENDBRANCH   6   7
BRANCH   6   9
ATOM      9  O   UNL     1       2.944   1.105  34.831  1.00  0.00    -0.383 OA
ATOM     10  H   UNL     1       3.937   1.079  34.811  1.00  0.00     0.211 HD
ENDBRANCH   6   9
ENDBRANCH   5   6
BRANCH   5  11
ATOM     11  O   UNL     1       3.093   4.411  36.358  1.00  0.00    -0.387 OA
ATOM     12  H   UNL     1       2.759   4.651  37.261  1.00  0.00     0.211 HD
ENDBRANCH   5  11
ENDBRANCH   1   5
BRANCH   1  13
ATOM     13  O   UNL     1       1.565   1.726  37.484  1.00  0.00    -0.388 OA
ATOM     14  H   UNL     1       1.737   0.946  36.893  1.00  0.00     0.211 HD
ENDBRANCH   1  13
TORSDOF 8
ENDMDL
MODEL 6
REMARK VINA RESULT:    -4.387      1.474      1.872
REMARK INTER + INTRA:          -6.057
REMARK INTER:                  -5.583
REMARK INTRA:                  -0.474
REMARK UNBOUND:                -0.131
REMARK SMILES O=C[C@@H](O)[C@@H](O)[C@H](O)CO
REMARK SMILES IDX 7 1 9 2 10 3 5 5 3 6 2 7 1 8 4 9 6 11 8 13
REMARK H PARENT 10 4 4 10 6 12 8 14
REMARK Flexibility Score: inf
ROOT
ATOM      1  C   UNL     1       3.230   2.775  36.048  1.00  0.00     0.171 C 
ENDROOT
BRANCH   1   2
ATOM      2  C   UNL     1       2.603   1.983  34.887  1.00  0.00     0.190 C 
BRANCH   2   3
ATOM      3  O   UNL     1       3.422   2.075  33.755  1.00  0.00    -0.394 OA
ATOM      4  H   UNL     1       3.062   2.826  33.214  1.00  0.00     0.210 HD
ENDBRANCH   2   3
ENDBRANCH   1   2
BRANCH   1   5
ATOM      5  C   UNL     1       2.673   2.365  37.445  1.00  0.00     0.181 C 
BRANCH   5   6
ATOM      6  C   UNL     1       2.413   3.550  38.423  1.00  0.00     0.209 C 
BRANCH   6   7
ATOM      7  C   UNL     1       1.863   3.084  39.743  1.00  0.00     0.258 C 
ATOM      8  O   UNL     1       1.843   1.896  40.021  1.00  0.00    -0.300 OA
ENDBRANCH   6   7
BRANCH   6   9
ATOM      9  O   UNL     1       3.584   4.291  38.646  1.00  0.00    -0.383 OA
ATOM     10  H   UNL     1       3.612   4.505  39.616  1.00  0.00     0.211 HD
ENDBRANCH   6   9
ENDBRANCH   5   6
BRANCH   5  11
ATOM     11  O   UNL     1       1.489   1.622  37.286  1.00  0.00    -0.387 OA
ATOM     12  H   UNL     1       0.872   2.155  36.721  1.00  0.00     0.211 HD
ENDBRANCH   5  11
ENDBRANCH   1   5
BRANCH   1  13
ATOM     13  O   UNL     1       3.042   4.154  35.845  1.00  0.00    -0.388 OA
ATOM     14  H   UNL     1       2.099   4.289  35.561  1.00  0.00     0.211 HD
ENDBRANCH   1  13
TORSDOF 8
ENDMDL
MODEL 7
REMARK VINA RESULT:    -4.386      2.759      4.135
REMARK INTER + INTRA:          -6.055
REMARK INTER:                  -5.369
REMARK INTRA:                  -0.686
REMARK UNBOUND:                -0.131
REMARK SMILES O=C[C@@H](O)[C@@H](O)[C@H](O)CO
REMARK SMILES IDX 7 1 9 2 10 3 5 5 3 6 2 7 1 8 4 9 6 11 8 13
REMARK H PARENT 10 4 4 10 6 12 8 14
REMARK Flexibility Score: inf
ROOT
ATOM      1  C   UNL     1       1.429   2.131  39.836  1.00  0.00     0.171 C 
ENDROOT
BRANCH   1   2
ATOM      2  C   UNL     1       0.117   2.058  40.638  1.00  0.00     0.190 C 
BRANCH   2   3
ATOM      3  O   UNL     1      -0.971   2.281  39.784  1.00  0.00    -0.394 OA
ATOM      4  H   UNL     1      -0.912   1.588  39.075  1.00  0.00     0.210 HD
ENDBRANCH   2   3
ENDBRANCH   1   2
BRANCH   1   5
ATOM      5  C   UNL     1       1.977   3.582  39.684  1.00  0.00     0.181 C 
BRANCH   5   6
ATOM      6  C   UNL     1       2.696   3.876  38.333  1.00  0.00     0.209 C 
BRANCH   6   7
ATOM      7  C   UNL     1       3.113   5.316  38.215  1.00  0.00     0.258 C 
ATOM      8  O   UNL     1       2.274   6.200  38.146  1.00  0.00    -0.300 OA
ENDBRANCH   6   7
BRANCH   6   9
ATOM      9  O   UNL     1       3.823   3.054  38.168  1.00  0.00    -0.383 OA
ATOM     10  H   UNL     1       4.041   2.677  39.061  1.00  0.00     0.211 HD
ENDBRANCH   6   9
ENDBRANCH   5   6
BRANCH   5  11
ATOM     11  O   UNL     1       0.934   4.507  39.870  1.00  0.00    -0.387 OA
ATOM     12  H   UNL     1       0.847   5.035  39.033  1.00  0.00     0.211 HD
ENDBRANCH   5  11
ENDBRANCH   1   5
BRANCH   1  13
ATOM     13  O   UNL     1       1.248   1.553  38.566  1.00  0.00    -0.388 OA
ATOM     14  H   UNL     1       1.295   0.567  38.679  1.00  0.00     0.211 HD
ENDBRANCH   1  13
TORSDOF 8
ENDMDL
MODEL 8
REMARK VINA RESULT:    -4.381      2.380      4.140
REMARK INTER + INTRA:          -6.049
REMARK INTER:                  -5.380
REMARK INTRA:                  -0.669
REMARK UNBOUND:                -0.131
REMARK SMILES O=C[C@@H](O)[C@@H](O)[C@H](O)CO
REMARK SMILES IDX 7 1 9 2 10 3 5 5 3 6 2 7 1 8 4 9 6 11 8 13
REMARK H PARENT 10 4 4 10 6 12 8 14
REMARK Flexibility Score: inf
ROOT
ATOM      1  C   UNL     1       2.519   4.191  38.963  1.00  0.00     0.171 C 
ENDROOT
BRANCH   1   2
ATOM      2  C   UNL     1       3.072   4.043  37.534  1.00  0.00     0.190 C 
BRANCH   2   3
ATOM      3  O   UNL     1       4.147   3.144  37.534  1.00  0.00    -0.394 OA
ATOM      4  H   UNL     1       4.898   3.613  37.084  1.00  0.00     0.210 HD
ENDBRANCH   2   3
ENDBRANCH   1   2
BRANCH   1   5
ATOM      5  C   UNL     1       2.058   2.839  39.587  1.00  0.00     0.181 C 
BRANCH   5   6
ATOM      6  C   UNL     1       1.032   2.968  40.752  1.00  0.00     0.209 C 
BRANCH   6   7
ATOM      7  C   UNL     1       0.908   1.694  41.542  1.00  0.00     0.258 C 
ATOM      8  O   UNL     1       1.767   0.830  41.463  1.00  0.00    -0.300 OA
ENDBRANCH   6   7
BRANCH   6   9
ATOM      9  O   UNL     1       1.376   4.017  41.619  1.00  0.00    -0.383 OA
ATOM     10  H   UNL     1       2.288   3.823  41.962  1.00  0.00     0.211 HD
ENDBRANCH   6   9
ENDBRANCH   5   6
BRANCH   5  11
ATOM     11  O   UNL     1       1.526   2.008  38.584  1.00  0.00    -0.387 OA
ATOM     12  H   UNL     1       1.911   2.300  37.717  1.00  0.00     0.211 HD
ENDBRANCH   5  11
ENDBRANCH   1   5
BRANCH   1  13
ATOM     13  O   UNL     1       1.453   5.109  38.973  1.00  0.00    -0.388 OA
ATOM     14  H   UNL     1       0.648   4.636  38.635  1.00  0.00     0.211 HD
ENDBRANCH   1  13
TORSDOF 8
ENDMDL
MODEL 9
REMARK VINA RESULT:    -4.314      2.271      4.992
REMARK INTER + INTRA:          -5.958
REMARK INTER:                  -5.338
REMARK INTRA:                  -0.621
REMARK UNBOUND:                -0.131
REMARK SMILES O=C[C@@H](O)[C@@H](O)[C@H](O)CO
REMARK SMILES IDX 7 1 9 2 10 3 5 5 3 6 2 7 1 8 4 9 6 11 8 13
REMARK H PARENT 10 4 4 10 6 12 8 14
REMARK Flexibility Score: inf
ROOT
ATOM      1  C   UNL     1       0.774   2.699  40.641  1.00  0.00     0.171 C 
ENDROOT
BRANCH   1   2
ATOM      2  C   UNL     1       1.597   3.219  41.832  1.00  0.00     0.190 C 
BRANCH   2   3
ATOM      3  O   UNL     1       1.501   4.615  41.900  1.00  0.00    -0.394 OA
ATOM      4  H   UNL     1       2.410   4.944  42.127  1.00  0.00     0.210 HD
ENDBRANCH   2   3
ENDBRANCH   1   2
BRANCH   1   5
ATOM      5  C   UNL     1       1.651   2.283  39.422  1.00  0.00     0.181 C 
BRANCH   5   6
ATOM      6  C   UNL     1       2.585   3.401  38.870  1.00  0.00     0.209 C 
BRANCH   6   7
ATOM      7  C   UNL     1       3.108   3.076  37.497  1.00  0.00     0.258 C 
ATOM      8  O   UNL     1       2.790   2.036  36.943  1.00  0.00    -0.300 OA
ENDBRANCH   6   7
BRANCH   6   9
ATOM      9  O   UNL     1       1.926   4.640  38.832  1.00  0.00    -0.383 OA
ATOM     10  H   UNL     1       1.857   4.962  39.769  1.00  0.00     0.211 HD
ENDBRANCH   6   9
ENDBRANCH   5   6
BRANCH   5  11
ATOM     11  O   UNL     1       2.420   1.152  39.752  1.00  0.00    -0.387 OA
ATOM     12  H   UNL     1       1.856   0.558  40.313  1.00  0.00     0.211 HD
ENDBRANCH   5  11
ENDBRANCH   1   5
BRANCH   1  13
ATOM     13  O   UNL     1      -0.164   3.669  40.245  1.00  0.00    -0.388 OA
ATOM     14  H   UNL     1       0.234   4.179  39.491  1.00  0.00     0.211 HD
ENDBRANCH   1  13
TORSDOF 8
ENDMDL
