MODEL 1
REMARK VINA RESULT:    -4.245      0.000      0.000
REMARK INTER + INTRA:          -4.206
REMARK INTER:                  -5.238
REMARK INTRA:                   1.031
REMARK UNBOUND:                 1.031
REMARK SMILES CC1=CC=CC(C)(C)CC1=O
REMARK SMILES IDX 1 1 2 2 3 3 10 4 11 5 9 6 4 8 5 9 6 10 7 11 8 12
REMARK H PARENT
REMARK Flexibility Score: 80.00
ROOT
ATOM      1  C   UNL     1      11.194  33.773  72.792  1.00  0.00     0.048 C 
ATOM      2  C   UNL     1      10.695  32.354  72.931  1.00  0.00    -0.008 C 
ATOM      3  C   UNL     1      10.257  31.732  71.815  1.00  0.00     0.007 C 
ENDROOT
BRANCH   2   4
ATOM      4  C   UNL     1      10.655  31.783  74.300  1.00  0.00     0.159 C 
ATOM      5  O   UNL     1      11.280  32.373  75.223  1.00  0.00    -0.295 OA
BRANCH   4   6
ATOM      6  C   UNL     1       9.920  30.526  74.650  1.00  0.00     0.091 CG0
ATOM      7  G   UNL     1      10.386  29.300  73.833  1.00  0.00     0.000 G0
ENDBRANCH   4   6
ENDBRANCH   2   4
BRANCH   3   8
ATOM      8  C   UNL     1       9.694  30.372  71.642  1.00  0.00    -0.003 C 
ATOM      9  C   UNL     1       9.721  29.333  72.486  1.00  0.00    -0.020 C 
BRANCH   9  10
ATOM     10  C   UNL     1      10.379  29.299  73.845  1.00  0.00    -0.010 CG0
ATOM     11  C   UNL     1      11.910  29.372  73.644  1.00  0.00     0.016 C 
ATOM     12  C   UNL     1      10.054  27.964  74.555  1.00  0.00     0.016 C 
ATOM     13  G   UNL     1       9.942  30.532  74.667  1.00  0.00     0.000 G0
ENDBRANCH   9  10
ENDBRANCH   3   8
TORSDOF 0
ENDMDL
MODEL 2
REMARK VINA RESULT:    -4.151      1.970      3.834
REMARK INTER + INTRA:          -4.091
REMARK INTER:                  -4.861
REMARK INTRA:                   0.771
REMARK UNBOUND:                 1.031
REMARK SMILES CC1=CC=CC(C)(C)CC1=O
REMARK SMILES IDX 1 1 2 2 3 3 10 4 11 5 9 6 4 8 5 9 6 10 7 11 8 12
REMARK H PARENT
REMARK Flexibility Score: 80.00
ROOT
ATOM      1  C   UNL     1      11.222  27.362  74.004  1.00  0.00     0.048 C 
ATOM      2  C   UNL     1      11.022  28.850  73.833  1.00  0.00    -0.008 C 
ATOM      3  C   UNL     1      10.211  29.478  74.711  1.00  0.00     0.007 C 
ENDROOT
BRANCH   2   4
ATOM      4  C   UNL     1      11.676  29.489  72.664  1.00  0.00     0.159 C 
ATOM      5  O   UNL     1      12.194  28.754  71.779  1.00  0.00    -0.295 OA
BRANCH   4   6
ATOM      6  C   UNL     1      11.770  30.972  72.478  1.00  0.00     0.091 CG0
ATOM      7  G   UNL     1      10.391  31.668  72.426  1.00  0.00     0.000 G0
ENDBRANCH   4   6
ENDBRANCH   2   4
BRANCH   3   8
ATOM      8  C   UNL     1       9.806  30.902  74.782  1.00  0.00    -0.003 C 
ATOM      9  C   UNL     1       9.861  31.844  73.832  1.00  0.00    -0.020 C 
BRANCH   9  10
ATOM     10  C   UNL     1      10.392  31.672  72.429  1.00  0.00    -0.010 CG0
ATOM     11  C   UNL     1      10.579  33.076  71.807  1.00  0.00     0.016 C 
ATOM     12  C   UNL     1       9.366  30.901  71.566  1.00  0.00     0.016 C 
ATOM     13  G   UNL     1      11.772  30.979  72.475  1.00  0.00     0.000 G0
ENDBRANCH   9  10
ENDBRANCH   3   8
TORSDOF 0
ENDMDL
MODEL 3
REMARK VINA RESULT:    -4.137      1.901      3.791
REMARK INTER + INTRA:          -4.073
REMARK INTER:                  -5.108
REMARK INTRA:                   1.035
REMARK UNBOUND:                 1.031
REMARK SMILES CC1=CC=CC(C)(C)CC1=O
REMARK SMILES IDX 1 1 2 2 3 3 10 4 11 5 9 6 4 8 5 9 6 10 7 11 8 12
REMARK H PARENT
REMARK Flexibility Score: 80.00
ROOT
ATOM      1  C   UNL     1      10.528  26.474  73.753  1.00  0.00     0.048 C 
ATOM      2  C   UNL     1      10.516  27.899  73.252  1.00  0.00    -0.008 C 
ATOM      3  C   UNL     1       9.330  28.420  72.872  1.00  0.00     0.007 C 
ENDROOT
BRANCH   2   4
ATOM      4  C   UNL     1      11.826  28.589  73.146  1.00  0.00     0.159 C 
ATOM      5  O   UNL     1      12.821  28.102  73.751  1.00  0.00    -0.295 OA
BRANCH   4   6
ATOM      6  C   UNL     1      12.035  29.850  72.366  1.00  0.00     0.091 CG0
ATOM      7  G   UNL     1      11.163  31.025  72.862  1.00  0.00     0.000 G0
ENDBRANCH   4   6
ENDBRANCH   2   4
BRANCH   3   8
ATOM      8  C   UNL     1       9.010  29.758  72.322  1.00  0.00    -0.003 C 
ATOM      9  C   UNL     1       9.768  30.861  72.290  1.00  0.00    -0.020 C 
BRANCH   9  10
ATOM     10  C   UNL     1      11.162  31.008  72.851  1.00  0.00    -0.010 CG0
ATOM     11  C   UNL     1      11.073  30.947  74.394  1.00  0.00     0.016 C 
ATOM     12  C   UNL     1      11.747  32.385  72.461  1.00  0.00     0.016 C 
ATOM     13  G   UNL     1      12.042  29.831  72.374  1.00  0.00     0.000 G0
ENDBRANCH   9  10
ENDBRANCH   3   8
TORSDOF 0
ENDMDL
MODEL 4
REMARK VINA RESULT:    -4.127      1.265      1.846
REMARK INTER + INTRA:          -4.061
REMARK INTER:                  -4.825
REMARK INTRA:                   0.763
REMARK UNBOUND:                 1.031
REMARK SMILES CC1=CC=CC(C)(C)CC1=O
REMARK SMILES IDX 1 1 2 2 3 3 10 4 11 5 9 6 4 8 5 9 6 10 7 11 8 12
REMARK H PARENT
REMARK Flexibility Score: 80.00
ROOT
ATOM      1  C   UNL     1      11.376  33.185  73.448  1.00  0.00     0.048 C 
ATOM      2  C   UNL     1      11.252  31.682  73.354  1.00  0.00    -0.008 C 
ATOM      3  C   UNL     1      12.043  31.044  72.466  1.00  0.00     0.007 C 
ENDROOT
BRANCH   2   4
ATOM      4  C   UNL     1      10.214  31.037  74.195  1.00  0.00     0.159 C 
ATOM      5  O   UNL     1       9.367  31.764  74.783  1.00  0.00    -0.295 OA
BRANCH   4   6
ATOM      6  C   UNL     1      10.120  29.556  74.400  1.00  0.00     0.091 CG0
ATOM      7  G   UNL     1       9.915  28.770  73.086  1.00  0.00     0.000 G0
ENDBRANCH   4   6
ENDBRANCH   2   4
BRANCH   3   8
ATOM      8  C   UNL     1      12.128  29.603  72.132  1.00  0.00    -0.003 C 
ATOM      9  C   UNL     1      11.244  28.626  72.371  1.00  0.00    -0.020 C 
BRANCH   9  10
ATOM     10  C   UNL     1       9.921  28.770  73.085  1.00  0.00    -0.010 CG0
ATOM     11  C   UNL     1       9.408  27.357  73.446  1.00  0.00     0.016 C 
ATOM     12  C   UNL     1       8.882  29.428  72.147  1.00  0.00     0.016 C 
ATOM     13  G   UNL     1      10.120  29.559  74.399  1.00  0.00     0.000 G0
ENDBRANCH   9  10
ENDBRANCH   3   8
TORSDOF 0
ENDMDL
MODEL 5
REMARK VINA RESULT:    -4.021      1.592      2.547
REMARK INTER + INTRA:          -3.930
REMARK INTER:                  -4.679
REMARK INTRA:                   0.749
REMARK UNBOUND:                 1.031
REMARK SMILES CC1=CC=CC(C)(C)CC1=O
REMARK SMILES IDX 1 1 2 2 3 3 10 4 11 5 9 6 4 8 5 9 6 10 7 11 8 12
REMARK H PARENT
REMARK Flexibility Score: 80.00
ROOT
ATOM      1  C   UNL     1      11.772  34.422  72.915  1.00  0.00     0.048 C 
ATOM      2  C   UNL     1      11.153  33.089  73.267  1.00  0.00    -0.008 C 
ATOM      3  C   UNL     1      11.203  32.697  74.558  1.00  0.00     0.007 C 
ENDROOT
BRANCH   2   4
ATOM      4  C   UNL     1      10.606  32.283  72.148  1.00  0.00     0.159 C 
ATOM      5  O   UNL     1      10.876  32.622  70.964  1.00  0.00    -0.295 OA
BRANCH   4   6
ATOM      6  C   UNL     1       9.731  31.083  72.345  1.00  0.00     0.091 CG0
ATOM      7  G   UNL     1      10.411  29.960  73.161  1.00  0.00     0.000 G0
ENDBRANCH   4   6
ENDBRANCH   2   4
BRANCH   3   8
ATOM      8  C   UNL     1      10.715  31.450  75.193  1.00  0.00    -0.003 C 
ATOM      9  C   UNL     1      10.390  30.283  74.624  1.00  0.00    -0.020 C 
BRANCH   9  10
ATOM     10  C   UNL     1      10.422  29.966  73.147  1.00  0.00    -0.010 CG0
ATOM     11  C   UNL     1       9.614  28.669  72.912  1.00  0.00     0.016 C 
ATOM     12  C   UNL     1      11.878  29.711  72.693  1.00  0.00     0.016 C 
ATOM     13  G   UNL     1       9.742  31.106  72.355  1.00  0.00     0.000 G0
ENDBRANCH   9  10
ENDBRANCH   3   8
TORSDOF 0
ENDMDL
MODEL 6
REMARK VINA RESULT:    -3.653      1.977      3.277
REMARK INTER + INTRA:          -3.476
REMARK INTER:                  -4.238
REMARK INTRA:                   0.761
REMARK UNBOUND:                 1.031
REMARK SMILES CC1=CC=CC(C)(C)CC1=O
REMARK SMILES IDX 1 1 2 2 3 3 10 4 11 5 9 6 4 8 5 9 6 10 7 11 8 12
REMARK H PARENT
REMARK Flexibility Score: 80.00
ROOT
ATOM      1  C   UNL     1      11.439  31.116  72.745  1.00  0.00     0.048 C 
ATOM      2  C   UNL     1      11.465  29.722  73.327  1.00  0.00    -0.008 C 
ATOM      3  C   UNL     1      12.613  29.020  73.217  1.00  0.00     0.007 C 
ENDROOT
BRANCH   2   4
ATOM      4  C   UNL     1      10.200  29.208  73.908  1.00  0.00     0.159 C 
ATOM      5  O   UNL     1       9.132  29.847  73.701  1.00  0.00    -0.295 OA
BRANCH   4   6
ATOM      6  C   UNL     1      10.118  27.969  74.746  1.00  0.00     0.091 CG0
ATOM      7  G   UNL     1      10.570  26.696  73.996  1.00  0.00     0.000 G0
ENDBRANCH   4   6
ENDBRANCH   2   4
BRANCH   3   8
ATOM      8  C   UNL     1      12.931  27.641  73.658  1.00  0.00    -0.003 C 
ATOM      9  C   UNL     1      12.098  26.643  73.978  1.00  0.00    -0.020 C 
BRANCH   9  10
ATOM     10  C   UNL     1      10.589  26.704  73.990  1.00  0.00    -0.010 CG0
ATOM     11  C   UNL     1      10.060  25.469  74.754  1.00  0.00     0.016 C 
ATOM     12  C   UNL     1      10.046  26.637  72.543  1.00  0.00     0.016 C 
ATOM     13  G   UNL     1      10.124  27.971  74.742  1.00  0.00     0.000 G0
ENDBRANCH   9  10
ENDBRANCH   3   8
TORSDOF 0
ENDMDL
MODEL 7
REMARK VINA RESULT:    -3.628      1.524      3.508
REMARK INTER + INTRA:          -3.446
REMARK INTER:                  -4.470
REMARK INTRA:                   1.025
REMARK UNBOUND:                 1.031
REMARK SMILES CC1=CC=CC(C)(C)CC1=O
REMARK SMILES IDX 1 1 2 2 3 3 10 4 11 5 9 6 4 8 5 9 6 10 7 11 8 12
REMARK H PARENT
REMARK Flexibility Score: 80.00
ROOT
ATOM      1  C   UNL     1       9.842  27.591  74.892  1.00  0.00     0.048 C 
ATOM      2  C   UNL     1      10.461  28.694  74.066  1.00  0.00    -0.008 C 
ATOM      3  C   UNL     1      11.307  28.335  73.077  1.00  0.00     0.007 C 
ENDROOT
BRANCH   2   4
ATOM      4  C   UNL     1      10.148  30.090  74.460  1.00  0.00     0.159 C 
ATOM      5  O   UNL     1       9.170  30.301  75.229  1.00  0.00    -0.295 OA
BRANCH   4   6
ATOM      6  C   UNL     1      10.926  31.278  73.983  1.00  0.00     0.091 CG0
ATOM      7  G   UNL     1      10.941  31.417  72.444  1.00  0.00     0.000 G0
ENDBRANCH   4   6
ENDBRANCH   2   4
BRANCH   3   8
ATOM      8  C   UNL     1      12.077  29.177  72.131  1.00  0.00    -0.003 C 
ATOM      9  C   UNL     1      11.943  30.482  71.860  1.00  0.00    -0.020 C 
BRANCH   9  10
ATOM     10  C   UNL     1      10.924  31.422  72.459  1.00  0.00    -0.010 CG0
ATOM     11  C   UNL     1       9.529  31.031  71.920  1.00  0.00     0.016 C 
ATOM     12  C   UNL     1      11.218  32.873  72.012  1.00  0.00     0.016 C 
ATOM     13  G   UNL     1      10.908  31.264  73.996  1.00  0.00     0.000 G0
ENDBRANCH   9  10
ENDBRANCH   3   8
TORSDOF 0
ENDMDL
MODEL 8
REMARK VINA RESULT:    -3.555      2.071      4.105
REMARK INTER + INTRA:          -3.355
REMARK INTER:                  -4.126
REMARK INTRA:                   0.771
REMARK UNBOUND:                 1.031
REMARK SMILES CC1=CC=CC(C)(C)CC1=O
REMARK SMILES IDX 1 1 2 2 3 3 10 4 11 5 9 6 4 8 5 9 6 10 7 11 8 12
REMARK H PARENT
REMARK Flexibility Score: 80.00
ROOT
ATOM      1  C   UNL     1      10.580  25.942  74.349  1.00  0.00     0.048 C 
ATOM      2  C   UNL     1      10.817  27.261  73.650  1.00  0.00    -0.008 C 
ATOM      3  C   UNL     1      12.086  27.718  73.591  1.00  0.00     0.007 C 
ENDROOT
BRANCH   2   4
ATOM      4  C   UNL     1       9.622  27.985  73.151  1.00  0.00     0.159 C 
ATOM      5  O   UNL     1       8.477  27.556  73.461  1.00  0.00    -0.295 OA
BRANCH   4   6
ATOM      6  C   UNL     1       9.697  29.201  72.280  1.00  0.00     0.091 CG0
ATOM      7  G   UNL     1      10.507  30.355  72.912  1.00  0.00     0.000 G0
ENDBRANCH   4   6
ENDBRANCH   2   4
BRANCH   3   8
ATOM      8  C   UNL     1      12.620  28.970  73.005  1.00  0.00    -0.003 C 
ATOM      9  C   UNL     1      11.976  30.106  72.711  1.00  0.00    -0.020 C 
BRANCH   9  10
ATOM     10  C   UNL     1      10.499  30.372  72.888  1.00  0.00    -0.010 CG0
ATOM     11  C   UNL     1      10.143  31.664  72.117  1.00  0.00     0.016 C 
ATOM     12  C   UNL     1      10.181  30.607  74.383  1.00  0.00     0.016 C 
ATOM     13  G   UNL     1       9.684  29.209  72.282  1.00  0.00     0.000 G0
ENDBRANCH   9  10
ENDBRANCH   3   8
TORSDOF 0
ENDMDL
MODEL 9
REMARK VINA RESULT:    -3.322      2.001      2.764
REMARK INTER + INTRA:          -3.068
REMARK INTER:                  -3.829
REMARK INTRA:                   0.761
REMARK UNBOUND:                 1.031
REMARK SMILES CC1=CC=CC(C)(C)CC1=O
REMARK SMILES IDX 1 1 2 2 3 3 10 4 11 5 9 6 4 8 5 9 6 10 7 11 8 12
REMARK H PARENT
REMARK Flexibility Score: 80.00
ROOT
ATOM      1  C   UNL     1      12.031  32.223  72.656  1.00  0.00     0.048 C 
ATOM      2  C   UNL     1      11.216  30.999  73.003  1.00  0.00    -0.008 C 
ATOM      3  C   UNL     1      10.531  31.012  74.166  1.00  0.00     0.007 C 
ENDROOT
BRANCH   2   4
ATOM      4  C   UNL     1      11.297  29.848  72.070  1.00  0.00     0.159 C 
ATOM      5  O   UNL     1      12.172  29.860  71.161  1.00  0.00    -0.295 OA
BRANCH   4   6
ATOM      6  C   UNL     1      10.380  28.665  72.136  1.00  0.00     0.091 CG0
ATOM      7  G   UNL     1      10.455  27.910  73.482  1.00  0.00     0.000 G0
ENDBRANCH   4   6
ENDBRANCH   2   4
BRANCH   3   8
ATOM      8  C   UNL     1       9.679  29.967  74.781  1.00  0.00    -0.003 C 
ATOM      9  C   UNL     1       9.631  28.655  74.519  1.00  0.00    -0.020 C 
BRANCH   9  10
ATOM     10  C   UNL     1      10.445  27.917  73.482  1.00  0.00    -0.010 CG0
ATOM     11  C   UNL     1       9.819  26.518  73.281  1.00  0.00     0.016 C 
ATOM     12  C   UNL     1      11.893  27.723  73.987  1.00  0.00     0.016 C 
ATOM     13  G   UNL     1      10.380  28.671  72.135  1.00  0.00     0.000 G0
ENDBRANCH   9  10
ENDBRANCH   3   8
TORSDOF 0
ENDMDL
