MODEL 1
REMARK VINA RESULT:    -5.720      0.000      0.000
REMARK INTER + INTRA:          -6.142
REMARK INTER:                  -6.054
REMARK INTRA:                  -0.088
REMARK UNBOUND:                -0.088
REMARK SMILES C=C(C)[C@@H]1CC=C(C)C(=O)C1
REMARK SMILES IDX 8 1 7 2 6 3 5 4 4 5 11 6 9 7 10 8 2 9 1 10 3 11
REMARK H PARENT
REMARK Flexibility Score: inf
ROOT
ATOM      1  C   UNL     1      85.113  35.397  26.905  1.00  0.00     0.048 C 
ATOM      2  C   UNL     1      86.147  36.487  26.842  1.00  0.00    -0.012 C 
ATOM      3  C   UNL     1      86.733  36.785  25.670  1.00  0.00    -0.019 C 
ATOM      4  C   UNL     1      87.760  37.880  25.547  1.00  0.00     0.036 C 
ATOM      5  C   UNL     1      88.592  38.006  26.837  1.00  0.00     0.025 C 
ATOM      6  C   UNL     1      87.668  38.208  28.052  1.00  0.00     0.089 C 
ATOM      7  C   UNL     1      86.606  37.143  28.091  1.00  0.00     0.158 C 
ATOM      8  O   UNL     1      86.083  36.838  29.197  1.00  0.00    -0.295 OA
ENDROOT
BRANCH   5   9
ATOM      9  C   UNL     1      89.621  39.123  26.730  1.00  0.00    -0.077 C 
ATOM     10  C   UNL     1      90.882  38.918  27.142  1.00  0.00     0.008 C 
ATOM     11  C   UNL     1      89.259  40.475  26.165  1.00  0.00     0.039 C 
ENDBRANCH   5   9
TORSDOF 1
ENDMDL
MODEL 2
REMARK VINA RESULT:    -5.712      1.537      2.381
REMARK INTER + INTRA:          -6.135
REMARK INTER:                  -6.047
REMARK INTRA:                  -0.088
REMARK UNBOUND:                -0.088
REMARK SMILES C=C(C)[C@@H]1CC=C(C)C(=O)C1
REMARK SMILES IDX 8 1 7 2 6 3 5 4 4 5 11 6 9 7 10 8 2 9 1 10 3 11
REMARK H PARENT
REMARK Flexibility Score: inf
ROOT
ATOM      1  C   UNL     1      84.645  35.850  26.693  1.00  0.00     0.048 C 
ATOM      2  C   UNL     1      85.965  36.570  26.689  1.00  0.00    -0.012 C 
ATOM      3  C   UNL     1      86.434  37.113  27.826  1.00  0.00    -0.019 C 
ATOM      4  C   UNL     1      87.758  37.829  27.882  1.00  0.00     0.036 C 
ATOM      5  C   UNL     1      88.059  38.540  26.550  1.00  0.00     0.025 C 
ATOM      6  C   UNL     1      87.987  37.541  25.381  1.00  0.00     0.089 C 
ATOM      7  C   UNL     1      86.685  36.788  25.410  1.00  0.00     0.158 C 
ATOM      8  O   UNL     1      86.228  36.311  24.337  1.00  0.00    -0.295 OA
ENDROOT
BRANCH   5   9
ATOM      9  C   UNL     1      89.406  39.252  26.590  1.00  0.00    -0.077 C 
ATOM     10  C   UNL     1      89.509  40.521  26.166  1.00  0.00     0.008 C 
ATOM     11  C   UNL     1      90.646  38.560  27.101  1.00  0.00     0.039 C 
ENDBRANCH   5   9
TORSDOF 1
ENDMDL
MODEL 3
REMARK VINA RESULT:    -5.609      0.076      1.046
REMARK INTER + INTRA:          -6.025
REMARK INTER:                  -5.928
REMARK INTRA:                  -0.097
REMARK UNBOUND:                -0.088
REMARK SMILES C=C(C)[C@@H]1CC=C(C)C(=O)C1
REMARK SMILES IDX 8 1 7 2 6 3 5 4 4 5 11 6 9 7 10 8 2 9 1 10 3 11
REMARK H PARENT
REMARK Flexibility Score: inf
ROOT
ATOM      1  C   UNL     1      85.101  35.380  26.880  1.00  0.00     0.048 C 
ATOM      2  C   UNL     1      86.124  36.481  26.813  1.00  0.00    -0.012 C 
ATOM      3  C   UNL     1      86.720  36.770  25.644  1.00  0.00    -0.019 C 
ATOM      4  C   UNL     1      87.736  37.874  25.517  1.00  0.00     0.036 C 
ATOM      5  C   UNL     1      88.552  38.026  26.814  1.00  0.00     0.025 C 
ATOM      6  C   UNL     1      87.613  38.235  28.016  1.00  0.00     0.089 C 
ATOM      7  C   UNL     1      86.563  37.159  28.058  1.00  0.00     0.158 C 
ATOM      8  O   UNL     1      86.030  36.863  29.162  1.00  0.00    -0.295 OA
ENDROOT
BRANCH   5   9
ATOM      9  C   UNL     1      89.571  39.154  26.703  1.00  0.00    -0.077 C 
ATOM     10  C   UNL     1      89.210  40.337  26.181  1.00  0.00     0.008 C 
ATOM     11  C   UNL     1      90.995  38.976  27.168  1.00  0.00     0.039 C 
ENDBRANCH   5   9
TORSDOF 1
ENDMDL
MODEL 4
REMARK VINA RESULT:    -4.509      2.400      4.530
REMARK INTER + INTRA:          -4.861
REMARK INTER:                  -4.770
REMARK INTRA:                  -0.091
REMARK UNBOUND:                -0.088
REMARK SMILES C=C(C)[C@@H]1CC=C(C)C(=O)C1
REMARK SMILES IDX 8 1 7 2 6 3 5 4 4 5 11 6 9 7 10 8 2 9 1 10 3 11
REMARK H PARENT
REMARK Flexibility Score: inf
ROOT
ATOM      1  C   UNL     1      87.536  38.093  28.408  1.00  0.00     0.048 C 
ATOM      2  C   UNL     1      87.157  37.444  27.106  1.00  0.00    -0.012 C 
ATOM      3  C   UNL     1      86.236  36.465  27.090  1.00  0.00    -0.019 C 
ATOM      4  C   UNL     1      85.805  35.795  25.812  1.00  0.00     0.036 C 
ATOM      5  C   UNL     1      86.968  35.723  24.806  1.00  0.00     0.025 C 
ATOM      6  C   UNL     1      87.549  37.128  24.559  1.00  0.00     0.089 C 
ATOM      7  C   UNL     1      87.888  37.796  25.863  1.00  0.00     0.158 C 
ATOM      8  O   UNL     1      88.779  38.688  25.883  1.00  0.00    -0.295 OA
ENDROOT
BRANCH   5   9
ATOM      9  C   UNL     1      86.538  35.063  23.502  1.00  0.00    -0.077 C 
ATOM     10  C   UNL     1      87.442  34.427  22.740  1.00  0.00     0.008 C 
ATOM     11  C   UNL     1      85.104  35.105  23.035  1.00  0.00     0.039 C 
ENDBRANCH   5   9
TORSDOF 1
ENDMDL
MODEL 5
REMARK VINA RESULT:    -4.489      2.135      4.258
REMARK INTER + INTRA:          -4.840
REMARK INTER:                  -4.742
REMARK INTRA:                  -0.098
REMARK UNBOUND:                -0.088
REMARK SMILES C=C(C)[C@@H]1CC=C(C)C(=O)C1
REMARK SMILES IDX 8 1 7 2 6 3 5 4 4 5 11 6 9 7 10 8 2 9 1 10 3 11
REMARK H PARENT
REMARK Flexibility Score: inf
ROOT
ATOM      1  C   UNL     1      87.964  37.537  24.915  1.00  0.00     0.048 C 
ATOM      2  C   UNL     1      87.292  37.362  26.249  1.00  0.00    -0.012 C 
ATOM      3  C   UNL     1      86.113  36.721  26.325  1.00  0.00    -0.019 C 
ATOM      4  C   UNL     1      85.406  36.501  27.636  1.00  0.00     0.036 C 
ATOM      5  C   UNL     1      85.673  37.663  28.610  1.00  0.00     0.025 C 
ATOM      6  C   UNL     1      87.188  37.871  28.792  1.00  0.00     0.089 C 
ATOM      7  C   UNL     1      87.868  38.002  27.457  1.00  0.00     0.158 C 
ATOM      8  O   UNL     1      88.956  38.635  27.381  1.00  0.00    -0.295 OA
ENDROOT
BRANCH   5   9
ATOM      9  C   UNL     1      84.978  37.441  29.947  1.00  0.00    -0.077 C 
ATOM     10  C   UNL     1      84.788  36.195  30.408  1.00  0.00     0.008 C 
ATOM     11  C   UNL     1      84.489  38.600  30.781  1.00  0.00     0.039 C 
ENDBRANCH   5   9
TORSDOF 1
ENDMDL
MODEL 6
REMARK VINA RESULT:    -4.439      1.790      4.888
REMARK INTER + INTRA:          -4.787
REMARK INTER:                  -4.689
REMARK INTRA:                  -0.099
REMARK UNBOUND:                -0.088
REMARK SMILES C=C(C)[C@@H]1CC=C(C)C(=O)C1
REMARK SMILES IDX 8 1 7 2 6 3 5 4 4 5 11 6 9 7 10 8 2 9 1 10 3 11
REMARK H PARENT
REMARK Flexibility Score: inf
ROOT
ATOM      1  C   UNL     1      89.544  39.043  26.633  1.00  0.00     0.048 C 
ATOM      2  C   UNL     1      88.277  38.297  26.949  1.00  0.00    -0.012 C 
ATOM      3  C   UNL     1      87.860  38.197  28.223  1.00  0.00    -0.019 C 
ATOM      4  C   UNL     1      86.589  37.479  28.593  1.00  0.00     0.036 C 
ATOM      5  C   UNL     1      86.321  36.300  27.639  1.00  0.00     0.025 C 
ATOM      6  C   UNL     1      86.311  36.787  26.178  1.00  0.00     0.089 C 
ATOM      7  C   UNL     1      87.558  37.570  25.873  1.00  0.00     0.158 C 
ATOM      8  O   UNL     1      87.969  37.634  24.683  1.00  0.00    -0.295 OA
ENDROOT
BRANCH   5   9
ATOM      9  C   UNL     1      85.028  35.579  27.993  1.00  0.00    -0.077 C 
ATOM     10  C   UNL     1      83.981  35.622  27.153  1.00  0.00     0.008 C 
ATOM     11  C   UNL     1      84.886  34.804  29.280  1.00  0.00     0.039 C 
ENDBRANCH   5   9
TORSDOF 1
ENDMDL
MODEL 7
REMARK VINA RESULT:    -4.434      1.296      4.408
REMARK INTER + INTRA:          -4.782
REMARK INTER:                  -4.683
REMARK INTRA:                  -0.099
REMARK UNBOUND:                -0.088
REMARK SMILES C=C(C)[C@@H]1CC=C(C)C(=O)C1
REMARK SMILES IDX 8 1 7 2 6 3 5 4 4 5 11 6 9 7 10 8 2 9 1 10 3 11
REMARK H PARENT
REMARK Flexibility Score: inf
ROOT
ATOM      1  C   UNL     1      89.231  39.425  26.589  1.00  0.00     0.048 C 
ATOM      2  C   UNL     1      88.263  38.298  26.360  1.00  0.00    -0.012 C 
ATOM      3  C   UNL     1      88.034  37.857  25.111  1.00  0.00    -0.019 C 
ATOM      4  C   UNL     1      87.089  36.719  24.827  1.00  0.00     0.036 C 
ATOM      5  C   UNL     1      85.927  36.699  25.837  1.00  0.00     0.025 C 
ATOM      6  C   UNL     1      86.471  36.660  27.277  1.00  0.00     0.089 C 
ATOM      7  C   UNL     1      87.472  37.760  27.494  1.00  0.00     0.158 C 
ATOM      8  O   UNL     1      87.660  38.199  28.661  1.00  0.00    -0.295 OA
ENDROOT
BRANCH   5   9
ATOM      9  C   UNL     1      84.976  35.540  25.570  1.00  0.00    -0.077 C 
ATOM     10  C   UNL     1      84.744  34.626  26.526  1.00  0.00     0.008 C 
ATOM     11  C   UNL     1      84.275  35.387  24.243  1.00  0.00     0.039 C 
ENDBRANCH   5   9
TORSDOF 1
ENDMDL
MODEL 8
REMARK VINA RESULT:    -4.280      2.044      2.797
REMARK INTER + INTRA:          -4.618
REMARK INTER:                  -4.522
REMARK INTRA:                  -0.096
REMARK UNBOUND:                -0.088
REMARK SMILES C=C(C)[C@@H]1CC=C(C)C(=O)C1
REMARK SMILES IDX 8 1 7 2 6 3 5 4 4 5 11 6 9 7 10 8 2 9 1 10 3 11
REMARK H PARENT
REMARK Flexibility Score: inf
ROOT
ATOM      1  C   UNL     1      86.054  34.408  23.117  1.00  0.00     0.048 C 
ATOM      2  C   UNL     1      86.447  35.525  24.044  1.00  0.00    -0.012 C 
ATOM      3  C   UNL     1      87.542  36.259  23.781  1.00  0.00    -0.019 C 
ATOM      4  C   UNL     1      87.969  37.401  24.664  1.00  0.00     0.036 C 
ATOM      5  C   UNL     1      87.605  37.129  26.135  1.00  0.00     0.025 C 
ATOM      6  C   UNL     1      86.102  36.822  26.266  1.00  0.00     0.089 C 
ATOM      7  C   UNL     1      85.699  35.734  25.309  1.00  0.00     0.158 C 
ATOM      8  O   UNL     1      84.693  35.022  25.575  1.00  0.00    -0.295 OA
ENDROOT
BRANCH   5   9
ATOM      9  C   UNL     1      88.016  38.287  27.035  1.00  0.00    -0.077 C 
ATOM     10  C   UNL     1      87.695  38.273  28.339  1.00  0.00     0.008 C 
ATOM     11  C   UNL     1      88.784  39.468  26.496  1.00  0.00     0.039 C 
ENDBRANCH   5   9
TORSDOF 1
ENDMDL
MODEL 9
REMARK VINA RESULT:    -4.245      2.180      4.497
REMARK INTER + INTRA:          -4.582
REMARK INTER:                  -4.493
REMARK INTRA:                  -0.089
REMARK UNBOUND:                -0.088
REMARK SMILES C=C(C)[C@@H]1CC=C(C)C(=O)C1
REMARK SMILES IDX 8 1 7 2 6 3 5 4 4 5 11 6 9 7 10 8 2 9 1 10 3 11
REMARK H PARENT
REMARK Flexibility Score: inf
ROOT
ATOM      1  C   UNL     1      88.002  37.498  24.928  1.00  0.00     0.048 C 
ATOM      2  C   UNL     1      87.186  37.416  26.189  1.00  0.00    -0.012 C 
ATOM      3  C   UNL     1      87.701  37.859  27.349  1.00  0.00    -0.019 C 
ATOM      4  C   UNL     1      86.921  37.818  28.636  1.00  0.00     0.036 C 
ATOM      5  C   UNL     1      85.973  36.605  28.670  1.00  0.00     0.025 C 
ATOM      6  C   UNL     1      85.056  36.608  27.433  1.00  0.00     0.089 C 
ATOM      7  C   UNL     1      85.868  36.734  26.174  1.00  0.00     0.158 C 
ATOM      8  O   UNL     1      85.400  36.285  25.093  1.00  0.00    -0.295 OA
ENDROOT
BRANCH   5   9
ATOM      9  C   UNL     1      85.165  36.565  29.960  1.00  0.00    -0.077 C 
ATOM     10  C   UNL     1      85.016  35.409  30.626  1.00  0.00     0.008 C 
ATOM     11  C   UNL     1      84.515  37.807  30.521  1.00  0.00     0.039 C 
ENDBRANCH   5   9
TORSDOF 1
ENDMDL
