MODEL 1
REMARK VINA RESULT:    -1.158      0.000      0.000
REMARK INTER + INTRA:          -1.809
REMARK INTER:                  -1.395
REMARK INTRA:                  -0.414
REMARK UNBOUND:                -0.414
REMARK SMILES O=c1c(O)c(-c2ccc(O)cc2O)oc2cc(O)cc(O)c12
REMARK SMILES IDX 5 1 3 2 2 3 1 4 22 5 20 6 19 7 17 8 16 9 15 10 14 11 6 12
REMARK SMILES IDX 8 13 7 14 9 15 11 16 12 17 10 18 13 20 4 22 21 24 18 26
REMARK H PARENT 10 19 13 21 4 23 21 25 18 27
REMARK Flexibility Score: inf
ROOT
ATOM      1  C   UNL     1      10.217  69.536  -0.842  1.00  0.00     0.184 A 
ATOM      2  C   UNL     1       8.966  68.943  -1.083  1.00  0.00     0.208 A 
ATOM      3  C   UNL     1       8.451  68.039  -0.142  1.00  0.00     0.238 A 
ATOM      4  O   UNL     1       7.334  67.493  -0.352  1.00  0.00    -0.285 OA
ATOM      5  C   UNL     1       9.187  67.760   1.029  1.00  0.00     0.111 A 
ATOM      6  C   UNL     1       8.738  66.864   2.030  1.00  0.00     0.134 A 
ATOM      7  C   UNL     1       9.524  66.646   3.170  1.00  0.00     0.093 A 
ATOM      8  C   UNL     1      10.745  67.305   3.332  1.00  0.00     0.123 A 
ATOM      9  C   UNL     1      11.194  68.192   2.347  1.00  0.00     0.094 A 
ATOM     10  C   UNL     1      10.426  68.421   1.202  1.00  0.00     0.146 A 
ATOM     11  O   UNL     1      10.878  69.264   0.280  1.00  0.00    -0.451 OA
ENDROOT
BRANCH   1  12
ATOM     12  C   UNL     1      10.822  70.488  -1.798  1.00  0.00     0.063 A 
ATOM     13  C   UNL     1      11.888  70.876  -3.948  1.00  0.00     0.047 A 
ATOM     14  C   UNL     1      11.316  70.003  -3.020  1.00  0.00     0.020 A 
ATOM     15  C   UNL     1      11.963  72.246  -3.673  1.00  0.00     0.119 A 
ATOM     16  C   UNL     1      11.453  72.741  -2.468  1.00  0.00     0.093 A 
ATOM     17  C   UNL     1      10.871  71.872  -1.533  1.00  0.00     0.130 A 
BRANCH  15  18
ATOM     18  O   UNL     1      12.536  73.125  -4.590  1.00  0.00    -0.508 OA
ATOM     19  H   UNL     1      11.985  73.834  -5.059  1.00  0.00     0.293 HD
ENDBRANCH  15  18
BRANCH  17  20
ATOM     20  O   UNL     1      10.322  72.385  -0.358  1.00  0.00    -0.507 OA
ATOM     21  H   UNL     1       9.320  72.442  -0.220  1.00  0.00     0.293 HD
ENDBRANCH  17  20
ENDBRANCH   1  12
BRANCH   2  22
ATOM     22  O   UNL     1       8.241  69.276  -2.231  1.00  0.00    -0.502 OA
ATOM     23  H   UNL     1       8.273  70.200  -2.643  1.00  0.00     0.293 HD
ENDBRANCH   2  22
BRANCH   6  24
ATOM     24  O   UNL     1       7.523  66.191   1.899  1.00  0.00    -0.507 OA
ATOM     25  H   UNL     1       7.141  65.630   2.651  1.00  0.00     0.293 HD
ENDBRANCH   6  24
BRANCH   8  26
ATOM     26  O   UNL     1      11.506  67.072   4.475  1.00  0.00    -0.508 OA
ATOM     27  H   UNL     1      12.487  66.822   4.418  1.00  0.00     0.293 HD
ENDBRANCH   8  26
TORSDOF 6
ENDMDL
MODEL 2
REMARK VINA RESULT:     0.057      1.855      3.007
REMARK INTER + INTRA:          -0.345
REMARK INTER:                  -0.779
REMARK INTRA:                   0.434
REMARK UNBOUND:                -0.414
REMARK SMILES O=c1c(O)c(-c2ccc(O)cc2O)oc2cc(O)cc(O)c12
REMARK SMILES IDX 5 1 3 2 2 3 1 4 22 5 20 6 19 7 17 8 16 9 15 10 14 11 6 12
REMARK SMILES IDX 8 13 7 14 9 15 11 16 12 17 10 18 13 20 4 22 21 24 18 26
REMARK H PARENT 10 19 13 21 4 23 21 25 18 27
REMARK Flexibility Score: inf
ROOT
ATOM      1  C   UNL     1      10.435  70.825  -0.316  1.00  0.00     0.184 A 
ATOM      2  C   UNL     1      10.179  71.776   0.687  1.00  0.00     0.208 A 
ATOM      3  C   UNL     1       9.655  71.343   1.914  1.00  0.00     0.238 A 
ATOM      4  O   UNL     1       9.412  72.188   2.818  1.00  0.00    -0.285 OA
ATOM      5  C   UNL     1       9.415  69.969   2.122  1.00  0.00     0.111 A 
ATOM      6  C   UNL     1       8.893  69.448   3.331  1.00  0.00     0.134 A 
ATOM      7  C   UNL     1       8.690  68.068   3.464  1.00  0.00     0.093 A 
ATOM      8  C   UNL     1       9.001  67.197   2.416  1.00  0.00     0.123 A 
ATOM      9  C   UNL     1       9.518  67.704   1.219  1.00  0.00     0.094 A 
ATOM     10  C   UNL     1       9.725  69.079   1.067  1.00  0.00     0.146 A 
ATOM     11  O   UNL     1      10.212  69.535  -0.082  1.00  0.00    -0.451 OA
ENDROOT
BRANCH   1  12
ATOM     12  C   UNL     1      10.975  71.214  -1.636  1.00  0.00     0.063 A 
ATOM     13  C   UNL     1      12.151  72.850  -2.997  1.00  0.00     0.047 A 
ATOM     14  C   UNL     1      11.623  72.453  -1.766  1.00  0.00     0.020 A 
ATOM     15  C   UNL     1      12.048  72.008  -4.111  1.00  0.00     0.119 A 
ATOM     16  C   UNL     1      11.424  70.763  -3.985  1.00  0.00     0.093 A 
ATOM     17  C   UNL     1      10.898  70.354  -2.751  1.00  0.00     0.130 A 
BRANCH  15  18
ATOM     18  O   UNL     1      12.567  72.396  -5.344  1.00  0.00    -0.508 OA
ATOM     19  H   UNL     1      11.987  72.839  -6.047  1.00  0.00     0.293 HD
ENDBRANCH  15  18
BRANCH  17  20
ATOM     20  O   UNL     1      10.322  69.090  -2.626  1.00  0.00    -0.507 OA
ATOM     21  H   UNL     1       9.371  68.907  -2.922  1.00  0.00     0.293 HD
ENDBRANCH  17  20
ENDBRANCH   1  12
BRANCH   2  22
ATOM     22  O   UNL     1      10.470  73.125   0.465  1.00  0.00    -0.502 OA
ATOM     23  H   UNL     1      10.863  73.458  -0.407  1.00  0.00     0.293 HD
ENDBRANCH   2  22
BRANCH   6  24
ATOM     24  O   UNL     1       8.572  70.291   4.396  1.00  0.00    -0.507 OA
ATOM     25  H   UNL     1       8.624  71.300   4.312  1.00  0.00     0.293 HD
ENDBRANCH   6  24
BRANCH   8  26
ATOM     26  O   UNL     1       8.792  65.829   2.574  1.00  0.00    -0.508 OA
ATOM     27  H   UNL     1       8.018  65.471   3.122  1.00  0.00     0.293 HD
ENDBRANCH   8  26
TORSDOF 6
ENDMDL
MODEL 3
REMARK VINA RESULT:     0.134      2.400      2.784
REMARK INTER + INTRA:          -0.253
REMARK INTER:                  -0.550
REMARK INTRA:                   0.297
REMARK UNBOUND:                -0.414
REMARK SMILES O=c1c(O)c(-c2ccc(O)cc2O)oc2cc(O)cc(O)c12
REMARK SMILES IDX 5 1 3 2 2 3 1 4 22 5 20 6 19 7 17 8 16 9 15 10 14 11 6 12
REMARK SMILES IDX 8 13 7 14 9 15 11 16 12 17 10 18 13 20 4 22 21 24 18 26
REMARK H PARENT 10 19 13 21 4 23 21 25 18 27
REMARK Flexibility Score: inf
ROOT
ATOM      1  C   UNL     1      10.500  70.450  -0.438  1.00  0.00     0.184 A 
ATOM      2  C   UNL     1      10.448  69.079  -0.131  1.00  0.00     0.208 A 
ATOM      3  C   UNL     1       9.933  68.681   1.112  1.00  0.00     0.238 A 
ATOM      4  O   UNL     1       9.891  67.455   1.402  1.00  0.00    -0.285 OA
ATOM      5  C   UNL     1       9.462  69.658   2.014  1.00  0.00     0.111 A 
ATOM      6  C   UNL     1       8.924  69.341   3.285  1.00  0.00     0.134 A 
ATOM      7  C   UNL     1       8.468  70.369   4.122  1.00  0.00     0.093 A 
ATOM      8  C   UNL     1       8.537  71.704   3.716  1.00  0.00     0.123 A 
ATOM      9  C   UNL     1       9.067  72.023   2.461  1.00  0.00     0.094 A 
ATOM     10  C   UNL     1       9.529  71.013   1.612  1.00  0.00     0.146 A 
ATOM     11  O   UNL     1      10.032  71.343   0.429  1.00  0.00    -0.451 OA
ENDROOT
BRANCH   1  12
ATOM     12  C   UNL     1      11.041  70.937  -1.725  1.00  0.00     0.063 A 
ATOM     13  C   UNL     1      11.496  70.523  -4.076  1.00  0.00     0.047 A 
ATOM     14  C   UNL     1      10.998  70.091  -2.844  1.00  0.00     0.020 A 
ATOM     15  C   UNL     1      12.031  71.809  -4.208  1.00  0.00     0.119 A 
ATOM     16  C   UNL     1      12.058  72.666  -3.103  1.00  0.00     0.093 A 
ATOM     17  C   UNL     1      11.554  72.244  -1.864  1.00  0.00     0.130 A 
BRANCH  15  18
ATOM     18  O   UNL     1      12.534  72.248  -5.431  1.00  0.00    -0.508 OA
ATOM     19  H   UNL     1      11.924  72.596  -6.161  1.00  0.00     0.293 HD
ENDBRANCH  15  18
BRANCH  17  20
ATOM     20  O   UNL     1      11.540  73.125  -0.783  1.00  0.00    -0.507 OA
ATOM     21  H   UNL     1      11.272  72.823   0.146  1.00  0.00     0.293 HD
ENDBRANCH  17  20
ENDBRANCH   1  12
BRANCH   2  22
ATOM     22  O   UNL     1      10.881  68.134  -1.066  1.00  0.00    -0.502 OA
ATOM     23  H   UNL     1      10.940  67.147  -0.849  1.00  0.00     0.293 HD
ENDBRANCH   2  22
BRANCH   6  24
ATOM     24  O   UNL     1       8.841  68.018   3.721  1.00  0.00    -0.507 OA
ATOM     25  H   UNL     1       8.571  67.785   4.669  1.00  0.00     0.293 HD
ENDBRANCH   6  24
BRANCH   8  26
ATOM     26  O   UNL     1       8.076  72.706   4.566  1.00  0.00    -0.508 OA
ATOM     27  H   UNL     1       7.353  72.527   5.254  1.00  0.00     0.293 HD
ENDBRANCH   8  26
TORSDOF 6
ENDMDL
MODEL 4
REMARK VINA RESULT:     0.279      1.577      2.828
REMARK INTER + INTRA:          -0.077
REMARK INTER:                  -0.678
REMARK INTRA:                   0.600
REMARK UNBOUND:                -0.414
REMARK SMILES O=c1c(O)c(-c2ccc(O)cc2O)oc2cc(O)cc(O)c12
REMARK SMILES IDX 5 1 3 2 2 3 1 4 22 5 20 6 19 7 17 8 16 9 15 10 14 11 6 12
REMARK SMILES IDX 8 13 7 14 9 15 11 16 12 17 10 18 13 20 4 22 21 24 18 26
REMARK H PARENT 10 19 13 21 4 23 21 25 18 27
REMARK Flexibility Score: inf
ROOT
ATOM      1  C   UNL     1      10.359  69.994  -0.203  1.00  0.00     0.184 A 
ATOM      2  C   UNL     1      10.178  70.561   1.071  1.00  0.00     0.208 A 
ATOM      3  C   UNL     1       9.690  69.754   2.109  1.00  0.00     0.238 A 
ATOM      4  O   UNL     1       9.514  70.254   3.253  1.00  0.00    -0.285 OA
ATOM      5  C   UNL     1       9.410  68.394   1.860  1.00  0.00     0.111 A 
ATOM      6  C   UNL     1       8.918  67.511   2.853  1.00  0.00     0.134 A 
ATOM      7  C   UNL     1       8.673  66.169   2.529  1.00  0.00     0.093 A 
ATOM      8  C   UNL     1       8.909  65.692   1.238  1.00  0.00     0.123 A 
ATOM      9  C   UNL     1       9.395  66.559   0.253  1.00  0.00     0.094 A 
ATOM     10  C   UNL     1       9.645  67.901   0.555  1.00  0.00     0.146 A 
ATOM     11  O   UNL     1      10.101  68.704  -0.399  1.00  0.00    -0.451 OA
ENDROOT
BRANCH   1  12
ATOM     12  C   UNL     1      10.859  70.790  -1.344  1.00  0.00     0.063 A 
ATOM     13  C   UNL     1      11.717  72.905  -2.181  1.00  0.00     0.047 A 
ATOM     14  C   UNL     1      11.234  72.126  -1.127  1.00  0.00     0.020 A 
ATOM     15  C   UNL     1      11.842  72.355  -3.463  1.00  0.00     0.119 A 
ATOM     16  C   UNL     1      11.492  71.019  -3.682  1.00  0.00     0.093 A 
ATOM     17  C   UNL     1      11.013  70.228  -2.628  1.00  0.00     0.130 A 
BRANCH  15  18
ATOM     18  O   UNL     1      12.317  73.125  -4.522  1.00  0.00    -0.508 OA
ATOM     19  H   UNL     1      12.855  73.969  -4.365  1.00  0.00     0.293 HD
ENDBRANCH  15  18
BRANCH  17  20
ATOM     20  O   UNL     1      10.714  68.884  -2.849  1.00  0.00    -0.507 OA
ATOM     21  H   UNL     1      11.062  68.388  -3.661  1.00  0.00     0.293 HD
ENDBRANCH  17  20
ENDBRANCH   1  12
BRANCH   2  22
ATOM     22  O   UNL     1      10.508  71.900   1.295  1.00  0.00    -0.502 OA
ATOM     23  H   UNL     1      11.265  72.176   1.909  1.00  0.00     0.293 HD
ENDBRANCH   2  22
BRANCH   6  24
ATOM     24  O   UNL     1       8.672  67.956   4.152  1.00  0.00    -0.507 OA
ATOM     25  H   UNL     1       9.168  68.746   4.548  1.00  0.00     0.293 HD
ENDBRANCH   6  24
BRANCH   8  26
ATOM     26  O   UNL     1       8.658  64.354   0.943  1.00  0.00    -0.508 OA
ATOM     27  H   UNL     1       8.602  64.023  -0.014  1.00  0.00     0.293 HD
ENDBRANCH   8  26
TORSDOF 6
ENDMDL
MODEL 5
REMARK VINA RESULT:     0.652      2.322      6.498
REMARK INTER + INTRA:           0.371
REMARK INTER:                  -0.219
REMARK INTRA:                   0.590
REMARK UNBOUND:                -0.414
REMARK SMILES O=c1c(O)c(-c2ccc(O)cc2O)oc2cc(O)cc(O)c12
REMARK SMILES IDX 5 1 3 2 2 3 1 4 22 5 20 6 19 7 17 8 16 9 15 10 14 11 6 12
REMARK SMILES IDX 8 13 7 14 9 15 11 16 12 17 10 18 13 20 4 22 21 24 18 26
REMARK H PARENT 10 19 13 21 4 23 21 25 18 27
REMARK Flexibility Score: inf
ROOT
ATOM      1  C   UNL     1       9.591  68.283   0.844  1.00  0.00     0.184 A 
ATOM      2  C   UNL     1       9.497  68.902   2.103  1.00  0.00     0.208 A 
ATOM      3  C   UNL     1       9.758  70.277   2.205  1.00  0.00     0.238 A 
ATOM      4  O   UNL     1       9.686  70.841   3.330  1.00  0.00    -0.285 OA
ATOM      5  C   UNL     1      10.090  71.009   1.045  1.00  0.00     0.111 A 
ATOM      6  C   UNL     1      10.364  72.398   1.060  1.00  0.00     0.134 A 
ATOM      7  C   UNL     1      10.678  73.057  -0.137  1.00  0.00     0.093 A 
ATOM      8  C   UNL     1      10.722  72.359  -1.346  1.00  0.00     0.123 A 
ATOM      9  C   UNL     1      10.451  70.986  -1.367  1.00  0.00     0.094 A 
ATOM     10  C   UNL     1      10.138  70.310  -0.184  1.00  0.00     0.146 A 
ATOM     11  O   UNL     1       9.891  69.006  -0.231  1.00  0.00    -0.451 OA
ENDROOT
BRANCH   1  12
ATOM     12  C   UNL     1       9.340  66.837   0.669  1.00  0.00     0.063 A 
ATOM     13  C   UNL     1       8.600  64.728   1.625  1.00  0.00     0.047 A 
ATOM     14  C   UNL     1       8.854  66.095   1.758  1.00  0.00     0.020 A 
ATOM     15  C   UNL     1       8.818  64.087   0.400  1.00  0.00     0.119 A 
ATOM     16  C   UNL     1       9.281  64.823  -0.696  1.00  0.00     0.093 A 
ATOM     17  C   UNL     1       9.532  66.198  -0.573  1.00  0.00     0.130 A 
BRANCH  15  18
ATOM     18  O   UNL     1       8.572  62.723   0.258  1.00  0.00    -0.508 OA
ATOM     19  H   UNL     1       7.663  62.375  -0.023  1.00  0.00     0.293 HD
ENDBRANCH  15  18
BRANCH  17  20
ATOM     20  O   UNL     1       9.946  66.930  -1.686  1.00  0.00    -0.507 OA
ATOM     21  H   UNL     1      10.137  67.923  -1.628  1.00  0.00     0.293 HD
ENDBRANCH  17  20
ENDBRANCH   1  12
BRANCH   2  22
ATOM     22  O   UNL     1       9.121  68.157   3.225  1.00  0.00    -0.502 OA
ATOM     23  H   UNL     1       9.070  67.146   3.210  1.00  0.00     0.293 HD
ENDBRANCH   2  22
BRANCH   6  24
ATOM     24  O   UNL     1      10.328  73.125   2.251  1.00  0.00    -0.507 OA
ATOM     25  H   UNL     1      11.119  73.678   2.562  1.00  0.00     0.293 HD
ENDBRANCH   6  24
BRANCH   8  26
ATOM     26  O   UNL     1      11.035  73.037  -2.521  1.00  0.00    -0.508 OA
ATOM     27  H   UNL     1      11.955  73.436  -2.675  1.00  0.00     0.293 HD
ENDBRANCH   8  26
TORSDOF 6
ENDMDL
MODEL 6
REMARK VINA RESULT:     0.682      2.503      6.020
REMARK INTER + INTRA:           0.408
REMARK INTER:                  -0.202
REMARK INTRA:                   0.609
REMARK UNBOUND:                -0.414
REMARK SMILES O=c1c(O)c(-c2ccc(O)cc2O)oc2cc(O)cc(O)c12
REMARK SMILES IDX 5 1 3 2 2 3 1 4 22 5 20 6 19 7 17 8 16 9 15 10 14 11 6 12
REMARK SMILES IDX 8 13 7 14 9 15 11 16 12 17 10 18 13 20 4 22 21 24 18 26
REMARK H PARENT 10 19 13 21 4 23 21 25 18 27
REMARK Flexibility Score: inf
ROOT
ATOM      1  C   UNL     1       9.472  68.235  -0.239  1.00  0.00     0.184 A 
ATOM      2  C   UNL     1       9.814  68.832  -1.465  1.00  0.00     0.208 A 
ATOM      3  C   UNL     1       9.942  70.228  -1.526  1.00  0.00     0.238 A 
ATOM      4  O   UNL     1      10.239  70.777  -2.622  1.00  0.00    -0.285 OA
ATOM      5  C   UNL     1       9.743  70.997  -0.360  1.00  0.00     0.111 A 
ATOM      6  C   UNL     1       9.856  72.408  -0.335  1.00  0.00     0.134 A 
ATOM      7  C   UNL     1       9.652  73.100   0.867  1.00  0.00     0.093 A 
ATOM      8  C   UNL     1       9.341  72.413   2.043  1.00  0.00     0.123 A 
ATOM      9  C   UNL     1       9.228  71.019   2.025  1.00  0.00     0.094 A 
ATOM     10  C   UNL     1       9.426  70.310   0.836  1.00  0.00     0.146 A 
ATOM     11  O   UNL     1       9.308  68.987   0.845  1.00  0.00    -0.451 OA
ENDROOT
BRANCH   1  12
ATOM     12  C   UNL     1       9.311  66.771  -0.108  1.00  0.00     0.063 A 
ATOM     13  C   UNL     1       9.400  64.572  -1.140  1.00  0.00     0.047 A 
ATOM     14  C   UNL     1       9.538  65.959  -1.231  1.00  0.00     0.020 A 
ATOM     15  C   UNL     1       9.046  63.978   0.077  1.00  0.00     0.119 A 
ATOM     16  C   UNL     1       8.839  64.778   1.206  1.00  0.00     0.093 A 
ATOM     17  C   UNL     1       8.982  66.171   1.125  1.00  0.00     0.130 A 
BRANCH  15  18
ATOM     18  O   UNL     1       8.901  62.596   0.178  1.00  0.00    -0.508 OA
ATOM     19  H   UNL     1       8.411  62.062  -0.530  1.00  0.00     0.293 HD
ENDBRANCH  15  18
BRANCH  17  20
ATOM     20  O   UNL     1       8.822  66.952   2.269  1.00  0.00    -0.507 OA
ATOM     21  H   UNL     1       9.466  66.891   3.049  1.00  0.00     0.293 HD
ENDBRANCH  17  20
ENDBRANCH   1  12
BRANCH   2  22
ATOM     22  O   UNL     1      10.049  68.039  -2.591  1.00  0.00    -0.502 OA
ATOM     23  H   UNL     1       9.871  68.369  -3.532  1.00  0.00     0.293 HD
ENDBRANCH   2  22
BRANCH   6  24
ATOM     24  O   UNL     1      10.166  73.125  -1.491  1.00  0.00    -0.507 OA
ATOM     25  H   UNL     1       9.445  73.468  -2.115  1.00  0.00     0.293 HD
ENDBRANCH   6  24
BRANCH   8  26
ATOM     26  O   UNL     1       9.144  73.125   3.224  1.00  0.00    -0.508 OA
ATOM     27  H   UNL     1       8.218  73.396   3.532  1.00  0.00     0.293 HD
ENDBRANCH   8  26
TORSDOF 6
ENDMDL
MODEL 7
REMARK VINA RESULT:     1.423      3.043      6.178
REMARK INTER + INTRA:           1.300
REMARK INTER:                   1.068
REMARK INTRA:                   0.232
REMARK UNBOUND:                -0.414
REMARK SMILES O=c1c(O)c(-c2ccc(O)cc2O)oc2cc(O)cc(O)c12
REMARK SMILES IDX 5 1 3 2 2 3 1 4 22 5 20 6 19 7 17 8 16 9 15 10 14 11 6 12
REMARK SMILES IDX 8 13 7 14 9 15 11 16 12 17 10 18 13 20 4 22 21 24 18 26
REMARK H PARENT 10 19 13 21 4 23 21 25 18 27
REMARK Flexibility Score: inf
ROOT
ATOM      1  C   UNL     1       9.378  70.694   0.759  1.00  0.00     0.184 A 
ATOM      2  C   UNL     1       8.970  69.395   0.411  1.00  0.00     0.208 A 
ATOM      3  C   UNL     1       9.305  68.895  -0.857  1.00  0.00     0.238 A 
ATOM      4  O   UNL     1       8.937  67.734  -1.183  1.00  0.00    -0.285 OA
ATOM      5  C   UNL     1      10.057  69.695  -1.743  1.00  0.00     0.111 A 
ATOM      6  C   UNL     1      10.440  69.265  -3.037  1.00  0.00     0.134 A 
ATOM      7  C   UNL     1      11.195  70.116  -3.856  1.00  0.00     0.093 A 
ATOM      8  C   UNL     1      11.576  71.384  -3.410  1.00  0.00     0.123 A 
ATOM      9  C   UNL     1      11.201  71.814  -2.133  1.00  0.00     0.094 A 
ATOM     10  C   UNL     1      10.446  70.981  -1.301  1.00  0.00     0.146 A 
ATOM     11  O   UNL     1      10.099  71.416  -0.095  1.00  0.00    -0.451 OA
ENDROOT
BRANCH   1  12
ATOM     12  C   UNL     1       9.048  71.286   2.072  1.00  0.00     0.063 A 
ATOM     13  C   UNL     1       8.082  73.122   3.338  1.00  0.00     0.047 A 
ATOM     14  C   UNL     1       8.413  72.538   2.114  1.00  0.00     0.020 A 
ATOM     15  C   UNL     1       8.370  72.458   4.537  1.00  0.00     0.119 A 
ATOM     16  C   UNL     1       8.982  71.201   4.504  1.00  0.00     0.093 A 
ATOM     17  C   UNL     1       9.312  70.604   3.278  1.00  0.00     0.130 A 
BRANCH  15  18
ATOM     18  O   UNL     1       8.048  73.035   5.764  1.00  0.00    -0.508 OA
ATOM     19  H   UNL     1       7.770  74.006   5.836  1.00  0.00     0.293 HD
ENDBRANCH  15  18
BRANCH  17  20
ATOM     20  O   UNL     1       9.876  69.329   3.258  1.00  0.00    -0.507 OA
ATOM     21  H   UNL     1      10.867  69.183   3.409  1.00  0.00     0.293 HD
ENDBRANCH  17  20
ENDBRANCH   1  12
BRANCH   2  22
ATOM     22  O   UNL     1       8.266  68.611   1.329  1.00  0.00    -0.502 OA
ATOM     23  H   UNL     1       7.345  68.240   1.130  1.00  0.00     0.293 HD
ENDBRANCH   2  22
BRANCH   6  24
ATOM     24  O   UNL     1      10.076  68.005  -3.513  1.00  0.00    -0.507 OA
ATOM     25  H   UNL     1      10.347  67.685  -4.435  1.00  0.00     0.293 HD
ENDBRANCH   6  24
BRANCH   8  26
ATOM     26  O   UNL     1      12.327  72.209  -4.243  1.00  0.00    -0.508 OA
ATOM     27  H   UNL     1      13.147  72.699  -3.905  1.00  0.00     0.293 HD
ENDBRANCH   8  26
TORSDOF 6
ENDMDL
MODEL 8
REMARK VINA RESULT:     1.699      3.074      5.128
REMARK INTER + INTRA:           1.633
REMARK INTER:                   1.069
REMARK INTRA:                   0.563
REMARK UNBOUND:                -0.414
REMARK SMILES O=c1c(O)c(-c2ccc(O)cc2O)oc2cc(O)cc(O)c12
REMARK SMILES IDX 5 1 3 2 2 3 1 4 22 5 20 6 19 7 17 8 16 9 15 10 14 11 6 12
REMARK SMILES IDX 8 13 7 14 9 15 11 16 12 17 10 18 13 20 4 22 21 24 18 26
REMARK H PARENT 10 19 13 21 4 23 21 25 18 27
REMARK Flexibility Score: inf
ROOT
ATOM      1  C   UNL     1       9.150  69.638   0.585  1.00  0.00     0.184 A 
ATOM      2  C   UNL     1       9.368  70.108  -0.722  1.00  0.00     0.208 A 
ATOM      3  C   UNL     1       9.578  69.178  -1.751  1.00  0.00     0.238 A 
ATOM      4  O   UNL     1       9.784  69.588  -2.926  1.00  0.00    -0.285 OA
ATOM      5  C   UNL     1       9.548  67.798  -1.458  1.00  0.00     0.111 A 
ATOM      6  C   UNL     1       9.747  66.795  -2.438  1.00  0.00     0.134 A 
ATOM      7  C   UNL     1       9.693  65.443  -2.069  1.00  0.00     0.093 A 
ATOM      8  C   UNL     1       9.444  65.074  -0.745  1.00  0.00     0.123 A 
ATOM      9  C   UNL     1       9.246  66.060   0.227  1.00  0.00     0.094 A 
ATOM     10  C   UNL     1       9.298  67.414  -0.120  1.00  0.00     0.146 A 
ATOM     11  O   UNL     1       9.112  68.330   0.823  1.00  0.00    -0.451 OA
ENDROOT
BRANCH   1  12
ATOM     12  C   UNL     1       8.933  70.564   1.717  1.00  0.00     0.063 A 
ATOM     13  C   UNL     1       7.721  71.105   3.753  1.00  0.00     0.047 A 
ATOM     14  C   UNL     1       7.947  70.255   2.668  1.00  0.00     0.020 A 
ATOM     15  C   UNL     1       8.485  72.268   3.908  1.00  0.00     0.119 A 
ATOM     16  C   UNL     1       9.484  72.571   2.977  1.00  0.00     0.093 A 
ATOM     17  C   UNL     1       9.723  71.720   1.889  1.00  0.00     0.130 A 
BRANCH  15  18
ATOM     18  O   UNL     1       8.264  73.125   4.984  1.00  0.00    -0.508 OA
ATOM     19  H   UNL     1       9.024  73.439   5.576  1.00  0.00     0.293 HD
ENDBRANCH  15  18
BRANCH  17  20
ATOM     20  O   UNL     1      10.754  72.008   0.996  1.00  0.00    -0.507 OA
ATOM     21  H   UNL     1      10.930  72.952   0.672  1.00  0.00     0.293 HD
ENDBRANCH  17  20
ENDBRANCH   1  12
BRANCH   2  22
ATOM     22  O   UNL     1       9.346  71.480  -0.987  1.00  0.00    -0.502 OA
ATOM     23  H   UNL     1       9.004  72.156  -0.315  1.00  0.00     0.293 HD
ENDBRANCH   2  22
BRANCH   6  24
ATOM     24  O   UNL     1       9.998  67.130  -3.769  1.00  0.00    -0.507 OA
ATOM     25  H   UNL     1       9.268  67.103  -4.472  1.00  0.00     0.293 HD
ENDBRANCH   6  24
BRANCH   8  26
ATOM     26  O   UNL     1       9.394  63.724  -0.406  1.00  0.00    -0.508 OA
ATOM     27  H   UNL     1      10.235  63.199  -0.195  1.00  0.00     0.293 HD
ENDBRANCH   8  26
TORSDOF 6
ENDMDL
