MODEL 1
REMARK VINA RESULT:    -5.474      0.000      0.000
REMARK INTER + INTRA:          -6.487
REMARK INTER:                  -6.274
REMARK INTRA:                  -0.213
REMARK UNBOUND:                -0.213
REMARK SMILES C=C(C)[C@@H]1CC[C@]2(C(=O)[O-])CC[C@@]3(C)[C@@H](CC[C@@H]4[C@@]5(C)CC[C@@H](O)C(C)(C)[C@@H]5CC[C@@]43C)[C@H]12
REMARK SMILES IDX 7 1 6 2 33 3 11 4 5 5 15 6 4 7 12 8 16 9 13 10 17 11 31 12
REMARK SMILES IDX 14 13 18 14 30 15 32 16 19 17 29 18 21 19 20 20 28 21 22 22
REMARK SMILES IDX 25 23 23 24 26 25 27 26 8 27 9 28 10 29 2 30 3 31 1 32 24 33
REMARK H PARENT 24 34
REMARK Flexibility Score: inf
ROOT
ATOM      1  C   UNL     1     -13.267 -26.974 -42.239  1.00  0.00     0.014 C 
ATOM      2  C   UNL     1     -12.199 -25.978 -41.759  1.00  0.00     0.014 C 
ATOM      3  C   UNL     1     -14.352 -26.047 -42.882  1.00  0.00     0.012 C 
ATOM      4  C   UNL     1     -12.640 -28.045 -43.167  1.00  0.00     0.014 C 
ATOM      5  C   UNL     1     -12.970 -24.799 -41.197  1.00  0.00     0.009 C 
ATOM      6  C   UNL     1     -14.147 -25.771 -44.422  1.00  0.00     0.000 C 
ATOM      7  C   UNL     1     -14.316 -24.780 -41.950  1.00  0.00     0.018 C 
ATOM      8  C   UNL     1     -12.421 -27.573 -44.606  1.00  0.00     0.008 C 
ATOM      9  C   UNL     1     -15.352 -24.994 -45.034  1.00  0.00     0.005 C 
ATOM     10  C   UNL     1     -13.729 -27.036 -45.269  1.00  0.00    -0.024 C 
ATOM     11  C   UNL     1     -15.854 -25.498 -46.380  1.00  0.00     0.005 C 
ATOM     12  C   UNL     1     -13.484 -26.613 -46.814  1.00  0.00    -0.024 C 
ATOM     13  C   UNL     1     -14.800 -28.183 -45.172  1.00  0.00     0.012 C 
ATOM     14  C   UNL     1     -14.704 -25.750 -47.394  1.00  0.00     0.002 C 
ATOM     15  C   UNL     1     -13.226 -27.879 -47.691  1.00  0.00     0.008 C 
ATOM     16  C   UNL     1     -12.176 -25.750 -46.938  1.00  0.00     0.012 C 
ATOM     17  C   UNL     1     -15.242 -26.115 -48.855  1.00  0.00    -0.026 C 
ATOM     18  C   UNL     1     -13.130 -27.633 -49.207  1.00  0.00     0.005 C 
ATOM     19  C   UNL     1     -15.996 -24.846 -49.435  1.00  0.00     0.010 C 
ATOM     20  C   UNL     1     -16.266 -27.291 -48.820  1.00  0.00     0.012 C 
ATOM     21  C   UNL     1     -14.013 -26.479 -49.769  1.00  0.00     0.003 C 
ATOM     22  C   UNL     1     -15.622 -24.448 -50.866  1.00  0.00     0.033 C 
ATOM     23  C   UNL     1     -14.288 -26.588 -51.340  1.00  0.00    -0.006 C 
ATOM     24  C   UNL     1     -15.498 -25.682 -51.761  1.00  0.00     0.120 C 
ATOM     25  C   UNL     1     -13.000 -26.134 -52.084  1.00  0.00     0.014 C 
ATOM     26  C   UNL     1     -14.592 -28.033 -51.822  1.00  0.00     0.014 C 
ENDROOT
BRANCH   1  27
ATOM     27  C   UNL     1     -13.865 -27.717 -41.043  1.00  0.00     0.048 C 
ATOM     28  O   UNL     1     -15.066 -28.098 -41.071  1.00  0.00    -0.550 OA
ATOM     29  O   UNL     1     -13.084 -28.055 -39.942  1.00  0.00    -0.550 OA
ENDBRANCH   1  27
BRANCH   7  30
ATOM     30  C   UNL     1     -14.637 -23.415 -42.563  1.00  0.00    -0.077 C 
ATOM     31  C   UNL     1     -15.958 -22.753 -42.258  1.00  0.00     0.039 C 
ATOM     32  C   UNL     1     -13.755 -22.750 -43.333  1.00  0.00     0.008 C 
ENDBRANCH   7  30
BRANCH  24  33
ATOM     33  O   UNL     1     -15.450 -25.325 -53.125  1.00  0.00    -0.393 OA
ATOM     34  H   UNL     1     -16.324 -25.548 -53.540  1.00  0.00     0.210 HD
ENDBRANCH  24  33
TORSDOF 3
ENDMDL
MODEL 2
REMARK VINA RESULT:    -5.281      4.107      7.065
REMARK INTER + INTRA:          -6.266
REMARK INTER:                  -5.874
REMARK INTRA:                  -0.392
REMARK UNBOUND:                -0.213
REMARK SMILES C=C(C)[C@@H]1CC[C@]2(C(=O)[O-])CC[C@@]3(C)[C@@H](CC[C@@H]4[C@@]5(C)CC[C@@H](O)C(C)(C)[C@@H]5CC[C@@]43C)[C@H]12
REMARK SMILES IDX 7 1 6 2 33 3 11 4 5 5 15 6 4 7 12 8 16 9 13 10 17 11 31 12
REMARK SMILES IDX 14 13 18 14 30 15 32 16 19 17 29 18 21 19 20 20 28 21 22 22
REMARK SMILES IDX 25 23 23 24 26 25 27 26 8 27 9 28 10 29 2 30 3 31 1 32 24 33
REMARK H PARENT 24 34
REMARK Flexibility Score: inf
ROOT
ATOM      1  C   UNL     1      -9.398 -26.954 -36.693  1.00  0.00     0.014 C 
ATOM      2  C   UNL     1     -10.003 -25.797 -35.882  1.00  0.00     0.014 C 
ATOM      3  C   UNL     1     -10.656 -27.773 -37.135  1.00  0.00     0.012 C 
ATOM      4  C   UNL     1      -8.495 -26.412 -37.830  1.00  0.00     0.014 C 
ATOM      5  C   UNL     1     -11.130 -26.415 -35.076  1.00  0.00     0.009 C 
ATOM      6  C   UNL     1     -11.269 -27.334 -38.521  1.00  0.00     0.000 C 
ATOM      7  C   UNL     1     -11.609 -27.633 -35.892  1.00  0.00     0.018 C 
ATOM      8  C   UNL     1      -9.265 -25.937 -39.065  1.00  0.00     0.008 C 
ATOM      9  C   UNL     1     -12.401 -28.299 -38.984  1.00  0.00     0.005 C 
ATOM     10  C   UNL     1     -10.204 -27.039 -39.649  1.00  0.00    -0.024 C 
ATOM     11  C   UNL     1     -12.368 -28.711 -40.450  1.00  0.00     0.005 C 
ATOM     12  C   UNL     1     -10.948 -26.535 -40.997  1.00  0.00    -0.024 C 
ATOM     13  C   UNL     1      -9.309 -28.297 -39.949  1.00  0.00     0.012 C 
ATOM     14  C   UNL     1     -12.158 -27.505 -41.406  1.00  0.00     0.002 C 
ATOM     15  C   UNL     1      -9.923 -26.394 -42.167  1.00  0.00     0.008 C 
ATOM     16  C   UNL     1     -11.534 -25.092 -40.784  1.00  0.00     0.012 C 
ATOM     17  C   UNL     1     -12.292 -27.913 -42.947  1.00  0.00    -0.026 C 
ATOM     18  C   UNL     1     -10.522 -26.070 -43.546  1.00  0.00     0.005 C 
ATOM     19  C   UNL     1     -13.792 -28.357 -43.210  1.00  0.00     0.010 C 
ATOM     20  C   UNL     1     -11.377 -29.122 -43.310  1.00  0.00     0.012 C 
ATOM     21  C   UNL     1     -11.935 -26.662 -43.833  1.00  0.00     0.003 C 
ATOM     22  C   UNL     1     -14.458 -27.745 -44.447  1.00  0.00     0.033 C 
ATOM     23  C   UNL     1     -12.287 -26.754 -45.390  1.00  0.00    -0.006 C 
ATOM     24  C   UNL     1     -13.494 -27.727 -45.634  1.00  0.00     0.120 C 
ATOM     25  C   UNL     1     -12.647 -25.325 -45.885  1.00  0.00     0.014 C 
ATOM     26  C   UNL     1     -11.104 -27.243 -46.270  1.00  0.00     0.014 C 
ENDROOT
BRANCH   1  27
ATOM     27  C   UNL     1      -8.510 -27.815 -35.793  1.00  0.00     0.048 C 
ATOM     28  O   UNL     1      -8.470 -29.065 -35.954  1.00  0.00    -0.550 OA
ATOM     29  O   UNL     1      -7.677 -27.239 -34.840  1.00  0.00    -0.550 OA
ENDBRANCH   1  27
BRANCH   7  30
ATOM     30  C   UNL     1     -13.122 -27.633 -36.129  1.00  0.00    -0.077 C 
ATOM     31  C   UNL     1     -13.882 -28.935 -36.088  1.00  0.00     0.039 C 
ATOM     32  C   UNL     1     -13.816 -26.497 -36.326  1.00  0.00     0.008 C 
ENDBRANCH   7  30
BRANCH  24  33
ATOM     33  O   UNL     1     -14.170 -27.449 -46.841  1.00  0.00    -0.393 OA
ATOM     34  H   UNL     1     -14.098 -26.475 -47.025  1.00  0.00     0.210 HD
ENDBRANCH  24  33
TORSDOF 3
ENDMDL
MODEL 3
REMARK VINA RESULT:    -5.193      1.962      2.785
REMARK INTER + INTRA:          -6.165
REMARK INTER:                  -6.048
REMARK INTRA:                  -0.117
REMARK UNBOUND:                -0.213
REMARK SMILES C=C(C)[C@@H]1CC[C@]2(C(=O)[O-])CC[C@@]3(C)[C@@H](CC[C@@H]4[C@@]5(C)CC[C@@H](O)C(C)(C)[C@@H]5CC[C@@]43C)[C@H]12
REMARK SMILES IDX 7 1 6 2 33 3 11 4 5 5 15 6 4 7 12 8 16 9 13 10 17 11 31 12
REMARK SMILES IDX 14 13 18 14 30 15 32 16 19 17 29 18 21 19 20 20 28 21 22 22
REMARK SMILES IDX 25 23 23 24 26 25 27 26 8 27 9 28 10 29 2 30 3 31 1 32 24 33
REMARK H PARENT 24 34
REMARK Flexibility Score: inf
ROOT
ATOM      1  C   UNL     1     -10.024 -27.468 -42.125  1.00  0.00     0.014 C 
ATOM      2  C   UNL     1      -9.395 -26.148 -41.651  1.00  0.00     0.014 C 
ATOM      3  C   UNL     1     -11.559 -27.173 -42.057  1.00  0.00     0.012 C 
ATOM      4  C   UNL     1      -9.462 -27.875 -43.511  1.00  0.00     0.014 C 
ATOM      5  C   UNL     1     -10.274 -25.669 -40.511  1.00  0.00     0.009 C 
ATOM      6  C   UNL     1     -12.173 -26.589 -43.388  1.00  0.00     0.000 C 
ATOM      7  C   UNL     1     -11.675 -26.251 -40.789  1.00  0.00     0.018 C 
ATOM      8  C   UNL     1     -10.105 -27.136 -44.687  1.00  0.00     0.008 C 
ATOM      9  C   UNL     1     -13.726 -26.488 -43.312  1.00  0.00     0.005 C 
ATOM     10  C   UNL     1     -11.660 -27.281 -44.711  1.00  0.00    -0.024 C 
ATOM     11  C   UNL     1     -14.486 -26.960 -44.545  1.00  0.00     0.005 C 
ATOM     12  C   UNL     1     -12.306 -26.553 -46.006  1.00  0.00    -0.024 C 
ATOM     13  C   UNL     1     -11.979 -28.821 -44.725  1.00  0.00     0.012 C 
ATOM     14  C   UNL     1     -13.895 -26.393 -45.865  1.00  0.00     0.002 C 
ATOM     15  C   UNL     1     -11.934 -27.326 -47.310  1.00  0.00     0.008 C 
ATOM     16  C   UNL     1     -11.689 -25.118 -46.185  1.00  0.00     0.012 C 
ATOM     17  C   UNL     1     -14.792 -26.750 -47.141  1.00  0.00    -0.026 C 
ATOM     18  C   UNL     1     -12.611 -26.829 -48.599  1.00  0.00     0.005 C 
ATOM     19  C   UNL     1     -16.183 -26.005 -46.990  1.00  0.00     0.010 C 
ATOM     20  C   UNL     1     -15.088 -28.278 -47.234  1.00  0.00     0.012 C 
ATOM     21  C   UNL     1     -14.048 -26.251 -48.435  1.00  0.00     0.003 C 
ATOM     22  C   UNL     1     -16.669 -25.246 -48.230  1.00  0.00     0.033 C 
ATOM     23  C   UNL     1     -14.892 -26.237 -49.794  1.00  0.00    -0.006 C 
ATOM     24  C   UNL     1     -16.423 -26.062 -49.500  1.00  0.00     0.120 C 
ATOM     25  C   UNL     1     -14.380 -25.054 -50.664  1.00  0.00     0.014 C 
ATOM     26  C   UNL     1     -14.721 -27.523 -50.649  1.00  0.00     0.014 C 
ENDROOT
BRANCH   1  27
ATOM     27  C   UNL     1      -9.670 -28.595 -41.154  1.00  0.00     0.048 C 
ATOM     28  O   UNL     1     -10.565 -29.114 -40.433  1.00  0.00    -0.550 OA
ATOM     29  O   UNL     1      -8.384 -29.122 -41.100  1.00  0.00    -0.550 OA
ENDBRANCH   1  27
BRANCH   7  30
ATOM     30  C   UNL     1     -12.777 -25.190 -40.757  1.00  0.00    -0.077 C 
ATOM     31  C   UNL     1     -14.135 -25.542 -40.201  1.00  0.00     0.039 C 
ATOM     32  C   UNL     1     -12.566 -23.924 -41.165  1.00  0.00     0.008 C 
ENDBRANCH   7  30
BRANCH  24  33
ATOM     33  O   UNL     1     -17.121 -25.522 -50.600  1.00  0.00    -0.393 OA
ATOM     34  H   UNL     1     -17.287 -24.558 -50.426  1.00  0.00     0.210 HD
ENDBRANCH  24  33
TORSDOF 3
ENDMDL
MODEL 4
REMARK VINA RESULT:    -5.074      4.098      9.622
REMARK INTER + INTRA:          -6.029
REMARK INTER:                  -5.683
REMARK INTRA:                  -0.346
REMARK UNBOUND:                -0.213
REMARK SMILES C=C(C)[C@@H]1CC[C@]2(C(=O)[O-])CC[C@@]3(C)[C@@H](CC[C@@H]4[C@@]5(C)CC[C@@H](O)C(C)(C)[C@@H]5CC[C@@]43C)[C@H]12
REMARK SMILES IDX 7 1 6 2 33 3 11 4 5 5 15 6 4 7 12 8 16 9 13 10 17 11 31 12
REMARK SMILES IDX 14 13 18 14 30 15 32 16 19 17 29 18 21 19 20 20 28 21 22 22
REMARK SMILES IDX 25 23 23 24 26 25 27 26 8 27 9 28 10 29 2 30 3 31 1 32 24 33
REMARK H PARENT 24 34
REMARK Flexibility Score: inf
ROOT
ATOM      1  C   UNL     1     -15.272 -27.234 -43.579  1.00  0.00     0.014 C 
ATOM      2  C   UNL     1     -16.221 -26.026 -43.529  1.00  0.00     0.014 C 
ATOM      3  C   UNL     1     -13.854 -26.571 -43.563  1.00  0.00     0.012 C 
ATOM      4  C   UNL     1     -15.582 -28.222 -42.427  1.00  0.00     0.014 C 
ATOM      5  C   UNL     1     -15.593 -24.981 -44.433  1.00  0.00     0.009 C 
ATOM      6  C   UNL     1     -13.248 -26.358 -42.122  1.00  0.00     0.000 C 
ATOM      7  C   UNL     1     -14.077 -25.265 -44.411  1.00  0.00     0.018 C 
ATOM      8  C   UNL     1     -14.998 -27.808 -41.074  1.00  0.00     0.008 C 
ATOM      9  C   UNL     1     -11.772 -25.864 -42.184  1.00  0.00     0.005 C 
ATOM     10  C   UNL     1     -13.456 -27.571 -41.132  1.00  0.00    -0.024 C 
ATOM     11  C   UNL     1     -10.802 -26.537 -41.221  1.00  0.00     0.005 C 
ATOM     12  C   UNL     1     -12.853 -27.207 -39.673  1.00  0.00    -0.024 C 
ATOM     13  C   UNL     1     -12.807 -28.892 -41.686  1.00  0.00     0.012 C 
ATOM     14  C   UNL     1     -11.361 -26.628 -39.775  1.00  0.00     0.002 C 
ATOM     15  C   UNL     1     -12.908 -28.453 -38.734  1.00  0.00     0.008 C 
ATOM     16  C   UNL     1     -13.748 -26.120 -38.974  1.00  0.00     0.012 C 
ATOM     17  C   UNL     1     -10.280 -27.179 -38.733  1.00  0.00    -0.026 C 
ATOM     18  C   UNL     1     -12.226 -28.288 -37.365  1.00  0.00     0.005 C 
ATOM     19  C   UNL     1      -9.109 -26.115 -38.627  1.00  0.00     0.010 C 
ATOM     20  C   UNL     1      -9.648 -28.523 -39.208  1.00  0.00     0.012 C 
ATOM     21  C   UNL     1     -10.975 -27.359 -37.332  1.00  0.00     0.003 C 
ATOM     22  C   UNL     1      -8.676 -25.743 -37.205  1.00  0.00     0.033 C 
ATOM     23  C   UNL     1     -10.018 -27.616 -36.078  1.00  0.00    -0.006 C 
ATOM     24  C   UNL     1      -8.602 -26.984 -36.315  1.00  0.00     0.120 C 
ATOM     25  C   UNL     1     -10.684 -26.974 -34.828  1.00  0.00     0.014 C 
ATOM     26  C   UNL     1      -9.813 -29.120 -35.747  1.00  0.00     0.014 C 
ENDROOT
BRANCH   1  27
ATOM     27  C   UNL     1     -15.470 -28.000 -44.888  1.00  0.00     0.048 C 
ATOM     28  O   UNL     1     -14.498 -28.598 -45.424  1.00  0.00    -0.550 OA
ATOM     29  O   UNL     1     -16.728 -28.121 -45.468  1.00  0.00    -0.550 OA
ENDBRANCH   1  27
BRANCH   7  30
ATOM     30  C   UNL     1     -13.244 -24.027 -44.074  1.00  0.00    -0.077 C 
ATOM     31  C   UNL     1     -11.853 -23.886 -44.643  1.00  0.00     0.039 C 
ATOM     32  C   UNL     1     -13.727 -23.021 -43.321  1.00  0.00     0.008 C 
ENDBRANCH   7  30
BRANCH  24  33
ATOM     33  O   UNL     1      -7.928 -26.710 -35.106  1.00  0.00    -0.393 OA
ATOM     34  H   UNL     1      -7.203 -26.058 -35.291  1.00  0.00     0.210 HD
ENDBRANCH  24  33
TORSDOF 3
ENDMDL
MODEL 5
REMARK VINA RESULT:    -5.071      2.851      5.310
REMARK INTER + INTRA:          -6.025
REMARK INTER:                  -5.693
REMARK INTRA:                  -0.332
REMARK UNBOUND:                -0.213
REMARK SMILES C=C(C)[C@@H]1CC[C@]2(C(=O)[O-])CC[C@@]3(C)[C@@H](CC[C@@H]4[C@@]5(C)CC[C@@H](O)C(C)(C)[C@@H]5CC[C@@]43C)[C@H]12
REMARK SMILES IDX 7 1 6 2 33 3 11 4 5 5 15 6 4 7 12 8 16 9 13 10 17 11 31 12
REMARK SMILES IDX 14 13 18 14 30 15 32 16 19 17 29 18 21 19 20 20 28 21 22 22
REMARK SMILES IDX 25 23 23 24 26 25 27 26 8 27 9 28 10 29 2 30 3 31 1 32 24 33
REMARK H PARENT 24 34
REMARK Flexibility Score: inf
ROOT
ATOM      1  C   UNL     1     -15.878 -22.686 -39.852  1.00  0.00     0.014 C 
ATOM      2  C   UNL     1     -17.125 -23.221 -39.129  1.00  0.00     0.014 C 
ATOM      3  C   UNL     1     -14.952 -23.945 -39.938  1.00  0.00     0.012 C 
ATOM      4  C   UNL     1     -16.268 -22.025 -41.199  1.00  0.00     0.014 C 
ATOM      5  C   UNL     1     -16.599 -24.154 -38.054  1.00  0.00     0.009 C 
ATOM      6  C   UNL     1     -15.143 -24.809 -41.245  1.00  0.00     0.000 C 
ATOM      7  C   UNL     1     -15.250 -24.682 -38.582  1.00  0.00     0.018 C 
ATOM      8  C   UNL     1     -16.512 -23.021 -42.335  1.00  0.00     0.008 C 
ATOM      9  C   UNL     1     -14.073 -25.937 -41.352  1.00  0.00     0.005 C 
ATOM     10  C   UNL     1     -15.296 -23.970 -42.574  1.00  0.00    -0.024 C 
ATOM     11  C   UNL     1     -13.436 -26.124 -42.723  1.00  0.00     0.005 C 
ATOM     12  C   UNL     1     -15.552 -24.962 -43.830  1.00  0.00    -0.024 C 
ATOM     13  C   UNL     1     -14.042 -23.058 -42.836  1.00  0.00     0.012 C 
ATOM     14  C   UNL     1     -14.483 -26.157 -43.870  1.00  0.00     0.002 C 
ATOM     15  C   UNL     1     -15.546 -24.159 -45.169  1.00  0.00     0.008 C 
ATOM     16  C   UNL     1     -16.986 -25.597 -43.734  1.00  0.00     0.012 C 
ATOM     17  C   UNL     1     -13.832 -26.521 -45.284  1.00  0.00    -0.026 C 
ATOM     18  C   UNL     1     -15.624 -25.001 -46.454  1.00  0.00     0.005 C 
ATOM     19  C   UNL     1     -13.294 -28.011 -45.211  1.00  0.00     0.010 C 
ATOM     20  C   UNL     1     -12.617 -25.603 -45.619  1.00  0.00     0.012 C 
ATOM     21  C   UNL     1     -14.940 -26.400 -46.396  1.00  0.00     0.003 C 
ATOM     22  C   UNL     1     -13.677 -28.915 -46.388  1.00  0.00     0.033 C 
ATOM     23  C   UNL     1     -14.589 -27.002 -47.835  1.00  0.00    -0.006 C 
ATOM     24  C   UNL     1     -13.545 -28.167 -47.715  1.00  0.00     0.120 C 
ATOM     25  C   UNL     1     -15.907 -27.534 -48.467  1.00  0.00     0.014 C 
ATOM     26  C   UNL     1     -14.014 -25.955 -48.827  1.00  0.00     0.014 C 
ENDROOT
BRANCH   1  27
ATOM     27  C   UNL     1     -15.205 -21.606 -39.004  1.00  0.00     0.048 C 
ATOM     28  O   UNL     1     -14.019 -21.257 -39.250  1.00  0.00    -0.550 OA
ATOM     29  O   UNL     1     -15.904 -20.934 -38.007  1.00  0.00    -0.550 OA
ENDBRANCH   1  27
BRANCH   7  30
ATOM     30  C   UNL     1     -15.154 -26.210 -38.546  1.00  0.00    -0.077 C 
ATOM     31  C   UNL     1     -13.844 -26.866 -38.187  1.00  0.00     0.039 C 
ATOM     32  C   UNL     1     -16.218 -27.000 -38.777  1.00  0.00     0.008 C 
ENDBRANCH   7  30
BRANCH  24  33
ATOM     33  O   UNL     1     -13.602 -29.053 -48.812  1.00  0.00    -0.393 OA
ATOM     34  H   UNL     1     -13.211 -28.599 -49.604  1.00  0.00     0.210 HD
ENDBRANCH  24  33
TORSDOF 3
ENDMDL
MODEL 6
REMARK VINA RESULT:    -4.795      1.855      3.545
REMARK INTER + INTRA:          -5.709
REMARK INTER:                  -5.327
REMARK INTRA:                  -0.382
REMARK UNBOUND:                -0.213
REMARK SMILES C=C(C)[C@@H]1CC[C@]2(C(=O)[O-])CC[C@@]3(C)[C@@H](CC[C@@H]4[C@@]5(C)CC[C@@H](O)C(C)(C)[C@@H]5CC[C@@]43C)[C@H]12
REMARK SMILES IDX 7 1 6 2 33 3 11 4 5 5 15 6 4 7 12 8 16 9 13 10 17 11 31 12
REMARK SMILES IDX 14 13 18 14 30 15 32 16 19 17 29 18 21 19 20 20 28 21 22 22
REMARK SMILES IDX 25 23 23 24 26 25 27 26 8 27 9 28 10 29 2 30 3 31 1 32 24 33
REMARK H PARENT 24 34
REMARK Flexibility Score: inf
ROOT
ATOM      1  C   UNL     1     -15.115 -25.092 -42.263  1.00  0.00     0.014 C 
ATOM      2  C   UNL     1     -15.003 -26.307 -41.328  1.00  0.00     0.014 C 
ATOM      3  C   UNL     1     -13.830 -25.207 -43.149  1.00  0.00     0.012 C 
ATOM      4  C   UNL     1     -16.471 -25.103 -43.014  1.00  0.00     0.014 C 
ATOM      5  C   UNL     1     -13.535 -26.395 -40.956  1.00  0.00     0.009 C 
ATOM      6  C   UNL     1     -14.020 -26.043 -44.474  1.00  0.00     0.000 C 
ATOM      7  C   UNL     1     -12.765 -25.766 -42.135  1.00  0.00     0.018 C 
ATOM      8  C   UNL     1     -16.510 -26.046 -44.219  1.00  0.00     0.008 C 
ATOM      9  C   UNL     1     -12.762 -25.967 -45.389  1.00  0.00     0.005 C 
ATOM     10  C   UNL     1     -15.368 -25.758 -45.245  1.00  0.00    -0.024 C 
ATOM     11  C   UNL     1     -13.029 -25.747 -46.872  1.00  0.00     0.005 C 
ATOM     12  C   UNL     1     -15.478 -26.720 -46.544  1.00  0.00    -0.024 C 
ATOM     13  C   UNL     1     -15.493 -24.247 -45.663  1.00  0.00     0.012 C 
ATOM     14  C   UNL     1     -14.140 -26.681 -47.426  1.00  0.00     0.002 C 
ATOM     15  C   UNL     1     -16.726 -26.339 -47.402  1.00  0.00     0.008 C 
ATOM     16  C   UNL     1     -15.721 -28.207 -46.097  1.00  0.00     0.012 C 
ATOM     17  C   UNL     1     -14.301 -26.568 -49.014  1.00  0.00    -0.026 C 
ATOM     18  C   UNL     1     -16.863 -27.073 -48.746  1.00  0.00     0.005 C 
ATOM     19  C   UNL     1     -12.971 -27.110 -49.685  1.00  0.00     0.010 C 
ATOM     20  C   UNL     1     -14.489 -25.091 -49.475  1.00  0.00     0.012 C 
ATOM     21  C   UNL     1     -15.529 -27.447 -49.459  1.00  0.00     0.003 C 
ATOM     22  C   UNL     1     -13.164 -28.104 -50.835  1.00  0.00     0.033 C 
ATOM     23  C   UNL     1     -15.693 -27.718 -51.027  1.00  0.00    -0.006 C 
ATOM     24  C   UNL     1     -14.304 -27.661 -51.753  1.00  0.00     0.120 C 
ATOM     25  C   UNL     1     -16.330 -29.125 -51.206  1.00  0.00     0.014 C 
ATOM     26  C   UNL     1     -16.638 -26.710 -51.738  1.00  0.00     0.014 C 
ENDROOT
BRANCH   1  27
ATOM     27  C   UNL     1     -15.068 -23.799 -41.449  1.00  0.00     0.048 C 
ATOM     28  O   UNL     1     -14.581 -22.751 -41.953  1.00  0.00    -0.550 OA
ATOM     29  O   UNL     1     -15.628 -23.728 -40.177  1.00  0.00    -0.550 OA
ENDBRANCH   1  27
BRANCH   7  30
ATOM     30  C   UNL     1     -11.653 -26.671 -42.671  1.00  0.00    -0.077 C 
ATOM     31  C   UNL     1     -10.377 -26.056 -43.191  1.00  0.00     0.039 C 
ATOM     32  C   UNL     1     -11.749 -28.014 -42.651  1.00  0.00     0.008 C 
ENDBRANCH   7  30
BRANCH  24  33
ATOM     33  O   UNL     1     -14.302 -28.388 -52.962  1.00  0.00    -0.393 OA
ATOM     34  H   UNL     1     -13.986 -29.311 -52.775  1.00  0.00     0.210 HD
ENDBRANCH  24  33
TORSDOF 3
ENDMDL
MODEL 7
REMARK VINA RESULT:    -4.245      3.915      9.943
REMARK INTER + INTRA:          -5.078
REMARK INTER:                  -4.738
REMARK INTRA:                  -0.340
REMARK UNBOUND:                -0.213
REMARK SMILES C=C(C)[C@@H]1CC[C@]2(C(=O)[O-])CC[C@@]3(C)[C@@H](CC[C@@H]4[C@@]5(C)CC[C@@H](O)C(C)(C)[C@@H]5CC[C@@]43C)[C@H]12
REMARK SMILES IDX 7 1 6 2 33 3 11 4 5 5 15 6 4 7 12 8 16 9 13 10 17 11 31 12
REMARK SMILES IDX 14 13 18 14 30 15 32 16 19 17 29 18 21 19 20 20 28 21 22 22
REMARK SMILES IDX 25 23 23 24 26 25 27 26 8 27 9 28 10 29 2 30 3 31 1 32 24 33
REMARK H PARENT 24 34
REMARK Flexibility Score: inf
ROOT
ATOM      1  C   UNL     1     -14.340 -25.437 -44.318  1.00  0.00     0.014 C 
ATOM      2  C   UNL     1     -13.561 -24.174 -44.719  1.00  0.00     0.014 C 
ATOM      3  C   UNL     1     -13.338 -26.189 -43.380  1.00  0.00     0.012 C 
ATOM      4  C   UNL     1     -15.711 -25.062 -43.700  1.00  0.00     0.014 C 
ATOM      5  C   UNL     1     -12.133 -24.634 -44.942  1.00  0.00     0.009 C 
ATOM      6  C   UNL     1     -13.469 -25.818 -41.852  1.00  0.00     0.000 C 
ATOM      7  C   UNL     1     -11.947 -25.873 -44.043  1.00  0.00     0.018 C 
ATOM      8  C   UNL     1     -15.639 -24.631 -42.233  1.00  0.00     0.008 C 
ATOM      9  C   UNL     1     -12.572 -26.727 -40.959  1.00  0.00     0.005 C 
ATOM     10  C   UNL     1     -14.953 -25.701 -41.326  1.00  0.00    -0.024 C 
ATOM     11  C   UNL     1     -13.219 -27.259 -39.687  1.00  0.00     0.005 C 
ATOM     12  C   UNL     1     -14.956 -25.252 -39.769  1.00  0.00    -0.024 C 
ATOM     13  C   UNL     1     -15.747 -27.045 -41.517  1.00  0.00     0.012 C 
ATOM     14  C   UNL     1     -13.966 -26.155 -38.889  1.00  0.00     0.002 C 
ATOM     15  C   UNL     1     -16.408 -25.288 -39.194  1.00  0.00     0.008 C 
ATOM     16  C   UNL     1     -14.495 -23.756 -39.636  1.00  0.00     0.012 C 
ATOM     17  C   UNL     1     -14.499 -26.677 -37.474  1.00  0.00    -0.026 C 
ATOM     18  C   UNL     1     -16.535 -25.033 -37.683  1.00  0.00     0.005 C 
ATOM     19  C   UNL     1     -13.243 -27.022 -36.570  1.00  0.00     0.010 C 
ATOM     20  C   UNL     1     -15.345 -27.979 -37.615  1.00  0.00     0.012 C 
ATOM     21  C   UNL     1     -15.350 -25.534 -36.804  1.00  0.00     0.003 C 
ATOM     22  C   UNL     1     -13.277 -26.463 -35.144  1.00  0.00     0.033 C 
ATOM     23  C   UNL     1     -15.732 -25.726 -35.263  1.00  0.00    -0.006 C 
ATOM     24  C   UNL     1     -14.669 -26.618 -34.530  1.00  0.00     0.120 C 
ATOM     25  C   UNL     1     -15.789 -24.318 -34.604  1.00  0.00     0.014 C 
ATOM     26  C   UNL     1     -17.125 -26.376 -35.040  1.00  0.00     0.014 C 
ENDROOT
BRANCH   1  27
ATOM     27  C   UNL     1     -14.628 -26.288 -45.556  1.00  0.00     0.048 C 
ATOM     28  O   UNL     1     -14.908 -25.735 -46.653  1.00  0.00    -0.550 OA
ATOM     29  O   UNL     1     -14.511 -27.674 -45.520  1.00  0.00    -0.550 OA
ENDBRANCH   1  27
BRANCH   7  30
ATOM     30  C   UNL     1     -10.715 -25.775 -43.141  1.00  0.00    -0.077 C 
ATOM     31  C   UNL     1      -9.810 -26.972 -42.981  1.00  0.00     0.039 C 
ATOM     32  C   UNL     1     -10.374 -24.633 -42.515  1.00  0.00     0.008 C 
ENDBRANCH   7  30
BRANCH  24  33
ATOM     33  O   UNL     1     -14.645 -26.388 -33.138  1.00  0.00    -0.393 OA
ATOM     34  H   UNL     1     -13.795 -25.927 -32.909  1.00  0.00     0.210 HD
ENDBRANCH  24  33
TORSDOF 3
ENDMDL
MODEL 8
REMARK VINA RESULT:    -4.240      1.908      8.326
REMARK INTER + INTRA:          -5.073
REMARK INTER:                  -4.815
REMARK INTRA:                  -0.258
REMARK UNBOUND:                -0.213
REMARK SMILES C=C(C)[C@@H]1CC[C@]2(C(=O)[O-])CC[C@@]3(C)[C@@H](CC[C@@H]4[C@@]5(C)CC[C@@H](O)C(C)(C)[C@@H]5CC[C@@]43C)[C@H]12
REMARK SMILES IDX 7 1 6 2 33 3 11 4 5 5 15 6 4 7 12 8 16 9 13 10 17 11 31 12
REMARK SMILES IDX 14 13 18 14 30 15 32 16 19 17 29 18 21 19 20 20 28 21 22 22
REMARK SMILES IDX 25 23 23 24 26 25 27 26 8 27 9 28 10 29 2 30 3 31 1 32 24 33
REMARK H PARENT 24 34
REMARK Flexibility Score: inf
ROOT
ATOM      1  C   UNL     1     -15.612 -26.189 -48.954  1.00  0.00     0.014 C 
ATOM      2  C   UNL     1     -14.468 -25.407 -49.619  1.00  0.00     0.014 C 
ATOM      3  C   UNL     1     -14.859 -27.183 -48.008  1.00  0.00     0.012 C 
ATOM      4  C   UNL     1     -16.616 -25.222 -48.277  1.00  0.00     0.014 C 
ATOM      5  C   UNL     1     -13.387 -26.434 -49.899  1.00  0.00     0.009 C 
ATOM      6  C   UNL     1     -14.604 -26.632 -46.551  1.00  0.00     0.000 C 
ATOM      7  C   UNL     1     -13.573 -27.539 -48.839  1.00  0.00     0.018 C 
ATOM      8  C   UNL     1     -16.161 -24.706 -46.909  1.00  0.00     0.008 C 
ATOM      9  C   UNL     1     -14.016 -27.730 -45.614  1.00  0.00     0.005 C 
ATOM     10  C   UNL     1     -15.826 -25.861 -45.913  1.00  0.00    -0.024 C 
ATOM     11  C   UNL     1     -14.623 -27.811 -44.220  1.00  0.00     0.005 C 
ATOM     12  C   UNL     1     -15.420 -25.289 -44.453  1.00  0.00    -0.024 C 
ATOM     13  C   UNL     1     -17.104 -26.773 -45.816  1.00  0.00     0.012 C 
ATOM     14  C   UNL     1     -14.747 -26.421 -43.538  1.00  0.00     0.002 C 
ATOM     15  C   UNL     1     -16.665 -24.665 -43.746  1.00  0.00     0.008 C 
ATOM     16  C   UNL     1     -14.392 -24.109 -44.600  1.00  0.00     0.012 C 
ATOM     17  C   UNL     1     -15.225 -26.525 -42.015  1.00  0.00    -0.026 C 
ATOM     18  C   UNL     1     -16.454 -24.222 -42.289  1.00  0.00     0.005 C 
ATOM     19  C   UNL     1     -14.087 -27.258 -41.190  1.00  0.00     0.010 C 
ATOM     20  C   UNL     1     -16.526 -27.371 -41.871  1.00  0.00     0.012 C 
ATOM     21  C   UNL     1     -15.446 -25.070 -41.456  1.00  0.00     0.003 C 
ATOM     22  C   UNL     1     -13.684 -26.588 -39.872  1.00  0.00     0.033 C 
ATOM     23  C   UNL     1     -15.638 -24.924 -39.875  1.00  0.00    -0.006 C 
ATOM     24  C   UNL     1     -14.916 -26.091 -39.114  1.00  0.00     0.120 C 
ATOM     25  C   UNL     1     -15.037 -23.557 -39.443  1.00  0.00     0.014 C 
ATOM     26  C   UNL     1     -17.125 -24.917 -39.425  1.00  0.00     0.014 C 
ENDROOT
BRANCH   1  27
ATOM     27  C   UNL     1     -16.393 -26.972 -50.011  1.00  0.00     0.048 C 
ATOM     28  O   UNL     1     -17.011 -28.023 -49.690  1.00  0.00    -0.550 OA
ATOM     29  O   UNL     1     -16.504 -26.506 -51.316  1.00  0.00    -0.550 OA
ENDBRANCH   1  27
BRANCH   7  30
ATOM     30  C   UNL     1     -12.282 -27.860 -48.082  1.00  0.00    -0.077 C 
ATOM     31  C   UNL     1     -11.451 -26.736 -47.514  1.00  0.00     0.039 C 
ATOM     32  C   UNL     1     -11.880 -29.125 -47.856  1.00  0.00     0.008 C 
ENDBRANCH   7  30
BRANCH  24  33
ATOM     33  O   UNL     1     -14.597 -25.746 -37.784  1.00  0.00    -0.393 OA
ATOM     34  H   UNL     1     -14.975 -26.437 -37.180  1.00  0.00     0.210 HD
ENDBRANCH  24  33
TORSDOF 3
ENDMDL
