MODEL 1
REMARK VINA RESULT:    -5.207      0.000      0.000
REMARK INTER + INTRA:          -7.563
REMARK INTER:                  -7.034
REMARK INTRA:                  -0.529
REMARK UNBOUND:                -0.529
REMARK SMILES COc1ccc(-c2cc(=O)c3c(OC)c(OC)c(OC)c(OC)c3o2)cc1
REMARK SMILES IDX 7 1 8 2 9 3 10 4 11 5 24 6 25 7 21 8 18 9 15 10 12 11 6 12
REMARK SMILES IDX 3 13 4 14 27 15 5 16 26 17 2 18 1 19 22 20 23 21 13 22 14 23
REMARK SMILES IDX 19 24 20 25 16 26 17 27
REMARK H PARENT
REMARK Flexibility Score: inf
ROOT
ATOM      1  C   UNL     1       8.578  10.508 -15.528  1.00  0.00     0.138 A 
ATOM      2  C   UNL     1       8.989  11.351 -14.486  1.00  0.00     0.100 A 
ATOM      3  C   UNL     1       9.381  12.657 -14.777  1.00  0.00     0.197 A 
ATOM      4  O   UNL     1       9.745  13.405 -13.830  1.00  0.00    -0.289 OA
ATOM      5  C   UNL     1       9.353  13.115 -16.113  1.00  0.00     0.115 A 
ATOM      6  C   UNL     1       8.921  12.210 -17.106  1.00  0.00     0.188 A 
ATOM      7  O   UNL     1       8.558  10.973 -16.774  1.00  0.00    -0.452 OA
ATOM      8  C   UNL     1       8.876  12.584 -18.454  1.00  0.00     0.209 A 
ATOM      9  C   UNL     1       9.236  13.903 -18.832  1.00  0.00     0.211 A 
ATOM     10  C   UNL     1       9.616  14.831 -17.829  1.00  0.00     0.208 A 
ATOM     11  C   UNL     1       9.746  14.418 -16.486  1.00  0.00     0.179 A 
ENDROOT
BRANCH   1  12
ATOM     12  C   UNL     1       8.148   9.107 -15.283  1.00  0.00     0.018 A 
ATOM     13  C   UNL     1       7.318   6.436 -14.884  1.00  0.00     0.118 A 
ATOM     14  C   UNL     1       6.884   7.154 -16.002  1.00  0.00     0.047 A 
ATOM     15  C   UNL     1       8.183   7.057 -13.964  1.00  0.00     0.047 A 
ATOM     16  C   UNL     1       7.296   8.474 -16.204  1.00  0.00     0.016 A 
ATOM     17  C   UNL     1       8.597   8.378 -14.165  1.00  0.00     0.016 A 
BRANCH  13  18
ATOM     18  O   UNL     1       6.875   5.114 -14.727  1.00  0.00    -0.497 OA
ATOM     19  C   UNL     1       7.260   4.032 -15.569  1.00  0.00     0.278 C 
ENDBRANCH  13  18
ENDBRANCH   1  12
BRANCH   8  20
ATOM     20  O   UNL     1       8.461  11.592 -19.364  1.00  0.00    -0.490 OA
ATOM     21  C   UNL     1       7.186  11.478 -19.987  1.00  0.00     0.278 C 
ENDBRANCH   8  20
BRANCH  11  22
ATOM     22  O   UNL     1      10.266  15.285 -15.514  1.00  0.00    -0.492 OA
ATOM     23  C   UNL     1      11.660  15.411 -15.244  1.00  0.00     0.278 C 
ENDBRANCH  11  22
BRANCH   9  24
ATOM     24  O   UNL     1       9.190  14.246 -20.197  1.00  0.00    -0.490 OA
ATOM     25  C   UNL     1       8.135  14.921 -20.874  1.00  0.00     0.279 C 
ENDBRANCH   9  24
BRANCH  10  26
ATOM     26  O   UNL     1       9.823  16.172 -18.160  1.00  0.00    -0.490 OA
ATOM     27  C   UNL     1       8.765  17.123 -18.134  1.00  0.00     0.278 C 
ENDBRANCH  10  26
TORSDOF 6
ENDMDL
MODEL 2
REMARK VINA RESULT:    -4.927      2.038      4.122
REMARK INTER + INTRA:          -7.184
REMARK INTER:                  -7.247
REMARK INTRA:                   0.063
REMARK UNBOUND:                -0.529
REMARK SMILES COc1ccc(-c2cc(=O)c3c(OC)c(OC)c(OC)c(OC)c3o2)cc1
REMARK SMILES IDX 7 1 8 2 9 3 10 4 11 5 24 6 25 7 21 8 18 9 15 10 12 11 6 12
REMARK SMILES IDX 3 13 4 14 27 15 5 16 26 17 2 18 1 19 22 20 23 21 13 22 14 23
REMARK SMILES IDX 19 24 20 25 16 26 17 27
REMARK H PARENT
REMARK Flexibility Score: inf
ROOT
ATOM      1  C   UNL     1       7.567  10.375 -15.586  1.00  0.00     0.138 A 
ATOM      2  C   UNL     1       7.129   9.781 -16.778  1.00  0.00     0.100 A 
ATOM      3  C   UNL     1       7.270  10.475 -17.979  1.00  0.00     0.197 A 
ATOM      4  O   UNL     1       6.875   9.929 -19.044  1.00  0.00    -0.289 OA
ATOM      5  C   UNL     1       7.857  11.760 -17.981  1.00  0.00     0.115 A 
ATOM      6  C   UNL     1       8.280  12.287 -16.742  1.00  0.00     0.188 A 
ATOM      7  O   UNL     1       8.121  11.583 -15.624  1.00  0.00    -0.452 OA
ATOM      8  C   UNL     1       8.861  13.558 -16.660  1.00  0.00     0.209 A 
ATOM      9  C   UNL     1       9.061  14.321 -17.839  1.00  0.00     0.211 A 
ATOM     10  C   UNL     1       8.690  13.769 -19.091  1.00  0.00     0.208 A 
ATOM     11  C   UNL     1       8.023  12.526 -19.154  1.00  0.00     0.179 A 
ENDROOT
BRANCH   1  12
ATOM     12  C   UNL     1       7.446   9.687 -14.275  1.00  0.00     0.018 A 
ATOM     13  C   UNL     1       7.260   8.332 -11.802  1.00  0.00     0.118 A 
ATOM     14  C   UNL     1       7.668   7.653 -12.954  1.00  0.00     0.047 A 
ATOM     15  C   UNL     1       6.952   9.703 -11.888  1.00  0.00     0.047 A 
ATOM     16  C   UNL     1       7.764   8.322 -14.178  1.00  0.00     0.016 A 
ATOM     17  C   UNL     1       7.049  10.373 -13.111  1.00  0.00     0.016 A 
BRANCH  13  18
ATOM     18  O   UNL     1       7.177   7.616 -10.599  1.00  0.00    -0.497 OA
ATOM     19  C   UNL     1       7.110   8.216  -9.310  1.00  0.00     0.278 C 
ENDBRANCH  13  18
ENDBRANCH   1  12
BRANCH   8  20
ATOM     20  O   UNL     1       9.215  14.000 -15.369  1.00  0.00    -0.490 OA
ATOM     21  C   UNL     1      10.496  13.912 -14.754  1.00  0.00     0.278 C 
ENDBRANCH   8  20
BRANCH  11  22
ATOM     22  O   UNL     1       7.515  12.043 -20.370  1.00  0.00    -0.492 OA
ATOM     23  C   UNL     1       6.875  12.874 -21.335  1.00  0.00     0.278 C 
ENDBRANCH  11  22
BRANCH   9  24
ATOM     24  O   UNL     1       9.638  15.599 -17.722  1.00  0.00    -0.490 OA
ATOM     25  C   UNL     1      11.011  15.938 -17.893  1.00  0.00     0.279 C 
ENDBRANCH   9  24
BRANCH  10  26
ATOM     26  O   UNL     1       9.020  14.433 -20.274  1.00  0.00    -0.490 OA
ATOM     27  C   UNL     1       8.507  15.725 -20.578  1.00  0.00     0.278 C 
ENDBRANCH  10  26
TORSDOF 6
ENDMDL
MODEL 3
REMARK VINA RESULT:    -4.919      2.458      7.870
REMARK INTER + INTRA:          -7.174
REMARK INTER:                  -6.737
REMARK INTRA:                  -0.437
REMARK UNBOUND:                -0.529
REMARK SMILES COc1ccc(-c2cc(=O)c3c(OC)c(OC)c(OC)c(OC)c3o2)cc1
REMARK SMILES IDX 7 1 8 2 9 3 10 4 11 5 24 6 25 7 21 8 18 9 15 10 12 11 6 12
REMARK SMILES IDX 3 13 4 14 27 15 5 16 26 17 2 18 1 19 22 20 23 21 13 22 14 23
REMARK SMILES IDX 19 24 20 25 16 26 17 27
REMARK H PARENT
REMARK Flexibility Score: inf
ROOT
ATOM      1  C   UNL     1       9.178  13.148 -18.991  1.00  0.00     0.138 A 
ATOM      2  C   UNL     1       9.919  11.980 -19.220  1.00  0.00     0.100 A 
ATOM      3  C   UNL     1       9.931  10.977 -18.251  1.00  0.00     0.197 A 
ATOM      4  O   UNL     1      10.598   9.931 -18.470  1.00  0.00    -0.289 OA
ATOM      5  C   UNL     1       9.193  11.147 -17.058  1.00  0.00     0.115 A 
ATOM      6  C   UNL     1       8.466  12.347 -16.904  1.00  0.00     0.188 A 
ATOM      7  O   UNL     1       8.490  13.273 -17.860  1.00  0.00    -0.452 OA
ATOM      8  C   UNL     1       7.719  12.595 -15.747  1.00  0.00     0.209 A 
ATOM      9  C   UNL     1       7.659  11.616 -14.722  1.00  0.00     0.211 A 
ATOM     10  C   UNL     1       8.342  10.386 -14.900  1.00  0.00     0.208 A 
ATOM     11  C   UNL     1       9.165  10.183 -16.029  1.00  0.00     0.179 A 
ENDROOT
BRANCH   1  12
ATOM     12  C   UNL     1       9.125  14.252 -19.984  1.00  0.00     0.018 A 
ATOM     13  C   UNL     1       8.974  16.317 -21.907  1.00  0.00     0.118 A 
ATOM     14  C   UNL     1       8.560  15.020 -22.225  1.00  0.00     0.047 A 
ATOM     15  C   UNL     1       9.458  16.583 -20.612  1.00  0.00     0.047 A 
ATOM     16  C   UNL     1       8.630  13.997 -21.275  1.00  0.00     0.016 A 
ATOM     17  C   UNL     1       9.527  15.561 -19.660  1.00  0.00     0.016 A 
BRANCH  13  18
ATOM     18  O   UNL     1       8.885  17.307 -22.896  1.00  0.00    -0.497 OA
ATOM     19  C   UNL     1       9.479  17.208 -24.187  1.00  0.00     0.278 C 
ENDBRANCH  13  18
ENDBRANCH   1  12
BRANCH   8  20
ATOM     20  O   UNL     1       7.060  13.840 -15.684  1.00  0.00    -0.490 OA
ATOM     21  C   UNL     1       7.663  15.126 -15.592  1.00  0.00     0.278 C 
ENDBRANCH   8  20
BRANCH  11  22
ATOM     22  O   UNL     1       9.964   9.035 -16.140  1.00  0.00    -0.492 OA
ATOM     23  C   UNL     1      11.068   8.764 -15.280  1.00  0.00     0.278 C 
ENDBRANCH  11  22
BRANCH   9  24
ATOM     24  O   UNL     1       6.908  11.899 -13.566  1.00  0.00    -0.490 OA
ATOM     25  C   UNL     1       7.406  12.350 -12.310  1.00  0.00     0.279 C 
ENDBRANCH   9  24
BRANCH  10  26
ATOM     26  O   UNL     1       8.170   9.351 -13.979  1.00  0.00    -0.490 OA
ATOM     27  C   UNL     1       7.117   8.402 -14.103  1.00  0.00     0.278 C 
ENDBRANCH  10  26
TORSDOF 6
ENDMDL
MODEL 4
REMARK VINA RESULT:    -4.904      1.960      2.495
REMARK INTER + INTRA:          -7.153
REMARK INTER:                  -7.416
REMARK INTRA:                   0.263
REMARK UNBOUND:                -0.529
REMARK SMILES COc1ccc(-c2cc(=O)c3c(OC)c(OC)c(OC)c(OC)c3o2)cc1
REMARK SMILES IDX 7 1 8 2 9 3 10 4 11 5 24 6 25 7 21 8 18 9 15 10 12 11 6 12
REMARK SMILES IDX 3 13 4 14 27 15 5 16 26 17 2 18 1 19 22 20 23 21 13 22 14 23
REMARK SMILES IDX 19 24 20 25 16 26 17 27
REMARK H PARENT
REMARK Flexibility Score: inf
ROOT
ATOM      1  C   UNL     1       8.662  11.699 -14.951  1.00  0.00     0.138 A 
ATOM      2  C   UNL     1       9.604  12.659 -14.555  1.00  0.00     0.100 A 
ATOM      3  C   UNL     1       9.953  13.678 -15.440  1.00  0.00     0.197 A 
ATOM      4  O   UNL     1      10.798  14.538 -15.070  1.00  0.00    -0.289 OA
ATOM      5  C   UNL     1       9.352  13.735 -16.716  1.00  0.00     0.115 A 
ATOM      6  C   UNL     1       8.409  12.736 -17.039  1.00  0.00     0.188 A 
ATOM      7  O   UNL     1       8.111  11.784 -16.158  1.00  0.00    -0.452 OA
ATOM      8  C   UNL     1       7.777  12.716 -18.289  1.00  0.00     0.209 A 
ATOM      9  C   UNL     1       8.060  13.731 -19.239  1.00  0.00     0.211 A 
ATOM     10  C   UNL     1       8.964  14.768 -18.894  1.00  0.00     0.208 A 
ATOM     11  C   UNL     1       9.664  14.728 -17.669  1.00  0.00     0.179 A 
ENDROOT
BRANCH   1  12
ATOM     12  C   UNL     1       8.247  10.589 -14.055  1.00  0.00     0.018 A 
ATOM     13  C   UNL     1       7.398   8.512 -12.337  1.00  0.00     0.118 A 
ATOM     14  C   UNL     1       6.882   9.804 -12.197  1.00  0.00     0.047 A 
ATOM     15  C   UNL     1       8.340   8.257 -13.351  1.00  0.00     0.047 A 
ATOM     16  C   UNL     1       7.297  10.832 -13.047  1.00  0.00     0.016 A 
ATOM     17  C   UNL     1       8.755   9.285 -14.204  1.00  0.00     0.016 A 
BRANCH  13  18
ATOM     18  O   UNL     1       6.951   7.515 -11.457  1.00  0.00    -0.497 OA
ATOM     19  C   UNL     1       6.883   7.664 -10.042  1.00  0.00     0.278 C 
ENDBRANCH  13  18
ENDBRANCH   1  12
BRANCH   8  20
ATOM     20  O   UNL     1       6.878  11.655 -18.517  1.00  0.00    -0.490 OA
ATOM     21  C   UNL     1       7.167  10.262 -18.475  1.00  0.00     0.278 C 
ENDBRANCH   8  20
BRANCH  11  22
ATOM     22  O   UNL     1      10.671  15.662 -17.384  1.00  0.00    -0.492 OA
ATOM     23  C   UNL     1      11.869  15.778 -18.148  1.00  0.00     0.278 C 
ENDBRANCH  11  22
BRANCH   9  24
ATOM     24  O   UNL     1       7.417  13.678 -20.490  1.00  0.00    -0.490 OA
ATOM     25  C   UNL     1       7.089  12.510 -21.234  1.00  0.00     0.279 C 
ENDBRANCH   9  24
BRANCH  10  26
ATOM     26  O   UNL     1       9.138  15.858 -19.750  1.00  0.00    -0.490 OA
ATOM     27  C   UNL     1       8.349  17.036 -19.634  1.00  0.00     0.278 C 
ENDBRANCH  10  26
TORSDOF 6
ENDMDL
MODEL 5
REMARK VINA RESULT:    -4.820      1.955      7.536
REMARK INTER + INTRA:          -7.040
REMARK INTER:                  -7.817
REMARK INTRA:                   0.777
REMARK UNBOUND:                -0.529
REMARK SMILES COc1ccc(-c2cc(=O)c3c(OC)c(OC)c(OC)c(OC)c3o2)cc1
REMARK SMILES IDX 7 1 8 2 9 3 10 4 11 5 24 6 25 7 21 8 18 9 15 10 12 11 6 12
REMARK SMILES IDX 3 13 4 14 27 15 5 16 26 17 2 18 1 19 22 20 23 21 13 22 14 23
REMARK SMILES IDX 19 24 20 25 16 26 17 27
REMARK H PARENT
REMARK Flexibility Score: inf
ROOT
ATOM      1  C   UNL     1       8.827  14.356 -18.475  1.00  0.00     0.138 A 
ATOM      2  C   UNL     1       9.392  14.839 -17.286  1.00  0.00     0.100 A 
ATOM      3  C   UNL     1       9.350  14.049 -16.139  1.00  0.00     0.197 A 
ATOM      4  O   UNL     1       9.865  14.494 -15.078  1.00  0.00    -0.289 OA
ATOM      5  C   UNL     1       8.747  12.772 -16.189  1.00  0.00     0.115 A 
ATOM      6  C   UNL     1       8.206  12.353 -17.423  1.00  0.00     0.188 A 
ATOM      7  O   UNL     1       8.272  13.148 -18.489  1.00  0.00    -0.452 OA
ATOM      8  C   UNL     1       7.583  11.106 -17.552  1.00  0.00     0.209 A 
ATOM      9  C   UNL     1       7.518  10.231 -16.437  1.00  0.00     0.211 A 
ATOM     10  C   UNL     1       8.111  10.627 -15.212  1.00  0.00     0.208 A 
ATOM     11  C   UNL     1       8.656  11.921 -15.067  1.00  0.00     0.179 A 
ENDROOT
BRANCH   1  12
ATOM     12  C   UNL     1       8.840  15.149 -19.731  1.00  0.00     0.018 A 
ATOM     13  C   UNL     1       8.839  16.603 -22.154  1.00  0.00     0.118 A 
ATOM     14  C   UNL     1       8.888  15.206 -22.165  1.00  0.00     0.047 A 
ATOM     15  C   UNL     1       8.780  17.277 -20.919  1.00  0.00     0.047 A 
ATOM     16  C   UNL     1       8.885  14.484 -20.968  1.00  0.00     0.016 A 
ATOM     17  C   UNL     1       8.775  16.556 -19.721  1.00  0.00     0.016 A 
BRANCH  13  18
ATOM     18  O   UNL     1       8.847  17.281 -23.381  1.00  0.00    -0.497 OA
ATOM     19  C   UNL     1       9.655  16.915 -24.496  1.00  0.00     0.278 C 
ENDBRANCH  13  18
ENDBRANCH   1  12
BRANCH   8  20
ATOM     20  O   UNL     1       7.048  10.803 -18.821  1.00  0.00    -0.490 OA
ATOM     21  C   UNL     1       6.891  11.694 -19.920  1.00  0.00     0.278 C 
ENDBRANCH   8  20
BRANCH  11  22
ATOM     22  O   UNL     1       9.107  12.377 -13.819  1.00  0.00    -0.492 OA
ATOM     23  C   UNL     1       8.312  12.333 -12.637  1.00  0.00     0.278 C 
ENDBRANCH  11  22
BRANCH   9  24
ATOM     24  O   UNL     1       6.875   8.989 -16.596  1.00  0.00    -0.490 OA
ATOM     25  C   UNL     1       7.249   7.938 -17.482  1.00  0.00     0.279 C 
ENDBRANCH   9  24
BRANCH  10  26
ATOM     26  O   UNL     1       8.197   9.723 -14.152  1.00  0.00    -0.490 OA
ATOM     27  C   UNL     1       9.107   8.629 -14.170  1.00  0.00     0.278 C 
ENDBRANCH  10  26
TORSDOF 6
ENDMDL
MODEL 6
REMARK VINA RESULT:    -4.807      2.613      4.998
REMARK INTER + INTRA:          -7.022
REMARK INTER:                  -6.959
REMARK INTRA:                  -0.063
REMARK UNBOUND:                -0.529
REMARK SMILES COc1ccc(-c2cc(=O)c3c(OC)c(OC)c(OC)c(OC)c3o2)cc1
REMARK SMILES IDX 7 1 8 2 9 3 10 4 11 5 24 6 25 7 21 8 18 9 15 10 12 11 6 12
REMARK SMILES IDX 3 13 4 14 27 15 5 16 26 17 2 18 1 19 22 20 23 21 13 22 14 23
REMARK SMILES IDX 19 24 20 25 16 26 17 27
REMARK H PARENT
REMARK Flexibility Score: inf
ROOT
ATOM      1  C   UNL     1       8.368  13.782 -16.090  1.00  0.00     0.138 A 
ATOM      2  C   UNL     1       9.060  13.540 -17.285  1.00  0.00     0.100 A 
ATOM      3  C   UNL     1       9.264  14.589 -18.181  1.00  0.00     0.197 A 
ATOM      4  O   UNL     1       9.891  14.359 -19.250  1.00  0.00    -0.289 OA
ATOM      5  C   UNL     1       8.780  15.879 -17.871  1.00  0.00     0.115 A 
ATOM      6  C   UNL     1       8.099  16.045 -16.646  1.00  0.00     0.188 A 
ATOM      7  O   UNL     1       7.930  15.010 -15.827  1.00  0.00    -0.452 OA
ATOM      8  C   UNL     1       7.580  17.290 -16.272  1.00  0.00     0.209 A 
ATOM      9  C   UNL     1       7.765  18.415 -17.116  1.00  0.00     0.211 A 
ATOM     10  C   UNL     1       8.498  18.262 -18.320  1.00  0.00     0.208 A 
ATOM     11  C   UNL     1       8.939  16.986 -18.732  1.00  0.00     0.179 A 
ENDROOT
BRANCH   1  12
ATOM     12  C   UNL     1       8.118  12.708 -15.095  1.00  0.00     0.018 A 
ATOM     13  C   UNL     1       7.640  10.617 -13.254  1.00  0.00     0.118 A 
ATOM     14  C   UNL     1       7.234  10.496 -14.587  1.00  0.00     0.047 A 
ATOM     15  C   UNL     1       8.299  11.791 -12.843  1.00  0.00     0.047 A 
ATOM     16  C   UNL     1       7.473  11.526 -15.500  1.00  0.00     0.016 A 
ATOM     17  C   UNL     1       8.540  12.823 -13.757  1.00  0.00     0.016 A 
BRANCH  13  18
ATOM     18  O   UNL     1       7.376   9.556 -12.377  1.00  0.00    -0.497 OA
ATOM     19  C   UNL     1       7.436   8.180 -12.740  1.00  0.00     0.278 C 
ENDBRANCH  13  18
ENDBRANCH   1  12
BRANCH   8  20
ATOM     20  O   UNL     1       6.889  17.335 -15.044  1.00  0.00    -0.490 OA
ATOM     21  C   UNL     1       7.091  18.260 -13.981  1.00  0.00     0.278 C 
ENDBRANCH   8  20
BRANCH  11  22
ATOM     22  O   UNL     1       9.529  16.800 -19.991  1.00  0.00    -0.492 OA
ATOM     23  C   UNL     1       8.790  16.800 -21.209  1.00  0.00     0.278 C 
ENDBRANCH  11  22
BRANCH   9  24
ATOM     24  O   UNL     1       7.222  19.651 -16.717  1.00  0.00    -0.490 OA
ATOM     25  C   UNL     1       7.887  20.687 -16.002  1.00  0.00     0.279 C 
ENDBRANCH   9  24
BRANCH  10  26
ATOM     26  O   UNL     1       8.826  19.383 -19.086  1.00  0.00    -0.490 OA
ATOM     27  C   UNL     1       9.903  20.244 -18.735  1.00  0.00     0.278 C 
ENDBRANCH  10  26
TORSDOF 6
ENDMDL
MODEL 7
REMARK VINA RESULT:    -4.780      2.329      4.179
REMARK INTER + INTRA:          -6.985
REMARK INTER:                  -6.474
REMARK INTRA:                  -0.511
REMARK UNBOUND:                -0.529
REMARK SMILES COc1ccc(-c2cc(=O)c3c(OC)c(OC)c(OC)c(OC)c3o2)cc1
REMARK SMILES IDX 7 1 8 2 9 3 10 4 11 5 24 6 25 7 21 8 18 9 15 10 12 11 6 12
REMARK SMILES IDX 3 13 4 14 27 15 5 16 26 17 2 18 1 19 22 20 23 21 13 22 14 23
REMARK SMILES IDX 19 24 20 25 16 26 17 27
REMARK H PARENT
REMARK Flexibility Score: inf
ROOT
ATOM      1  C   UNL     1       8.249  12.053 -16.200  1.00  0.00     0.138 A 
ATOM      2  C   UNL     1       8.567  11.431 -17.416  1.00  0.00     0.100 A 
ATOM      3  C   UNL     1       8.870  12.216 -18.527  1.00  0.00     0.197 A 
ATOM      4  O   UNL     1       9.158  11.644 -19.613  1.00  0.00    -0.289 OA
ATOM      5  C   UNL     1       8.860  13.624 -18.414  1.00  0.00     0.115 A 
ATOM      6  C   UNL     1       8.536  14.176 -17.156  1.00  0.00     0.188 A 
ATOM      7  O   UNL     1       8.253  13.381 -16.126  1.00  0.00    -0.452 OA
ATOM      8  C   UNL     1       8.493  15.562 -16.965  1.00  0.00     0.209 A 
ATOM      9  C   UNL     1       8.811  16.433 -18.039  1.00  0.00     0.211 A 
ATOM     10  C   UNL     1       9.192  15.879 -19.288  1.00  0.00     0.208 A 
ATOM     11  C   UNL     1       9.144  14.484 -19.496  1.00  0.00     0.179 A 
ENDROOT
BRANCH   1  12
ATOM     12  C   UNL     1       7.918  11.272 -14.981  1.00  0.00     0.018 A 
ATOM     13  C   UNL     1       7.272   9.846 -12.628  1.00  0.00     0.118 A 
ATOM     14  C   UNL     1       7.638  11.194 -12.563  1.00  0.00     0.047 A 
ATOM     15  C   UNL     1       7.219   9.211 -13.883  1.00  0.00     0.047 A 
ATOM     16  C   UNL     1       7.954  11.903 -13.725  1.00  0.00     0.016 A 
ATOM     17  C   UNL     1       7.534   9.919 -15.047  1.00  0.00     0.016 A 
BRANCH  13  18
ATOM     18  O   UNL     1       6.965   9.179 -11.433  1.00  0.00    -0.497 OA
ATOM     19  C   UNL     1       6.889   7.763 -11.301  1.00  0.00     0.278 C 
ENDBRANCH  13  18
ENDBRANCH   1  12
BRANCH   8  20
ATOM     20  O   UNL     1       8.126  16.005 -15.678  1.00  0.00    -0.490 OA
ATOM     21  C   UNL     1       6.875  16.560 -15.287  1.00  0.00     0.278 C 
ENDBRANCH   8  20
BRANCH  11  22
ATOM     22  O   UNL     1       9.370  13.937 -20.768  1.00  0.00    -0.492 OA
ATOM     23  C   UNL     1       8.373  13.884 -21.785  1.00  0.00     0.278 C 
ENDBRANCH  11  22
BRANCH   9  24
ATOM     24  O   UNL     1       8.749  17.821 -17.819  1.00  0.00    -0.490 OA
ATOM     25  C   UNL     1       7.655  18.686 -18.109  1.00  0.00     0.279 C 
ENDBRANCH   9  24
BRANCH  10  26
ATOM     26  O   UNL     1       9.658  16.710 -20.308  1.00  0.00    -0.490 OA
ATOM     27  C   UNL     1       8.788  17.242 -21.300  1.00  0.00     0.278 C 
ENDBRANCH  10  26
TORSDOF 6
ENDMDL
MODEL 8
REMARK VINA RESULT:    -4.772      2.514      7.777
REMARK INTER + INTRA:          -6.976
REMARK INTER:                  -6.656
REMARK INTRA:                  -0.319
REMARK UNBOUND:                -0.529
REMARK SMILES COc1ccc(-c2cc(=O)c3c(OC)c(OC)c(OC)c(OC)c3o2)cc1
REMARK SMILES IDX 7 1 8 2 9 3 10 4 11 5 24 6 25 7 21 8 18 9 15 10 12 11 6 12
REMARK SMILES IDX 3 13 4 14 27 15 5 16 26 17 2 18 1 19 22 20 23 21 13 22 14 23
REMARK SMILES IDX 19 24 20 25 16 26 17 27
REMARK H PARENT
REMARK Flexibility Score: inf
ROOT
ATOM      1  C   UNL     1       8.283  14.641 -16.610  1.00  0.00     0.138 A 
ATOM      2  C   UNL     1       7.573  14.374 -15.430  1.00  0.00     0.100 A 
ATOM      3  C   UNL     1       7.521  13.067 -14.945  1.00  0.00     0.197 A 
ATOM      4  O   UNL     1       6.883  12.841 -13.882  1.00  0.00    -0.289 OA
ATOM      5  C   UNL     1       8.187  12.035 -15.641  1.00  0.00     0.115 A 
ATOM      6  C   UNL     1       8.886  12.384 -16.817  1.00  0.00     0.188 A 
ATOM      7  O   UNL     1       8.903  13.646 -17.237  1.00  0.00    -0.452 OA
ATOM      8  C   UNL     1       9.562  11.415 -17.568  1.00  0.00     0.209 A 
ATOM      9  C   UNL     1       9.578  10.066 -17.131  1.00  0.00     0.211 A 
ATOM     10  C   UNL     1       8.925   9.724 -15.920  1.00  0.00     0.208 A 
ATOM     11  C   UNL     1       8.170  10.689 -15.218  1.00  0.00     0.179 A 
ENDROOT
BRANCH   1  12
ATOM     12  C   UNL     1       8.376  16.010 -17.177  1.00  0.00     0.018 A 
ATOM     13  C   UNL     1       8.526  18.641 -18.199  1.00  0.00     0.118 A 
ATOM     14  C   UNL     1       7.596  18.317 -17.207  1.00  0.00     0.047 A 
ATOM     15  C   UNL     1       9.395  17.642 -18.675  1.00  0.00     0.047 A 
ATOM     16  C   UNL     1       7.522  17.018 -16.697  1.00  0.00     0.016 A 
ATOM     17  C   UNL     1       9.323  16.341 -18.165  1.00  0.00     0.016 A 
BRANCH  13  18
ATOM     18  O   UNL     1       8.559  19.958 -18.678  1.00  0.00    -0.497 OA
ATOM     19  C   UNL     1       9.350  21.000 -18.113  1.00  0.00     0.278 C 
ENDBRANCH  13  18
ENDBRANCH   1  12
BRANCH   8  20
ATOM     20  O   UNL     1      10.199  11.868 -18.742  1.00  0.00    -0.490 OA
ATOM     21  C   UNL     1       9.596  12.092 -20.012  1.00  0.00     0.278 C 
ENDBRANCH   8  20
BRANCH  11  22
ATOM     22  O   UNL     1       7.396  10.327 -14.106  1.00  0.00    -0.492 OA
ATOM     23  C   UNL     1       7.940  10.147 -12.801  1.00  0.00     0.278 C 
ENDBRANCH  11  22
BRANCH   9  24
ATOM     24  O   UNL     1      10.258   9.114 -17.915  1.00  0.00    -0.490 OA
ATOM     25  C   UNL     1      11.667   8.936 -18.014  1.00  0.00     0.279 C 
ENDBRANCH   9  24
BRANCH  10  26
ATOM     26  O   UNL     1       9.059   8.438 -15.392  1.00  0.00    -0.490 OA
ATOM     27  C   UNL     1      10.136   8.089 -14.530  1.00  0.00     0.278 C 
ENDBRANCH  10  26
TORSDOF 6
ENDMDL
MODEL 9
REMARK VINA RESULT:    -4.749      2.365      8.229
REMARK INTER + INTRA:          -6.944
REMARK INTER:                  -6.748
REMARK INTRA:                  -0.196
REMARK UNBOUND:                -0.529
REMARK SMILES COc1ccc(-c2cc(=O)c3c(OC)c(OC)c(OC)c(OC)c3o2)cc1
REMARK SMILES IDX 7 1 8 2 9 3 10 4 11 5 24 6 25 7 21 8 18 9 15 10 12 11 6 12
REMARK SMILES IDX 3 13 4 14 27 15 5 16 26 17 2 18 1 19 22 20 23 21 13 22 14 23
REMARK SMILES IDX 19 24 20 25 16 26 17 27
REMARK H PARENT
REMARK Flexibility Score: inf
ROOT
ATOM      1  C   UNL     1       9.127  14.232 -17.861  1.00  0.00     0.138 A 
ATOM      2  C   UNL     1       9.616  13.387 -18.868  1.00  0.00     0.100 A 
ATOM      3  C   UNL     1       9.785  12.030 -18.600  1.00  0.00     0.197 A 
ATOM      4  O   UNL     1      10.222  11.281 -19.515  1.00  0.00    -0.289 OA
ATOM      5  C   UNL     1       9.457  11.522 -17.323  1.00  0.00     0.115 A 
ATOM      6  C   UNL     1       8.965  12.433 -16.364  1.00  0.00     0.188 A 
ATOM      7  O   UNL     1       8.823  13.720 -16.672  1.00  0.00    -0.452 OA
ATOM      8  C   UNL     1       8.628  12.009 -15.073  1.00  0.00     0.209 A 
ATOM      9  C   UNL     1       8.749  10.640 -14.725  1.00  0.00     0.211 A 
ATOM     10  C   UNL     1       9.189   9.714 -15.705  1.00  0.00     0.208 A 
ATOM     11  C   UNL     1       9.613  10.164 -16.974  1.00  0.00     0.179 A 
ENDROOT
BRANCH   1  12
ATOM     12  C   UNL     1       8.924  15.686 -18.085  1.00  0.00     0.018 A 
ATOM     13  C   UNL     1       8.512  18.458 -18.446  1.00  0.00     0.118 A 
ATOM     14  C   UNL     1       7.775  17.750 -17.491  1.00  0.00     0.047 A 
ATOM     15  C   UNL     1       9.469  17.774 -19.218  1.00  0.00     0.047 A 
ATOM     16  C   UNL     1       7.979  16.379 -17.308  1.00  0.00     0.016 A 
ATOM     17  C   UNL     1       9.675  16.403 -19.035  1.00  0.00     0.016 A 
BRANCH  13  18
ATOM     18  O   UNL     1       8.268  19.831 -18.592  1.00  0.00    -0.497 OA
ATOM     19  C   UNL     1       9.169  20.856 -18.181  1.00  0.00     0.278 C 
ENDBRANCH  13  18
ENDBRANCH   1  12
BRANCH   8  20
ATOM     20  O   UNL     1       8.178  13.008 -14.186  1.00  0.00    -0.490 OA
ATOM     21  C   UNL     1       6.877  13.583 -14.131  1.00  0.00     0.278 C 
ENDBRANCH   8  20
BRANCH  11  22
ATOM     22  O   UNL     1      10.193   9.279 -17.895  1.00  0.00    -0.492 OA
ATOM     23  C   UNL     1      11.579   8.947 -17.895  1.00  0.00     0.278 C 
ENDBRANCH  11  22
BRANCH   9  24
ATOM     24  O   UNL     1       8.412  10.247 -13.416  1.00  0.00    -0.490 OA
ATOM     25  C   UNL     1       7.106   9.999 -12.906  1.00  0.00     0.279 C 
ENDBRANCH   9  24
BRANCH  10  26
ATOM     26  O   UNL     1       9.167   8.344 -15.433  1.00  0.00    -0.490 OA
ATOM     27  C   UNL     1       9.840   7.791 -14.308  1.00  0.00     0.278 C 
ENDBRANCH  10  26
TORSDOF 6
ENDMDL
