MODEL 1
REMARK VINA RESULT:    -4.794      0.000      0.000
REMARK INTER + INTRA:          -6.096
REMARK INTER:                  -5.775
REMARK INTRA:                  -0.321
REMARK UNBOUND:                -0.321
REMARK SMILES O=c1c(O)c(-c2ccc(O)c(O)c2)oc2cc(O)cc(O)c12
REMARK SMILES IDX 5 1 3 2 2 3 1 4 22 5 20 6 19 7 17 8 16 9 15 10 14 11 6 12
REMARK SMILES IDX 7 13 8 14 9 15 13 16 11 17 10 18 12 20 4 22 21 24 18 26
REMARK H PARENT 10 19 12 21 4 23 21 25 18 27
REMARK Flexibility Score: inf
ROOT
ATOM      1  C   UNL     1       5.361  12.085   8.048  1.00  0.00     0.180 A 
ATOM      2  C   UNL     1       6.488  12.548   8.755  1.00  0.00     0.208 A 
ATOM      3  C   UNL     1       7.697  12.720   8.063  1.00  0.00     0.238 A 
ATOM      4  O   UNL     1       8.716  13.125   8.686  1.00  0.00    -0.285 OA
ATOM      5  C   UNL     1       7.755  12.448   6.681  1.00  0.00     0.111 A 
ATOM      6  C   UNL     1       8.933  12.598   5.911  1.00  0.00     0.134 A 
ATOM      7  C   UNL     1       8.908  12.315   4.536  1.00  0.00     0.093 A 
ATOM      8  C   UNL     1       7.731  11.884   3.921  1.00  0.00     0.123 A 
ATOM      9  C   UNL     1       6.564  11.733   4.676  1.00  0.00     0.094 A 
ATOM     10  C   UNL     1       6.569  12.008   6.046  1.00  0.00     0.146 A 
ATOM     11  O   UNL     1       5.449  11.851   6.742  1.00  0.00    -0.452 OA
ENDROOT
BRANCH   1  12
ATOM     12  C   UNL     1       4.055  11.860   8.711  1.00  0.00     0.025 A 
ATOM     13  C   UNL     1       3.129  12.901   8.875  1.00  0.00     0.016 A 
ATOM     14  C   UNL     1       1.915  12.669   9.525  1.00  0.00     0.051 A 
ATOM     15  C   UNL     1       1.608  11.403  10.035  1.00  0.00     0.157 A 
ATOM     16  C   UNL     1       3.760  10.594   9.241  1.00  0.00     0.062 A 
ATOM     17  C   UNL     1       2.544  10.352   9.894  1.00  0.00     0.158 A 
BRANCH  15  18
ATOM     18  O   UNL     1       0.375  11.237  10.670  1.00  0.00    -0.504 OA
ATOM     19  H   UNL     1      -0.065  11.943  11.240  1.00  0.00     0.293 HD
ENDBRANCH  15  18
BRANCH  17  20
ATOM     20  O   UNL     1       2.313   9.066  10.386  1.00  0.00    -0.504 OA
ATOM     21  H   UNL     1       1.753   8.865  11.202  1.00  0.00     0.293 HD
ENDBRANCH  17  20
ENDBRANCH   1  12
BRANCH   2  22
ATOM     22  O   UNL     1       6.392  12.859  10.113  1.00  0.00    -0.502 OA
ATOM     23  H   UNL     1       6.849  12.309  10.829  1.00  0.00     0.293 HD
ENDBRANCH   2  22
BRANCH   6  24
ATOM     24  O   UNL     1      10.125  13.028   6.497  1.00  0.00    -0.507 OA
ATOM     25  H   UNL     1      10.170  13.308   7.469  1.00  0.00     0.293 HD
ENDBRANCH   6  24
BRANCH   8  26
ATOM     26  O   UNL     1       7.732  11.610   2.554  1.00  0.00    -0.508 OA
ATOM     27  H   UNL     1       8.591  11.403   2.057  1.00  0.00     0.293 HD
ENDBRANCH   8  26
TORSDOF 6
ENDMDL
MODEL 2
REMARK VINA RESULT:    -4.107      1.409      7.061
REMARK INTER + INTRA:          -5.268
REMARK INTER:                  -4.960
REMARK INTRA:                  -0.308
REMARK UNBOUND:                -0.321
REMARK SMILES O=c1c(O)c(-c2ccc(O)c(O)c2)oc2cc(O)cc(O)c12
REMARK SMILES IDX 5 1 3 2 2 3 1 4 22 5 20 6 19 7 17 8 16 9 15 10 14 11 6 12
REMARK SMILES IDX 7 13 8 14 9 15 13 16 11 17 10 18 12 20 4 22 21 24 18 26
REMARK H PARENT 10 19 12 21 4 23 21 25 18 27
REMARK Flexibility Score: inf
ROOT
ATOM      1  C   UNL     1       5.198  11.174   7.259  1.00  0.00     0.180 A 
ATOM      2  C   UNL     1       5.254   9.848   7.733  1.00  0.00     0.208 A 
ATOM      3  C   UNL     1       4.304   9.425   8.675  1.00  0.00     0.238 A 
ATOM      4  O   UNL     1       4.350   8.243   9.115  1.00  0.00    -0.285 OA
ATOM      5  C   UNL     1       3.307  10.321   9.111  1.00  0.00     0.111 A 
ATOM      6  C   UNL     1       2.312   9.972  10.055  1.00  0.00     0.134 A 
ATOM      7  C   UNL     1       1.347  10.919  10.432  1.00  0.00     0.093 A 
ATOM      8  C   UNL     1       1.359  12.204   9.885  1.00  0.00     0.123 A 
ATOM      9  C   UNL     1       2.341  12.554   8.953  1.00  0.00     0.094 A 
ATOM     10  C   UNL     1       3.311  11.626   8.565  1.00  0.00     0.146 A 
ATOM     11  O   UNL     1       4.235  11.987   7.682  1.00  0.00    -0.452 OA
ENDROOT
BRANCH   1  12
ATOM     12  C   UNL     1       6.176  11.700   6.279  1.00  0.00     0.025 A 
ATOM     13  C   UNL     1       5.898  11.715   4.904  1.00  0.00     0.016 A 
ATOM     14  C   UNL     1       6.847  12.195   3.998  1.00  0.00     0.051 A 
ATOM     15  C   UNL     1       8.091  12.654   4.442  1.00  0.00     0.157 A 
ATOM     16  C   UNL     1       7.432  12.140   6.726  1.00  0.00     0.062 A 
ATOM     17  C   UNL     1       8.390  12.623   5.825  1.00  0.00     0.158 A 
BRANCH  15  18
ATOM     18  O   UNL     1       8.993  13.125   3.486  1.00  0.00    -0.504 OA
ATOM     19  H   UNL     1       9.995  13.033   3.561  1.00  0.00     0.293 HD
ENDBRANCH  15  18
BRANCH  17  20
ATOM     20  O   UNL     1       9.613  13.055   6.342  1.00  0.00    -0.504 OA
ATOM     21  H   UNL     1       9.950  12.822   7.265  1.00  0.00     0.293 HD
ENDBRANCH  17  20
ENDBRANCH   1  12
BRANCH   2  22
ATOM     22  O   UNL     1       6.222   8.965   7.248  1.00  0.00    -0.502 OA
ATOM     23  H   UNL     1       6.365   8.045   7.645  1.00  0.00     0.293 HD
ENDBRANCH   2  22
BRANCH   6  24
ATOM     24  O   UNL     1       2.272   8.696  10.619  1.00  0.00    -0.507 OA
ATOM     25  H   UNL     1       2.627   7.884  10.127  1.00  0.00     0.293 HD
ENDBRANCH   6  24
BRANCH   8  26
ATOM     26  O   UNL     1       0.389  13.125  10.276  1.00  0.00    -0.508 OA
ATOM     27  H   UNL     1      -0.561  13.071   9.929  1.00  0.00     0.293 HD
ENDBRANCH   8  26
TORSDOF 6
ENDMDL
MODEL 3
REMARK VINA RESULT:    -3.002      1.493      3.272
REMARK INTER + INTRA:          -3.938
REMARK INTER:                  -3.953
REMARK INTRA:                   0.015
REMARK UNBOUND:                -0.321
REMARK SMILES O=c1c(O)c(-c2ccc(O)c(O)c2)oc2cc(O)cc(O)c12
REMARK SMILES IDX 5 1 3 2 2 3 1 4 22 5 20 6 19 7 17 8 16 9 15 10 14 11 6 12
REMARK SMILES IDX 7 13 8 14 9 15 13 16 11 17 10 18 12 20 4 22 21 24 18 26
REMARK H PARENT 10 19 12 21 4 23 21 25 18 27
REMARK Flexibility Score: inf
ROOT
ATOM      1  C   UNL     1       4.457  11.145   7.421  1.00  0.00     0.180 A 
ATOM      2  C   UNL     1       4.311  10.837   6.054  1.00  0.00     0.208 A 
ATOM      3  C   UNL     1       5.389  11.076   5.187  1.00  0.00     0.238 A 
ATOM      4  O   UNL     1       5.267  10.814   3.959  1.00  0.00    -0.285 OA
ATOM      5  C   UNL     1       6.595  11.596   5.700  1.00  0.00     0.111 A 
ATOM      6  C   UNL     1       7.729  11.861   4.894  1.00  0.00     0.134 A 
ATOM      7  C   UNL     1       8.897  12.370   5.482  1.00  0.00     0.093 A 
ATOM      8  C   UNL     1       8.952  12.619   6.855  1.00  0.00     0.123 A 
ATOM      9  C   UNL     1       7.836  12.360   7.656  1.00  0.00     0.094 A 
ATOM     10  C   UNL     1       6.662  11.854   7.090  1.00  0.00     0.146 A 
ATOM     11  O   UNL     1       5.614  11.622   7.872  1.00  0.00    -0.452 OA
ENDROOT
BRANCH   1  12
ATOM     12  C   UNL     1       3.360  10.940   8.395  1.00  0.00     0.025 A 
ATOM     13  C   UNL     1       3.555  10.199   9.570  1.00  0.00     0.016 A 
ATOM     14  C   UNL     1       2.497  10.000  10.461  1.00  0.00     0.051 A 
ATOM     15  C   UNL     1       1.228  10.521  10.191  1.00  0.00     0.157 A 
ATOM     16  C   UNL     1       2.082  11.447   8.111  1.00  0.00     0.062 A 
ATOM     17  C   UNL     1       1.016  11.252   8.998  1.00  0.00     0.158 A 
BRANCH  15  18
ATOM     18  O   UNL     1       0.215  10.290  11.125  1.00  0.00    -0.504 OA
ATOM     19  H   UNL     1      -0.737  10.063  10.879  1.00  0.00     0.293 HD
ENDBRANCH  15  18
BRANCH  17  20
ATOM     20  O   UNL     1      -0.224  11.794   8.656  1.00  0.00    -0.504 OA
ATOM     21  H   UNL     1      -0.639  12.591   9.118  1.00  0.00     0.293 HD
ENDBRANCH  17  20
ENDBRANCH   1  12
BRANCH   2  22
ATOM     22  O   UNL     1       3.123  10.277   5.579  1.00  0.00    -0.502 OA
ATOM     23  H   UNL     1       2.451   9.832   6.191  1.00  0.00     0.293 HD
ENDBRANCH   2  22
BRANCH   6  24
ATOM     24  O   UNL     1       7.705  11.622   3.519  1.00  0.00    -0.507 OA
ATOM     25  H   UNL     1       7.140  12.181   2.891  1.00  0.00     0.293 HD
ENDBRANCH   6  24
BRANCH   8  26
ATOM     26  O   UNL     1      10.125  13.124   7.414  1.00  0.00    -0.508 OA
ATOM     27  H   UNL     1      11.015  12.655   7.290  1.00  0.00     0.293 HD
ENDBRANCH   8  26
TORSDOF 6
ENDMDL
MODEL 4
REMARK VINA RESULT:    -2.534      1.682      1.687
REMARK INTER + INTRA:          -3.374
REMARK INTER:                  -3.083
REMARK INTRA:                  -0.291
REMARK UNBOUND:                -0.321
REMARK SMILES O=c1c(O)c(-c2ccc(O)c(O)c2)oc2cc(O)cc(O)c12
REMARK SMILES IDX 5 1 3 2 2 3 1 4 22 5 20 6 19 7 17 8 16 9 15 10 14 11 6 12
REMARK SMILES IDX 7 13 8 14 9 15 13 16 11 17 10 18 12 20 4 22 21 24 18 26
REMARK H PARENT 10 19 12 21 4 23 21 25 18 27
REMARK Flexibility Score: inf
ROOT
ATOM      1  C   UNL     1       5.388  11.722   7.517  1.00  0.00     0.180 A 
ATOM      2  C   UNL     1       6.383  10.979   8.182  1.00  0.00     0.208 A 
ATOM      3  C   UNL     1       7.619  10.782   7.548  1.00  0.00     0.238 A 
ATOM      4  O   UNL     1       8.514  10.109   8.129  1.00  0.00    -0.285 OA
ATOM      5  C   UNL     1       7.849  11.345   6.276  1.00  0.00     0.111 A 
ATOM      6  C   UNL     1       9.067  11.196   5.572  1.00  0.00     0.134 A 
ATOM      7  C   UNL     1       9.221  11.795   4.312  1.00  0.00     0.093 A 
ATOM      8  C   UNL     1       8.183  12.538   3.746  1.00  0.00     0.123 A 
ATOM      9  C   UNL     1       6.976  12.687   4.437  1.00  0.00     0.094 A 
ATOM     10  C   UNL     1       6.803  12.097   5.691  1.00  0.00     0.146 A 
ATOM     11  O   UNL     1       5.645  12.250   6.324  1.00  0.00    -0.452 OA
ENDROOT
BRANCH   1  12
ATOM     12  C   UNL     1       4.052  11.957   8.112  1.00  0.00     0.025 A 
ATOM     13  C   UNL     1       3.851  12.939   9.093  1.00  0.00     0.016 A 
ATOM     14  C   UNL     1       2.586  13.125   9.655  1.00  0.00     0.051 A 
ATOM     15  C   UNL     1       1.505  12.329   9.263  1.00  0.00     0.157 A 
ATOM     16  C   UNL     1       2.975  11.142   7.731  1.00  0.00     0.062 A 
ATOM     17  C   UNL     1       1.703  11.321   8.290  1.00  0.00     0.158 A 
BRANCH  15  18
ATOM     18  O   UNL     1       0.266  12.569   9.861  1.00  0.00    -0.504 OA
ATOM     19  H   UNL     1      -0.145  13.485   9.957  1.00  0.00     0.293 HD
ENDBRANCH  15  18
BRANCH  17  20
ATOM     20  O   UNL     1       0.675  10.481   7.855  1.00  0.00    -0.504 OA
ATOM     21  H   UNL     1       0.622  10.088   6.926  1.00  0.00     0.293 HD
ENDBRANCH  17  20
ENDBRANCH   1  12
BRANCH   2  22
ATOM     22  O   UNL     1       6.148  10.473   9.463  1.00  0.00    -0.502 OA
ATOM     23  H   UNL     1       5.537  10.935  10.125  1.00  0.00     0.293 HD
ENDBRANCH   2  22
BRANCH   6  24
ATOM     24  O   UNL     1      10.125  10.462   6.112  1.00  0.00    -0.507 OA
ATOM     25  H   UNL     1      10.760   9.932   5.526  1.00  0.00     0.293 HD
ENDBRANCH   6  24
BRANCH   8  26
ATOM     26  O   UNL     1       8.362  13.123   2.494  1.00  0.00    -0.508 OA
ATOM     27  H   UNL     1       7.661  13.735   2.091  1.00  0.00     0.293 HD
ENDBRANCH   8  26
TORSDOF 6
ENDMDL
MODEL 5
REMARK VINA RESULT:    -1.979      1.505      7.102
REMARK INTER + INTRA:          -2.705
REMARK INTER:                  -2.372
REMARK INTRA:                  -0.333
REMARK UNBOUND:                -0.321
REMARK SMILES O=c1c(O)c(-c2ccc(O)c(O)c2)oc2cc(O)cc(O)c12
REMARK SMILES IDX 5 1 3 2 2 3 1 4 22 5 20 6 19 7 17 8 16 9 15 10 14 11 6 12
REMARK SMILES IDX 7 13 8 14 9 15 13 16 11 17 10 18 12 20 4 22 21 24 18 26
REMARK H PARENT 10 19 12 21 4 23 21 25 18 27
REMARK Flexibility Score: inf
ROOT
ATOM      1  C   UNL     1       5.428  11.026   7.762  1.00  0.00     0.180 A 
ATOM      2  C   UNL     1       5.314   9.661   8.093  1.00  0.00     0.208 A 
ATOM      3  C   UNL     1       4.220   9.241   8.866  1.00  0.00     0.238 A 
ATOM      4  O   UNL     1       4.112   8.024   9.179  1.00  0.00    -0.285 OA
ATOM      5  C   UNL     1       3.253  10.182   9.276  1.00  0.00     0.111 A 
ATOM      6  C   UNL     1       2.120   9.839  10.053  1.00  0.00     0.134 A 
ATOM      7  C   UNL     1       1.197  10.833  10.413  1.00  0.00     0.093 A 
ATOM      8  C   UNL     1       1.384  12.157  10.012  1.00  0.00     0.123 A 
ATOM      9  C   UNL     1       2.502  12.501   9.245  1.00  0.00     0.094 A 
ATOM     10  C   UNL     1       3.434  11.527   8.878  1.00  0.00     0.146 A 
ATOM     11  O   UNL     1       4.489  11.882   8.154  1.00  0.00    -0.452 OA
ENDROOT
BRANCH   1  12
ATOM     12  C   UNL     1       6.562  11.549   6.966  1.00  0.00     0.025 A 
ATOM     13  C   UNL     1       7.745  11.987   7.581  1.00  0.00     0.016 A 
ATOM     14  C   UNL     1       8.792  12.499   6.810  1.00  0.00     0.051 A 
ATOM     15  C   UNL     1       8.674  12.598   5.420  1.00  0.00     0.157 A 
ATOM     16  C   UNL     1       6.433  11.666   5.574  1.00  0.00     0.062 A 
ATOM     17  C   UNL     1       7.477  12.178   4.793  1.00  0.00     0.158 A 
BRANCH  15  18
ATOM     18  O   UNL     1       9.759  13.114   4.708  1.00  0.00    -0.504 OA
ATOM     19  H   UNL     1       9.726  13.358   3.729  1.00  0.00     0.293 HD
ENDBRANCH  15  18
BRANCH  17  20
ATOM     20  O   UNL     1       7.283  12.255   3.412  1.00  0.00    -0.504 OA
ATOM     21  H   UNL     1       6.607  12.861   2.970  1.00  0.00     0.293 HD
ENDBRANCH  17  20
ENDBRANCH   1  12
BRANCH   2  22
ATOM     22  O   UNL     1       6.259   8.741   7.634  1.00  0.00    -0.502 OA
ATOM     23  H   UNL     1       6.387   8.541   6.650  1.00  0.00     0.293 HD
ENDBRANCH   2  22
BRANCH   6  24
ATOM     24  O   UNL     1       1.904   8.524  10.468  1.00  0.00    -0.507 OA
ATOM     25  H   UNL     1       2.657   7.947  10.825  1.00  0.00     0.293 HD
ENDBRANCH   6  24
BRANCH   8  26
ATOM     26  O   UNL     1       0.452  13.125  10.383  1.00  0.00    -0.508 OA
ATOM     27  H   UNL     1       0.024  13.737   9.698  1.00  0.00     0.293 HD
ENDBRANCH   8  26
TORSDOF 6
ENDMDL
