MODEL 1
REMARK VINA RESULT:    -6.496      0.000      0.000
REMARK INTER + INTRA:         -11.174
REMARK INTER:                 -10.104
REMARK INTRA:                  -1.070
REMARK UNBOUND:                -1.070
REMARK SMILES C[C@@]12C[C@@]3(O)O[C@@H](O1)[C@]1(COC(=O)c4ccccc4)[C@H]3C[C@@]12O[C@@H]1O[C@H](CO)[C@@H](O)[C@H](O)[C@H]1O
REMARK SMILES IDX 1 1 2 2 3 3 4 4 20 5 21 6 22 7 9 8 7 9 8 10 6 11 23 12 24 13
REMARK SMILES IDX 33 14 25 15 31 16 26 17 29 18 34 19 32 21 27 23 28 24 30 26
REMARK SMILES IDX 5 28 10 30 11 31 12 32 13 33 14 34 15 35 19 36 16 37 18 38
REMARK SMILES IDX 17 39
REMARK H PARENT 34 20 32 22 28 25 30 27 5 29
REMARK Flexibility Score: inf
ROOT
ATOM      1  C   UNL     1      22.268  -3.323  10.357  1.00  0.00     0.046 C 
ATOM      2  C   UNL     1      22.067  -3.426   8.846  1.00  0.00     0.104 C 
ATOM      3  C   UNL     1      23.194  -4.303   8.185  1.00  0.00     0.104 C 
ATOM      4  C   UNL     1      22.868  -4.234   6.654  1.00  0.00     0.175 C 
ATOM      5  C   UNL     1      22.642  -2.751   6.207  1.00  0.00     0.070 C 
ATOM      6  C   UNL     1      23.204  -1.730   7.206  1.00  0.00     0.050 C 
ATOM      7  C   UNL     1      21.975  -2.050   8.084  1.00  0.00     0.115 C 
ATOM      8  C   UNL     1      21.265  -2.551   6.825  1.00  0.00     0.096 C 
ATOM      9  C   UNL     1      20.727  -3.937   7.142  1.00  0.00     0.267 C 
ATOM     10  O   UNL     1      20.849  -4.081   8.549  1.00  0.00    -0.342 OA
ATOM     11  O   UNL     1      21.605  -4.849   6.503  1.00  0.00    -0.320 OA
ENDROOT
BRANCH   7  12
ATOM     12  O   UNL     1      21.279  -0.981   8.709  1.00  0.00    -0.339 OA
BRANCH  12  13
ATOM     13  C   UNL     1      22.093   0.165   8.913  1.00  0.00     0.282 C 
ATOM     14  C   UNL     1      21.461   1.406   8.252  1.00  0.00     0.202 C 
ATOM     15  O   UNL     1      22.339   0.365  10.300  1.00  0.00    -0.341 OA
ATOM     16  C   UNL     1      20.178   1.831   8.984  1.00  0.00     0.179 C 
ATOM     17  C   UNL     1      21.197   0.745  11.065  1.00  0.00     0.178 C 
ATOM     18  C   UNL     1      20.444   1.970  10.492  1.00  0.00     0.177 C 
BRANCH  14  19
ATOM     19  O   UNL     1      22.396   2.456   8.260  1.00  0.00    -0.385 OA
ATOM     20  H   UNL     1      22.423   2.825   7.338  1.00  0.00     0.211 HD
ENDBRANCH  14  19
BRANCH  16  21
ATOM     21  O   UNL     1      19.151   0.899   8.764  1.00  0.00    -0.387 OA
ATOM     22  H   UNL     1      18.401   1.146   9.367  1.00  0.00     0.211 HD
ENDBRANCH  16  21
BRANCH  17  23
ATOM     23  C   UNL     1      20.274  -0.440  11.409  1.00  0.00     0.191 C 
BRANCH  23  24
ATOM     24  O   UNL     1      18.947  -0.004  11.500  1.00  0.00    -0.394 OA
ATOM     25  H   UNL     1      18.975   0.871  11.969  1.00  0.00     0.210 HD
ENDBRANCH  23  24
ENDBRANCH  17  23
BRANCH  18  26
ATOM     26  O   UNL     1      21.208   3.125  10.735  1.00  0.00    -0.387 OA
ATOM     27  H   UNL     1      20.573   3.850  10.972  1.00  0.00     0.211 HD
ENDBRANCH  18  26
ENDBRANCH  12  13
ENDBRANCH   7  12
BRANCH   4  28
ATOM     28  O   UNL     1      23.852  -4.881   5.893  1.00  0.00    -0.365 OA
ATOM     29  H   UNL     1      23.878  -5.824   6.201  1.00  0.00     0.214 HD
ENDBRANCH   4  28
BRANCH   8  30
ATOM     30  C   UNL     1      20.349  -1.572   6.052  1.00  0.00     0.249 C 
BRANCH  30  31
ATOM     31  O   UNL     1      19.112  -2.184   5.687  1.00  0.00    -0.461 OA
BRANCH  31  32
ATOM     32  C   UNL     1      18.754  -2.509   4.370  1.00  0.00     0.338 C 
ATOM     33  O   UNL     1      19.262  -1.886   3.398  1.00  0.00    -0.246 OA
BRANCH  32  34
ATOM     34  C   UNL     1      17.769  -3.579   4.121  1.00  0.00     0.060 A 
ATOM     35  C   UNL     1      17.569  -4.072   2.820  1.00  0.00     0.015 A 
ATOM     36  C   UNL     1      17.018  -4.121   5.180  1.00  0.00     0.015 A 
ATOM     37  C   UNL     1      16.622  -5.073   2.580  1.00  0.00     0.001 A 
ATOM     38  C   UNL     1      16.074  -5.124   4.937  1.00  0.00     0.001 A 
ATOM     39  C   UNL     1      15.874  -5.596   3.637  1.00  0.00     0.000 A 
ENDBRANCH  32  34
ENDBRANCH  31  32
ENDBRANCH  30  31
ENDBRANCH   8  30
TORSDOF 12
ENDMDL
MODEL 2
REMARK VINA RESULT:    -6.123      2.884      6.230
REMARK INTER + INTRA:         -10.594
REMARK INTER:                  -8.988
REMARK INTRA:                  -1.606
REMARK UNBOUND:                -1.070
REMARK SMILES C[C@@]12C[C@@]3(O)O[C@@H](O1)[C@]1(COC(=O)c4ccccc4)[C@H]3C[C@@]12O[C@@H]1O[C@H](CO)[C@@H](O)[C@H](O)[C@H]1O
REMARK SMILES IDX 1 1 2 2 3 3 4 4 20 5 21 6 22 7 9 8 7 9 8 10 6 11 23 12 24 13
REMARK SMILES IDX 33 14 25 15 31 16 26 17 29 18 34 19 32 21 27 23 28 24 30 26
REMARK SMILES IDX 5 28 10 30 11 31 12 32 13 33 14 34 15 35 19 36 16 37 18 38
REMARK SMILES IDX 17 39
REMARK H PARENT 34 20 32 22 28 25 30 27 5 29
REMARK Flexibility Score: inf
ROOT
ATOM      1  C   UNL     1      21.755   2.311   4.287  1.00  0.00     0.046 C 
ATOM      2  C   UNL     1      21.533   1.260   5.374  1.00  0.00     0.104 C 
ATOM      3  C   UNL     1      22.275   1.658   6.703  1.00  0.00     0.104 C 
ATOM      4  C   UNL     1      21.998   0.447   7.659  1.00  0.00     0.175 C 
ATOM      5  C   UNL     1      22.316  -0.905   6.938  1.00  0.00     0.070 C 
ATOM      6  C   UNL     1      23.203  -0.731   5.697  1.00  0.00     0.050 C 
ATOM      7  C   UNL     1      21.939  -0.211   4.980  1.00  0.00     0.115 C 
ATOM      8  C   UNL     1      21.100  -0.950   6.023  1.00  0.00     0.096 C 
ATOM      9  C   UNL     1      20.103   0.053   6.581  1.00  0.00     0.267 C 
ATOM     10  O   UNL     1      20.162   1.174   5.712  1.00  0.00    -0.342 OA
ATOM     11  O   UNL     1      20.599   0.427   7.857  1.00  0.00    -0.320 OA
ENDROOT
BRANCH   7  12
ATOM     12  O   UNL     1      21.668  -0.650   3.657  1.00  0.00    -0.339 OA
BRANCH  12  13
ATOM     13  C   UNL     1      22.846  -0.919   2.911  1.00  0.00     0.282 C 
ATOM     14  C   UNL     1      22.853  -2.376   2.408  1.00  0.00     0.202 C 
ATOM     15  O   UNL     1      22.989   0.014   1.846  1.00  0.00    -0.341 OA
ATOM     16  C   UNL     1      21.776  -2.596   1.333  1.00  0.00     0.179 C 
ATOM     17  C   UNL     1      22.018  -0.104   0.808  1.00  0.00     0.178 C 
ATOM     18  C   UNL     1      21.898  -1.534   0.228  1.00  0.00     0.177 C 
BRANCH  14  19
ATOM     19  O   UNL     1      24.125  -2.677   1.891  1.00  0.00    -0.385 OA
ATOM     20  H   UNL     1      23.981  -3.161   1.035  1.00  0.00     0.211 HD
ENDBRANCH  14  19
BRANCH  16  21
ATOM     21  O   UNL     1      20.493  -2.550   1.901  1.00  0.00    -0.387 OA
ATOM     22  H   UNL     1      20.455  -1.734   2.466  1.00  0.00     0.211 HD
ENDBRANCH  16  21
BRANCH  17  23
ATOM     23  C   UNL     1      20.662   0.531   1.170  1.00  0.00     0.191 C 
BRANCH  23  24
ATOM     24  O   UNL     1      19.621  -0.188   0.570  1.00  0.00    -0.394 OA
ATOM     25  H   UNL     1      19.093  -0.581   1.314  1.00  0.00     0.210 HD
ENDBRANCH  23  24
ENDBRANCH  17  23
BRANCH  18  26
ATOM     26  O   UNL     1      23.031  -1.799  -0.561  1.00  0.00    -0.387 OA
ATOM     27  H   UNL     1      22.815  -1.508  -1.486  1.00  0.00     0.211 HD
ENDBRANCH  18  26
ENDBRANCH  12  13
ENDBRANCH   7  12
BRANCH   4  28
ATOM     28  O   UNL     1      22.688   0.585   8.872  1.00  0.00    -0.365 OA
ATOM     29  H   UNL     1      22.211   1.281   9.395  1.00  0.00     0.214 HD
ENDBRANCH   4  28
BRANCH   8  30
ATOM     30  C   UNL     1      20.594  -2.375   5.694  1.00  0.00     0.249 C 
BRANCH  30  31
ATOM     31  O   UNL     1      19.167  -2.437   5.676  1.00  0.00    -0.461 OA
BRANCH  31  32
ATOM     32  C   UNL     1      18.395  -2.411   4.506  1.00  0.00     0.338 C 
ATOM     33  O   UNL     1      18.433  -1.412   3.737  1.00  0.00    -0.246 OA
BRANCH  32  34
ATOM     34  C   UNL     1      17.524  -3.557   4.177  1.00  0.00     0.060 A 
ATOM     35  C   UNL     1      17.433  -4.024   2.855  1.00  0.00     0.015 A 
ATOM     36  C   UNL     1      16.776  -4.198   5.182  1.00  0.00     0.015 A 
ATOM     37  C   UNL     1      16.594  -5.097   2.540  1.00  0.00     0.001 A 
ATOM     38  C   UNL     1      15.940  -5.272   4.863  1.00  0.00     0.001 A 
ATOM     39  C   UNL     1      15.846  -5.719   3.542  1.00  0.00     0.000 A 
ENDBRANCH  32  34
ENDBRANCH  31  32
ENDBRANCH  30  31
ENDBRANCH   8  30
TORSDOF 12
ENDMDL
MODEL 3
REMARK VINA RESULT:    -6.121      2.538      3.937
REMARK INTER + INTRA:         -10.591
REMARK INTER:                  -9.919
REMARK INTRA:                  -0.672
REMARK UNBOUND:                -1.070
REMARK SMILES C[C@@]12C[C@@]3(O)O[C@@H](O1)[C@]1(COC(=O)c4ccccc4)[C@H]3C[C@@]12O[C@@H]1O[C@H](CO)[C@@H](O)[C@H](O)[C@H]1O
REMARK SMILES IDX 1 1 2 2 3 3 4 4 20 5 21 6 22 7 9 8 7 9 8 10 6 11 23 12 24 13
REMARK SMILES IDX 33 14 25 15 31 16 26 17 29 18 34 19 32 21 27 23 28 24 30 26
REMARK SMILES IDX 5 28 10 30 11 31 12 32 13 33 14 34 15 35 19 36 16 37 18 38
REMARK SMILES IDX 17 39
REMARK H PARENT 34 20 32 22 28 25 30 27 5 29
REMARK Flexibility Score: inf
ROOT
ATOM      1  C   UNL     1      23.751  -1.944   4.846  1.00  0.00     0.046 C 
ATOM      2  C   UNL     1      22.730  -2.046   3.713  1.00  0.00     0.104 C 
ATOM      3  C   UNL     1      23.446  -2.116   2.314  1.00  0.00     0.104 C 
ATOM      4  C   UNL     1      22.259  -2.142   1.291  1.00  0.00     0.175 C 
ATOM      5  C   UNL     1      21.234  -1.003   1.610  1.00  0.00     0.070 C 
ATOM      6  C   UNL     1      21.816   0.094   2.512  1.00  0.00     0.050 C 
ATOM      7  C   UNL     1      21.646  -0.902   3.678  1.00  0.00     0.115 C 
ATOM      8  C   UNL     1      20.595  -1.631   2.841  1.00  0.00     0.096 C 
ATOM      9  C   UNL     1      20.981  -3.101   2.826  1.00  0.00     0.267 C 
ATOM     10  O   UNL     1      21.983  -3.243   3.822  1.00  0.00    -0.342 OA
ATOM     11  O   UNL     1      21.555  -3.339   1.551  1.00  0.00    -0.320 OA
ENDROOT
BRANCH   7  12
ATOM     12  O   UNL     1      21.126  -0.433   4.914  1.00  0.00    -0.339 OA
BRANCH  12  13
ATOM     13  C   UNL     1      21.350   0.954   5.119  1.00  0.00     0.282 C 
ATOM     14  C   UNL     1      20.022   1.688   5.387  1.00  0.00     0.202 C 
ATOM     15  O   UNL     1      22.295   1.160   6.163  1.00  0.00    -0.341 OA
ATOM     16  C   UNL     1      19.433   1.288   6.750  1.00  0.00     0.179 C 
ATOM     17  C   UNL     1      21.841   0.798   7.465  1.00  0.00     0.178 C 
ATOM     18  C   UNL     1      20.490   1.446   7.855  1.00  0.00     0.177 C 
BRANCH  14  19
ATOM     19  O   UNL     1      20.246   3.075   5.342  1.00  0.00    -0.385 OA
ATOM     20  H   UNL     1      19.967   3.441   6.222  1.00  0.00     0.211 HD
ENDBRANCH  14  19
BRANCH  16  21
ATOM     21  O   UNL     1      18.968  -0.036   6.719  1.00  0.00    -0.387 OA
ATOM     22  H   UNL     1      18.040  -0.010   6.369  1.00  0.00     0.211 HD
ENDBRANCH  16  21
BRANCH  17  23
ATOM     23  C   UNL     1      21.895  -0.719   7.728  1.00  0.00     0.191 C 
BRANCH  23  24
ATOM     24  O   UNL     1      20.979  -1.066   8.728  1.00  0.00    -0.394 OA
ATOM     25  H   UNL     1      21.325  -1.899   9.143  1.00  0.00     0.210 HD
ENDBRANCH  23  24
ENDBRANCH  17  23
BRANCH  18  26
ATOM     26  O   UNL     1      20.702   2.811   8.118  1.00  0.00    -0.387 OA
ATOM     27  H   UNL     1      21.664   2.918   8.340  1.00  0.00     0.211 HD
ENDBRANCH  18  26
ENDBRANCH  12  13
ENDBRANCH   7  12
BRANCH   4  28
ATOM     28  O   UNL     1      22.722  -2.094  -0.031  1.00  0.00    -0.365 OA
ATOM     29  H   UNL     1      22.437  -1.218  -0.403  1.00  0.00     0.214 HD
ENDBRANCH   4  28
BRANCH   8  30
ATOM     30  C   UNL     1      19.103  -1.271   3.047  1.00  0.00     0.249 C 
BRANCH  30  31
ATOM     31  O   UNL     1      18.685  -1.504   4.392  1.00  0.00    -0.461 OA
BRANCH  31  32
ATOM     32  C   UNL     1      18.594  -2.776   4.976  1.00  0.00     0.338 C 
ATOM     33  O   UNL     1      19.355  -3.098   5.930  1.00  0.00    -0.246 OA
BRANCH  32  34
ATOM     34  C   UNL     1      17.608  -3.748   4.465  1.00  0.00     0.060 A 
ATOM     35  C   UNL     1      16.697  -4.364   5.340  1.00  0.00     0.015 A 
ATOM     36  C   UNL     1      17.564  -4.069   3.096  1.00  0.00     0.015 A 
ATOM     37  C   UNL     1      15.775  -5.299   4.860  1.00  0.00     0.001 A 
ATOM     38  C   UNL     1      16.638  -5.003   2.619  1.00  0.00     0.001 A 
ATOM     39  C   UNL     1      15.748  -5.620   3.501  1.00  0.00     0.000 A 
ENDBRANCH  32  34
ENDBRANCH  31  32
ENDBRANCH  30  31
ENDBRANCH   8  30
TORSDOF 12
ENDMDL
MODEL 4
REMARK VINA RESULT:    -6.042      3.144      4.712
REMARK INTER + INTRA:         -10.467
REMARK INTER:                  -9.030
REMARK INTRA:                  -1.438
REMARK UNBOUND:                -1.070
REMARK SMILES C[C@@]12C[C@@]3(O)O[C@@H](O1)[C@]1(COC(=O)c4ccccc4)[C@H]3C[C@@]12O[C@@H]1O[C@H](CO)[C@@H](O)[C@H](O)[C@H]1O
REMARK SMILES IDX 1 1 2 2 3 3 4 4 20 5 21 6 22 7 9 8 7 9 8 10 6 11 23 12 24 13
REMARK SMILES IDX 33 14 25 15 31 16 26 17 29 18 34 19 32 21 27 23 28 24 30 26
REMARK SMILES IDX 5 28 10 30 11 31 12 32 13 33 14 34 15 35 19 36 16 37 18 38
REMARK SMILES IDX 17 39
REMARK H PARENT 34 20 32 22 28 25 30 27 5 29
REMARK Flexibility Score: inf
ROOT
ATOM      1  C   UNL     1      24.125  -1.111   3.930  1.00  0.00     0.046 C 
ATOM      2  C   UNL     1      23.174  -1.153   2.734  1.00  0.00     0.104 C 
ATOM      3  C   UNL     1      23.893  -0.666   1.423  1.00  0.00     0.104 C 
ATOM      4  C   UNL     1      22.760  -0.708   0.341  1.00  0.00     0.175 C 
ATOM      5  C   UNL     1      21.473   0.012   0.864  1.00  0.00     0.070 C 
ATOM      6  C   UNL     1      21.746   0.935   2.060  1.00  0.00     0.050 C 
ATOM      7  C   UNL     1      21.831  -0.348   2.914  1.00  0.00     0.115 C 
ATOM      8  C   UNL     1      21.010  -1.061   1.839  1.00  0.00     0.096 C 
ATOM      9  C   UNL     1      21.763  -2.330   1.475  1.00  0.00     0.267 C 
ATOM     10  O   UNL     1      22.761  -2.482   2.473  1.00  0.00    -0.342 OA
ATOM     11  O   UNL     1      22.388  -2.067   0.229  1.00  0.00    -0.320 OA
ENDROOT
BRANCH   7  12
ATOM     12  O   UNL     1      21.198  -0.372   4.185  1.00  0.00    -0.339 OA
BRANCH  12  13
ATOM     13  C   UNL     1      21.360   0.840   4.907  1.00  0.00     0.282 C 
ATOM     14  C   UNL     1      19.991   1.413   5.324  1.00  0.00     0.202 C 
ATOM     15  O   UNL     1      22.221   0.647   6.024  1.00  0.00    -0.341 OA
ATOM     16  C   UNL     1      19.322   0.530   6.391  1.00  0.00     0.179 C 
ATOM     17  C   UNL     1      21.689  -0.178   7.058  1.00  0.00     0.178 C 
ATOM     18  C   UNL     1      20.293   0.270   7.555  1.00  0.00     0.177 C 
BRANCH  14  19
ATOM     19  O   UNL     1      20.170   2.718   5.815  1.00  0.00    -0.385 OA
ATOM     20  H   UNL     1      19.734   3.332   5.168  1.00  0.00     0.211 HD
ENDBRANCH  14  19
BRANCH  16  21
ATOM     21  O   UNL     1      18.907  -0.690   5.834  1.00  0.00    -0.387 OA
ATOM     22  H   UNL     1      17.992  -0.868   6.175  1.00  0.00     0.211 HD
ENDBRANCH  16  21
BRANCH  17  23
ATOM     23  C   UNL     1      21.777  -1.683   6.742  1.00  0.00     0.191 C 
BRANCH  23  24
ATOM     24  O   UNL     1      20.621  -2.335   7.187  1.00  0.00    -0.394 OA
ATOM     25  H   UNL     1      19.985  -1.619   7.451  1.00  0.00     0.210 HD
ENDBRANCH  23  24
ENDBRANCH  17  23
BRANCH  18  26
ATOM     26  O   UNL     1      20.439   1.440   8.321  1.00  0.00    -0.387 OA
ATOM     27  H   UNL     1      20.296   1.185   9.270  1.00  0.00     0.211 HD
ENDBRANCH  18  26
ENDBRANCH  12  13
ENDBRANCH   7  12
BRANCH   4  28
ATOM     28  O   UNL     1      23.204  -0.193  -0.885  1.00  0.00    -0.365 OA
ATOM     29  H   UNL     1      24.187  -0.329  -0.913  1.00  0.00     0.214 HD
ENDBRANCH   4  28
BRANCH   8  30
ATOM     30  C   UNL     1      19.475  -1.150   2.016  1.00  0.00     0.249 C 
BRANCH  30  31
ATOM     31  O   UNL     1      19.042  -2.499   2.193  1.00  0.00    -0.461 OA
BRANCH  31  32
ATOM     32  C   UNL     1      18.966  -3.143   3.437  1.00  0.00     0.338 C 
ATOM     33  O   UNL     1      19.909  -3.041   4.268  1.00  0.00    -0.246 OA
BRANCH  32  34
ATOM     34  C   UNL     1      17.779  -3.955   3.770  1.00  0.00     0.060 A 
ATOM     35  C   UNL     1      17.131  -4.707   2.776  1.00  0.00     0.015 A 
ATOM     36  C   UNL     1      17.282  -3.989   5.086  1.00  0.00     0.015 A 
ATOM     37  C   UNL     1      15.996  -5.462   3.087  1.00  0.00     0.001 A 
ATOM     38  C   UNL     1      16.148  -4.747   5.394  1.00  0.00     0.001 A 
ATOM     39  C   UNL     1      15.503  -5.479   4.393  1.00  0.00     0.000 A 
ENDBRANCH  32  34
ENDBRANCH  31  32
ENDBRANCH  30  31
ENDBRANCH   8  30
TORSDOF 12
ENDMDL
MODEL 5
REMARK VINA RESULT:    -5.795      2.708      5.103
REMARK INTER + INTRA:         -10.084
REMARK INTER:                  -8.701
REMARK INTRA:                  -1.383
REMARK UNBOUND:                -1.070
REMARK SMILES C[C@@]12C[C@@]3(O)O[C@@H](O1)[C@]1(COC(=O)c4ccccc4)[C@H]3C[C@@]12O[C@@H]1O[C@H](CO)[C@@H](O)[C@H](O)[C@H]1O
REMARK SMILES IDX 1 1 2 2 3 3 4 4 20 5 21 6 22 7 9 8 7 9 8 10 6 11 23 12 24 13
REMARK SMILES IDX 33 14 25 15 31 16 26 17 29 18 34 19 32 21 27 23 28 24 30 26
REMARK SMILES IDX 5 28 10 30 11 31 12 32 13 33 14 34 15 35 19 36 16 37 18 38
REMARK SMILES IDX 17 39
REMARK H PARENT 34 20 32 22 28 25 30 27 5 29
REMARK Flexibility Score: inf
ROOT
ATOM      1  C   UNL     1      23.895  -2.126   2.496  1.00  0.00     0.046 C 
ATOM      2  C   UNL     1      22.660  -1.234   2.375  1.00  0.00     0.104 C 
ATOM      3  C   UNL     1      22.938  -0.008   1.429  1.00  0.00     0.104 C 
ATOM      4  C   UNL     1      21.607   0.816   1.488  1.00  0.00     0.175 C 
ATOM      5  C   UNL     1      21.161   1.035   2.971  1.00  0.00     0.070 C 
ATOM      6  C   UNL     1      22.296   0.804   3.980  1.00  0.00     0.050 C 
ATOM      7  C   UNL     1      22.076  -0.705   3.741  1.00  0.00     0.115 C 
ATOM      8  C   UNL     1      20.664  -0.376   3.255  1.00  0.00     0.096 C 
ATOM      9  C   UNL     1      20.490  -1.052   1.905  1.00  0.00     0.267 C 
ATOM     10  O   UNL     1      21.590  -1.942   1.780  1.00  0.00    -0.342 OA
ATOM     11  O   UNL     1      20.612  -0.023   0.936  1.00  0.00    -0.320 OA
ENDROOT
BRANCH   7  12
ATOM     12  O   UNL     1      22.074  -1.585   4.855  1.00  0.00    -0.339 OA
BRANCH  12  13
ATOM     13  C   UNL     1      23.243  -1.470   5.655  1.00  0.00     0.282 C 
ATOM     14  C   UNL     1      22.921  -0.776   6.993  1.00  0.00     0.202 C 
ATOM     15  O   UNL     1      23.848  -2.743   5.845  1.00  0.00    -0.341 OA
ATOM     16  C   UNL     1      22.050  -1.672   7.887  1.00  0.00     0.179 C 
ATOM     17  C   UNL     1      23.098  -3.651   6.650  1.00  0.00     0.178 C 
ATOM     18  C   UNL     1      22.681  -3.068   8.022  1.00  0.00     0.177 C 
BRANCH  14  19
ATOM     19  O   UNL     1      24.125  -0.460   7.647  1.00  0.00    -0.385 OA
ATOM     20  H   UNL     1      24.683  -1.282   7.637  1.00  0.00     0.211 HD
ENDBRANCH  14  19
BRANCH  16  21
ATOM     21  O   UNL     1      20.752  -1.783   7.362  1.00  0.00    -0.387 OA
ATOM     22  H   UNL     1      20.163  -2.078   8.105  1.00  0.00     0.211 HD
ENDBRANCH  16  21
BRANCH  17  23
ATOM     23  C   UNL     1      21.941  -4.326   5.888  1.00  0.00     0.191 C 
BRANCH  23  24
ATOM     24  O   UNL     1      20.902  -4.637   6.773  1.00  0.00    -0.394 OA
ATOM     25  H   UNL     1      21.336  -4.962   7.605  1.00  0.00     0.210 HD
ENDBRANCH  23  24
ENDBRANCH  17  23
BRANCH  18  26
ATOM     26  O   UNL     1      23.815  -2.998   8.848  1.00  0.00    -0.387 OA
ATOM     27  H   UNL     1      23.701  -2.205   9.434  1.00  0.00     0.211 HD
ENDBRANCH  18  26
ENDBRANCH  12  13
ENDBRANCH   7  12
BRANCH   4  28
ATOM     28  O   UNL     1      21.718   2.018   0.776  1.00  0.00    -0.365 OA
ATOM     29  H   UNL     1      20.923   2.565   1.010  1.00  0.00     0.214 HD
ENDBRANCH   4  28
BRANCH   8  30
ATOM     30  C   UNL     1      19.495  -0.455   4.267  1.00  0.00     0.249 C 
BRANCH  30  31
ATOM     31  O   UNL     1      18.591  -1.513   3.946  1.00  0.00    -0.461 OA
BRANCH  31  32
ATOM     32  C   UNL     1      18.380  -2.637   4.756  1.00  0.00     0.338 C 
ATOM     33  O   UNL     1      18.948  -2.733   5.877  1.00  0.00    -0.246 OA
BRANCH  32  34
ATOM     34  C   UNL     1      17.494  -3.721   4.287  1.00  0.00     0.060 A 
ATOM     35  C   UNL     1      17.473  -4.085   2.930  1.00  0.00     0.015 A 
ATOM     36  C   UNL     1      16.662  -4.407   5.191  1.00  0.00     0.015 A 
ATOM     37  C   UNL     1      16.621  -5.099   2.481  1.00  0.00     0.001 A 
ATOM     38  C   UNL     1      15.813  -5.423   4.739  1.00  0.00     0.001 A 
ATOM     39  C   UNL     1      15.790  -5.765   3.385  1.00  0.00     0.000 A 
ENDBRANCH  32  34
ENDBRANCH  31  32
ENDBRANCH  30  31
ENDBRANCH   8  30
TORSDOF 12
ENDMDL
MODEL 6
REMARK VINA RESULT:    -5.785      2.235      3.330
REMARK INTER + INTRA:         -10.068
REMARK INTER:                  -8.675
REMARK INTRA:                  -1.393
REMARK UNBOUND:                -1.070
REMARK SMILES C[C@@]12C[C@@]3(O)O[C@@H](O1)[C@]1(COC(=O)c4ccccc4)[C@H]3C[C@@]12O[C@@H]1O[C@H](CO)[C@@H](O)[C@H](O)[C@H]1O
REMARK SMILES IDX 1 1 2 2 3 3 4 4 20 5 21 6 22 7 9 8 7 9 8 10 6 11 23 12 24 13
REMARK SMILES IDX 33 14 25 15 31 16 26 17 29 18 34 19 32 21 27 23 28 24 30 26
REMARK SMILES IDX 5 28 10 30 11 31 12 32 13 33 14 34 15 35 19 36 16 37 18 38
REMARK SMILES IDX 17 39
REMARK H PARENT 34 20 32 22 28 25 30 27 5 29
REMARK Flexibility Score: inf
ROOT
ATOM      1  C   UNL     1      23.348  -0.918   8.964  1.00  0.00     0.046 C 
ATOM      2  C   UNL     1      22.881  -2.268   8.421  1.00  0.00     0.104 C 
ATOM      3  C   UNL     1      23.882  -3.414   8.821  1.00  0.00     0.104 C 
ATOM      4  C   UNL     1      23.287  -4.686   8.126  1.00  0.00     0.175 C 
ATOM      5  C   UNL     1      22.967  -4.391   6.622  1.00  0.00     0.070 C 
ATOM      6  C   UNL     1      23.687  -3.145   6.088  1.00  0.00     0.050 C 
ATOM      7  C   UNL     1      22.639  -2.319   6.864  1.00  0.00     0.115 C 
ATOM      8  C   UNL     1      21.721  -3.542   6.832  1.00  0.00     0.096 C 
ATOM      9  C   UNL     1      21.264  -3.791   8.261  1.00  0.00     0.267 C 
ATOM     10  O   UNL     1      21.637  -2.630   8.988  1.00  0.00    -0.342 OA
ATOM     11  O   UNL     1      22.024  -4.895   8.725  1.00  0.00    -0.320 OA
ENDROOT
BRANCH   7  12
ATOM     12  O   UNL     1      22.054  -1.187   6.238  1.00  0.00    -0.339 OA
BRANCH  12  13
ATOM     13  C   UNL     1      23.018  -0.280   5.722  1.00  0.00     0.282 C 
ATOM     14  C   UNL     1      22.999  -0.282   4.182  1.00  0.00     0.202 C 
ATOM     15  O   UNL     1      22.817   1.024   6.258  1.00  0.00    -0.341 OA
ATOM     16  C   UNL     1      21.701   0.342   3.643  1.00  0.00     0.179 C 
ATOM     17  C   UNL     1      21.624   1.674   5.826  1.00  0.00     0.178 C 
ATOM     18  C   UNL     1      21.461   1.717   4.287  1.00  0.00     0.177 C 
BRANCH  14  19
ATOM     19  O   UNL     1      24.114   0.431   3.708  1.00  0.00    -0.385 OA
ATOM     20  H   UNL     1      24.303   0.095   2.792  1.00  0.00     0.211 HD
ENDBRANCH  14  19
BRANCH  16  21
ATOM     21  O   UNL     1      20.606  -0.500   3.892  1.00  0.00    -0.387 OA
ATOM     22  H   UNL     1      19.788   0.059   3.824  1.00  0.00     0.211 HD
ENDBRANCH  16  21
BRANCH  17  23
ATOM     23  C   UNL     1      20.363   1.186   6.566  1.00  0.00     0.191 C 
BRANCH  23  24
ATOM     24  O   UNL     1      19.262   1.209   5.703  1.00  0.00    -0.394 OA
ATOM     25  H   UNL     1      19.015   0.260   5.544  1.00  0.00     0.210 HD
ENDBRANCH  23  24
ENDBRANCH  17  23
BRANCH  18  26
ATOM     26  O   UNL     1      22.369   2.653   3.762  1.00  0.00    -0.387 OA
ATOM     27  H   UNL     1      22.151   3.531   4.170  1.00  0.00     0.211 HD
ENDBRANCH  18  26
ENDBRANCH  12  13
ENDBRANCH   7  12
BRANCH   4  28
ATOM     28  O   UNL     1      24.125  -5.798   8.290  1.00  0.00    -0.365 OA
ATOM     29  H   UNL     1      24.776  -5.779   7.540  1.00  0.00     0.214 HD
ENDBRANCH   4  28
BRANCH   8  30
ATOM     30  C   UNL     1      20.670  -3.651   5.701  1.00  0.00     0.249 C 
BRANCH  30  31
ATOM     31  O   UNL     1      19.425  -3.062   6.079  1.00  0.00    -0.461 OA
BRANCH  31  32
ATOM     32  C   UNL     1      18.434  -2.669   5.169  1.00  0.00     0.338 C 
ATOM     33  O   UNL     1      18.254  -1.448   4.908  1.00  0.00    -0.246 OA
BRANCH  32  34
ATOM     34  C   UNL     1      17.588  -3.689   4.520  1.00  0.00     0.060 A 
ATOM     35  C   UNL     1      17.675  -3.907   3.134  1.00  0.00     0.015 A 
ATOM     36  C   UNL     1      16.687  -4.459   5.277  1.00  0.00     0.015 A 
ATOM     37  C   UNL     1      16.862  -4.861   2.515  1.00  0.00     0.001 A 
ATOM     38  C   UNL     1      15.876  -5.414   4.655  1.00  0.00     0.001 A 
ATOM     39  C   UNL     1      15.961  -5.611   3.274  1.00  0.00     0.000 A 
ENDBRANCH  32  34
ENDBRANCH  31  32
ENDBRANCH  30  31
ENDBRANCH   8  30
TORSDOF 12
ENDMDL
MODEL 7
REMARK VINA RESULT:    -5.747      3.468      6.190
REMARK INTER + INTRA:         -10.008
REMARK INTER:                  -8.657
REMARK INTRA:                  -1.351
REMARK UNBOUND:                -1.070
REMARK SMILES C[C@@]12C[C@@]3(O)O[C@@H](O1)[C@]1(COC(=O)c4ccccc4)[C@H]3C[C@@]12O[C@@H]1O[C@H](CO)[C@@H](O)[C@H](O)[C@H]1O
REMARK SMILES IDX 1 1 2 2 3 3 4 4 20 5 21 6 22 7 9 8 7 9 8 10 6 11 23 12 24 13
REMARK SMILES IDX 33 14 25 15 31 16 26 17 29 18 34 19 32 21 27 23 28 24 30 26
REMARK SMILES IDX 5 28 10 30 11 31 12 32 13 33 14 34 15 35 19 36 16 37 18 38
REMARK SMILES IDX 17 39
REMARK H PARENT 34 20 32 22 28 25 30 27 5 29
REMARK Flexibility Score: inf
ROOT
ATOM      1  C   UNL     1      23.516   1.047   5.276  1.00  0.00     0.046 C 
ATOM      2  C   UNL     1      22.828  -0.275   5.619  1.00  0.00     0.104 C 
ATOM      3  C   UNL     1      23.507  -0.958   6.863  1.00  0.00     0.104 C 
ATOM      4  C   UNL     1      22.728  -2.309   7.015  1.00  0.00     0.175 C 
ATOM      5  C   UNL     1      22.644  -3.052   5.640  1.00  0.00     0.070 C 
ATOM      6  C   UNL     1      23.671  -2.543   4.619  1.00  0.00     0.050 C 
ATOM      7  C   UNL     1      22.750  -1.318   4.440  1.00  0.00     0.115 C 
ATOM      8  C   UNL     1      21.597  -2.165   4.982  1.00  0.00     0.096 C 
ATOM      9  C   UNL     1      20.946  -1.364   6.098  1.00  0.00     0.267 C 
ATOM     10  O   UNL     1      21.481  -0.054   5.991  1.00  0.00    -0.342 OA
ATOM     11  O   UNL     1      21.393  -1.952   7.309  1.00  0.00    -0.320 OA
ENDROOT
BRANCH   7  12
ATOM     12  O   UNL     1      22.496  -0.833   3.130  1.00  0.00    -0.339 OA
BRANCH  12  13
ATOM     13  C   UNL     1      23.526  -1.162   2.208  1.00  0.00     0.282 C 
ATOM     14  C   UNL     1      22.994  -2.101   1.109  1.00  0.00     0.202 C 
ATOM     15  O   UNL     1      24.111   0.018   1.668  1.00  0.00    -0.341 OA
ATOM     16  C   UNL     1      22.006  -1.369   0.185  1.00  0.00     0.179 C 
ATOM     17  C   UNL     1      23.257   0.774   0.811  1.00  0.00     0.178 C 
ATOM     18  C   UNL     1      22.626  -0.060  -0.331  1.00  0.00     0.177 C 
BRANCH  14  19
ATOM     19  O   UNL     1      24.078  -2.597   0.364  1.00  0.00    -0.385 OA
ATOM     20  H   UNL     1      24.761  -1.876   0.333  1.00  0.00     0.211 HD
ENDBRANCH  14  19
BRANCH  16  21
ATOM     21  O   UNL     1      20.806  -1.096   0.861  1.00  0.00    -0.387 OA
ATOM     22  H   UNL     1      21.038  -0.949   1.816  1.00  0.00     0.211 HD
ENDBRANCH  16  21
BRANCH  17  23
ATOM     23  C   UNL     1      22.239   1.640   1.577  1.00  0.00     0.191 C 
BRANCH  23  24
ATOM     24  O   UNL     1      21.177   1.989   0.735  1.00  0.00    -0.394 OA
ATOM     25  H   UNL     1      21.556   2.042  -0.181  1.00  0.00     0.210 HD
ENDBRANCH  23  24
ENDBRANCH  17  23
BRANCH  18  26
ATOM     26  O   UNL     1      23.618  -0.348  -1.283  1.00  0.00    -0.387 OA
ATOM     27  H   UNL     1      23.207  -0.946  -1.961  1.00  0.00     0.211 HD
ENDBRANCH  18  26
ENDBRANCH  12  13
ENDBRANCH   7  12
BRANCH   4  28
ATOM     28  O   UNL     1      23.282  -3.108   8.025  1.00  0.00    -0.365 OA
ATOM     29  H   UNL     1      23.007  -2.707   8.891  1.00  0.00     0.214 HD
ENDBRANCH   4  28
BRANCH   8  30
ATOM     30  C   UNL     1      20.677  -2.895   3.974  1.00  0.00     0.249 C 
BRANCH  30  31
ATOM     31  O   UNL     1      19.592  -2.065   3.555  1.00  0.00    -0.461 OA
BRANCH  31  32
ATOM     32  C   UNL     1      18.490  -2.526   2.820  1.00  0.00     0.338 C 
ATOM     33  O   UNL     1      18.238  -2.049   1.680  1.00  0.00    -0.246 OA
BRANCH  32  34
ATOM     34  C   UNL     1      17.614  -3.568   3.389  1.00  0.00     0.060 A 
ATOM     35  C   UNL     1      17.361  -3.606   4.771  1.00  0.00     0.015 A 
ATOM     36  C   UNL     1      17.019  -4.535   2.559  1.00  0.00     0.015 A 
ATOM     37  C   UNL     1      16.546  -4.605   5.314  1.00  0.00     0.001 A 
ATOM     38  C   UNL     1      16.202  -5.531   3.106  1.00  0.00     0.001 A 
ATOM     39  C   UNL     1      15.970  -5.567   4.483  1.00  0.00     0.000 A 
ENDBRANCH  32  34
ENDBRANCH  31  32
ENDBRANCH  30  31
ENDBRANCH   8  30
TORSDOF 12
ENDMDL
MODEL 8
REMARK VINA RESULT:    -5.687      2.082      4.925
REMARK INTER + INTRA:          -9.916
REMARK INTER:                  -9.028
REMARK INTRA:                  -0.888
REMARK UNBOUND:                -1.070
REMARK SMILES C[C@@]12C[C@@]3(O)O[C@@H](O1)[C@]1(COC(=O)c4ccccc4)[C@H]3C[C@@]12O[C@@H]1O[C@H](CO)[C@@H](O)[C@H](O)[C@H]1O
REMARK SMILES IDX 1 1 2 2 3 3 4 4 20 5 21 6 22 7 9 8 7 9 8 10 6 11 23 12 24 13
REMARK SMILES IDX 33 14 25 15 31 16 26 17 29 18 34 19 32 21 27 23 28 24 30 26
REMARK SMILES IDX 5 28 10 30 11 31 12 32 13 33 14 34 15 35 19 36 16 37 18 38
REMARK SMILES IDX 17 39
REMARK H PARENT 34 20 32 22 28 25 30 27 5 29
REMARK Flexibility Score: inf
ROOT
ATOM      1  C   UNL     1      24.119   0.066   6.777  1.00  0.00     0.046 C 
ATOM      2  C   UNL     1      22.673   0.278   6.334  1.00  0.00     0.104 C 
ATOM      3  C   UNL     1      22.231   1.774   6.542  1.00  0.00     0.104 C 
ATOM      4  C   UNL     1      20.726   1.780   6.109  1.00  0.00     0.175 C 
ATOM      5  C   UNL     1      19.949   0.612   6.802  1.00  0.00     0.070 C 
ATOM      6  C   UNL     1      20.686   0.042   8.023  1.00  0.00     0.050 C 
ATOM      7  C   UNL     1      21.614  -0.669   7.016  1.00  0.00     0.115 C 
ATOM      8  C   UNL     1      20.505  -0.536   5.971  1.00  0.00     0.096 C 
ATOM      9  C   UNL     1      21.132   0.089   4.736  1.00  0.00     0.267 C 
ATOM     10  O   UNL     1      22.535   0.028   4.948  1.00  0.00    -0.342 OA
ATOM     11  O   UNL     1      20.720   1.447   4.735  1.00  0.00    -0.320 OA
ENDROOT
BRANCH   7  12
ATOM     12  O   UNL     1      21.976  -2.022   7.251  1.00  0.00    -0.339 OA
BRANCH  12  13
ATOM     13  C   UNL     1      22.390  -2.260   8.589  1.00  0.00     0.282 C 
ATOM     14  C   UNL     1      21.483  -3.309   9.262  1.00  0.00     0.202 C 
ATOM     15  O   UNL     1      23.762  -2.633   8.631  1.00  0.00    -0.341 OA
ATOM     16  C   UNL     1      21.695  -4.701   8.644  1.00  0.00     0.179 C 
ATOM     17  C   UNL     1      24.057  -3.907   8.061  1.00  0.00     0.178 C 
ATOM     18  C   UNL     1      23.191  -5.057   8.630  1.00  0.00     0.177 C 
BRANCH  14  19
ATOM     19  O   UNL     1      21.761  -3.341  10.639  1.00  0.00    -0.385 OA
ATOM     20  H   UNL     1      22.546  -3.938  10.762  1.00  0.00     0.211 HD
ENDBRANCH  14  19
BRANCH  16  21
ATOM     21  O   UNL     1      21.181  -4.748   7.339  1.00  0.00    -0.387 OA
ATOM     22  H   UNL     1      20.398  -4.137   7.314  1.00  0.00     0.211 HD
ENDBRANCH  16  21
BRANCH  17  23
ATOM     23  C   UNL     1      24.120  -3.884   6.522  1.00  0.00     0.191 C 
BRANCH  23  24
ATOM     24  O   UNL     1      23.733  -5.128   6.009  1.00  0.00    -0.394 OA
ATOM     25  H   UNL     1      22.749  -5.079   5.881  1.00  0.00     0.210 HD
ENDBRANCH  23  24
ENDBRANCH  17  23
BRANCH  18  26
ATOM     26  O   UNL     1      23.623  -5.346   9.936  1.00  0.00    -0.387 OA
ATOM     27  H   UNL     1      24.380  -4.735  10.134  1.00  0.00     0.211 HD
ENDBRANCH  18  26
ENDBRANCH  12  13
ENDBRANCH   7  12
BRANCH   4  28
ATOM     28  O   UNL     1      20.133   3.030   6.337  1.00  0.00    -0.365 OA
ATOM     29  H   UNL     1      19.685   3.293   5.491  1.00  0.00     0.214 HD
ENDBRANCH   4  28
BRANCH   8  30
ATOM     30  C   UNL     1      19.527  -1.719   5.773  1.00  0.00     0.249 C 
BRANCH  30  31
ATOM     31  O   UNL     1      19.739  -2.375   4.522  1.00  0.00    -0.461 OA
BRANCH  31  32
ATOM     32  C   UNL     1      18.739  -2.569   3.558  1.00  0.00     0.338 C 
ATOM     33  O   UNL     1      18.691  -1.839   2.531  1.00  0.00    -0.246 OA
BRANCH  32  34
ATOM     34  C   UNL     1      17.730  -3.629   3.753  1.00  0.00     0.060 A 
ATOM     35  C   UNL     1      17.283  -4.392   2.661  1.00  0.00     0.015 A 
ATOM     36  C   UNL     1      17.205  -3.891   5.031  1.00  0.00     0.015 A 
ATOM     37  C   UNL     1      16.313  -5.384   2.841  1.00  0.00     0.001 A 
ATOM     38  C   UNL     1      16.237  -4.885   5.207  1.00  0.00     0.001 A 
ATOM     39  C   UNL     1      15.789  -5.628   4.112  1.00  0.00     0.000 A 
ENDBRANCH  32  34
ENDBRANCH  31  32
ENDBRANCH  30  31
ENDBRANCH   8  30
TORSDOF 12
ENDMDL
MODEL 9
REMARK VINA RESULT:    -5.620      1.039      1.574
REMARK INTER + INTRA:          -9.811
REMARK INTER:                  -9.030
REMARK INTRA:                  -0.780
REMARK UNBOUND:                -1.070
REMARK SMILES C[C@@]12C[C@@]3(O)O[C@@H](O1)[C@]1(COC(=O)c4ccccc4)[C@H]3C[C@@]12O[C@@H]1O[C@H](CO)[C@@H](O)[C@H](O)[C@H]1O
REMARK SMILES IDX 1 1 2 2 3 3 4 4 20 5 21 6 22 7 9 8 7 9 8 10 6 11 23 12 24 13
REMARK SMILES IDX 33 14 25 15 31 16 26 17 29 18 34 19 32 21 27 23 28 24 30 26
REMARK SMILES IDX 5 28 10 30 11 31 12 32 13 33 14 34 15 35 19 36 16 37 18 38
REMARK SMILES IDX 17 39
REMARK H PARENT 34 20 32 22 28 25 30 27 5 29
REMARK Flexibility Score: inf
ROOT
ATOM      1  C   UNL     1      21.877  -3.028   9.909  1.00  0.00     0.046 C 
ATOM      2  C   UNL     1      21.905  -3.309   8.407  1.00  0.00     0.104 C 
ATOM      3  C   UNL     1      23.094  -4.271   8.035  1.00  0.00     0.104 C 
ATOM      4  C   UNL     1      23.006  -4.382   6.474  1.00  0.00     0.175 C 
ATOM      5  C   UNL     1      22.893  -2.961   5.828  1.00  0.00     0.070 C 
ATOM      6  C   UNL     1      23.326  -1.834   6.776  1.00  0.00     0.050 C 
ATOM      7  C   UNL     1      21.970  -2.033   7.484  1.00  0.00     0.115 C 
ATOM      8  C   UNL     1      21.445  -2.673   6.199  1.00  0.00     0.096 C 
ATOM      9  C   UNL     1      20.825  -4.006   6.588  1.00  0.00     0.267 C 
ATOM     10  O   UNL     1      20.728  -3.982   8.004  1.00  0.00    -0.342 OA
ATOM     11  O   UNL     1      21.764  -4.998   6.203  1.00  0.00    -0.320 OA
ENDROOT
BRANCH   7  12
ATOM     12  O   UNL     1      21.218  -0.890   7.867  1.00  0.00    -0.339 OA
BRANCH  12  13
ATOM     13  C   UNL     1      21.657  -0.323   9.093  1.00  0.00     0.282 C 
ATOM     14  C   UNL     1      22.791   0.691   8.849  1.00  0.00     0.202 C 
ATOM     15  O   UNL     1      20.564   0.256   9.797  1.00  0.00    -0.341 OA
ATOM     16  C   UNL     1      22.269   1.943   8.125  1.00  0.00     0.179 C 
ATOM     17  C   UNL     1      20.002   1.415   9.187  1.00  0.00     0.178 C 
ATOM     18  C   UNL     1      21.044   2.512   8.858  1.00  0.00     0.177 C 
BRANCH  14  19
ATOM     19  O   UNL     1      23.362   1.046  10.084  1.00  0.00    -0.385 OA
ATOM     20  H   UNL     1      22.927   0.482  10.776  1.00  0.00     0.211 HD
ENDBRANCH  14  19
BRANCH  16  21
ATOM     21  O   UNL     1      21.934   1.642   6.795  1.00  0.00    -0.387 OA
ATOM     22  H   UNL     1      21.402   2.406   6.450  1.00  0.00     0.211 HD
ENDBRANCH  16  21
BRANCH  17  23
ATOM     23  C   UNL     1      19.060   1.088   8.012  1.00  0.00     0.191 C 
BRANCH  23  24
ATOM     24  O   UNL     1      18.897   2.216   7.200  1.00  0.00    -0.394 OA
ATOM     25  H   UNL     1      19.280   2.979   7.706  1.00  0.00     0.210 HD
ENDBRANCH  23  24
ENDBRANCH  17  23
BRANCH  18  26
ATOM     26  O   UNL     1      21.449   3.125  10.056  1.00  0.00    -0.387 OA
ATOM     27  H   UNL     1      21.852   2.417  10.623  1.00  0.00     0.211 HD
ENDBRANCH  18  26
ENDBRANCH  12  13
ENDBRANCH   7  12
BRANCH   4  28
ATOM     28  O   UNL     1      24.074  -5.126   5.954  1.00  0.00    -0.365 OA
ATOM     29  H   UNL     1      24.177  -5.925   6.534  1.00  0.00     0.214 HD
ENDBRANCH   4  28
BRANCH   8  30
ATOM     30  C   UNL     1      20.685  -1.784   5.185  1.00  0.00     0.249 C 
BRANCH  30  31
ATOM     31  O   UNL     1      19.282  -2.052   5.196  1.00  0.00    -0.461 OA
BRANCH  31  32
ATOM     32  C   UNL     1      18.510  -2.242   4.042  1.00  0.00     0.338 C 
ATOM     33  O   UNL     1      18.545  -1.400   3.103  1.00  0.00    -0.246 OA
BRANCH  32  34
ATOM     34  C   UNL     1      17.642  -3.430   3.929  1.00  0.00     0.060 A 
ATOM     35  C   UNL     1      17.407  -4.022   2.676  1.00  0.00     0.015 A 
ATOM     36  C   UNL     1      17.040  -3.989   5.072  1.00  0.00     0.015 A 
ATOM     37  C   UNL     1      16.570  -5.137   2.565  1.00  0.00     0.001 A 
ATOM     38  C   UNL     1      16.205  -5.105   4.957  1.00  0.00     0.001 A 
ATOM     39  C   UNL     1      15.968  -5.676   3.704  1.00  0.00     0.000 A 
ENDBRANCH  32  34
ENDBRANCH  31  32
ENDBRANCH  30  31
ENDBRANCH   8  30
TORSDOF 12
ENDMDL
