MODEL 1
REMARK VINA RESULT:    -4.879      0.000      0.000
REMARK INTER + INTRA:         -17.117
REMARK INTER:                 -12.295
REMARK INTRA:                  -4.822
REMARK UNBOUND:                -4.822
REMARK SMILES CCCCCCCCCCCCCCCCCCCCCCCCCCCC(=O)[O-]
REMARK SMILES IDX 15 1 16 2 17 3 18 4 19 5 20 6 21 7 22 8 23 9 24 10 25 11
REMARK SMILES IDX 26 12 27 13 28 14 29 15 30 16 14 17 13 18 12 19 11 20 10 21
REMARK SMILES IDX 9 22 8 23 7 24 6 25 5 26 4 27 3 28 2 29 1 30
REMARK H PARENT
REMARK Flexibility Score: inf
ROOT
ATOM      1  C   UNL     1      13.789 -30.462  23.979  1.00  0.00     0.000 C 
ENDROOT
BRANCH   1   2
ATOM      2  C   UNL     1      15.307 -30.358  23.764  1.00  0.00     0.000 C 
BRANCH   2   3
ATOM      3  C   UNL     1      15.671 -29.391  22.618  1.00  0.00     0.000 C 
BRANCH   3   4
ATOM      4  C   UNL     1      16.953 -29.779  21.862  1.00  0.00     0.000 C 
BRANCH   4   5
ATOM      5  C   UNL     1      17.705 -30.950  22.514  1.00  0.00     0.000 C 
BRANCH   5   6
ATOM      6  C   UNL     1      17.935 -32.119  21.543  1.00  0.00     0.000 C 
BRANCH   6   7
ATOM      7  C   UNL     1      19.219 -31.958  20.717  1.00  0.00     0.000 C 
BRANCH   7   8
ATOM      8  C   UNL     1      20.390 -31.521  21.606  1.00  0.00     0.000 C 
BRANCH   8   9
ATOM      9  C   UNL     1      21.118 -30.307  21.008  1.00  0.00     0.000 C 
BRANCH   9  10
ATOM     10  C   UNL     1      20.741 -28.985  21.700  1.00  0.00     0.000 C 
BRANCH  10  11
ATOM     11  C   UNL     1      19.928 -28.003  20.834  1.00  0.00     0.000 C 
BRANCH  11  12
ATOM     12  C   UNL     1      20.168 -26.514  21.141  1.00  0.00     0.006 C 
BRANCH  12  13
ATOM     13  C   UNL     1      21.038 -25.825  20.083  1.00  0.00     0.053 C 
BRANCH  13  14
ATOM     14  C   UNL     1      22.460 -25.752  20.543  1.00  0.00     0.041 C 
ATOM     15  O   UNL     1      22.914 -24.682  21.029  1.00  0.00    -0.550 OA
ATOM     16  O   UNL     1      23.270 -26.879  20.483  1.00  0.00    -0.550 OA
ENDBRANCH  13  14
ENDBRANCH  12  13
ENDBRANCH  11  12
ENDBRANCH  10  11
ENDBRANCH   9  10
ENDBRANCH   8   9
ENDBRANCH   7   8
ENDBRANCH   6   7
ENDBRANCH   5   6
ENDBRANCH   4   5
ENDBRANCH   3   4
ENDBRANCH   2   3
ENDBRANCH   1   2
BRANCH   1  17
ATOM     17  C   UNL     1      13.167 -31.670  23.259  1.00  0.00     0.000 C 
BRANCH  17  18
ATOM     18  C   UNL     1      12.647 -31.344  21.843  1.00  0.00     0.000 C 
BRANCH  18  19
ATOM     19  C   UNL     1      13.420 -32.095  20.743  1.00  0.00     0.000 C 
BRANCH  19  20
ATOM     20  C   UNL     1      14.446 -33.087  21.333  1.00  0.00     0.000 C 
BRANCH  20  21
ATOM     21  C   UNL     1      15.163 -33.947  20.273  1.00  0.00     0.000 C 
BRANCH  21  22
ATOM     22  C   UNL     1      15.339 -35.428  20.650  1.00  0.00    -0.000 C 
BRANCH  22  23
ATOM     23  C   UNL     1      16.456 -36.120  19.855  1.00  0.00    -0.000 C 
BRANCH  23  24
ATOM     24  C   UNL     1      17.513 -35.101  19.402  1.00  0.00    -0.000 C 
BRANCH  24  25
ATOM     25  C   UNL     1      18.924 -35.428  19.924  1.00  0.00    -0.000 C 
BRANCH  25  26
ATOM     26  C   UNL     1      18.960 -36.185  21.267  1.00  0.00    -0.000 C 
BRANCH  26  27
ATOM     27  C   UNL     1      18.975 -35.292  22.521  1.00  0.00    -0.000 C 
BRANCH  27  28
ATOM     28  C   UNL     1      17.769 -35.541  23.445  1.00  0.00    -0.000 C 
BRANCH  28  29
ATOM     29  C   UNL     1      17.492 -34.356  24.383  1.00  0.00    -0.003 C 
ATOM     30  C   UNL     1      16.013 -33.969  24.427  1.00  0.00     0.004 C 
ENDBRANCH  28  29
ENDBRANCH  27  28
ENDBRANCH  26  27
ENDBRANCH  25  26
ENDBRANCH  24  25
ENDBRANCH  23  24
ENDBRANCH  22  23
ENDBRANCH  21  22
ENDBRANCH  20  21
ENDBRANCH  19  20
ENDBRANCH  18  19
ENDBRANCH  17  18
ENDBRANCH   1  17
TORSDOF 26
ENDMDL
MODEL 2
REMARK VINA RESULT:    -4.811      3.594      6.794
REMARK INTER + INTRA:         -16.946
REMARK INTER:                 -12.543
REMARK INTRA:                  -4.404
REMARK UNBOUND:                -4.822
REMARK SMILES CCCCCCCCCCCCCCCCCCCCCCCCCCCC(=O)[O-]
REMARK SMILES IDX 15 1 16 2 17 3 18 4 19 5 20 6 21 7 22 8 23 9 24 10 25 11
REMARK SMILES IDX 26 12 27 13 28 14 29 15 30 16 14 17 13 18 12 19 11 20 10 21
REMARK SMILES IDX 9 22 8 23 7 24 6 25 5 26 4 27 3 28 2 29 1 30
REMARK H PARENT
REMARK Flexibility Score: inf
ROOT
ATOM      1  C   UNL     1      18.881 -33.291  20.382  1.00  0.00     0.000 C 
ENDROOT
BRANCH   1   2
ATOM      2  C   UNL     1      19.481 -34.660  20.020  1.00  0.00     0.000 C 
BRANCH   2   3
ATOM      3  C   UNL     1      18.570 -35.830  20.448  1.00  0.00     0.000 C 
BRANCH   3   4
ATOM      4  C   UNL     1      17.464 -36.160  19.432  1.00  0.00     0.000 C 
BRANCH   4   5
ATOM      5  C   UNL     1      16.140 -35.437  19.728  1.00  0.00     0.000 C 
BRANCH   5   6
ATOM      6  C   UNL     1      15.862 -35.305  21.234  1.00  0.00     0.000 C 
BRANCH   6   7
ATOM      7  C   UNL     1      15.096 -34.020  21.583  1.00  0.00     0.000 C 
BRANCH   7   8
ATOM      8  C   UNL     1      14.374 -33.462  20.351  1.00  0.00     0.000 C 
BRANCH   8   9
ATOM      9  C   UNL     1      13.584 -32.191  20.699  1.00  0.00     0.000 C 
BRANCH   9  10
ATOM     10  C   UNL     1      13.439 -31.977  22.216  1.00  0.00     0.000 C 
BRANCH  10  11
ATOM     11  C   UNL     1      13.109 -30.533  22.643  1.00  0.00     0.000 C 
BRANCH  11  12
ATOM     12  C   UNL     1      13.492 -30.179  24.091  1.00  0.00     0.006 C 
BRANCH  12  13
ATOM     13  C   UNL     1      14.096 -28.775  24.217  1.00  0.00     0.053 C 
BRANCH  13  14
ATOM     14  C   UNL     1      13.113 -27.838  24.844  1.00  0.00     0.041 C 
ATOM     15  O   UNL     1      11.930 -28.212  25.061  1.00  0.00    -0.550 OA
ATOM     16  O   UNL     1      13.516 -26.569  25.238  1.00  0.00    -0.550 OA
ENDBRANCH  13  14
ENDBRANCH  12  13
ENDBRANCH  11  12
ENDBRANCH  10  11
ENDBRANCH   9  10
ENDBRANCH   8   9
ENDBRANCH   7   8
ENDBRANCH   6   7
ENDBRANCH   5   6
ENDBRANCH   4   5
ENDBRANCH   3   4
ENDBRANCH   2   3
ENDBRANCH   1   2
BRANCH   1  17
ATOM     17  C   UNL     1      19.885 -32.373  21.100  1.00  0.00     0.000 C 
BRANCH  17  18
ATOM     18  C   UNL     1      19.259 -31.061  21.618  1.00  0.00     0.000 C 
BRANCH  18  19
ATOM     19  C   UNL     1      17.849 -30.816  21.051  1.00  0.00     0.000 C 
BRANCH  19  20
ATOM     20  C   UNL     1      16.820 -30.527  22.167  1.00  0.00     0.000 C 
BRANCH  20  21
ATOM     21  C   UNL     1      17.303 -30.917  23.578  1.00  0.00     0.000 C 
BRANCH  21  22
ATOM     22  C   UNL     1      16.733 -32.241  24.115  1.00  0.00    -0.000 C 
BRANCH  22  23
ATOM     23  C   UNL     1      17.655 -32.917  25.142  1.00  0.00    -0.000 C 
BRANCH  23  24
ATOM     24  C   UNL     1      18.701 -33.794  24.437  1.00  0.00    -0.000 C 
BRANCH  24  25
ATOM     25  C   UNL     1      18.113 -35.108  23.891  1.00  0.00    -0.000 C 
BRANCH  25  26
ATOM     26  C   UNL     1      17.063 -35.777  24.801  1.00  0.00    -0.000 C 
BRANCH  26  27
ATOM     27  C   UNL     1      17.615 -36.847  25.759  1.00  0.00    -0.000 C 
BRANCH  27  28
ATOM     28  C   UNL     1      16.539 -37.420  26.698  1.00  0.00    -0.000 C 
BRANCH  28  29
ATOM     29  C   UNL     1      16.891 -38.826  27.209  1.00  0.00    -0.003 C 
ATOM     30  C   UNL     1      16.607 -39.003  28.702  1.00  0.00     0.004 C 
ENDBRANCH  28  29
ENDBRANCH  27  28
ENDBRANCH  26  27
ENDBRANCH  25  26
ENDBRANCH  24  25
ENDBRANCH  23  24
ENDBRANCH  22  23
ENDBRANCH  21  22
ENDBRANCH  20  21
ENDBRANCH  19  20
ENDBRANCH  18  19
ENDBRANCH  17  18
ENDBRANCH   1  17
TORSDOF 26
ENDMDL
MODEL 3
REMARK VINA RESULT:    -4.747      1.102      2.190
REMARK INTER + INTRA:         -16.784
REMARK INTER:                 -12.448
REMARK INTRA:                  -4.336
REMARK UNBOUND:                -4.822
REMARK SMILES CCCCCCCCCCCCCCCCCCCCCCCCCCCC(=O)[O-]
REMARK SMILES IDX 15 1 16 2 17 3 18 4 19 5 20 6 21 7 22 8 23 9 24 10 25 11
REMARK SMILES IDX 26 12 27 13 28 14 29 15 30 16 14 17 13 18 12 19 11 20 10 21
REMARK SMILES IDX 9 22 8 23 7 24 6 25 5 26 4 27 3 28 2 29 1 30
REMARK H PARENT
REMARK Flexibility Score: inf
ROOT
ATOM      1  C   UNL     1      13.749 -31.670  21.954  1.00  0.00     0.000 C 
ENDROOT
BRANCH   1   2
ATOM      2  C   UNL     1      14.293 -31.539  23.386  1.00  0.00     0.000 C 
BRANCH   2   3
ATOM      3  C   UNL     1      15.522 -30.609  23.462  1.00  0.00     0.000 C 
BRANCH   3   4
ATOM      4  C   UNL     1      15.987 -30.081  22.095  1.00  0.00     0.000 C 
BRANCH   4   5
ATOM      5  C   UNL     1      17.251 -30.786  21.576  1.00  0.00     0.000 C 
BRANCH   5   6
ATOM      6  C   UNL     1      18.048 -31.471  22.697  1.00  0.00     0.000 C 
BRANCH   6   7
ATOM      7  C   UNL     1      19.565 -31.303  22.531  1.00  0.00     0.000 C 
BRANCH   7   8
ATOM      8  C   UNL     1      19.905 -30.744  21.144  1.00  0.00     0.000 C 
BRANCH   8   9
ATOM      9  C   UNL     1      20.560 -29.358  21.249  1.00  0.00     0.000 C 
BRANCH   9  10
ATOM     10  C   UNL     1      19.606 -28.217  20.853  1.00  0.00     0.000 C 
BRANCH  10  11
ATOM     11  C   UNL     1      20.065 -26.807  21.275  1.00  0.00     0.000 C 
BRANCH  11  12
ATOM     12  C   UNL     1      20.760 -25.992  20.169  1.00  0.00     0.006 C 
BRANCH  12  13
ATOM     13  C   UNL     1      22.062 -25.337  20.646  1.00  0.00     0.053 C 
BRANCH  13  14
ATOM     14  C   UNL     1      23.152 -25.550  19.644  1.00  0.00     0.041 C 
ATOM     15  O   UNL     1      23.518 -26.717  19.344  1.00  0.00    -0.550 OA
ATOM     16  O   UNL     1      23.728 -24.461  19.002  1.00  0.00    -0.550 OA
ENDBRANCH  13  14
ENDBRANCH  12  13
ENDBRANCH  11  12
ENDBRANCH  10  11
ENDBRANCH   9  10
ENDBRANCH   8   9
ENDBRANCH   7   8
ENDBRANCH   6   7
ENDBRANCH   5   6
ENDBRANCH   4   5
ENDBRANCH   3   4
ENDBRANCH   2   3
ENDBRANCH   1   2
BRANCH   1  17
ATOM     17  C   UNL     1      14.249 -32.937  21.240  1.00  0.00     0.000 C 
BRANCH  17  18
ATOM     18  C   UNL     1      14.977 -33.925  22.175  1.00  0.00     0.000 C 
BRANCH  18  19
ATOM     19  C   UNL     1      15.838 -34.942  21.405  1.00  0.00     0.000 C 
BRANCH  19  20
ATOM     20  C   UNL     1      15.742 -34.740  19.876  1.00  0.00     0.000 C 
BRANCH  20  21
ATOM     21  C   UNL     1      17.110 -34.636  19.174  1.00  0.00     0.000 C 
BRANCH  21  22
ATOM     22  C   UNL     1      18.158 -33.789  19.918  1.00  0.00    -0.000 C 
BRANCH  22  23
ATOM     23  C   UNL     1      19.480 -34.537  20.146  1.00  0.00    -0.000 C 
BRANCH  23  24
ATOM     24  C   UNL     1      19.571 -35.052  21.591  1.00  0.00    -0.000 C 
BRANCH  24  25
ATOM     25  C   UNL     1      19.054 -36.493  21.747  1.00  0.00    -0.000 C 
BRANCH  25  26
ATOM     26  C   UNL     1      18.796 -36.937  23.201  1.00  0.00    -0.000 C 
BRANCH  26  27
ATOM     27  C   UNL     1      18.673 -35.792  24.222  1.00  0.00    -0.000 C 
BRANCH  27  28
ATOM     28  C   UNL     1      17.238 -35.611  24.747  1.00  0.00    -0.000 C 
BRANCH  28  29
ATOM     29  C   UNL     1      16.952 -34.168  25.192  1.00  0.00    -0.003 C 
ATOM     30  C   UNL     1      18.190 -33.463  25.749  1.00  0.00     0.004 C 
ENDBRANCH  28  29
ENDBRANCH  27  28
ENDBRANCH  26  27
ENDBRANCH  25  26
ENDBRANCH  24  25
ENDBRANCH  23  24
ENDBRANCH  22  23
ENDBRANCH  21  22
ENDBRANCH  20  21
ENDBRANCH  19  20
ENDBRANCH  18  19
ENDBRANCH  17  18
ENDBRANCH   1  17
TORSDOF 26
ENDMDL
MODEL 4
REMARK VINA RESULT:    -4.728      2.992      6.205
REMARK INTER + INTRA:         -16.736
REMARK INTER:                 -11.211
REMARK INTRA:                  -5.526
REMARK UNBOUND:                -4.822
REMARK SMILES CCCCCCCCCCCCCCCCCCCCCCCCCCCC(=O)[O-]
REMARK SMILES IDX 15 1 16 2 17 3 18 4 19 5 20 6 21 7 22 8 23 9 24 10 25 11
REMARK SMILES IDX 26 12 27 13 28 14 29 15 30 16 14 17 13 18 12 19 11 20 10 21
REMARK SMILES IDX 9 22 8 23 7 24 6 25 5 26 4 27 3 28 2 29 1 30
REMARK H PARENT
REMARK Flexibility Score: inf
ROOT
ATOM      1  C   UNL     1      16.132 -34.633  19.370  1.00  0.00     0.000 C 
ENDROOT
BRANCH   1   2
ATOM      2  C   UNL     1      17.479 -34.127  19.911  1.00  0.00     0.000 C 
BRANCH   2   3
ATOM      3  C   UNL     1      18.606 -35.169  19.745  1.00  0.00     0.000 C 
BRANCH   3   4
ATOM      4  C   UNL     1      18.101 -36.618  19.643  1.00  0.00     0.000 C 
BRANCH   4   5
ATOM      5  C   UNL     1      18.008 -37.320  21.007  1.00  0.00     0.000 C 
BRANCH   5   6
ATOM      6  C   UNL     1      19.037 -36.788  22.017  1.00  0.00     0.000 C 
BRANCH   6   7
ATOM      7  C   UNL     1      18.414 -36.473  23.385  1.00  0.00     0.000 C 
BRANCH   7   8
ATOM      8  C   UNL     1      17.098 -35.702  23.222  1.00  0.00     0.000 C 
BRANCH   8   9
ATOM      9  C   UNL     1      16.761 -34.905  24.492  1.00  0.00     0.000 C 
BRANCH   9  10
ATOM     10  C   UNL     1      17.253 -33.448  24.429  1.00  0.00     0.000 C 
BRANCH  10  11
ATOM     11  C   UNL     1      18.240 -33.044  25.542  1.00  0.00     0.000 C 
BRANCH  11  12
ATOM     12  C   UNL     1      18.724 -31.584  25.482  1.00  0.00     0.006 C 
BRANCH  12  13
ATOM     13  C   UNL     1      20.131 -31.403  26.065  1.00  0.00     0.053 C 
BRANCH  13  14
ATOM     14  C   UNL     1      20.060 -30.756  27.412  1.00  0.00     0.041 C 
ATOM     15  O   UNL     1      19.190 -29.876  27.647  1.00  0.00    -0.550 OA
ATOM     16  O   UNL     1      20.921 -31.161  28.424  1.00  0.00    -0.550 OA
ENDBRANCH  13  14
ENDBRANCH  12  13
ENDBRANCH  11  12
ENDBRANCH  10  11
ENDBRANCH   9  10
ENDBRANCH   8   9
ENDBRANCH   7   8
ENDBRANCH   6   7
ENDBRANCH   5   6
ENDBRANCH   4   5
ENDBRANCH   3   4
ENDBRANCH   2   3
ENDBRANCH   1   2
BRANCH   1  17
ATOM     17  C   UNL     1      15.010 -34.579  20.421  1.00  0.00     0.000 C 
BRANCH  17  18
ATOM     18  C   UNL     1      14.927 -33.230  21.165  1.00  0.00     0.000 C 
BRANCH  18  19
ATOM     19  C   UNL     1      13.711 -32.391  20.733  1.00  0.00     0.000 C 
BRANCH  19  20
ATOM     20  C   UNL     1      13.149 -31.545  21.897  1.00  0.00     0.000 C 
BRANCH  20  21
ATOM     21  C   UNL     1      13.656 -31.981  23.286  1.00  0.00     0.000 C 
BRANCH  21  22
ATOM     22  C   UNL     1      14.143 -30.833  24.188  1.00  0.00    -0.000 C 
BRANCH  22  23
ATOM     23  C   UNL     1      14.903 -29.745  23.415  1.00  0.00    -0.000 C 
BRANCH  23  24
ATOM     24  C   UNL     1      16.335 -30.202  23.097  1.00  0.00    -0.000 C 
BRANCH  24  25
ATOM     25  C   UNL     1      16.670 -30.123  21.597  1.00  0.00    -0.000 C 
BRANCH  25  26
ATOM     26  C   UNL     1      17.989 -30.811  21.190  1.00  0.00    -0.000 C 
BRANCH  26  27
ATOM     27  C   UNL     1      19.258 -30.227  21.836  1.00  0.00    -0.000 C 
BRANCH  27  28
ATOM     28  C   UNL     1      20.413 -31.242  21.908  1.00  0.00    -0.000 C 
BRANCH  28  29
ATOM     29  C   UNL     1      19.922 -32.673  22.176  1.00  0.00    -0.003 C 
ATOM     30  C   UNL     1      21.066 -33.685  22.266  1.00  0.00     0.004 C 
ENDBRANCH  28  29
ENDBRANCH  27  28
ENDBRANCH  26  27
ENDBRANCH  25  26
ENDBRANCH  24  25
ENDBRANCH  23  24
ENDBRANCH  22  23
ENDBRANCH  21  22
ENDBRANCH  20  21
ENDBRANCH  19  20
ENDBRANCH  18  19
ENDBRANCH  17  18
ENDBRANCH   1  17
TORSDOF 26
ENDMDL
MODEL 5
REMARK VINA RESULT:    -4.727      3.627      6.400
REMARK INTER + INTRA:         -16.733
REMARK INTER:                 -11.652
REMARK INTRA:                  -5.082
REMARK UNBOUND:                -4.822
REMARK SMILES CCCCCCCCCCCCCCCCCCCCCCCCCCCC(=O)[O-]
REMARK SMILES IDX 15 1 16 2 17 3 18 4 19 5 20 6 21 7 22 8 23 9 24 10 25 11
REMARK SMILES IDX 26 12 27 13 28 14 29 15 30 16 14 17 13 18 12 19 11 20 10 21
REMARK SMILES IDX 9 22 8 23 7 24 6 25 5 26 4 27 3 28 2 29 1 30
REMARK H PARENT
REMARK Flexibility Score: inf
ROOT
ATOM      1  C   UNL     1      16.430 -34.786  19.383  1.00  0.00     0.000 C 
ENDROOT
BRANCH   1   2
ATOM      2  C   UNL     1      17.837 -34.281  19.025  1.00  0.00     0.000 C 
BRANCH   2   3
ATOM      3  C   UNL     1      18.438 -33.388  20.131  1.00  0.00     0.000 C 
BRANCH   3   4
ATOM      4  C   UNL     1      19.895 -33.731  20.484  1.00  0.00     0.000 C 
BRANCH   4   5
ATOM      5  C   UNL     1      20.506 -32.771  21.517  1.00  0.00     0.000 C 
BRANCH   5   6
ATOM      6  C   UNL     1      21.029 -31.474  20.881  1.00  0.00     0.000 C 
BRANCH   6   7
ATOM      7  C   UNL     1      20.402 -30.217  21.501  1.00  0.00     0.000 C 
BRANCH   7   8
ATOM      8  C   UNL     1      19.085 -30.556  22.211  1.00  0.00     0.000 C 
BRANCH   8   9
ATOM      9  C   UNL     1      17.890 -29.896  21.506  1.00  0.00     0.000 C 
BRANCH   9  10
ATOM     10  C   UNL     1      16.541 -30.515  21.916  1.00  0.00     0.000 C 
BRANCH  10  11
ATOM     11  C   UNL     1      16.234 -30.470  23.425  1.00  0.00     0.000 C 
BRANCH  11  12
ATOM     12  C   UNL     1      14.931 -31.174  23.844  1.00  0.00     0.006 C 
BRANCH  12  13
ATOM     13  C   UNL     1      14.418 -32.151  22.778  1.00  0.00     0.053 C 
BRANCH  13  14
ATOM     14  C   UNL     1      13.193 -31.606  22.115  1.00  0.00     0.041 C 
ATOM     15  O   UNL     1      12.468 -30.768  22.714  1.00  0.00    -0.550 OA
ATOM     16  O   UNL     1      12.880 -31.982  20.815  1.00  0.00    -0.550 OA
ENDBRANCH  13  14
ENDBRANCH  12  13
ENDBRANCH  11  12
ENDBRANCH  10  11
ENDBRANCH   9  10
ENDBRANCH   8   9
ENDBRANCH   7   8
ENDBRANCH   6   7
ENDBRANCH   5   6
ENDBRANCH   4   5
ENDBRANCH   3   4
ENDBRANCH   2   3
ENDBRANCH   1   2
BRANCH   1  17
ATOM     17  C   UNL     1      16.453 -36.125  20.139  1.00  0.00     0.000 C 
BRANCH  17  18
ATOM     18  C   UNL     1      17.205 -37.244  19.389  1.00  0.00     0.000 C 
BRANCH  18  19
ATOM     19  C   UNL     1      18.192 -38.002  20.295  1.00  0.00     0.000 C 
BRANCH  19  20
ATOM     20  C   UNL     1      18.304 -37.358  21.695  1.00  0.00     0.000 C 
BRANCH  20  21
ATOM     21  C   UNL     1      19.452 -37.925  22.553  1.00  0.00     0.000 C 
BRANCH  21  22
ATOM     22  C   UNL     1      19.722 -37.161  23.861  1.00  0.00    -0.000 C 
BRANCH  22  23
ATOM     23  C   UNL     1      19.345 -37.966  25.114  1.00  0.00    -0.000 C 
BRANCH  23  24
ATOM     24  C   UNL     1      18.619 -37.075  26.134  1.00  0.00    -0.000 C 
BRANCH  24  25
ATOM     25  C   UNL     1      17.133 -36.862  25.793  1.00  0.00    -0.000 C 
BRANCH  25  26
ATOM     26  C   UNL     1      16.741 -35.406  25.476  1.00  0.00    -0.000 C 
BRANCH  26  27
ATOM     27  C   UNL     1      16.678 -35.056  23.978  1.00  0.00    -0.000 C 
BRANCH  27  28
ATOM     28  C   UNL     1      17.589 -33.874  23.601  1.00  0.00    -0.000 C 
BRANCH  28  29
ATOM     29  C   UNL     1      18.729 -33.666  24.610  1.00  0.00    -0.003 C 
ATOM     30  C   UNL     1      18.610 -32.346  25.374  1.00  0.00     0.004 C 
ENDBRANCH  28  29
ENDBRANCH  27  28
ENDBRANCH  26  27
ENDBRANCH  25  26
ENDBRANCH  24  25
ENDBRANCH  23  24
ENDBRANCH  22  23
ENDBRANCH  21  22
ENDBRANCH  20  21
ENDBRANCH  19  20
ENDBRANCH  18  19
ENDBRANCH  17  18
ENDBRANCH   1  17
TORSDOF 26
ENDMDL
MODEL 6
REMARK VINA RESULT:    -4.706      3.882      6.165
REMARK INTER + INTRA:         -16.680
REMARK INTER:                 -11.193
REMARK INTRA:                  -5.487
REMARK UNBOUND:                -4.822
REMARK SMILES CCCCCCCCCCCCCCCCCCCCCCCCCCCC(=O)[O-]
REMARK SMILES IDX 15 1 16 2 17 3 18 4 19 5 20 6 21 7 22 8 23 9 24 10 25 11
REMARK SMILES IDX 26 12 27 13 28 14 29 15 30 16 14 17 13 18 12 19 11 20 10 21
REMARK SMILES IDX 9 22 8 23 7 24 6 25 5 26 4 27 3 28 2 29 1 30
REMARK H PARENT
REMARK Flexibility Score: inf
ROOT
ATOM      1  C   UNL     1      16.321 -35.059  22.502  1.00  0.00     0.000 C 
ENDROOT
BRANCH   1   2
ATOM      2  C   UNL     1      15.391 -34.612  21.362  1.00  0.00     0.000 C 
BRANCH   2   3
ATOM      3  C   UNL     1      15.959 -34.966  19.971  1.00  0.00     0.000 C 
BRANCH   3   4
ATOM      4  C   UNL     1      16.933 -36.156  19.982  1.00  0.00     0.000 C 
BRANCH   4   5
ATOM      5  C   UNL     1      18.377 -35.754  19.644  1.00  0.00     0.000 C 
BRANCH   5   6
ATOM      6  C   UNL     1      18.558 -34.232  19.535  1.00  0.00     0.000 C 
BRANCH   6   7
ATOM      7  C   UNL     1      19.873 -33.746  20.162  1.00  0.00     0.000 C 
BRANCH   7   8
ATOM      8  C   UNL     1      19.712 -32.337  20.748  1.00  0.00     0.000 C 
BRANCH   8   9
ATOM      9  C   UNL     1      18.327 -32.158  21.388  1.00  0.00     0.000 C 
BRANCH   9  10
ATOM     10  C   UNL     1      17.801 -30.715  21.277  1.00  0.00     0.000 C 
BRANCH  10  11
ATOM     11  C   UNL     1      17.030 -30.205  22.510  1.00  0.00     0.000 C 
BRANCH  11  12
ATOM     12  C   UNL     1      15.954 -31.165  23.047  1.00  0.00     0.006 C 
BRANCH  12  13
ATOM     13  C   UNL     1      14.662 -31.127  22.221  1.00  0.00     0.053 C 
BRANCH  13  14
ATOM     14  C   UNL     1      13.467 -31.232  23.116  1.00  0.00     0.041 C 
ATOM     15  O   UNL     1      13.407 -32.138  23.989  1.00  0.00    -0.550 OA
ATOM     16  O   UNL     1      12.443 -30.298  23.021  1.00  0.00    -0.550 OA
ENDBRANCH  13  14
ENDBRANCH  12  13
ENDBRANCH  11  12
ENDBRANCH  10  11
ENDBRANCH   9  10
ENDBRANCH   8   9
ENDBRANCH   7   8
ENDBRANCH   6   7
ENDBRANCH   5   6
ENDBRANCH   4   5
ENDBRANCH   3   4
ENDBRANCH   2   3
ENDBRANCH   1   2
BRANCH   1  17
ATOM     17  C   UNL     1      15.800 -34.650  23.890  1.00  0.00     0.000 C 
BRANCH  17  18
ATOM     18  C   UNL     1      16.740 -35.056  25.045  1.00  0.00     0.000 C 
BRANCH  18  19
ATOM     19  C   UNL     1      17.326 -33.840  25.784  1.00  0.00     0.000 C 
BRANCH  19  20
ATOM     20  C   UNL     1      18.479 -33.184  24.991  1.00  0.00     0.000 C 
BRANCH  20  21
ATOM     21  C   UNL     1      19.880 -33.505  25.548  1.00  0.00     0.000 C 
BRANCH  21  22
ATOM     22  C   UNL     1      20.801 -34.272  24.583  1.00  0.00    -0.000 C 
BRANCH  22  23
ATOM     23  C   UNL     1      20.045 -34.886  23.395  1.00  0.00    -0.000 C 
BRANCH  23  24
ATOM     24  C   UNL     1      20.374 -36.381  23.255  1.00  0.00    -0.000 C 
BRANCH  24  25
ATOM     25  C   UNL     1      19.125 -37.278  23.315  1.00  0.00    -0.000 C 
BRANCH  25  26
ATOM     26  C   UNL     1      19.014 -38.153  24.579  1.00  0.00    -0.000 C 
BRANCH  26  27
ATOM     27  C   UNL     1      19.554 -37.511  25.870  1.00  0.00    -0.000 C 
BRANCH  27  28
ATOM     28  C   UNL     1      18.518 -37.495  27.008  1.00  0.00    -0.000 C 
BRANCH  28  29
ATOM     29  C   UNL     1      17.579 -38.711  26.966  1.00  0.00    -0.003 C 
ATOM     30  C   UNL     1      16.111 -38.334  27.168  1.00  0.00     0.004 C 
ENDBRANCH  28  29
ENDBRANCH  27  28
ENDBRANCH  26  27
ENDBRANCH  25  26
ENDBRANCH  24  25
ENDBRANCH  23  24
ENDBRANCH  22  23
ENDBRANCH  21  22
ENDBRANCH  20  21
ENDBRANCH  19  20
ENDBRANCH  18  19
ENDBRANCH  17  18
ENDBRANCH   1  17
TORSDOF 26
ENDMDL
MODEL 7
REMARK VINA RESULT:    -4.681      3.744      6.543
REMARK INTER + INTRA:         -16.618
REMARK INTER:                 -11.137
REMARK INTRA:                  -5.481
REMARK UNBOUND:                -4.822
REMARK SMILES CCCCCCCCCCCCCCCCCCCCCCCCCCCC(=O)[O-]
REMARK SMILES IDX 15 1 16 2 17 3 18 4 19 5 20 6 21 7 22 8 23 9 24 10 25 11
REMARK SMILES IDX 26 12 27 13 28 14 29 15 30 16 14 17 13 18 12 19 11 20 10 21
REMARK SMILES IDX 9 22 8 23 7 24 6 25 5 26 4 27 3 28 2 29 1 30
REMARK H PARENT
REMARK Flexibility Score: inf
ROOT
ATOM      1  C   UNL     1      18.769 -31.580  21.172  1.00  0.00     0.000 C 
ENDROOT
BRANCH   1   2
ATOM      2  C   UNL     1      18.804 -32.989  20.558  1.00  0.00     0.000 C 
BRANCH   2   3
ATOM      3  C   UNL     1      20.122 -33.730  20.866  1.00  0.00     0.000 C 
BRANCH   3   4
ATOM      4  C   UNL     1      21.283 -32.798  21.250  1.00  0.00     0.000 C 
BRANCH   4   5
ATOM      5  C   UNL     1      22.132 -33.340  22.411  1.00  0.00     0.000 C 
BRANCH   5   6
ATOM      6  C   UNL     1      22.087 -32.433  23.651  1.00  0.00     0.000 C 
BRANCH   6   7
ATOM      7  C   UNL     1      21.021 -32.870  24.666  1.00  0.00     0.000 C 
BRANCH   7   8
ATOM      8  C   UNL     1      19.833 -31.900  24.664  1.00  0.00     0.000 C 
BRANCH   8   9
ATOM      9  C   UNL     1      18.640 -32.482  25.437  1.00  0.00     0.000 C 
BRANCH   9  10
ATOM     10  C   UNL     1      17.669 -33.264  24.534  1.00  0.00     0.000 C 
BRANCH  10  11
ATOM     11  C   UNL     1      17.167 -34.600  25.117  1.00  0.00     0.000 C 
BRANCH  11  12
ATOM     12  C   UNL     1      18.139 -35.783  24.960  1.00  0.00     0.006 C 
BRANCH  12  13
ATOM     13  C   UNL     1      18.854 -35.785  23.604  1.00  0.00     0.053 C 
BRANCH  13  14
ATOM     14  C   UNL     1      20.203 -36.419  23.725  1.00  0.00     0.041 C 
ATOM     15  O   UNL     1      20.872 -36.689  22.692  1.00  0.00    -0.550 OA
ATOM     16  O   UNL     1      20.746 -36.665  24.980  1.00  0.00    -0.550 OA
ENDBRANCH  13  14
ENDBRANCH  12  13
ENDBRANCH  11  12
ENDBRANCH  10  11
ENDBRANCH   9  10
ENDBRANCH   8   9
ENDBRANCH   7   8
ENDBRANCH   6   7
ENDBRANCH   5   6
ENDBRANCH   4   5
ENDBRANCH   3   4
ENDBRANCH   2   3
ENDBRANCH   1   2
BRANCH   1  17
ATOM     17  C   UNL     1      17.346 -31.003  21.258  1.00  0.00     0.000 C 
BRANCH  17  18
ATOM     18  C   UNL     1      17.205 -29.863  22.288  1.00  0.00     0.000 C 
BRANCH  18  19
ATOM     19  C   UNL     1      16.285 -30.239  23.463  1.00  0.00     0.000 C 
BRANCH  19  20
ATOM     20  C   UNL     1      14.873 -29.630  23.310  1.00  0.00     0.000 C 
BRANCH  20  21
ATOM     21  C   UNL     1      13.761 -30.458  23.983  1.00  0.00     0.000 C 
BRANCH  21  22
ATOM     22  C   UNL     1      13.498 -31.832  23.343  1.00  0.00    -0.000 C 
BRANCH  22  23
ATOM     23  C   UNL     1      13.412 -31.773  21.811  1.00  0.00    -0.000 C 
BRANCH  23  24
ATOM     24  C   UNL     1      14.225 -32.913  21.177  1.00  0.00    -0.000 C 
BRANCH  24  25
ATOM     25  C   UNL     1      15.082 -33.679  22.201  1.00  0.00    -0.000 C 
BRANCH  25  26
ATOM     26  C   UNL     1      15.703 -34.989  21.677  1.00  0.00    -0.000 C 
BRANCH  26  27
ATOM     27  C   UNL     1      15.622 -35.188  20.153  1.00  0.00    -0.000 C 
BRANCH  27  28
ATOM     28  C   UNL     1      16.931 -35.729  19.550  1.00  0.00    -0.000 C 
BRANCH  28  29
ATOM     29  C   UNL     1      16.991 -37.264  19.554  1.00  0.00    -0.003 C 
ATOM     30  C   UNL     1      17.933 -37.817  20.624  1.00  0.00     0.004 C 
ENDBRANCH  28  29
ENDBRANCH  27  28
ENDBRANCH  26  27
ENDBRANCH  25  26
ENDBRANCH  24  25
ENDBRANCH  23  24
ENDBRANCH  22  23
ENDBRANCH  21  22
ENDBRANCH  20  21
ENDBRANCH  19  20
ENDBRANCH  18  19
ENDBRANCH  17  18
ENDBRANCH   1  17
TORSDOF 26
ENDMDL
MODEL 8
REMARK VINA RESULT:    -4.659      4.183      6.720
REMARK INTER + INTRA:         -16.562
REMARK INTER:                 -10.815
REMARK INTRA:                  -5.747
REMARK UNBOUND:                -4.822
REMARK SMILES CCCCCCCCCCCCCCCCCCCCCCCCCCCC(=O)[O-]
REMARK SMILES IDX 15 1 16 2 17 3 18 4 19 5 20 6 21 7 22 8 23 9 24 10 25 11
REMARK SMILES IDX 26 12 27 13 28 14 29 15 30 16 14 17 13 18 12 19 11 20 10 21
REMARK SMILES IDX 9 22 8 23 7 24 6 25 5 26 4 27 3 28 2 29 1 30
REMARK H PARENT
REMARK Flexibility Score: inf
ROOT
ATOM      1  C   UNL     1      14.054 -31.203  24.096  1.00  0.00     0.000 C 
ENDROOT
BRANCH   1   2
ATOM      2  C   UNL     1      13.374 -30.717  22.806  1.00  0.00     0.000 C 
BRANCH   2   3
ATOM      3  C   UNL     1      14.074 -31.251  21.538  1.00  0.00     0.000 C 
BRANCH   3   4
ATOM      4  C   UNL     1      13.145 -32.041  20.602  1.00  0.00     0.000 C 
BRANCH   4   5
ATOM      5  C   UNL     1      13.860 -33.192  19.876  1.00  0.00     0.000 C 
BRANCH   5   6
ATOM      6  C   UNL     1      14.835 -33.952  20.789  1.00  0.00     0.000 C 
BRANCH   6   7
ATOM      7  C   UNL     1      16.135 -34.341  20.071  1.00  0.00     0.000 C 
BRANCH   7   8
ATOM      8  C   UNL     1      16.517 -35.794  20.383  1.00  0.00     0.000 C 
BRANCH   8   9
ATOM      9  C   UNL     1      17.996 -36.060  20.061  1.00  0.00     0.000 C 
BRANCH   9  10
ATOM     10  C   UNL     1      18.897 -35.999  21.308  1.00  0.00     0.000 C 
BRANCH  10  11
ATOM     11  C   UNL     1      18.355 -36.747  22.542  1.00  0.00     0.000 C 
BRANCH  11  12
ATOM     12  C   UNL     1      18.313 -35.917  23.838  1.00  0.00     0.006 C 
BRANCH  12  13
ATOM     13  C   UNL     1      19.261 -36.457  24.916  1.00  0.00     0.053 C 
BRANCH  13  14
ATOM     14  C   UNL     1      18.494 -37.208  25.957  1.00  0.00     0.041 C 
ATOM     15  O   UNL     1      17.909 -36.587  26.885  1.00  0.00    -0.550 OA
ATOM     16  O   UNL     1      18.380 -38.590  25.876  1.00  0.00    -0.550 OA
ENDBRANCH  13  14
ENDBRANCH  12  13
ENDBRANCH  11  12
ENDBRANCH  10  11
ENDBRANCH   9  10
ENDBRANCH   8   9
ENDBRANCH   7   8
ENDBRANCH   6   7
ENDBRANCH   5   6
ENDBRANCH   4   5
ENDBRANCH   3   4
ENDBRANCH   2   3
ENDBRANCH   1   2
BRANCH   1  17
ATOM     17  C   UNL     1      13.965 -32.728  24.278  1.00  0.00     0.000 C 
BRANCH  17  18
ATOM     18  C   UNL     1      15.338 -33.432  24.259  1.00  0.00     0.000 C 
BRANCH  18  19
ATOM     19  C   UNL     1      16.512 -32.437  24.281  1.00  0.00     0.000 C 
BRANCH  19  20
ATOM     20  C   UNL     1      17.389 -32.550  23.014  1.00  0.00     0.000 C 
BRANCH  20  21
ATOM     21  C   UNL     1      17.534 -31.227  22.236  1.00  0.00     0.000 C 
BRANCH  21  22
ATOM     22  C   UNL     1      18.163 -31.362  20.838  1.00  0.00    -0.000 C 
BRANCH  22  23
ATOM     23  C   UNL     1      19.268 -32.428  20.779  1.00  0.00    -0.000 C 
BRANCH  23  24
ATOM     24  C   UNL     1      20.657 -31.770  20.783  1.00  0.00    -0.000 C 
BRANCH  24  25
ATOM     25  C   UNL     1      21.463 -32.080  22.057  1.00  0.00    -0.000 C 
BRANCH  25  26
ATOM     26  C   UNL     1      20.960 -33.292  22.865  1.00  0.00    -0.000 C 
BRANCH  26  27
ATOM     27  C   UNL     1      20.894 -33.082  24.389  1.00  0.00    -0.000 C 
BRANCH  27  28
ATOM     28  C   UNL     1      20.574 -31.628  24.777  1.00  0.00    -0.000 C 
BRANCH  28  29
ATOM     29  C   UNL     1      19.701 -31.534  26.038  1.00  0.00    -0.003 C 
ATOM     30  C   UNL     1      19.124 -32.887  26.460  1.00  0.00     0.004 C 
ENDBRANCH  28  29
ENDBRANCH  27  28
ENDBRANCH  26  27
ENDBRANCH  25  26
ENDBRANCH  24  25
ENDBRANCH  23  24
ENDBRANCH  22  23
ENDBRANCH  21  22
ENDBRANCH  20  21
ENDBRANCH  19  20
ENDBRANCH  18  19
ENDBRANCH  17  18
ENDBRANCH   1  17
TORSDOF 26
ENDMDL
MODEL 9
REMARK VINA RESULT:    -4.546      1.474      2.964
REMARK INTER + INTRA:         -16.277
REMARK INTER:                 -11.290
REMARK INTRA:                  -4.987
REMARK UNBOUND:                -4.822
REMARK SMILES CCCCCCCCCCCCCCCCCCCCCCCCCCCC(=O)[O-]
REMARK SMILES IDX 15 1 16 2 17 3 18 4 19 5 20 6 21 7 22 8 23 9 24 10 25 11
REMARK SMILES IDX 26 12 27 13 28 14 29 15 30 16 14 17 13 18 12 19 11 20 10 21
REMARK SMILES IDX 9 22 8 23 7 24 6 25 5 26 4 27 3 28 2 29 1 30
REMARK H PARENT
REMARK Flexibility Score: inf
ROOT
ATOM      1  C   UNL     1      15.841 -33.441  24.021  1.00  0.00     0.000 C 
ENDROOT
BRANCH   1   2
ATOM      2  C   UNL     1      14.374 -33.036  24.234  1.00  0.00     0.000 C 
BRANCH   2   3
ATOM      3  C   UNL     1      14.085 -31.602  23.741  1.00  0.00     0.000 C 
BRANCH   3   4
ATOM      4  C   UNL     1      13.580 -31.535  22.289  1.00  0.00     0.000 C 
BRANCH   4   5
ATOM      5  C   UNL     1      14.592 -30.888  21.330  1.00  0.00     0.000 C 
BRANCH   5   6
ATOM      6  C   UNL     1      15.859 -30.397  22.049  1.00  0.00     0.000 C 
BRANCH   6   7
ATOM      7  C   UNL     1      17.142 -30.709  21.266  1.00  0.00     0.000 C 
BRANCH   7   8
ATOM      8  C   UNL     1      18.244 -31.218  22.203  1.00  0.00     0.000 C 
BRANCH   8   9
ATOM      9  C   UNL     1      19.401 -31.845  21.409  1.00  0.00     0.000 C 
BRANCH   9  10
ATOM     10  C   UNL     1      20.703 -31.030  21.510  1.00  0.00     0.000 C 
BRANCH  10  11
ATOM     11  C   UNL     1      20.650 -29.632  20.863  1.00  0.00     0.000 C 
BRANCH  11  12
ATOM     12  C   UNL     1      21.712 -28.640  21.372  1.00  0.00     0.006 C 
BRANCH  12  13
ATOM     13  C   UNL     1      21.384 -27.186  21.010  1.00  0.00     0.053 C 
BRANCH  13  14
ATOM     14  C   UNL     1      22.556 -26.537  20.345  1.00  0.00     0.041 C 
ATOM     15  O   UNL     1      23.677 -27.111  20.334  1.00  0.00    -0.550 OA
ATOM     16  O   UNL     1      22.399 -25.321  19.691  1.00  0.00    -0.550 OA
ENDBRANCH  13  14
ENDBRANCH  12  13
ENDBRANCH  11  12
ENDBRANCH  10  11
ENDBRANCH   9  10
ENDBRANCH   8   9
ENDBRANCH   7   8
ENDBRANCH   6   7
ENDBRANCH   5   6
ENDBRANCH   4   5
ENDBRANCH   3   4
ENDBRANCH   2   3
ENDBRANCH   1   2
BRANCH   1  17
ATOM     17  C   UNL     1      15.991 -34.715  23.172  1.00  0.00     0.000 C 
BRANCH  17  18
ATOM     18  C   UNL     1      15.464 -34.561  21.730  1.00  0.00     0.000 C 
BRANCH  18  19
ATOM     19  C   UNL     1      16.578 -34.204  20.730  1.00  0.00     0.000 C 
BRANCH  19  20
ATOM     20  C   UNL     1      16.473 -35.032  19.430  1.00  0.00     0.000 C 
BRANCH  20  21
ATOM     21  C   UNL     1      16.826 -36.522  19.609  1.00  0.00     0.000 C 
BRANCH  21  22
ATOM     22  C   UNL     1      18.266 -36.796  20.075  1.00  0.00    -0.000 C 
BRANCH  22  23
ATOM     23  C   UNL     1      18.337 -37.755  21.273  1.00  0.00    -0.000 C 
BRANCH  23  24
ATOM     24  C   UNL     1      18.793 -37.011  22.538  1.00  0.00    -0.000 C 
BRANCH  24  25
ATOM     25  C   UNL     1      19.573 -35.721  22.226  1.00  0.00    -0.000 C 
BRANCH  25  26
ATOM     26  C   UNL     1      19.933 -34.867  23.457  1.00  0.00    -0.000 C 
BRANCH  26  27
ATOM     27  C   UNL     1      19.334 -35.352  24.789  1.00  0.00    -0.000 C 
BRANCH  27  28
ATOM     28  C   UNL     1      18.954 -34.194  25.730  1.00  0.00    -0.000 C 
BRANCH  28  29
ATOM     29  C   UNL     1      19.504 -32.842  25.251  1.00  0.00    -0.003 C 
ATOM     30  C   UNL     1      18.813 -31.651  25.917  1.00  0.00     0.004 C 
ENDBRANCH  28  29
ENDBRANCH  27  28
ENDBRANCH  26  27
ENDBRANCH  25  26
ENDBRANCH  24  25
ENDBRANCH  23  24
ENDBRANCH  22  23
ENDBRANCH  21  22
ENDBRANCH  20  21
ENDBRANCH  19  20
ENDBRANCH  18  19
ENDBRANCH  17  18
ENDBRANCH   1  17
TORSDOF 26
ENDMDL
