MODEL 1
REMARK VINA RESULT:    -3.230      0.000      0.000
REMARK INTER + INTRA:          -3.646
REMARK INTER:                  -3.607
REMARK INTRA:                  -0.038
REMARK UNBOUND:                -0.038
REMARK SMILES CCCC(=O)[O-]
REMARK SMILES IDX 3 1 4 2 5 3 6 4 2 5 1 6
REMARK H PARENT
REMARK Flexibility Score: inf
ROOT
ATOM      1  C   UNL     1     133.573 133.978 114.833  1.00  0.00     0.052 C 
ENDROOT
BRANCH   1   2
ATOM      2  C   UNL     1     134.766 133.514 114.058  1.00  0.00     0.041 C 
ATOM      3  O   UNL     1     135.622 132.767 114.600  1.00  0.00    -0.550 OA
ATOM      4  O   UNL     1     134.956 133.946 112.752  1.00  0.00    -0.550 OA
ENDBRANCH   1   2
BRANCH   1   5
ATOM      5  C   UNL     1     133.364 135.483 114.644  1.00  0.00     0.003 C 
ATOM      6  C   UNL     1     132.080 135.768 113.871  1.00  0.00     0.004 C 
ENDBRANCH   1   5
TORSDOF 2
ENDMDL
MODEL 2
REMARK VINA RESULT:    -3.226     11.472     11.988
REMARK INTER + INTRA:          -3.642
REMARK INTER:                  -3.606
REMARK INTRA:                  -0.036
REMARK UNBOUND:                -0.038
REMARK SMILES CCCC(=O)[O-]
REMARK SMILES IDX 3 1 4 2 5 3 6 4 2 5 1 6
REMARK H PARENT
REMARK Flexibility Score: inf
ROOT
ATOM      1  C   UNL     1     142.930 142.468 114.843  1.00  0.00     0.052 C 
ENDROOT
BRANCH   1   2
ATOM      2  C   UNL     1     141.753 142.905 114.029  1.00  0.00     0.041 C 
ATOM      3  O   UNL     1     140.848 143.608 114.550  1.00  0.00    -0.550 OA
ATOM      4  O   UNL     1     141.633 142.495 112.708  1.00  0.00    -0.550 OA
ENDBRANCH   1   2
BRANCH   1   5
ATOM      5  C   UNL     1     143.164 140.964 114.681  1.00  0.00     0.003 C 
ATOM      6  C   UNL     1     144.443 140.687 113.896  1.00  0.00     0.004 C 
ENDBRANCH   1   5
TORSDOF 2
ENDMDL
MODEL 3
REMARK VINA RESULT:    -3.217     10.501     11.049
REMARK INTER + INTRA:          -3.632
REMARK INTER:                  -3.563
REMARK INTRA:                  -0.068
REMARK UNBOUND:                -0.038
REMARK SMILES CCCC(=O)[O-]
REMARK SMILES IDX 3 1 4 2 5 3 6 4 2 5 1 6
REMARK H PARENT
REMARK Flexibility Score: inf
ROOT
ATOM      1  C   UNL     1     140.518 143.394 114.644  1.00  0.00     0.052 C 
ENDROOT
BRANCH   1   2
ATOM      2  C   UNL     1     139.915 142.254 115.402  1.00  0.00     0.041 C 
ATOM      3  O   UNL     1     139.512 141.229 114.792  1.00  0.00    -0.550 OA
ATOM      4  O   UNL     1     139.755 142.344 116.779  1.00  0.00    -0.550 OA
ENDBRANCH   1   2
BRANCH   1   5
ATOM      5  C   UNL     1     141.864 142.984 114.040  1.00  0.00     0.003 C 
ATOM      6  C   UNL     1     142.875 142.643 115.130  1.00  0.00     0.004 C 
ENDBRANCH   1   5
TORSDOF 2
ENDMDL
MODEL 4
REMARK VINA RESULT:    -3.214      1.485      1.831
REMARK INTER + INTRA:          -3.628
REMARK INTER:                  -3.591
REMARK INTRA:                  -0.037
REMARK UNBOUND:                -0.038
REMARK SMILES CCCC(=O)[O-]
REMARK SMILES IDX 3 1 4 2 5 3 6 4 2 5 1 6
REMARK H PARENT
REMARK Flexibility Score: inf
ROOT
ATOM      1  C   UNL     1     134.721 133.104 114.294  1.00  0.00     0.052 C 
ENDROOT
BRANCH   1   2
ATOM      2  C   UNL     1     136.106 133.288 114.827  1.00  0.00     0.041 C 
ATOM      3  O   UNL     1     136.841 132.289 115.042  1.00  0.00    -0.550 OA
ATOM      4  O   UNL     1     136.569 134.562 115.131  1.00  0.00    -0.550 OA
ENDBRANCH   1   2
BRANCH   1   5
ATOM      5  C   UNL     1     133.709 133.862 115.157  1.00  0.00     0.003 C 
ATOM      6  C   UNL     1     132.963 134.911 114.339  1.00  0.00     0.004 C 
ENDBRANCH   1   5
TORSDOF 2
ENDMDL
MODEL 5
REMARK VINA RESULT:    -3.075      2.678      3.339
REMARK INTER + INTRA:          -3.472
REMARK INTER:                  -3.434
REMARK INTRA:                  -0.039
REMARK UNBOUND:                -0.038
REMARK SMILES CCCC(=O)[O-]
REMARK SMILES IDX 3 1 4 2 5 3 6 4 2 5 1 6
REMARK H PARENT
REMARK Flexibility Score: inf
ROOT
ATOM      1  C   UNL     1     133.533 135.637 114.998  1.00  0.00     0.052 C 
ENDROOT
BRANCH   1   2
ATOM      2  C   UNL     1     134.501 136.427 115.821  1.00  0.00     0.041 C 
ATOM      3  O   UNL     1     134.202 136.773 116.993  1.00  0.00    -0.550 OA
ATOM      4  O   UNL     1     135.716 136.822 115.274  1.00  0.00    -0.550 OA
ENDBRANCH   1   2
BRANCH   1   5
ATOM      5  C   UNL     1     133.730 134.137 115.233  1.00  0.00     0.003 C 
ATOM      6  C   UNL     1     134.519 133.499 114.094  1.00  0.00     0.004 C 
ENDBRANCH   1   5
TORSDOF 2
ENDMDL
MODEL 6
REMARK VINA RESULT:    -3.068     10.443     10.722
REMARK INTER + INTRA:          -3.465
REMARK INTER:                  -3.424
REMARK INTRA:                  -0.041
REMARK UNBOUND:                -0.038
REMARK SMILES CCCC(=O)[O-]
REMARK SMILES IDX 3 1 4 2 5 3 6 4 2 5 1 6
REMARK H PARENT
REMARK Flexibility Score: inf
ROOT
ATOM      1  C   UNL     1     142.934 140.869 114.980  1.00  0.00     0.052 C 
ENDROOT
BRANCH   1   2
ATOM      2  C   UNL     1     141.950 140.072 115.777  1.00  0.00     0.041 C 
ATOM      3  O   UNL     1     142.208 139.755 116.968  1.00  0.00    -0.550 OA
ATOM      4  O   UNL     1     140.770 139.637 115.188  1.00  0.00    -0.550 OA
ENDBRANCH   1   2
BRANCH   1   5
ATOM      5  C   UNL     1     142.803 142.360 115.306  1.00  0.00     0.003 C 
ATOM      6  C   UNL     1     141.916 143.070 114.288  1.00  0.00     0.004 C 
ENDBRANCH   1   5
TORSDOF 2
ENDMDL
MODEL 7
REMARK VINA RESULT:    -3.023      1.967      3.111
REMARK INTER + INTRA:          -3.415
REMARK INTER:                  -3.344
REMARK INTRA:                  -0.071
REMARK UNBOUND:                -0.038
REMARK SMILES CCCC(=O)[O-]
REMARK SMILES IDX 3 1 4 2 5 3 6 4 2 5 1 6
REMARK H PARENT
REMARK Flexibility Score: inf
ROOT
ATOM      1  C   UNL     1     135.813 133.105 114.589  1.00  0.00     0.052 C 
ENDROOT
BRANCH   1   2
ATOM      2  C   UNL     1     134.427 133.605 114.330  1.00  0.00     0.041 C 
ATOM      3  O   UNL     1     134.081 133.938 113.166  1.00  0.00    -0.550 OA
ATOM      4  O   UNL     1     133.534 133.750 115.383  1.00  0.00    -0.550 OA
ENDBRANCH   1   2
BRANCH   1   5
ATOM      5  C   UNL     1     136.532 134.011 115.592  1.00  0.00     0.003 C 
ATOM      6  C   UNL     1     136.852 135.369 114.976  1.00  0.00     0.004 C 
ENDBRANCH   1   5
TORSDOF 2
ENDMDL
MODEL 8
REMARK VINA RESULT:    -3.018     11.084     11.456
REMARK INTER + INTRA:          -3.409
REMARK INTER:                  -3.371
REMARK INTRA:                  -0.038
REMARK UNBOUND:                -0.038
REMARK SMILES CCCC(=O)[O-]
REMARK SMILES IDX 3 1 4 2 5 3 6 4 2 5 1 6
REMARK H PARENT
REMARK Flexibility Score: inf
ROOT
ATOM      1  C   UNL     1     142.026 141.518 115.873  1.00  0.00     0.052 C 
ENDROOT
BRANCH   1   2
ATOM      2  C   UNL     1     140.973 142.148 116.729  1.00  0.00     0.041 C 
ATOM      3  O   UNL     1     141.107 142.178 117.981  1.00  0.00    -0.550 OA
ATOM      4  O   UNL     1     139.820 142.659 116.147  1.00  0.00    -0.550 OA
ENDBRANCH   1   2
BRANCH   1   5
ATOM      5  C   UNL     1     142.840 142.593 115.148  1.00  0.00     0.003 C 
ATOM      6  C   UNL     1     142.535 142.601 113.653  1.00  0.00     0.004 C 
ENDBRANCH   1   5
TORSDOF 2
ENDMDL
MODEL 9
REMARK VINA RESULT:    -3.014     11.180     11.467
REMARK INTER + INTRA:          -3.404
REMARK INTER:                  -3.367
REMARK INTRA:                  -0.037
REMARK UNBOUND:                -0.038
REMARK SMILES CCCC(=O)[O-]
REMARK SMILES IDX 3 1 4 2 5 3 6 4 2 5 1 6
REMARK H PARENT
REMARK Flexibility Score: inf
ROOT
ATOM      1  C   UNL     1     142.876 142.504 115.135  1.00  0.00     0.052 C 
ENDROOT
BRANCH   1   2
ATOM      2  C   UNL     1     143.168 141.129 114.622  1.00  0.00     0.041 C 
ATOM      3  O   UNL     1     142.341 140.197 114.800  1.00  0.00    -0.550 OA
ATOM      4  O   UNL     1     144.376 140.867 113.989  1.00  0.00    -0.550 OA
ENDBRANCH   1   2
BRANCH   1   5
ATOM      5  C   UNL     1     141.959 143.254 114.165  1.00  0.00     0.003 C 
ATOM      6  C   UNL     1     140.515 143.250 114.657  1.00  0.00     0.004 C 
ENDBRANCH   1   5
TORSDOF 2
ENDMDL
