MODEL 1
REMARK VINA RESULT:    -4.949      0.000      0.000
REMARK INTER + INTRA:         -13.973
REMARK INTER:                 -11.315
REMARK INTRA:                  -2.658
REMARK UNBOUND:                -2.658
REMARK SMILES CCCCCCCCCCCCCCCCCCCCCCCC(=O)[O-]
REMARK SMILES IDX 13 1 14 2 15 3 16 4 17 5 18 6 19 7 20 8 21 9 22 10 23 11
REMARK SMILES IDX 24 12 25 13 26 14 12 15 11 16 10 17 9 18 8 19 7 20 6 21 5 22
REMARK SMILES IDX 4 23 3 24 2 25 1 26
REMARK H PARENT
REMARK Flexibility Score: inf
ROOT
ATOM      1  C   UNL     1     -19.826   0.912  26.771  1.00  0.00     0.000 C 
ENDROOT
BRANCH   1   2
ATOM      2  C   UNL     1     -20.847   0.051  26.006  1.00  0.00     0.000 C 
BRANCH   2   3
ATOM      3  C   UNL     1     -22.242  -0.044  26.657  1.00  0.00     0.000 C 
BRANCH   3   4
ATOM      4  C   UNL     1     -22.300   0.381  28.136  1.00  0.00     0.000 C 
BRANCH   4   5
ATOM      5  C   UNL     1     -23.065  -0.584  29.065  1.00  0.00     0.000 C 
BRANCH   5   6
ATOM      6  C   UNL     1     -22.693  -2.071  28.912  1.00  0.00     0.000 C 
BRANCH   6   7
ATOM      7  C   UNL     1     -22.191  -2.698  30.223  1.00  0.00     0.000 C 
BRANCH   7   8
ATOM      8  C   UNL     1     -22.965  -3.973  30.602  1.00  0.00     0.000 C 
BRANCH   8   9
ATOM      9  C   UNL     1     -22.037  -5.155  30.929  1.00  0.00     0.000 C 
BRANCH   9  10
ATOM     10  C   UNL     1     -22.429  -5.868  32.239  1.00  0.00     0.006 C 
BRANCH  10  11
ATOM     11  C   UNL     1     -21.464  -5.595  33.405  1.00  0.00     0.053 C 
BRANCH  11  12
ATOM     12  C   UNL     1     -21.158  -6.830  34.193  1.00  0.00     0.041 C 
ATOM     13  O   UNL     1     -21.820  -7.884  34.003  1.00  0.00    -0.550 OA
ATOM     14  O   UNL     1     -20.149  -6.814  35.147  1.00  0.00    -0.550 OA
ENDBRANCH  11  12
ENDBRANCH  10  11
ENDBRANCH   9  10
ENDBRANCH   8   9
ENDBRANCH   7   8
ENDBRANCH   6   7
ENDBRANCH   5   6
ENDBRANCH   4   5
ENDBRANCH   3   4
ENDBRANCH   2   3
ENDBRANCH   1   2
BRANCH   1  15
ATOM     15  C   UNL     1     -18.697   0.078  27.402  1.00  0.00     0.000 C 
BRANCH  15  16
ATOM     16  C   UNL     1     -18.630   0.234  28.930  1.00  0.00     0.000 C 
BRANCH  16  17
ATOM     17  C   UNL     1     -19.231  -0.972  29.672  1.00  0.00     0.000 C 
BRANCH  17  18
ATOM     18  C   UNL     1     -18.547  -2.301  29.302  1.00  0.00    -0.000 C 
BRANCH  18  19
ATOM     19  C   UNL     1     -18.366  -3.290  30.471  1.00  0.00    -0.000 C 
BRANCH  19  20
ATOM     20  C   UNL     1     -17.104  -3.071  31.329  1.00  0.00    -0.000 C 
BRANCH  20  21
ATOM     21  C   UNL     1     -17.278  -2.092  32.507  1.00  0.00    -0.000 C 
BRANCH  21  22
ATOM     22  C   UNL     1     -16.566  -0.737  32.333  1.00  0.00    -0.000 C 
BRANCH  22  23
ATOM     23  C   UNL     1     -15.540  -0.717  31.181  1.00  0.00    -0.000 C 
BRANCH  23  24
ATOM     24  C   UNL     1     -14.140  -0.287  31.646  1.00  0.00    -0.000 C 
BRANCH  24  25
ATOM     25  C   UNL     1     -13.340   0.323  30.488  1.00  0.00    -0.003 C 
ATOM     26  C   UNL     1     -14.065   1.524  29.890  1.00  0.00     0.004 C 
ENDBRANCH  24  25
ENDBRANCH  23  24
ENDBRANCH  22  23
ENDBRANCH  21  22
ENDBRANCH  20  21
ENDBRANCH  19  20
ENDBRANCH  18  19
ENDBRANCH  17  18
ENDBRANCH  16  17
ENDBRANCH  15  16
ENDBRANCH   1  15
TORSDOF 22
ENDMDL
MODEL 2
REMARK VINA RESULT:    -4.928      1.909      4.026
REMARK INTER + INTRA:         -13.923
REMARK INTER:                 -11.048
REMARK INTRA:                  -2.875
REMARK UNBOUND:                -2.658
REMARK SMILES CCCCCCCCCCCCCCCCCCCCCCCC(=O)[O-]
REMARK SMILES IDX 13 1 14 2 15 3 16 4 17 5 18 6 19 7 20 8 21 9 22 10 23 11
REMARK SMILES IDX 24 12 25 13 26 14 12 15 11 16 10 17 9 18 8 19 7 20 6 21 5 22
REMARK SMILES IDX 4 23 3 24 2 25 1 26
REMARK H PARENT
REMARK Flexibility Score: inf
ROOT
ATOM      1  C   UNL     1     -22.731   0.144  28.967  1.00  0.00     0.000 C 
ENDROOT
BRANCH   1   2
ATOM      2  C   UNL     1     -23.489  -0.489  30.148  1.00  0.00     0.000 C 
BRANCH   2   3
ATOM      3  C   UNL     1     -23.902  -1.961  29.948  1.00  0.00     0.000 C 
BRANCH   3   4
ATOM      4  C   UNL     1     -23.018  -2.990  30.678  1.00  0.00     0.000 C 
BRANCH   4   5
ATOM      5  C   UNL     1     -21.610  -3.186  30.079  1.00  0.00     0.000 C 
BRANCH   5   6
ATOM      6  C   UNL     1     -20.721  -4.201  30.820  1.00  0.00     0.000 C 
BRANCH   6   7
ATOM      7  C   UNL     1     -19.996  -5.167  29.866  1.00  0.00     0.000 C 
BRANCH   7   8
ATOM      8  C   UNL     1     -20.919  -6.280  29.340  1.00  0.00     0.000 C 
BRANCH   8   9
ATOM      9  C   UNL     1     -21.851  -6.841  30.427  1.00  0.00     0.000 C 
BRANCH   9  10
ATOM     10  C   UNL     1     -21.099  -7.710  31.457  1.00  0.00     0.006 C 
BRANCH  10  11
ATOM     11  C   UNL     1     -21.886  -7.948  32.756  1.00  0.00     0.053 C 
BRANCH  11  12
ATOM     12  C   UNL     1     -21.591  -6.915  33.799  1.00  0.00     0.041 C 
ATOM     13  O   UNL     1     -22.331  -5.903  33.917  1.00  0.00    -0.550 OA
ATOM     14  O   UNL     1     -20.490  -7.064  34.633  1.00  0.00    -0.550 OA
ENDBRANCH  11  12
ENDBRANCH  10  11
ENDBRANCH   9  10
ENDBRANCH   8   9
ENDBRANCH   7   8
ENDBRANCH   6   7
ENDBRANCH   5   6
ENDBRANCH   4   5
ENDBRANCH   3   4
ENDBRANCH   2   3
ENDBRANCH   1   2
BRANCH   1  15
ATOM     15  C   UNL     1     -23.597   0.267  27.700  1.00  0.00     0.000 C 
BRANCH  15  16
ATOM     16  C   UNL     1     -23.014  -0.507  26.508  1.00  0.00     0.000 C 
BRANCH  16  17
ATOM     17  C   UNL     1     -22.043   0.344  25.671  1.00  0.00     0.000 C 
BRANCH  17  18
ATOM     18  C   UNL     1     -20.566   0.063  26.003  1.00  0.00    -0.000 C 
BRANCH  18  19
ATOM     19  C   UNL     1     -19.837   1.197  26.752  1.00  0.00    -0.000 C 
BRANCH  19  20
ATOM     20  C   UNL     1     -18.514   0.793  27.432  1.00  0.00    -0.000 C 
BRANCH  20  21
ATOM     21  C   UNL     1     -18.582  -0.491  28.282  1.00  0.00    -0.000 C 
BRANCH  21  22
ATOM     22  C   UNL     1     -19.184  -0.304  29.688  1.00  0.00    -0.000 C 
BRANCH  22  23
ATOM     23  C   UNL     1     -18.504  -1.163  30.774  1.00  0.00    -0.000 C 
BRANCH  23  24
ATOM     24  C   UNL     1     -17.696  -2.329  30.183  1.00  0.00    -0.000 C 
BRANCH  24  25
ATOM     25  C   UNL     1     -16.642  -2.828  31.180  1.00  0.00    -0.003 C 
ATOM     26  C   UNL     1     -17.093  -2.602  32.619  1.00  0.00     0.004 C 
ENDBRANCH  24  25
ENDBRANCH  23  24
ENDBRANCH  22  23
ENDBRANCH  21  22
ENDBRANCH  20  21
ENDBRANCH  19  20
ENDBRANCH  18  19
ENDBRANCH  17  18
ENDBRANCH  16  17
ENDBRANCH  15  16
ENDBRANCH   1  15
TORSDOF 22
ENDMDL
MODEL 3
REMARK VINA RESULT:    -4.816      2.698      6.238
REMARK INTER + INTRA:         -13.668
REMARK INTER:                 -10.039
REMARK INTRA:                  -3.628
REMARK UNBOUND:                -2.658
REMARK SMILES CCCCCCCCCCCCCCCCCCCCCCCC(=O)[O-]
REMARK SMILES IDX 13 1 14 2 15 3 16 4 17 5 18 6 19 7 20 8 21 9 22 10 23 11
REMARK SMILES IDX 24 12 25 13 26 14 12 15 11 16 10 17 9 18 8 19 7 20 6 21 5 22
REMARK SMILES IDX 4 23 3 24 2 25 1 26
REMARK H PARENT
REMARK Flexibility Score: inf
ROOT
ATOM      1  C   UNL     1     -22.814  -0.497  26.662  1.00  0.00     0.000 C 
ENDROOT
BRANCH   1   2
ATOM      2  C   UNL     1     -21.829   0.501  26.028  1.00  0.00     0.000 C 
BRANCH   2   3
ATOM      3  C   UNL     1     -20.359   0.034  25.988  1.00  0.00     0.000 C 
BRANCH   3   4
ATOM      4  C   UNL     1     -19.392   0.851  26.865  1.00  0.00     0.000 C 
BRANCH   4   5
ATOM      5  C   UNL     1     -20.055   1.632  28.019  1.00  0.00     0.000 C 
BRANCH   5   6
ATOM      6  C   UNL     1     -20.173   0.860  29.346  1.00  0.00     0.000 C 
BRANCH   6   7
ATOM      7  C   UNL     1     -19.251  -0.369  29.405  1.00  0.00     0.000 C 
BRANCH   7   8
ATOM      8  C   UNL     1     -20.034  -1.691  29.496  1.00  0.00     0.000 C 
BRANCH   8   9
ATOM      9  C   UNL     1     -19.204  -2.831  30.110  1.00  0.00     0.000 C 
BRANCH   9  10
ATOM     10  C   UNL     1     -17.692  -2.663  29.855  1.00  0.00     0.006 C 
BRANCH  10  11
ATOM     11  C   UNL     1     -16.841  -2.712  31.134  1.00  0.00     0.053 C 
BRANCH  11  12
ATOM     12  C   UNL     1     -16.535  -1.348  31.669  1.00  0.00     0.041 C 
ATOM     13  O   UNL     1     -15.582  -0.678  31.192  1.00  0.00    -0.550 OA
ATOM     14  O   UNL     1     -17.296  -0.821  32.705  1.00  0.00    -0.550 OA
ENDBRANCH  11  12
ENDBRANCH  10  11
ENDBRANCH   9  10
ENDBRANCH   8   9
ENDBRANCH   7   8
ENDBRANCH   6   7
ENDBRANCH   5   6
ENDBRANCH   4   5
ENDBRANCH   3   4
ENDBRANCH   2   3
ENDBRANCH   1   2
BRANCH   1  15
ATOM     15  C   UNL     1     -23.541   0.081  27.890  1.00  0.00     0.000 C 
BRANCH  15  16
ATOM     16  C   UNL     1     -23.748  -0.962  29.000  1.00  0.00     0.000 C 
BRANCH  16  17
ATOM     17  C   UNL     1     -23.759  -2.402  28.459  1.00  0.00     0.000 C 
BRANCH  17  18
ATOM     18  C   UNL     1     -23.789  -3.459  29.578  1.00  0.00    -0.000 C 
BRANCH  18  19
ATOM     19  C   UNL     1     -22.931  -3.126  30.815  1.00  0.00    -0.000 C 
BRANCH  19  20
ATOM     20  C   UNL     1     -23.486  -3.638  32.159  1.00  0.00    -0.000 C 
BRANCH  20  21
ATOM     21  C   UNL     1     -22.739  -4.847  32.755  1.00  0.00    -0.000 C 
BRANCH  21  22
ATOM     22  C   UNL     1     -21.461  -5.256  31.998  1.00  0.00    -0.000 C 
BRANCH  22  23
ATOM     23  C   UNL     1     -21.480  -6.710  31.484  1.00  0.00    -0.000 C 
BRANCH  23  24
ATOM     24  C   UNL     1     -20.610  -6.904  30.232  1.00  0.00    -0.000 C 
BRANCH  24  25
ATOM     25  C   UNL     1     -20.921  -5.835  29.177  1.00  0.00    -0.003 C 
ATOM     26  C   UNL     1     -21.902  -6.359  28.133  1.00  0.00     0.004 C 
ENDBRANCH  24  25
ENDBRANCH  23  24
ENDBRANCH  22  23
ENDBRANCH  21  22
ENDBRANCH  20  21
ENDBRANCH  19  20
ENDBRANCH  18  19
ENDBRANCH  17  18
ENDBRANCH  16  17
ENDBRANCH  15  16
ENDBRANCH   1  15
TORSDOF 22
ENDMDL
MODEL 4
REMARK VINA RESULT:    -4.814      2.567      6.641
REMARK INTER + INTRA:         -13.664
REMARK INTER:                 -10.971
REMARK INTRA:                  -2.693
REMARK UNBOUND:                -2.658
REMARK SMILES CCCCCCCCCCCCCCCCCCCCCCCC(=O)[O-]
REMARK SMILES IDX 13 1 14 2 15 3 16 4 17 5 18 6 19 7 20 8 21 9 22 10 23 11
REMARK SMILES IDX 24 12 25 13 26 14 12 15 11 16 10 17 9 18 8 19 7 20 6 21 5 22
REMARK SMILES IDX 4 23 3 24 2 25 1 26
REMARK H PARENT
REMARK Flexibility Score: inf
ROOT
ATOM      1  C   UNL     1     -23.738  -1.645  29.028  1.00  0.00     0.000 C 
ENDROOT
BRANCH   1   2
ATOM      2  C   UNL     1     -23.915  -1.038  27.624  1.00  0.00     0.000 C 
BRANCH   2   3
ATOM      3  C   UNL     1     -23.041   0.198  27.331  1.00  0.00     0.000 C 
BRANCH   3   4
ATOM      4  C   UNL     1     -22.181   0.100  26.057  1.00  0.00     0.000 C 
BRANCH   4   5
ATOM      5  C   UNL     1     -20.717   0.558  26.218  1.00  0.00     0.000 C 
BRANCH   5   6
ATOM      6  C   UNL     1     -20.457   1.509  27.401  1.00  0.00     0.000 C 
BRANCH   6   7
ATOM      7  C   UNL     1     -19.573   0.879  28.490  1.00  0.00     0.000 C 
BRANCH   7   8
ATOM      8  C   UNL     1     -18.704  -0.271  27.953  1.00  0.00     0.000 C 
BRANCH   8   9
ATOM      9  C   UNL     1     -18.500  -1.393  28.985  1.00  0.00     0.000 C 
BRANCH   9  10
ATOM     10  C   UNL     1     -18.293  -0.849  30.414  1.00  0.00     0.006 C 
BRANCH  10  11
ATOM     11  C   UNL     1     -18.104  -1.947  31.472  1.00  0.00     0.053 C 
BRANCH  11  12
ATOM     12  C   UNL     1     -16.839  -1.775  32.255  1.00  0.00     0.041 C 
ATOM     13  O   UNL     1     -16.617  -2.489  33.267  1.00  0.00    -0.550 OA
ATOM     14  O   UNL     1     -15.911  -0.814  31.873  1.00  0.00    -0.550 OA
ENDBRANCH  11  12
ENDBRANCH  10  11
ENDBRANCH   9  10
ENDBRANCH   8   9
ENDBRANCH   7   8
ENDBRANCH   6   7
ENDBRANCH   5   6
ENDBRANCH   4   5
ENDBRANCH   3   4
ENDBRANCH   2   3
ENDBRANCH   1   2
BRANCH   1  15
ATOM     15  C   UNL     1     -22.284  -2.053  29.322  1.00  0.00     0.000 C 
BRANCH  15  16
ATOM     16  C   UNL     1     -22.171  -3.484  29.870  1.00  0.00     0.000 C 
BRANCH  16  17
ATOM     17  C   UNL     1     -20.757  -3.808  30.383  1.00  0.00     0.000 C 
BRANCH  17  18
ATOM     18  C   UNL     1     -20.233  -5.163  29.872  1.00  0.00    -0.000 C 
BRANCH  18  19
ATOM     19  C   UNL     1     -21.310  -6.106  29.299  1.00  0.00    -0.000 C 
BRANCH  19  20
ATOM     20  C   UNL     1     -21.295  -7.542  29.861  1.00  0.00    -0.000 C 
BRANCH  20  21
ATOM     21  C   UNL     1     -22.597  -7.984  30.555  1.00  0.00    -0.000 C 
BRANCH  21  22
ATOM     22  C   UNL     1     -22.565  -7.918  32.094  1.00  0.00    -0.000 C 
BRANCH  22  23
ATOM     23  C   UNL     1     -22.574  -6.480  32.654  1.00  0.00    -0.000 C 
BRANCH  23  24
ATOM     24  C   UNL     1     -21.335  -6.173  33.510  1.00  0.00    -0.000 C 
BRANCH  24  25
ATOM     25  C   UNL     1     -21.106  -7.270  34.558  1.00  0.00    -0.003 C 
ATOM     26  C   UNL     1     -20.084  -6.830  35.601  1.00  0.00     0.004 C 
ENDBRANCH  24  25
ENDBRANCH  23  24
ENDBRANCH  22  23
ENDBRANCH  21  22
ENDBRANCH  20  21
ENDBRANCH  19  20
ENDBRANCH  18  19
ENDBRANCH  17  18
ENDBRANCH  16  17
ENDBRANCH  15  16
ENDBRANCH   1  15
TORSDOF 22
ENDMDL
MODEL 5
REMARK VINA RESULT:    -4.754      0.985      2.137
REMARK INTER + INTRA:         -13.527
REMARK INTER:                 -10.464
REMARK INTRA:                  -3.063
REMARK UNBOUND:                -2.658
REMARK SMILES CCCCCCCCCCCCCCCCCCCCCCCC(=O)[O-]
REMARK SMILES IDX 13 1 14 2 15 3 16 4 17 5 18 6 19 7 20 8 21 9 22 10 23 11
REMARK SMILES IDX 24 12 25 13 26 14 12 15 11 16 10 17 9 18 8 19 7 20 6 21 5 22
REMARK SMILES IDX 4 23 3 24 2 25 1 26
REMARK H PARENT
REMARK Flexibility Score: inf
ROOT
ATOM      1  C   UNL     1     -21.197   0.462  26.395  1.00  0.00     0.000 C 
ENDROOT
BRANCH   1   2
ATOM      2  C   UNL     1     -22.520   0.126  25.684  1.00  0.00     0.000 C 
BRANCH   2   3
ATOM      3  C   UNL     1     -23.668  -0.319  26.612  1.00  0.00     0.000 C 
BRANCH   3   4
ATOM      4  C   UNL     1     -23.890  -1.842  26.689  1.00  0.00     0.000 C 
BRANCH   4   5
ATOM      5  C   UNL     1     -23.962  -2.421  28.116  1.00  0.00     0.000 C 
BRANCH   5   6
ATOM      6  C   UNL     1     -23.632  -1.425  29.243  1.00  0.00     0.000 C 
BRANCH   6   7
ATOM      7  C   UNL     1     -22.319  -1.762  29.971  1.00  0.00     0.000 C 
BRANCH   7   8
ATOM      8  C   UNL     1     -21.999  -3.267  29.944  1.00  0.00     0.000 C 
BRANCH   8   9
ATOM      9  C   UNL     1     -22.545  -4.011  31.174  1.00  0.00     0.000 C 
BRANCH   9  10
ATOM     10  C   UNL     1     -21.646  -5.191  31.598  1.00  0.00     0.006 C 
BRANCH  10  11
ATOM     11  C   UNL     1     -21.240  -5.158  33.080  1.00  0.00     0.053 C 
BRANCH  11  12
ATOM     12  C   UNL     1     -21.217  -6.523  33.695  1.00  0.00     0.041 C 
ATOM     13  O   UNL     1     -20.657  -6.708  34.808  1.00  0.00    -0.550 OA
ATOM     14  O   UNL     1     -21.803  -7.594  33.033  1.00  0.00    -0.550 OA
ENDBRANCH  11  12
ENDBRANCH  10  11
ENDBRANCH   9  10
ENDBRANCH   8   9
ENDBRANCH   7   8
ENDBRANCH   6   7
ENDBRANCH   5   6
ENDBRANCH   4   5
ENDBRANCH   3   4
ENDBRANCH   2   3
ENDBRANCH   1   2
BRANCH   1  15
ATOM     15  C   UNL     1     -21.409   1.058  27.799  1.00  0.00     0.000 C 
BRANCH  15  16
ATOM     16  C   UNL     1     -20.090   1.258  28.561  1.00  0.00     0.000 C 
BRANCH  16  17
ATOM     17  C   UNL     1     -18.856   1.004  27.679  1.00  0.00     0.000 C 
BRANCH  17  18
ATOM     18  C   UNL     1     -18.084  -0.264  28.085  1.00  0.00    -0.000 C 
BRANCH  18  19
ATOM     19  C   UNL     1     -18.795  -1.160  29.119  1.00  0.00    -0.000 C 
BRANCH  19  20
ATOM     20  C   UNL     1     -18.308  -2.622  29.170  1.00  0.00    -0.000 C 
BRANCH  20  21
ATOM     21  C   UNL     1     -18.391  -3.289  30.557  1.00  0.00    -0.000 C 
BRANCH  21  22
ATOM     22  C   UNL     1     -17.203  -2.993  31.491  1.00  0.00    -0.000 C 
BRANCH  22  23
ATOM     23  C   UNL     1     -17.500  -1.915  32.554  1.00  0.00    -0.000 C 
BRANCH  23  24
ATOM     24  C   UNL     1     -16.486  -0.761  32.524  1.00  0.00    -0.000 C 
BRANCH  24  25
ATOM     25  C   UNL     1     -15.729  -0.730  31.190  1.00  0.00    -0.003 C 
ATOM     26  C   UNL     1     -14.289  -0.268  31.384  1.00  0.00     0.004 C 
ENDBRANCH  24  25
ENDBRANCH  23  24
ENDBRANCH  22  23
ENDBRANCH  21  22
ENDBRANCH  20  21
ENDBRANCH  19  20
ENDBRANCH  18  19
ENDBRANCH  17  18
ENDBRANCH  16  17
ENDBRANCH  15  16
ENDBRANCH   1  15
TORSDOF 22
ENDMDL
MODEL 6
REMARK VINA RESULT:    -4.753      3.443      7.361
REMARK INTER + INTRA:         -13.524
REMARK INTER:                 -11.392
REMARK INTRA:                  -2.132
REMARK UNBOUND:                -2.658
REMARK SMILES CCCCCCCCCCCCCCCCCCCCCCCC(=O)[O-]
REMARK SMILES IDX 13 1 14 2 15 3 16 4 17 5 18 6 19 7 20 8 21 9 22 10 23 11
REMARK SMILES IDX 24 12 25 13 26 14 12 15 11 16 10 17 9 18 8 19 7 20 6 21 5 22
REMARK SMILES IDX 4 23 3 24 2 25 1 26
REMARK H PARENT
REMARK Flexibility Score: inf
ROOT
ATOM      1  C   UNL     1     -20.866   0.283  26.021  1.00  0.00     0.000 C 
ENDROOT
BRANCH   1   2
ATOM      2  C   UNL     1     -20.362   1.210  27.142  1.00  0.00     0.000 C 
BRANCH   2   3
ATOM      3  C   UNL     1     -18.831   1.243  27.325  1.00  0.00     0.000 C 
BRANCH   3   4
ATOM      4  C   UNL     1     -18.224  -0.021  27.963  1.00  0.00     0.000 C 
BRANCH   4   5
ATOM      5  C   UNL     1     -18.979  -0.559  29.196  1.00  0.00     0.000 C 
BRANCH   5   6
ATOM      6  C   UNL     1     -18.882  -2.080  29.409  1.00  0.00     0.000 C 
BRANCH   6   7
ATOM      7  C   UNL     1     -17.653  -2.489  30.239  1.00  0.00     0.000 C 
BRANCH   7   8
ATOM      8  C   UNL     1     -17.811  -2.156  31.732  1.00  0.00     0.000 C 
BRANCH   8   9
ATOM      9  C   UNL     1     -16.608  -1.381  32.297  1.00  0.00     0.000 C 
BRANCH   9  10
ATOM     10  C   UNL     1     -15.785  -0.684  31.194  1.00  0.00     0.006 C 
BRANCH  10  11
ATOM     11  C   UNL     1     -14.362  -0.300  31.633  1.00  0.00     0.053 C 
BRANCH  11  12
ATOM     12  C   UNL     1     -13.578   0.339  30.530  1.00  0.00     0.041 C 
ATOM     13  O   UNL     1     -12.472  -0.147  30.174  1.00  0.00    -0.550 OA
ATOM     14  O   UNL     1     -14.062   1.480  29.903  1.00  0.00    -0.550 OA
ENDBRANCH  11  12
ENDBRANCH  10  11
ENDBRANCH   9  10
ENDBRANCH   8   9
ENDBRANCH   7   8
ENDBRANCH   6   7
ENDBRANCH   5   6
ENDBRANCH   4   5
ENDBRANCH   3   4
ENDBRANCH   2   3
ENDBRANCH   1   2
BRANCH   1  15
ATOM     15  C   UNL     1     -22.401   0.254  25.917  1.00  0.00     0.000 C 
BRANCH  15  16
ATOM     16  C   UNL     1     -23.044  -0.717  26.919  1.00  0.00     0.000 C 
BRANCH  16  17
ATOM     17  C   UNL     1     -23.484  -0.018  28.217  1.00  0.00     0.000 C 
BRANCH  17  18
ATOM     18  C   UNL     1     -23.787  -1.009  29.355  1.00  0.00    -0.000 C 
BRANCH  18  19
ATOM     19  C   UNL     1     -22.616  -1.933  29.746  1.00  0.00    -0.000 C 
BRANCH  19  20
ATOM     20  C   UNL     1     -22.921  -3.444  29.686  1.00  0.00    -0.000 C 
BRANCH  20  21
ATOM     21  C   UNL     1     -21.700  -4.363  29.882  1.00  0.00    -0.000 C 
BRANCH  21  22
ATOM     22  C   UNL     1     -21.431  -4.782  31.340  1.00  0.00    -0.000 C 
BRANCH  22  23
ATOM     23  C   UNL     1     -21.159  -6.290  31.514  1.00  0.00    -0.000 C 
BRANCH  23  24
ATOM     24  C   UNL     1     -22.147  -6.959  32.482  1.00  0.00    -0.000 C 
BRANCH  24  25
ATOM     25  C   UNL     1     -22.032  -6.357  33.888  1.00  0.00    -0.003 C 
ATOM     26  C   UNL     1     -21.098  -7.182  34.767  1.00  0.00     0.004 C 
ENDBRANCH  24  25
ENDBRANCH  23  24
ENDBRANCH  22  23
ENDBRANCH  21  22
ENDBRANCH  20  21
ENDBRANCH  19  20
ENDBRANCH  18  19
ENDBRANCH  17  18
ENDBRANCH  16  17
ENDBRANCH  15  16
ENDBRANCH   1  15
TORSDOF 22
ENDMDL
MODEL 7
REMARK VINA RESULT:    -4.684      2.680      6.880
REMARK INTER + INTRA:         -13.367
REMARK INTER:                  -9.789
REMARK INTRA:                  -3.578
REMARK UNBOUND:                -2.658
REMARK SMILES CCCCCCCCCCCCCCCCCCCCCCCC(=O)[O-]
REMARK SMILES IDX 13 1 14 2 15 3 16 4 17 5 18 6 19 7 20 8 21 9 22 10 23 11
REMARK SMILES IDX 24 12 25 13 26 14 12 15 11 16 10 17 9 18 8 19 7 20 6 21 5 22
REMARK SMILES IDX 4 23 3 24 2 25 1 26
REMARK H PARENT
REMARK Flexibility Score: inf
ROOT
ATOM      1  C   UNL     1     -21.932  -2.370  29.768  1.00  0.00     0.000 C 
ENDROOT
BRANCH   1   2
ATOM      2  C   UNL     1     -22.708  -1.637  28.659  1.00  0.00     0.000 C 
BRANCH   2   3
ATOM      3  C   UNL     1     -22.880  -0.119  28.874  1.00  0.00     0.000 C 
BRANCH   3   4
ATOM      4  C   UNL     1     -22.287   0.767  27.763  1.00  0.00     0.000 C 
BRANCH   4   5
ATOM      5  C   UNL     1     -21.856   0.016  26.486  1.00  0.00     0.000 C 
BRANCH   5   6
ATOM      6  C   UNL     1     -20.356   0.107  26.150  1.00  0.00     0.000 C 
BRANCH   6   7
ATOM      7  C   UNL     1     -19.644   1.242  26.905  1.00  0.00     0.000 C 
BRANCH   7   8
ATOM      8  C   UNL     1     -18.445   0.742  27.728  1.00  0.00     0.000 C 
BRANCH   8   9
ATOM      9  C   UNL     1     -18.692  -0.642  28.354  1.00  0.00     0.000 C 
BRANCH   9  10
ATOM     10  C   UNL     1     -18.764  -0.588  29.894  1.00  0.00     0.006 C 
BRANCH  10  11
ATOM     11  C   UNL     1     -18.122  -1.801  30.586  1.00  0.00     0.053 C 
BRANCH  11  12
ATOM     12  C   UNL     1     -17.150  -1.401  31.652  1.00  0.00     0.041 C 
ATOM     13  O   UNL     1     -16.032  -0.913  31.341  1.00  0.00    -0.550 OA
ATOM     14  O   UNL     1     -17.475  -1.579  32.991  1.00  0.00    -0.550 OA
ENDBRANCH  11  12
ENDBRANCH  10  11
ENDBRANCH   9  10
ENDBRANCH   8   9
ENDBRANCH   7   8
ENDBRANCH   6   7
ENDBRANCH   5   6
ENDBRANCH   4   5
ENDBRANCH   3   4
ENDBRANCH   2   3
ENDBRANCH   1   2
BRANCH   1  15
ATOM     15  C   UNL     1     -22.171  -3.891  29.758  1.00  0.00     0.000 C 
BRANCH  15  16
ATOM     16  C   UNL     1     -23.660  -4.255  29.654  1.00  0.00     0.000 C 
BRANCH  16  17
ATOM     17  C   UNL     1     -23.903  -5.495  28.778  1.00  0.00     0.000 C 
BRANCH  17  18
ATOM     18  C   UNL     1     -23.196  -5.409  27.413  1.00  0.00    -0.000 C 
BRANCH  18  19
ATOM     19  C   UNL     1     -22.229  -6.570  27.104  1.00  0.00    -0.000 C 
BRANCH  19  20
ATOM     20  C   UNL     1     -21.874  -7.470  28.305  1.00  0.00    -0.000 C 
BRANCH  20  21
ATOM     21  C   UNL     1     -20.559  -7.111  29.024  1.00  0.00    -0.000 C 
BRANCH  21  22
ATOM     22  C   UNL     1     -20.591  -7.280  30.555  1.00  0.00    -0.000 C 
BRANCH  22  23
ATOM     23  C   UNL     1     -21.961  -7.731  31.102  1.00  0.00    -0.000 C 
BRANCH  23  24
ATOM     24  C   UNL     1     -22.522  -6.764  32.157  1.00  0.00    -0.000 C 
BRANCH  24  25
ATOM     25  C   UNL     1     -21.435  -6.354  33.159  1.00  0.00    -0.003 C 
ATOM     26  C   UNL     1     -21.226  -4.843  33.158  1.00  0.00     0.004 C 
ENDBRANCH  24  25
ENDBRANCH  23  24
ENDBRANCH  22  23
ENDBRANCH  21  22
ENDBRANCH  20  21
ENDBRANCH  19  20
ENDBRANCH  18  19
ENDBRANCH  17  18
ENDBRANCH  16  17
ENDBRANCH  15  16
ENDBRANCH   1  15
TORSDOF 22
ENDMDL
MODEL 8
REMARK VINA RESULT:    -4.666      2.814      6.559
REMARK INTER + INTRA:         -13.325
REMARK INTER:                 -10.058
REMARK INTRA:                  -3.268
REMARK UNBOUND:                -2.658
REMARK SMILES CCCCCCCCCCCCCCCCCCCCCCCC(=O)[O-]
REMARK SMILES IDX 13 1 14 2 15 3 16 4 17 5 18 6 19 7 20 8 21 9 22 10 23 11
REMARK SMILES IDX 24 12 25 13 26 14 12 15 11 16 10 17 9 18 8 19 7 20 6 21 5 22
REMARK SMILES IDX 4 23 3 24 2 25 1 26
REMARK H PARENT
REMARK Flexibility Score: inf
ROOT
ATOM      1  C   UNL     1     -22.438  -1.615  29.508  1.00  0.00     0.000 C 
ENDROOT
BRANCH   1   2
ATOM      2  C   UNL     1     -22.240  -0.127  29.169  1.00  0.00     0.000 C 
BRANCH   2   3
ATOM      3  C   UNL     1     -23.341   0.497  28.288  1.00  0.00     0.000 C 
BRANCH   3   4
ATOM      4  C   UNL     1     -23.573  -0.210  26.939  1.00  0.00     0.000 C 
BRANCH   4   5
ATOM      5  C   UNL     1     -22.294  -0.524  26.136  1.00  0.00     0.000 C 
BRANCH   5   6
ATOM      6  C   UNL     1     -21.330   0.663  25.953  1.00  0.00     0.000 C 
BRANCH   6   7
ATOM      7  C   UNL     1     -19.883   0.321  26.346  1.00  0.00     0.000 C 
BRANCH   7   8
ATOM      8  C   UNL     1     -19.314   1.285  27.402  1.00  0.00     0.000 C 
BRANCH   8   9
ATOM      9  C   UNL     1     -18.169   0.662  28.218  1.00  0.00     0.000 C 
BRANCH   9  10
ATOM     10  C   UNL     1     -18.526  -0.737  28.763  1.00  0.00     0.006 C 
BRANCH  10  11
ATOM     11  C   UNL     1     -18.760  -0.767  30.282  1.00  0.00     0.053 C 
BRANCH  11  12
ATOM     12  C   UNL     1     -17.619  -1.392  31.022  1.00  0.00     0.041 C 
ATOM     13  O   UNL     1     -17.067  -2.432  30.576  1.00  0.00    -0.550 OA
ATOM     14  O   UNL     1     -17.173  -0.833  32.213  1.00  0.00    -0.550 OA
ENDBRANCH  11  12
ENDBRANCH  10  11
ENDBRANCH   9  10
ENDBRANCH   8   9
ENDBRANCH   7   8
ENDBRANCH   6   7
ENDBRANCH   5   6
ENDBRANCH   4   5
ENDBRANCH   3   4
ENDBRANCH   2   3
ENDBRANCH   1   2
BRANCH   1  15
ATOM     15  C   UNL     1     -23.778  -1.893  30.214  1.00  0.00     0.000 C 
BRANCH  15  16
ATOM     16  C   UNL     1     -23.827  -3.285  30.863  1.00  0.00     0.000 C 
BRANCH  16  17
ATOM     17  C   UNL     1     -24.075  -3.219  32.379  1.00  0.00     0.000 C 
BRANCH  17  18
ATOM     18  C   UNL     1     -22.997  -3.959  33.192  1.00  0.00    -0.000 C 
BRANCH  18  19
ATOM     19  C   UNL     1     -22.957  -5.487  32.988  1.00  0.00    -0.000 C 
BRANCH  19  20
ATOM     20  C   UNL     1     -21.892  -6.235  33.815  1.00  0.00    -0.000 C 
BRANCH  20  21
ATOM     21  C   UNL     1     -21.231  -7.429  33.100  1.00  0.00    -0.000 C 
BRANCH  21  22
ATOM     22  C   UNL     1     -21.771  -7.717  31.686  1.00  0.00    -0.000 C 
BRANCH  22  23
ATOM     23  C   UNL     1     -20.795  -7.329  30.557  1.00  0.00    -0.000 C 
BRANCH  23  24
ATOM     24  C   UNL     1     -21.246  -6.075  29.792  1.00  0.00    -0.000 C 
BRANCH  24  25
ATOM     25  C   UNL     1     -20.123  -5.033  29.733  1.00  0.00    -0.003 C 
ATOM     26  C   UNL     1     -20.161  -4.112  30.949  1.00  0.00     0.004 C 
ENDBRANCH  24  25
ENDBRANCH  23  24
ENDBRANCH  22  23
ENDBRANCH  21  22
ENDBRANCH  20  21
ENDBRANCH  19  20
ENDBRANCH  18  19
ENDBRANCH  17  18
ENDBRANCH  16  17
ENDBRANCH  15  16
ENDBRANCH   1  15
TORSDOF 22
ENDMDL
MODEL 9
REMARK VINA RESULT:    -4.646      2.537      6.304
REMARK INTER + INTRA:         -13.279
REMARK INTER:                 -10.011
REMARK INTRA:                  -3.269
REMARK UNBOUND:                -2.658
REMARK SMILES CCCCCCCCCCCCCCCCCCCCCCCC(=O)[O-]
REMARK SMILES IDX 13 1 14 2 15 3 16 4 17 5 18 6 19 7 20 8 21 9 22 10 23 11
REMARK SMILES IDX 24 12 25 13 26 14 12 15 11 16 10 17 9 18 8 19 7 20 6 21 5 22
REMARK SMILES IDX 4 23 3 24 2 25 1 26
REMARK H PARENT
REMARK Flexibility Score: inf
ROOT
ATOM      1  C   UNL     1     -23.339   0.032  27.653  1.00  0.00     0.000 C 
ENDROOT
BRANCH   1   2
ATOM      2  C   UNL     1     -22.539  -0.380  26.404  1.00  0.00     0.000 C 
BRANCH   2   3
ATOM      3  C   UNL     1     -21.432   0.607  25.980  1.00  0.00     0.000 C 
BRANCH   3   4
ATOM      4  C   UNL     1     -20.002   0.038  26.022  1.00  0.00     0.000 C 
BRANCH   4   5
ATOM      5  C   UNL     1     -19.118   0.571  27.169  1.00  0.00     0.000 C 
BRANCH   5   6
ATOM      6  C   UNL     1     -19.869   1.353  28.263  1.00  0.00     0.000 C 
BRANCH   6   7
ATOM      7  C   UNL     1     -20.164   0.501  29.509  1.00  0.00     0.000 C 
BRANCH   7   8
ATOM      8  C   UNL     1     -19.009  -0.454  29.859  1.00  0.00     0.000 C 
BRANCH   8   9
ATOM      9  C   UNL     1     -19.386  -1.933  29.671  1.00  0.00     0.000 C 
BRANCH   9  10
ATOM     10  C   UNL     1     -18.882  -2.821  30.827  1.00  0.00     0.006 C 
BRANCH  10  11
ATOM     11  C   UNL     1     -17.354  -2.808  30.996  1.00  0.00     0.053 C 
BRANCH  11  12
ATOM     12  C   UNL     1     -16.930  -2.211  32.302  1.00  0.00     0.041 C 
ATOM     13  O   UNL     1     -16.928  -2.912  33.348  1.00  0.00    -0.550 OA
ATOM     14  O   UNL     1     -16.550  -0.877  32.366  1.00  0.00    -0.550 OA
ENDBRANCH  11  12
ENDBRANCH  10  11
ENDBRANCH   9  10
ENDBRANCH   8   9
ENDBRANCH   7   8
ENDBRANCH   6   7
ENDBRANCH   5   6
ENDBRANCH   4   5
ENDBRANCH   3   4
ENDBRANCH   2   3
ENDBRANCH   1   2
BRANCH   1  15
ATOM     15  C   UNL     1     -23.887  -1.175  28.436  1.00  0.00     0.000 C 
BRANCH  15  16
ATOM     16  C   UNL     1     -23.284  -1.288  29.845  1.00  0.00     0.000 C 
BRANCH  16  17
ATOM     17  C   UNL     1     -23.150  -2.748  30.312  1.00  0.00     0.000 C 
BRANCH  17  18
ATOM     18  C   UNL     1     -22.657  -3.688  29.197  1.00  0.00    -0.000 C 
BRANCH  18  19
ATOM     19  C   UNL     1     -22.499  -5.165  29.611  1.00  0.00    -0.000 C 
BRANCH  19  20
ATOM     20  C   UNL     1     -21.044  -5.656  29.759  1.00  0.00    -0.000 C 
BRANCH  20  21
ATOM     21  C   UNL     1     -20.893  -7.146  30.120  1.00  0.00    -0.000 C 
BRANCH  21  22
ATOM     22  C   UNL     1     -22.199  -7.847  30.539  1.00  0.00    -0.000 C 
BRANCH  22  23
ATOM     23  C   UNL     1     -22.321  -8.076  32.060  1.00  0.00    -0.000 C 
BRANCH  23  24
ATOM     24  C   UNL     1     -21.318  -7.234  32.865  1.00  0.00    -0.000 C 
BRANCH  24  25
ATOM     25  C   UNL     1     -22.023  -6.072  33.575  1.00  0.00    -0.003 C 
ATOM     26  C   UNL     1     -21.365  -4.738  33.236  1.00  0.00     0.004 C 
ENDBRANCH  24  25
ENDBRANCH  23  24
ENDBRANCH  22  23
ENDBRANCH  21  22
ENDBRANCH  20  21
ENDBRANCH  19  20
ENDBRANCH  18  19
ENDBRANCH  17  18
ENDBRANCH  16  17
ENDBRANCH  15  16
ENDBRANCH   1  15
TORSDOF 22
ENDMDL
