MODEL 1
REMARK VINA RESULT:    -2.588      0.000      0.000
REMARK INTER + INTRA:          -3.077
REMARK INTER:                  -3.042
REMARK INTRA:                  -0.034
REMARK UNBOUND:                -0.034
REMARK SMILES CCCCC(=O)[O-]
REMARK SMILES IDX 4 1 5 2 6 3 7 4 3 5 2 6 1 7
REMARK H PARENT
REMARK Flexibility Score: inf
ROOT
ATOM      1  C   UNL     1      30.833  17.072  52.035  1.00  0.00     0.053 C 
ENDROOT
BRANCH   1   2
ATOM      2  C   UNL     1      29.574  17.545  51.376  1.00  0.00     0.041 C 
ATOM      3  O   UNL     1      28.504  16.897  51.519  1.00  0.00    -0.550 OA
ATOM      4  O   UNL     1      29.589  18.682  50.579  1.00  0.00    -0.550 OA
ENDBRANCH   1   2
BRANCH   1   5
ATOM      5  C   UNL     1      32.055  17.251  51.124  1.00  0.00     0.006 C 
BRANCH   5   6
ATOM      6  C   UNL     1      32.909  15.977  51.042  1.00  0.00    -0.003 C 
ATOM      7  C   UNL     1      32.943  15.252  52.384  1.00  0.00     0.004 C 
ENDBRANCH   5   6
ENDBRANCH   1   5
TORSDOF 3
ENDMDL
MODEL 2
REMARK VINA RESULT:    -2.585     11.891     12.369
REMARK INTER + INTRA:          -3.072
REMARK INTER:                  -3.053
REMARK INTRA:                  -0.019
REMARK UNBOUND:                -0.034
REMARK SMILES CCCCC(=O)[O-]
REMARK SMILES IDX 4 1 5 2 6 3 7 4 3 5 2 6 1 7
REMARK H PARENT
REMARK Flexibility Score: inf
ROOT
ATOM      1  C   UNL     1      23.728  18.937  42.323  1.00  0.00     0.053 C 
ENDROOT
BRANCH   1   2
ATOM      2  C   UNL     1      24.448  19.333  41.070  1.00  0.00     0.041 C 
ATOM      3  O   UNL     1      23.975  19.023  39.945  1.00  0.00    -0.550 OA
ATOM      4  O   UNL     1      25.656  20.014  41.146  1.00  0.00    -0.550 OA
ENDBRANCH   1   2
BRANCH   1   5
ATOM      5  C   UNL     1      22.842  17.703  42.106  1.00  0.00     0.006 C 
BRANCH   5   6
ATOM      6  C   UNL     1      22.620  16.913  43.404  1.00  0.00    -0.003 C 
ATOM      7  C   UNL     1      22.699  15.411  43.153  1.00  0.00     0.004 C 
ENDBRANCH   5   6
ENDBRANCH   1   5
TORSDOF 3
ENDMDL
MODEL 3
REMARK VINA RESULT:    -2.557      9.558     10.733
REMARK INTER + INTRA:          -3.040
REMARK INTER:                  -3.016
REMARK INTRA:                  -0.024
REMARK UNBOUND:                -0.034
REMARK SMILES CCCCC(=O)[O-]
REMARK SMILES IDX 4 1 5 2 6 3 7 4 3 5 2 6 1 7
REMARK H PARENT
REMARK Flexibility Score: inf
ROOT
ATOM      1  C   UNL     1      22.674  17.714  44.321  1.00  0.00     0.053 C 
ENDROOT
BRANCH   1   2
ATOM      2  C   UNL     1      22.685  16.785  43.147  1.00  0.00     0.041 C 
ATOM      3  O   UNL     1      22.526  15.547  43.319  1.00  0.00    -0.550 OA
ATOM      4  O   UNL     1      22.902  17.280  41.868  1.00  0.00    -0.550 OA
ENDBRANCH   1   2
BRANCH   1   5
ATOM      5  C   UNL     1      23.815  18.739  44.248  1.00  0.00     0.006 C 
BRANCH   5   6
ATOM      6  C   UNL     1      24.799  18.597  45.418  1.00  0.00    -0.003 C 
ATOM      7  C   UNL     1      26.159  19.192  45.068  1.00  0.00     0.004 C 
ENDBRANCH   5   6
ENDBRANCH   1   5
TORSDOF 3
ENDMDL
MODEL 4
REMARK VINA RESULT:    -2.507     18.927     19.665
REMARK INTER + INTRA:          -2.981
REMARK INTER:                  -2.879
REMARK INTRA:                  -0.102
REMARK UNBOUND:                -0.034
REMARK SMILES CCCCC(=O)[O-]
REMARK SMILES IDX 4 1 5 2 6 3 7 4 3 5 2 6 1 7
REMARK H PARENT
REMARK Flexibility Score: inf
ROOT
ATOM      1  C   UNL     1      15.291  28.044  54.852  1.00  0.00     0.053 C 
ENDROOT
BRANCH   1   2
ATOM      2  C   UNL     1      14.449  28.045  53.612  1.00  0.00     0.041 C 
ATOM      3  O   UNL     1      14.994  27.981  52.478  1.00  0.00    -0.550 OA
ATOM      4  O   UNL     1      13.068  28.150  53.708  1.00  0.00    -0.550 OA
ENDBRANCH   1   2
BRANCH   1   5
ATOM      5  C   UNL     1      15.921  29.418  55.115  1.00  0.00     0.006 C 
BRANCH   5   6
ATOM      6  C   UNL     1      17.438  29.417  54.877  1.00  0.00    -0.003 C 
ATOM      7  C   UNL     1      17.801  30.241  53.645  1.00  0.00     0.004 C 
ENDBRANCH   5   6
ENDBRANCH   1   5
TORSDOF 3
ENDMDL
MODEL 5
REMARK VINA RESULT:    -2.474     13.321     14.242
REMARK INTER + INTRA:          -2.942
REMARK INTER:                  -2.882
REMARK INTRA:                  -0.059
REMARK UNBOUND:                -0.034
REMARK SMILES CCCCC(=O)[O-]
REMARK SMILES IDX 4 1 5 2 6 3 7 4 3 5 2 6 1 7
REMARK H PARENT
REMARK Flexibility Score: inf
ROOT
ATOM      1  C   UNL     1      16.277  18.672  53.631  1.00  0.00     0.053 C 
ENDROOT
BRANCH   1   2
ATOM      2  C   UNL     1      17.011  18.542  54.930  1.00  0.00     0.041 C 
ATOM      3  O   UNL     1      16.502  17.892  55.882  1.00  0.00    -0.550 OA
ATOM      4  O   UNL     1      18.240  19.164  55.101  1.00  0.00    -0.550 OA
ENDBRANCH   1   2
BRANCH   1   5
ATOM      5  C   UNL     1      16.545  17.481  52.702  1.00  0.00     0.006 C 
BRANCH   5   6
ATOM      6  C   UNL     1      17.878  17.619  51.952  1.00  0.00    -0.003 C 
ATOM      7  C   UNL     1      17.690  18.353  50.628  1.00  0.00     0.004 C 
ENDBRANCH   5   6
ENDBRANCH   1   5
TORSDOF 3
ENDMDL
MODEL 6
REMARK VINA RESULT:    -2.470     12.685     14.244
REMARK INTER + INTRA:          -2.938
REMARK INTER:                  -2.831
REMARK INTRA:                  -0.107
REMARK UNBOUND:                -0.034
REMARK SMILES CCCCC(=O)[O-]
REMARK SMILES IDX 4 1 5 2 6 3 7 4 3 5 2 6 1 7
REMARK H PARENT
REMARK Flexibility Score: inf
ROOT
ATOM      1  C   UNL     1      16.154  18.580  53.726  1.00  0.00     0.053 C 
ENDROOT
BRANCH   1   2
ATOM      2  C   UNL     1      16.970  18.550  54.982  1.00  0.00     0.041 C 
ATOM      3  O   UNL     1      18.098  19.108  55.016  1.00  0.00    -0.550 OA
ATOM      4  O   UNL     1      16.499  17.878  56.102  1.00  0.00    -0.550 OA
ENDBRANCH   1   2
BRANCH   1   5
ATOM      5  C   UNL     1      16.552  17.456  52.760  1.00  0.00     0.006 C 
BRANCH   5   6
ATOM      6  C   UNL     1      17.283  17.990  51.519  1.00  0.00    -0.003 C 
ATOM      7  C   UNL     1      18.786  17.751  51.622  1.00  0.00     0.004 C 
ENDBRANCH   5   6
ENDBRANCH   1   5
TORSDOF 3
ENDMDL
MODEL 7
REMARK VINA RESULT:    -2.449     18.288     19.089
REMARK INTER + INTRA:          -2.913
REMARK INTER:                  -2.804
REMARK INTRA:                  -0.109
REMARK UNBOUND:                -0.034
REMARK SMILES CCCCC(=O)[O-]
REMARK SMILES IDX 4 1 5 2 6 3 7 4 3 5 2 6 1 7
REMARK H PARENT
REMARK Flexibility Score: inf
ROOT
ATOM      1  C   UNL     1      17.328  29.025  55.291  1.00  0.00     0.053 C 
ENDROOT
BRANCH   1   2
ATOM      2  C   UNL     1      18.295  29.888  54.540  1.00  0.00     0.041 C 
ATOM      3  O   UNL     1      17.931  30.478  53.489  1.00  0.00    -0.550 OA
ATOM      4  O   UNL     1      19.606  30.012  54.981  1.00  0.00    -0.550 OA
ENDBRANCH   1   2
BRANCH   1   5
ATOM      5  C   UNL     1      15.874  29.441  55.034  1.00  0.00     0.006 C 
BRANCH   5   6
ATOM      6  C   UNL     1      15.026  28.282  54.489  1.00  0.00    -0.003 C 
ATOM      7  C   UNL     1      15.412  27.948  53.051  1.00  0.00     0.004 C 
ENDBRANCH   5   6
ENDBRANCH   1   5
TORSDOF 3
ENDMDL
MODEL 8
REMARK VINA RESULT:    -2.430     10.740     11.840
REMARK INTER + INTRA:          -2.890
REMARK INTER:                  -2.791
REMARK INTRA:                  -0.099
REMARK UNBOUND:                -0.034
REMARK SMILES CCCCC(=O)[O-]
REMARK SMILES IDX 4 1 5 2 6 3 7 4 3 5 2 6 1 7
REMARK H PARENT
REMARK Flexibility Score: inf
ROOT
ATOM      1  C   UNL     1      22.977  17.500  41.891  1.00  0.00     0.053 C 
ENDROOT
BRANCH   1   2
ATOM      2  C   UNL     1      22.606  16.810  43.168  1.00  0.00     0.041 C 
ATOM      3  O   UNL     1      22.343  17.485  44.198  1.00  0.00    -0.550 OA
ATOM      4  O   UNL     1      22.585  15.423  43.230  1.00  0.00    -0.550 OA
ENDBRANCH   1   2
BRANCH   1   5
ATOM      5  C   UNL     1      23.118  19.016  42.082  1.00  0.00     0.006 C 
BRANCH   5   6
ATOM      6  C   UNL     1      24.565  19.493  41.888  1.00  0.00    -0.003 C 
ATOM      7  C   UNL     1      25.228  19.797  43.228  1.00  0.00     0.004 C 
ENDBRANCH   5   6
ENDBRANCH   1   5
TORSDOF 3
ENDMDL
MODEL 9
REMARK VINA RESULT:    -2.421     13.232     14.256
REMARK INTER + INTRA:          -2.879
REMARK INTER:                  -2.772
REMARK INTRA:                  -0.107
REMARK UNBOUND:                -0.034
REMARK SMILES CCCCC(=O)[O-]
REMARK SMILES IDX 4 1 5 2 6 3 7 4 3 5 2 6 1 7
REMARK H PARENT
REMARK Flexibility Score: inf
ROOT
ATOM      1  C   UNL     1      17.925  17.777  51.864  1.00  0.00     0.053 C 
ENDROOT
BRANCH   1   2
ATOM      2  C   UNL     1      17.631  18.707  50.727  1.00  0.00     0.041 C 
ATOM      3  O   UNL     1      17.198  19.868  50.955  1.00  0.00    -0.550 OA
ATOM      4  O   UNL     1      17.802  18.282  49.417  1.00  0.00    -0.550 OA
ENDBRANCH   1   2
BRANCH   1   5
ATOM      5  C   UNL     1      16.659  17.426  52.656  1.00  0.00     0.006 C 
BRANCH   5   6
ATOM      6  C   UNL     1      16.674  18.024  54.071  1.00  0.00    -0.003 C 
ATOM      7  C   UNL     1      15.661  19.158  54.199  1.00  0.00     0.004 C 
ENDBRANCH   5   6
ENDBRANCH   1   5
TORSDOF 3
ENDMDL
