MODEL 1
REMARK VINA RESULT:    20.989      0.000      0.000
REMARK INTER + INTRA:          53.578
REMARK INTER:                  55.345
REMARK INTRA:                  -1.766
REMARK UNBOUND:                -1.766
REMARK SMILES CCCCCCCCCCCCCCCCCCCCCCCCCCCCCC(=O)[O-]
REMARK SMILES IDX 16 1 17 2 18 3 19 4 20 5 21 6 22 7 23 8 24 9 25 10 26 11
REMARK SMILES IDX 27 12 28 13 29 14 30 15 31 16 32 17 15 18 14 19 13 20 12 21
REMARK SMILES IDX 11 22 10 23 9 24 8 25 7 26 6 27 5 28 4 29 3 30 2 31 1 32
REMARK H PARENT
REMARK Flexibility Score: inf
ROOT
ATOM      1  C   UNL     1     -10.878  55.994  -4.709  1.00  0.00     0.000 C 
ENDROOT
BRANCH   1   2
ATOM      2  C   UNL     1     -11.166  56.788  -3.418  1.00  0.00     0.000 C 
BRANCH   2   3
ATOM      3  C   UNL     1     -11.777  58.185  -3.637  1.00  0.00     0.000 C 
BRANCH   3   4
ATOM      4  C   UNL     1     -13.313  58.167  -3.643  1.00  0.00     0.000 C 
BRANCH   4   5
ATOM      5  C   UNL     1     -13.868  58.895  -4.877  1.00  0.00     0.000 C 
BRANCH   5   6
ATOM      6  C   UNL     1     -14.977  59.900  -4.526  1.00  0.00     0.000 C 
BRANCH   6   7
ATOM      7  C   UNL     1     -15.229  59.995  -3.010  1.00  0.00     0.000 C 
BRANCH   7   8
ATOM      8  C   UNL     1     -16.418  60.907  -2.661  1.00  0.00     0.000 C 
BRANCH   8   9
ATOM      9  C   UNL     1     -17.594  60.747  -3.641  1.00  0.00     0.000 C 
BRANCH   9  10
ATOM     10  C   UNL     1     -18.816  60.061  -3.000  1.00  0.00     0.000 C 
BRANCH  10  11
ATOM     11  C   UNL     1     -18.727  58.527  -2.903  1.00  0.00     0.000 C 
BRANCH  11  12
ATOM     12  C   UNL     1     -18.111  58.045  -1.579  1.00  0.00     0.000 C 
BRANCH  12  13
ATOM     13  C   UNL     1     -17.153  56.852  -1.765  1.00  0.00     0.006 C 
BRANCH  13  14
ATOM     14  C   UNL     1     -16.631  56.695  -3.202  1.00  0.00     0.053 C 
BRANCH  14  15
ATOM     15  C   UNL     1     -17.067  55.409  -3.833  1.00  0.00     0.041 C 
ATOM     16  O   UNL     1     -16.768  55.157  -5.029  1.00  0.00    -0.550 OA
ATOM     17  O   UNL     1     -17.801  54.488  -3.096  1.00  0.00    -0.550 OA
ENDBRANCH  14  15
ENDBRANCH  13  14
ENDBRANCH  12  13
ENDBRANCH  11  12
ENDBRANCH  10  11
ENDBRANCH   9  10
ENDBRANCH   8   9
ENDBRANCH   7   8
ENDBRANCH   6   7
ENDBRANCH   5   6
ENDBRANCH   4   5
ENDBRANCH   3   4
ENDBRANCH   2   3
ENDBRANCH   1   2
BRANCH   1  18
ATOM     18  C   UNL     1     -10.340  54.563  -4.495  1.00  0.00     0.000 C 
BRANCH  18  19
ATOM     19  C   UNL     1      -8.851  54.480  -4.114  1.00  0.00     0.000 C 
BRANCH  19  20
ATOM     20  C   UNL     1      -8.571  53.400  -3.057  1.00  0.00     0.000 C 
BRANCH  20  21
ATOM     21  C   UNL     1      -7.409  52.473  -3.448  1.00  0.00     0.000 C 
BRANCH  21  22
ATOM     22  C   UNL     1      -7.756  50.984  -3.297  1.00  0.00     0.000 C 
BRANCH  22  23
ATOM     23  C   UNL     1      -9.269  50.789  -3.149  1.00  0.00     0.000 C 
BRANCH  23  24
ATOM     24  C   UNL     1      -9.599  49.984  -1.883  1.00  0.00    -0.000 C 
BRANCH  24  25
ATOM     25  C   UNL     1     -10.780  49.017  -2.077  1.00  0.00    -0.000 C 
BRANCH  25  26
ATOM     26  C   UNL     1     -10.584  48.014  -3.234  1.00  0.00    -0.000 C 
BRANCH  26  27
ATOM     27  C   UNL     1      -9.122  47.948  -3.712  1.00  0.00    -0.000 C 
BRANCH  27  28
ATOM     28  C   UNL     1      -8.365  46.750  -3.112  1.00  0.00    -0.000 C 
BRANCH  28  29
ATOM     29  C   UNL     1      -7.791  47.060  -1.720  1.00  0.00    -0.000 C 
BRANCH  29  30
ATOM     30  C   UNL     1      -7.030  45.849  -1.158  1.00  0.00    -0.000 C 
BRANCH  30  31
ATOM     31  C   UNL     1      -5.825  45.454  -2.027  1.00  0.00    -0.003 C 
ATOM     32  C   UNL     1      -5.326  44.038  -1.734  1.00  0.00     0.004 C 
ENDBRANCH  30  31
ENDBRANCH  29  30
ENDBRANCH  28  29
ENDBRANCH  27  28
ENDBRANCH  26  27
ENDBRANCH  25  26
ENDBRANCH  24  25
ENDBRANCH  23  24
ENDBRANCH  22  23
ENDBRANCH  21  22
ENDBRANCH  20  21
ENDBRANCH  19  20
ENDBRANCH  18  19
ENDBRANCH   1  18
TORSDOF 28
ENDMDL
MODEL 2
REMARK VINA RESULT:    21.112      3.698     12.715
REMARK INTER + INTRA:          53.903
REMARK INTER:                  55.600
REMARK INTRA:                  -1.697
REMARK UNBOUND:                -1.766
REMARK SMILES CCCCCCCCCCCCCCCCCCCCCCCCCCCCCC(=O)[O-]
REMARK SMILES IDX 16 1 17 2 18 3 19 4 20 5 21 6 22 7 23 8 24 9 25 10 26 11
REMARK SMILES IDX 27 12 28 13 29 14 30 15 31 16 32 17 15 18 14 19 13 20 12 21
REMARK SMILES IDX 11 22 10 23 9 24 8 25 7 26 6 27 5 28 4 29 3 30 2 31 1 32
REMARK H PARENT
REMARK Flexibility Score: inf
ROOT
ATOM      1  C   UNL     1      -9.026  54.818  -3.536  1.00  0.00     0.000 C 
ENDROOT
BRANCH   1   2
ATOM      2  C   UNL     1      -8.248  53.485  -3.538  1.00  0.00     0.000 C 
BRANCH   2   3
ATOM      3  C   UNL     1      -9.109  52.230  -3.304  1.00  0.00     0.000 C 
BRANCH   3   4
ATOM      4  C   UNL     1      -8.276  51.007  -2.891  1.00  0.00     0.000 C 
BRANCH   4   5
ATOM      5  C   UNL     1      -9.097  50.054  -2.008  1.00  0.00     0.000 C 
BRANCH   5   6
ATOM      6  C   UNL     1     -10.501  49.781  -2.572  1.00  0.00     0.000 C 
BRANCH   6   7
ATOM      7  C   UNL     1     -10.600  48.409  -3.266  1.00  0.00     0.000 C 
BRANCH   7   8
ATOM      8  C   UNL     1      -9.244  47.913  -3.796  1.00  0.00     0.000 C 
BRANCH   8   9
ATOM      9  C   UNL     1      -8.676  46.747  -2.967  1.00  0.00     0.000 C 
BRANCH   9  10
ATOM     10  C   UNL     1      -7.282  46.296  -3.448  1.00  0.00     0.000 C 
BRANCH  10  11
ATOM     11  C   UNL     1      -6.693  45.087  -2.699  1.00  0.00     0.000 C 
BRANCH  11  12
ATOM     12  C   UNL     1      -5.553  45.473  -1.741  1.00  0.00     0.000 C 
BRANCH  12  13
ATOM     13  C   UNL     1      -5.661  46.927  -1.241  1.00  0.00     0.006 C 
BRANCH  13  14
ATOM     14  C   UNL     1      -4.307  47.642  -1.119  1.00  0.00     0.053 C 
BRANCH  14  15
ATOM     15  C   UNL     1      -4.268  48.930  -1.882  1.00  0.00     0.041 C 
ATOM     16  O   UNL     1      -4.737  49.982  -1.373  1.00  0.00    -0.550 OA
ATOM     17  O   UNL     1      -3.711  48.968  -3.153  1.00  0.00    -0.550 OA
ENDBRANCH  14  15
ENDBRANCH  13  14
ENDBRANCH  12  13
ENDBRANCH  11  12
ENDBRANCH  10  11
ENDBRANCH   9  10
ENDBRANCH   8   9
ENDBRANCH   7   8
ENDBRANCH   6   7
ENDBRANCH   5   6
ENDBRANCH   4   5
ENDBRANCH   3   4
ENDBRANCH   2   3
ENDBRANCH   1   2
BRANCH   1  18
ATOM     18  C   UNL     1     -10.374  54.794  -4.285  1.00  0.00     0.000 C 
BRANCH  18  19
ATOM     19  C   UNL     1     -11.025  56.174  -4.495  1.00  0.00     0.000 C 
BRANCH  19  20
ATOM     20  C   UNL     1     -10.698  57.160  -3.362  1.00  0.00     0.000 C 
BRANCH  20  21
ATOM     21  C   UNL     1     -11.609  58.398  -3.371  1.00  0.00     0.000 C 
BRANCH  21  22
ATOM     22  C   UNL     1     -13.023  58.096  -3.890  1.00  0.00     0.000 C 
BRANCH  22  23
ATOM     23  C   UNL     1     -13.793  59.394  -4.160  1.00  0.00     0.000 C 
BRANCH  23  24
ATOM     24  C   UNL     1     -15.310  59.151  -4.121  1.00  0.00    -0.000 C 
BRANCH  24  25
ATOM     25  C   UNL     1     -16.055  60.151  -3.220  1.00  0.00    -0.000 C 
BRANCH  25  26
ATOM     26  C   UNL     1     -17.590  60.115  -3.381  1.00  0.00    -0.000 C 
BRANCH  26  27
ATOM     27  C   UNL     1     -18.287  59.402  -2.209  1.00  0.00    -0.000 C 
BRANCH  27  28
ATOM     28  C   UNL     1     -18.671  57.953  -2.552  1.00  0.00    -0.000 C 
BRANCH  28  29
ATOM     29  C   UNL     1     -17.749  56.928  -1.871  1.00  0.00    -0.000 C 
BRANCH  29  30
ATOM     30  C   UNL     1     -16.621  56.489  -2.818  1.00  0.00    -0.000 C 
BRANCH  30  31
ATOM     31  C   UNL     1     -16.984  55.232  -3.625  1.00  0.00    -0.003 C 
ATOM     32  C   UNL     1     -17.123  55.513  -5.122  1.00  0.00     0.004 C 
ENDBRANCH  30  31
ENDBRANCH  29  30
ENDBRANCH  28  29
ENDBRANCH  27  28
ENDBRANCH  26  27
ENDBRANCH  25  26
ENDBRANCH  24  25
ENDBRANCH  23  24
ENDBRANCH  22  23
ENDBRANCH  21  22
ENDBRANCH  20  21
ENDBRANCH  19  20
ENDBRANCH  18  19
ENDBRANCH   1  18
TORSDOF 28
ENDMDL
MODEL 3
REMARK VINA RESULT:    21.374      2.527     11.064
REMARK INTER + INTRA:          54.594
REMARK INTER:                  56.620
REMARK INTRA:                  -2.026
REMARK UNBOUND:                -1.766
REMARK SMILES CCCCCCCCCCCCCCCCCCCCCCCCCCCCCC(=O)[O-]
REMARK SMILES IDX 16 1 17 2 18 3 19 4 20 5 21 6 22 7 23 8 24 9 25 10 26 11
REMARK SMILES IDX 27 12 28 13 29 14 30 15 31 16 32 17 15 18 14 19 13 20 12 21
REMARK SMILES IDX 11 22 10 23 9 24 8 25 7 26 6 27 5 28 4 29 3 30 2 31 1 32
REMARK H PARENT
REMARK Flexibility Score: inf
ROOT
ATOM      1  C   UNL     1     -11.926  58.553  -3.479  1.00  0.00     0.000 C 
ENDROOT
BRANCH   1   2
ATOM      2  C   UNL     1     -11.046  57.287  -3.428  1.00  0.00     0.000 C 
BRANCH   2   3
ATOM      3  C   UNL     1     -11.579  56.091  -4.239  1.00  0.00     0.000 C 
BRANCH   3   4
ATOM      4  C   UNL     1     -10.490  55.055  -4.556  1.00  0.00     0.000 C 
BRANCH   4   5
ATOM      5  C   UNL     1      -9.354  55.116  -3.524  1.00  0.00     0.000 C 
BRANCH   5   6
ATOM      6  C   UNL     1      -8.208  54.142  -3.842  1.00  0.00     0.000 C 
BRANCH   6   7
ATOM      7  C   UNL     1      -8.545  52.689  -3.457  1.00  0.00     0.000 C 
BRANCH   7   8
ATOM      8  C   UNL     1      -7.345  51.740  -3.616  1.00  0.00     0.000 C 
BRANCH   8   9
ATOM      9  C   UNL     1      -7.286  50.671  -2.510  1.00  0.00     0.000 C 
BRANCH   9  10
ATOM     10  C   UNL     1      -8.684  50.238  -2.023  1.00  0.00     0.000 C 
BRANCH  10  11
ATOM     11  C   UNL     1      -9.165  48.873  -2.549  1.00  0.00     0.000 C 
BRANCH  11  12
ATOM     12  C   UNL     1     -10.372  48.987  -3.494  1.00  0.00     0.000 C 
BRANCH  12  13
ATOM     13  C   UNL     1     -11.720  48.946  -2.747  1.00  0.00     0.006 C 
BRANCH  13  14
ATOM     14  C   UNL     1     -11.585  49.035  -1.218  1.00  0.00     0.053 C 
BRANCH  14  15
ATOM     15  C   UNL     1     -12.907  48.950  -0.520  1.00  0.00     0.041 C 
ATOM     16  O   UNL     1     -13.187  47.946   0.184  1.00  0.00    -0.550 OA
ATOM     17  O   UNL     1     -13.826  49.984  -0.646  1.00  0.00    -0.550 OA
ENDBRANCH  14  15
ENDBRANCH  13  14
ENDBRANCH  12  13
ENDBRANCH  11  12
ENDBRANCH  10  11
ENDBRANCH   9  10
ENDBRANCH   8   9
ENDBRANCH   7   8
ENDBRANCH   6   7
ENDBRANCH   5   6
ENDBRANCH   4   5
ENDBRANCH   3   4
ENDBRANCH   2   3
ENDBRANCH   1   2
BRANCH   1  18
ATOM     18  C   UNL     1     -13.373  58.328  -3.965  1.00  0.00     0.000 C 
BRANCH  18  19
ATOM     19  C   UNL     1     -14.200  59.613  -4.157  1.00  0.00     0.000 C 
BRANCH  19  20
ATOM     20  C   UNL     1     -15.670  59.437  -3.743  1.00  0.00     0.000 C 
BRANCH  20  21
ATOM     21  C   UNL     1     -16.236  60.672  -3.023  1.00  0.00     0.000 C 
BRANCH  21  22
ATOM     22  C   UNL     1     -17.510  61.217  -3.683  1.00  0.00     0.000 C 
BRANCH  22  23
ATOM     23  C   UNL     1     -18.745  60.440  -3.212  1.00  0.00     0.000 C 
BRANCH  23  24
ATOM     24  C   UNL     1     -18.555  58.930  -3.419  1.00  0.00    -0.000 C 
BRANCH  24  25
ATOM     25  C   UNL     1     -19.033  58.095  -2.218  1.00  0.00    -0.000 C 
BRANCH  25  26
ATOM     26  C   UNL     1     -18.376  58.492  -0.879  1.00  0.00    -0.000 C 
BRANCH  26  27
ATOM     27  C   UNL     1     -17.628  57.318  -0.221  1.00  0.00    -0.000 C 
BRANCH  27  28
ATOM     28  C   UNL     1     -17.243  56.229  -1.236  1.00  0.00    -0.000 C 
BRANCH  28  29
ATOM     29  C   UNL     1     -15.947  56.567  -1.991  1.00  0.00    -0.000 C 
BRANCH  29  30
ATOM     30  C   UNL     1     -15.830  55.738  -3.280  1.00  0.00    -0.000 C 
BRANCH  30  31
ATOM     31  C   UNL     1     -17.201  55.393  -3.885  1.00  0.00    -0.003 C 
ATOM     32  C   UNL     1     -17.178  55.364  -5.415  1.00  0.00     0.004 C 
ENDBRANCH  30  31
ENDBRANCH  29  30
ENDBRANCH  28  29
ENDBRANCH  27  28
ENDBRANCH  26  27
ENDBRANCH  25  26
ENDBRANCH  24  25
ENDBRANCH  23  24
ENDBRANCH  22  23
ENDBRANCH  21  22
ENDBRANCH  20  21
ENDBRANCH  19  20
ENDBRANCH  18  19
ENDBRANCH   1  18
TORSDOF 28
ENDMDL
MODEL 4
REMARK VINA RESULT:    21.417      0.860      2.462
REMARK INTER + INTRA:          54.707
REMARK INTER:                  55.391
REMARK INTRA:                  -0.684
REMARK UNBOUND:                -1.766
REMARK SMILES CCCCCCCCCCCCCCCCCCCCCCCCCCCCCC(=O)[O-]
REMARK SMILES IDX 16 1 17 2 18 3 19 4 20 5 21 6 22 7 23 8 24 9 25 10 26 11
REMARK SMILES IDX 27 12 28 13 29 14 30 15 31 16 32 17 15 18 14 19 13 20 12 21
REMARK SMILES IDX 11 22 10 23 9 24 8 25 7 26 6 27 5 28 4 29 3 30 2 31 1 32
REMARK H PARENT
REMARK Flexibility Score: inf
ROOT
ATOM      1  C   UNL     1      -8.809  54.555  -4.023  1.00  0.00     0.000 C 
ENDROOT
BRANCH   1   2
ATOM      2  C   UNL     1     -10.303  54.594  -4.408  1.00  0.00     0.000 C 
BRANCH   2   3
ATOM      3  C   UNL     1     -10.911  56.005  -4.512  1.00  0.00     0.000 C 
BRANCH   3   4
ATOM      4  C   UNL     1     -10.966  56.729  -3.157  1.00  0.00     0.000 C 
BRANCH   4   5
ATOM      5  C   UNL     1     -11.589  58.126  -3.304  1.00  0.00     0.000 C 
BRANCH   5   6
ATOM      6  C   UNL     1     -13.093  58.077  -3.619  1.00  0.00     0.000 C 
BRANCH   6   7
ATOM      7  C   UNL     1     -13.596  59.365  -4.296  1.00  0.00     0.000 C 
BRANCH   7   8
ATOM      8  C   UNL     1     -15.131  59.438  -4.366  1.00  0.00     0.000 C 
BRANCH   8   9
ATOM      9  C   UNL     1     -15.760  59.933  -3.052  1.00  0.00     0.000 C 
BRANCH   9  10
ATOM     10  C   UNL     1     -17.236  60.346  -3.215  1.00  0.00     0.000 C 
BRANCH  10  11
ATOM     11  C   UNL     1     -18.261  59.232  -2.930  1.00  0.00     0.000 C 
BRANCH  11  12
ATOM     12  C   UNL     1     -17.882  58.367  -1.716  1.00  0.00     0.000 C 
BRANCH  12  13
ATOM     13  C   UNL     1     -17.584  56.903  -2.097  1.00  0.00     0.006 C 
BRANCH  13  14
ATOM     14  C   UNL     1     -16.843  56.750  -3.434  1.00  0.00     0.053 C 
BRANCH  14  15
ATOM     15  C   UNL     1     -17.058  55.405  -4.058  1.00  0.00     0.041 C 
ATOM     16  O   UNL     1     -17.159  54.380  -3.334  1.00  0.00    -0.550 OA
ATOM     17  O   UNL     1     -17.151  55.286  -5.438  1.00  0.00    -0.550 OA
ENDBRANCH  14  15
ENDBRANCH  13  14
ENDBRANCH  12  13
ENDBRANCH  11  12
ENDBRANCH  10  11
ENDBRANCH   9  10
ENDBRANCH   8   9
ENDBRANCH   7   8
ENDBRANCH   6   7
ENDBRANCH   5   6
ENDBRANCH   4   5
ENDBRANCH   3   4
ENDBRANCH   2   3
ENDBRANCH   1   2
BRANCH   1  18
ATOM     18  C   UNL     1      -8.213  53.144  -3.842  1.00  0.00     0.000 C 
BRANCH  18  19
ATOM     19  C   UNL     1      -8.826  52.324  -2.691  1.00  0.00     0.000 C 
BRANCH  19  20
ATOM     20  C   UNL     1      -8.158  50.949  -2.524  1.00  0.00     0.000 C 
BRANCH  20  21
ATOM     21  C   UNL     1      -9.103  49.899  -1.920  1.00  0.00     0.000 C 
BRANCH  21  22
ATOM     22  C   UNL     1     -10.529  49.983  -2.485  1.00  0.00     0.000 C 
BRANCH  22  23
ATOM     23  C   UNL     1     -10.918  48.673  -3.181  1.00  0.00     0.000 C 
BRANCH  23  24
ATOM     24  C   UNL     1      -9.740  48.111  -3.991  1.00  0.00    -0.000 C 
BRANCH  24  25
ATOM     25  C   UNL     1      -8.775  47.268  -3.140  1.00  0.00    -0.000 C 
BRANCH  25  26
ATOM     26  C   UNL     1      -7.753  46.459  -3.968  1.00  0.00    -0.000 C 
BRANCH  26  27
ATOM     27  C   UNL     1      -7.308  45.170  -3.254  1.00  0.00    -0.000 C 
BRANCH  27  28
ATOM     28  C   UNL     1      -5.779  45.004  -3.249  1.00  0.00    -0.000 C 
BRANCH  28  29
ATOM     29  C   UNL     1      -5.193  45.039  -1.828  1.00  0.00    -0.000 C 
BRANCH  29  30
ATOM     30  C   UNL     1      -5.805  46.187  -1.009  1.00  0.00    -0.000 C 
BRANCH  30  31
ATOM     31  C   UNL     1      -7.094  45.771  -0.282  1.00  0.00    -0.003 C 
ATOM     32  C   UNL     1      -7.051  44.323   0.212  1.00  0.00     0.004 C 
ENDBRANCH  30  31
ENDBRANCH  29  30
ENDBRANCH  28  29
ENDBRANCH  27  28
ENDBRANCH  26  27
ENDBRANCH  25  26
ENDBRANCH  24  25
ENDBRANCH  23  24
ENDBRANCH  22  23
ENDBRANCH  21  22
ENDBRANCH  20  21
ENDBRANCH  19  20
ENDBRANCH  18  19
ENDBRANCH   1  18
TORSDOF 28
ENDMDL
MODEL 5
REMARK VINA RESULT:    21.430      1.380      3.004
REMARK INTER + INTRA:          54.742
REMARK INTER:                  56.373
REMARK INTRA:                  -1.631
REMARK UNBOUND:                -1.766
REMARK SMILES CCCCCCCCCCCCCCCCCCCCCCCCCCCCCC(=O)[O-]
REMARK SMILES IDX 16 1 17 2 18 3 19 4 20 5 21 6 22 7 23 8 24 9 25 10 26 11
REMARK SMILES IDX 27 12 28 13 29 14 30 15 31 16 32 17 15 18 14 19 13 20 12 21
REMARK SMILES IDX 11 22 10 23 9 24 8 25 7 26 6 27 5 28 4 29 3 30 2 31 1 32
REMARK H PARENT
REMARK Flexibility Score: inf
ROOT
ATOM      1  C   UNL     1      -8.908  54.346  -3.683  1.00  0.00     0.000 C 
ENDROOT
BRANCH   1   2
ATOM      2  C   UNL     1     -10.235  54.406  -4.469  1.00  0.00     0.000 C 
BRANCH   2   3
ATOM      3  C   UNL     1     -10.801  55.822  -4.681  1.00  0.00     0.000 C 
BRANCH   3   4
ATOM      4  C   UNL     1     -11.225  56.495  -3.366  1.00  0.00     0.000 C 
BRANCH   4   5
ATOM      5  C   UNL     1     -11.200  58.026  -3.498  1.00  0.00     0.000 C 
BRANCH   5   6
ATOM      6  C   UNL     1     -12.578  58.666  -3.261  1.00  0.00     0.000 C 
BRANCH   6   7
ATOM      7  C   UNL     1     -13.441  58.697  -4.537  1.00  0.00     0.000 C 
BRANCH   7   8
ATOM      8  C   UNL     1     -14.937  58.893  -4.236  1.00  0.00     0.000 C 
BRANCH   8   9
ATOM      9  C   UNL     1     -15.249  60.291  -3.675  1.00  0.00     0.000 C 
BRANCH   9  10
ATOM     10  C   UNL     1     -16.436  60.288  -2.691  1.00  0.00     0.000 C 
BRANCH  10  11
ATOM     11  C   UNL     1     -17.825  60.155  -3.344  1.00  0.00     0.000 C 
BRANCH  11  12
ATOM     12  C   UNL     1     -18.531  58.837  -2.984  1.00  0.00     0.000 C 
BRANCH  12  13
ATOM     13  C   UNL     1     -17.766  58.021  -1.922  1.00  0.00     0.006 C 
BRANCH  13  14
ATOM     14  C   UNL     1     -17.828  56.502  -2.145  1.00  0.00     0.053 C 
BRANCH  14  15
ATOM     15  C   UNL     1     -16.720  56.006  -3.021  1.00  0.00     0.041 C 
ATOM     16  O   UNL     1     -15.521  56.130  -2.657  1.00  0.00    -0.550 OA
ATOM     17  O   UNL     1     -17.012  55.403  -4.237  1.00  0.00    -0.550 OA
ENDBRANCH  14  15
ENDBRANCH  13  14
ENDBRANCH  12  13
ENDBRANCH  11  12
ENDBRANCH  10  11
ENDBRANCH   9  10
ENDBRANCH   8   9
ENDBRANCH   7   8
ENDBRANCH   6   7
ENDBRANCH   5   6
ENDBRANCH   4   5
ENDBRANCH   3   4
ENDBRANCH   2   3
ENDBRANCH   1   2
BRANCH   1  18
ATOM     18  C   UNL     1      -8.156  53.002  -3.763  1.00  0.00     0.000 C 
BRANCH  18  19
ATOM     19  C   UNL     1      -8.331  52.086  -2.537  1.00  0.00     0.000 C 
BRANCH  19  20
ATOM     20  C   UNL     1      -8.689  50.642  -2.925  1.00  0.00     0.000 C 
BRANCH  20  21
ATOM     21  C   UNL     1     -10.196  50.358  -2.830  1.00  0.00     0.000 C 
BRANCH  21  22
ATOM     22  C   UNL     1     -10.510  48.878  -2.563  1.00  0.00     0.000 C 
BRANCH  22  23
ATOM     23  C   UNL     1      -9.964  47.993  -3.689  1.00  0.00     0.000 C 
BRANCH  23  24
ATOM     24  C   UNL     1      -8.506  47.593  -3.417  1.00  0.00    -0.000 C 
BRANCH  24  25
ATOM     25  C   UNL     1      -8.300  46.069  -3.374  1.00  0.00    -0.000 C 
BRANCH  25  26
ATOM     26  C   UNL     1      -6.870  45.621  -3.744  1.00  0.00    -0.000 C 
BRANCH  26  27
ATOM     27  C   UNL     1      -6.045  45.212  -2.509  1.00  0.00    -0.000 C 
BRANCH  27  28
ATOM     28  C   UNL     1      -6.701  45.663  -1.193  1.00  0.00    -0.000 C 
BRANCH  28  29
ATOM     29  C   UNL     1      -5.819  46.648  -0.409  1.00  0.00    -0.000 C 
BRANCH  29  30
ATOM     30  C   UNL     1      -4.796  47.327  -1.334  1.00  0.00    -0.000 C 
BRANCH  30  31
ATOM     31  C   UNL     1      -4.474  48.766  -0.900  1.00  0.00    -0.003 C 
ATOM     32  C   UNL     1      -4.516  49.756  -2.066  1.00  0.00     0.004 C 
ENDBRANCH  30  31
ENDBRANCH  29  30
ENDBRANCH  28  29
ENDBRANCH  27  28
ENDBRANCH  26  27
ENDBRANCH  25  26
ENDBRANCH  24  25
ENDBRANCH  23  24
ENDBRANCH  22  23
ENDBRANCH  21  22
ENDBRANCH  20  21
ENDBRANCH  19  20
ENDBRANCH  18  19
ENDBRANCH   1  18
TORSDOF 28
ENDMDL
MODEL 6
REMARK VINA RESULT:    21.518      4.058     12.028
REMARK INTER + INTRA:          54.975
REMARK INTER:                  55.829
REMARK INTRA:                  -0.854
REMARK UNBOUND:                -1.766
REMARK SMILES CCCCCCCCCCCCCCCCCCCCCCCCCCCCCC(=O)[O-]
REMARK SMILES IDX 16 1 17 2 18 3 19 4 20 5 21 6 22 7 23 8 24 9 25 10 26 11
REMARK SMILES IDX 27 12 28 13 29 14 30 15 31 16 32 17 15 18 14 19 13 20 12 21
REMARK SMILES IDX 11 22 10 23 9 24 8 25 7 26 6 27 5 28 4 29 3 30 2 31 1 32
REMARK H PARENT
REMARK Flexibility Score: inf
ROOT
ATOM      1  C   UNL     1     -12.066  57.471  -3.014  1.00  0.00     0.000 C 
ENDROOT
BRANCH   1   2
ATOM      2  C   UNL     1     -10.756  56.863  -3.558  1.00  0.00     0.000 C 
BRANCH   2   3
ATOM      3  C   UNL     1     -10.888  56.141  -4.912  1.00  0.00     0.000 C 
BRANCH   3   4
ATOM      4  C   UNL     1     -10.456  54.667  -4.844  1.00  0.00     0.000 C 
BRANCH   4   5
ATOM      5  C   UNL     1      -9.588  54.404  -3.605  1.00  0.00     0.000 C 
BRANCH   5   6
ATOM      6  C   UNL     1      -8.530  53.314  -3.840  1.00  0.00     0.000 C 
BRANCH   6   7
ATOM      7  C   UNL     1      -8.374  52.372  -2.632  1.00  0.00     0.000 C 
BRANCH   7   8
ATOM      8  C   UNL     1      -8.542  50.890  -3.009  1.00  0.00     0.000 C 
BRANCH   8   9
ATOM      9  C   UNL     1     -10.015  50.446  -3.024  1.00  0.00     0.000 C 
BRANCH   9  10
ATOM     10  C   UNL     1     -10.277  49.215  -2.134  1.00  0.00     0.000 C 
BRANCH  10  11
ATOM     11  C   UNL     1      -9.014  48.518  -1.596  1.00  0.00     0.000 C 
BRANCH  11  12
ATOM     12  C   UNL     1      -8.349  47.600  -2.636  1.00  0.00     0.000 C 
BRANCH  12  13
ATOM     13  C   UNL     1      -8.017  46.203  -2.072  1.00  0.00     0.006 C 
BRANCH  13  14
ATOM     14  C   UNL     1      -6.670  46.137  -1.335  1.00  0.00     0.053 C 
BRANCH  14  15
ATOM     15  C   UNL     1      -5.812  45.006  -1.811  1.00  0.00     0.041 C 
ATOM     16  O   UNL     1      -5.656  44.805  -3.044  1.00  0.00    -0.550 OA
ATOM     17  O   UNL     1      -5.182  44.177  -0.892  1.00  0.00    -0.550 OA
ENDBRANCH  14  15
ENDBRANCH  13  14
ENDBRANCH  12  13
ENDBRANCH  11  12
ENDBRANCH  10  11
ENDBRANCH   9  10
ENDBRANCH   8   9
ENDBRANCH   7   8
ENDBRANCH   6   7
ENDBRANCH   5   6
ENDBRANCH   4   5
ENDBRANCH   3   4
ENDBRANCH   2   3
ENDBRANCH   1   2
BRANCH   1  18
ATOM     18  C   UNL     1     -12.565  58.728  -3.755  1.00  0.00     0.000 C 
BRANCH  18  19
ATOM     19  C   UNL     1     -13.894  58.549  -4.513  1.00  0.00     0.000 C 
BRANCH  19  20
ATOM     20  C   UNL     1     -14.866  59.718  -4.284  1.00  0.00     0.000 C 
BRANCH  20  21
ATOM     21  C   UNL     1     -15.756  59.516  -3.047  1.00  0.00     0.000 C 
BRANCH  21  22
ATOM     22  C   UNL     1     -16.683  60.710  -2.776  1.00  0.00     0.000 C 
BRANCH  22  23
ATOM     23  C   UNL     1     -17.846  60.736  -3.775  1.00  0.00     0.000 C 
BRANCH  23  24
ATOM     24  C   UNL     1     -18.682  59.451  -3.679  1.00  0.00    -0.000 C 
BRANCH  24  25
ATOM     25  C   UNL     1     -18.846  58.949  -2.233  1.00  0.00    -0.000 C 
BRANCH  25  26
ATOM     26  C   UNL     1     -18.482  57.461  -2.043  1.00  0.00    -0.000 C 
BRANCH  26  27
ATOM     27  C   UNL     1     -17.469  57.245  -0.905  1.00  0.00    -0.000 C 
BRANCH  27  28
ATOM     28  C   UNL     1     -16.065  56.903  -1.430  1.00  0.00    -0.000 C 
BRANCH  28  29
ATOM     29  C   UNL     1     -16.102  56.282  -2.836  1.00  0.00    -0.000 C 
BRANCH  29  30
ATOM     30  C   UNL     1     -17.209  55.220  -2.938  1.00  0.00    -0.000 C 
BRANCH  30  31
ATOM     31  C   UNL     1     -17.366  54.668  -4.364  1.00  0.00    -0.003 C 
ATOM     32  C   UNL     1     -16.864  55.641  -5.432  1.00  0.00     0.004 C 
ENDBRANCH  30  31
ENDBRANCH  29  30
ENDBRANCH  28  29
ENDBRANCH  27  28
ENDBRANCH  26  27
ENDBRANCH  25  26
ENDBRANCH  24  25
ENDBRANCH  23  24
ENDBRANCH  22  23
ENDBRANCH  21  22
ENDBRANCH  20  21
ENDBRANCH  19  20
ENDBRANCH  18  19
ENDBRANCH   1  18
TORSDOF 28
ENDMDL
MODEL 7
REMARK VINA RESULT:    21.540      4.117     12.365
REMARK INTER + INTRA:          55.031
REMARK INTER:                  56.303
REMARK INTRA:                  -1.272
REMARK UNBOUND:                -1.766
REMARK SMILES CCCCCCCCCCCCCCCCCCCCCCCCCCCCCC(=O)[O-]
REMARK SMILES IDX 16 1 17 2 18 3 19 4 20 5 21 6 22 7 23 8 24 9 25 10 26 11
REMARK SMILES IDX 27 12 28 13 29 14 30 15 31 16 32 17 15 18 14 19 13 20 12 21
REMARK SMILES IDX 11 22 10 23 9 24 8 25 7 26 6 27 5 28 4 29 3 30 2 31 1 32
REMARK H PARENT
REMARK Flexibility Score: inf
ROOT
ATOM      1  C   UNL     1     -10.440  56.783  -4.039  1.00  0.00     0.000 C 
ENDROOT
BRANCH   1   2
ATOM      2  C   UNL     1     -11.071  55.379  -4.144  1.00  0.00     0.000 C 
BRANCH   2   3
ATOM      3  C   UNL     1     -10.099  54.259  -4.560  1.00  0.00     0.000 C 
BRANCH   3   4
ATOM      4  C   UNL     1      -8.740  54.359  -3.850  1.00  0.00     0.000 C 
BRANCH   4   5
ATOM      5  C   UNL     1      -8.550  53.200  -2.859  1.00  0.00     0.000 C 
BRANCH   5   6
ATOM      6  C   UNL     1      -8.101  51.899  -3.543  1.00  0.00     0.000 C 
BRANCH   6   7
ATOM      7  C   UNL     1      -8.555  50.642  -2.777  1.00  0.00     0.000 C 
BRANCH   7   8
ATOM      8  C   UNL     1     -10.042  50.316  -3.001  1.00  0.00     0.000 C 
BRANCH   8   9
ATOM      9  C   UNL     1     -10.260  48.893  -3.543  1.00  0.00     0.000 C 
BRANCH   9  10
ATOM     10  C   UNL     1      -9.331  47.854  -2.884  1.00  0.00     0.000 C 
BRANCH  10  11
ATOM     11  C   UNL     1      -8.826  48.229  -1.478  1.00  0.00     0.000 C 
BRANCH  11  12
ATOM     12  C   UNL     1      -7.438  47.646  -1.166  1.00  0.00     0.000 C 
BRANCH  12  13
ATOM     13  C   UNL     1      -7.474  46.126  -0.906  1.00  0.00     0.006 C 
BRANCH  13  14
ATOM     14  C   UNL     1      -6.989  45.283  -2.095  1.00  0.00     0.053 C 
BRANCH  14  15
ATOM     15  C   UNL     1      -5.549  44.893  -1.972  1.00  0.00     0.041 C 
ATOM     16  O   UNL     1      -4.812  45.456  -1.121  1.00  0.00    -0.550 OA
ATOM     17  O   UNL     1      -5.024  43.905  -2.794  1.00  0.00    -0.550 OA
ENDBRANCH  14  15
ENDBRANCH  13  14
ENDBRANCH  12  13
ENDBRANCH  11  12
ENDBRANCH  10  11
ENDBRANCH   9  10
ENDBRANCH   8   9
ENDBRANCH   7   8
ENDBRANCH   6   7
ENDBRANCH   5   6
ENDBRANCH   4   5
ENDBRANCH   3   4
ENDBRANCH   2   3
ENDBRANCH   1   2
BRANCH   1  18
ATOM     18  C   UNL     1     -11.306  57.842  -3.325  1.00  0.00     0.000 C 
BRANCH  18  19
ATOM     19  C   UNL     1     -12.821  57.715  -3.573  1.00  0.00     0.000 C 
BRANCH  19  20
ATOM     20  C   UNL     1     -13.556  59.058  -3.435  1.00  0.00     0.000 C 
BRANCH  20  21
ATOM     21  C   UNL     1     -14.622  59.265  -4.523  1.00  0.00     0.000 C 
BRANCH  21  22
ATOM     22  C   UNL     1     -15.418  60.566  -4.340  1.00  0.00     0.000 C 
BRANCH  22  23
ATOM     23  C   UNL     1     -16.395  60.446  -3.165  1.00  0.00     0.000 C 
BRANCH  23  24
ATOM     24  C   UNL     1     -17.803  60.905  -3.572  1.00  0.00    -0.000 C 
BRANCH  24  25
ATOM     25  C   UNL     1     -18.919  60.071  -2.918  1.00  0.00    -0.000 C 
BRANCH  25  26
ATOM     26  C   UNL     1     -18.793  58.553  -3.168  1.00  0.00    -0.000 C 
BRANCH  26  27
ATOM     27  C   UNL     1     -18.492  57.768  -1.877  1.00  0.00    -0.000 C 
BRANCH  27  28
ATOM     28  C   UNL     1     -16.983  57.643  -1.609  1.00  0.00    -0.000 C 
BRANCH  28  29
ATOM     29  C   UNL     1     -16.298  56.661  -2.573  1.00  0.00    -0.000 C 
BRANCH  29  30
ATOM     30  C   UNL     1     -17.236  55.498  -2.932  1.00  0.00    -0.000 C 
BRANCH  30  31
ATOM     31  C   UNL     1     -16.854  54.820  -4.258  1.00  0.00    -0.003 C 
ATOM     32  C   UNL     1     -17.240  55.655  -5.480  1.00  0.00     0.004 C 
ENDBRANCH  30  31
ENDBRANCH  29  30
ENDBRANCH  28  29
ENDBRANCH  27  28
ENDBRANCH  26  27
ENDBRANCH  25  26
ENDBRANCH  24  25
ENDBRANCH  23  24
ENDBRANCH  22  23
ENDBRANCH  21  22
ENDBRANCH  20  21
ENDBRANCH  19  20
ENDBRANCH  18  19
ENDBRANCH   1  18
TORSDOF 28
ENDMDL
MODEL 8
REMARK VINA RESULT:    21.834      1.673      2.304
REMARK INTER + INTRA:          55.808
REMARK INTER:                  57.050
REMARK INTRA:                  -1.243
REMARK UNBOUND:                -1.766
REMARK SMILES CCCCCCCCCCCCCCCCCCCCCCCCCCCCCC(=O)[O-]
REMARK SMILES IDX 16 1 17 2 18 3 19 4 20 5 21 6 22 7 23 8 24 9 25 10 26 11
REMARK SMILES IDX 27 12 28 13 29 14 30 15 31 16 32 17 15 18 14 19 13 20 12 21
REMARK SMILES IDX 11 22 10 23 9 24 8 25 7 26 6 27 5 28 4 29 3 30 2 31 1 32
REMARK H PARENT
REMARK Flexibility Score: inf
ROOT
ATOM      1  C   UNL     1     -11.072  55.983  -4.616  1.00  0.00     0.000 C 
ENDROOT
BRANCH   1   2
ATOM      2  C   UNL     1     -10.989  56.829  -3.327  1.00  0.00     0.000 C 
BRANCH   2   3
ATOM      3  C   UNL     1     -11.654  58.215  -3.416  1.00  0.00     0.000 C 
BRANCH   3   4
ATOM      4  C   UNL     1     -13.065  58.159  -4.024  1.00  0.00     0.000 C 
BRANCH   4   5
ATOM      5  C   UNL     1     -13.742  59.537  -3.971  1.00  0.00     0.000 C 
BRANCH   5   6
ATOM      6  C   UNL     1     -15.275  59.450  -4.056  1.00  0.00     0.000 C 
BRANCH   6   7
ATOM      7  C   UNL     1     -15.973  60.225  -2.923  1.00  0.00     0.000 C 
BRANCH   7   8
ATOM      8  C   UNL     1     -17.455  60.509  -3.224  1.00  0.00     0.000 C 
BRANCH   8   9
ATOM      9  C   UNL     1     -18.277  59.222  -3.414  1.00  0.00     0.000 C 
BRANCH   9  10
ATOM     10  C   UNL     1     -18.733  58.603  -2.078  1.00  0.00     0.000 C 
BRANCH  10  11
ATOM     11  C   UNL     1     -17.595  58.101  -1.170  1.00  0.00     0.000 C 
BRANCH  11  12
ATOM     12  C   UNL     1     -17.383  56.580  -1.261  1.00  0.00     0.000 C 
BRANCH  12  13
ATOM     13  C   UNL     1     -16.261  56.192  -2.244  1.00  0.00     0.006 C 
BRANCH  13  14
ATOM     14  C   UNL     1     -16.594  56.490  -3.714  1.00  0.00     0.053 C 
BRANCH  14  15
ATOM     15  C   UNL     1     -17.102  55.283  -4.442  1.00  0.00     0.041 C 
ATOM     16  O   UNL     1     -17.548  54.298  -3.799  1.00  0.00    -0.550 OA
ATOM     17  O   UNL     1     -17.086  55.252  -5.830  1.00  0.00    -0.550 OA
ENDBRANCH  14  15
ENDBRANCH  13  14
ENDBRANCH  12  13
ENDBRANCH  11  12
ENDBRANCH  10  11
ENDBRANCH   9  10
ENDBRANCH   8   9
ENDBRANCH   7   8
ENDBRANCH   6   7
ENDBRANCH   5   6
ENDBRANCH   4   5
ENDBRANCH   3   4
ENDBRANCH   2   3
ENDBRANCH   1   2
BRANCH   1  18
ATOM     18  C   UNL     1     -10.433  54.583  -4.526  1.00  0.00     0.000 C 
BRANCH  18  19
ATOM     19  C   UNL     1      -9.164  54.503  -3.657  1.00  0.00     0.000 C 
BRANCH  19  20
ATOM     20  C   UNL     1      -8.393  53.189  -3.856  1.00  0.00     0.000 C 
BRANCH  20  21
ATOM     21  C   UNL     1      -8.527  52.234  -2.658  1.00  0.00     0.000 C 
BRANCH  21  22
ATOM     22  C   UNL     1      -8.438  50.755  -3.060  1.00  0.00     0.000 C 
BRANCH  22  23
ATOM     23  C   UNL     1      -9.452  49.915  -2.274  1.00  0.00     0.000 C 
BRANCH  23  24
ATOM     24  C   UNL     1      -9.170  48.414  -2.441  1.00  0.00    -0.000 C 
BRANCH  24  25
ATOM     25  C   UNL     1      -8.082  47.898  -1.483  1.00  0.00    -0.000 C 
BRANCH  25  26
ATOM     26  C   UNL     1      -7.810  46.383  -1.603  1.00  0.00    -0.000 C 
BRANCH  26  27
ATOM     27  C   UNL     1      -6.357  46.078  -2.011  1.00  0.00    -0.000 C 
BRANCH  27  28
ATOM     28  C   UNL     1      -5.336  46.690  -1.037  1.00  0.00    -0.000 C 
BRANCH  28  29
ATOM     29  C   UNL     1      -4.271  47.531  -1.759  1.00  0.00    -0.000 C 
BRANCH  29  30
ATOM     30  C   UNL     1      -3.598  48.515  -0.789  1.00  0.00    -0.000 C 
BRANCH  30  31
ATOM     31  C   UNL     1      -2.064  48.413  -0.818  1.00  0.00    -0.003 C 
ATOM     32  C   UNL     1      -1.552  47.068  -0.299  1.00  0.00     0.004 C 
ENDBRANCH  30  31
ENDBRANCH  29  30
ENDBRANCH  28  29
ENDBRANCH  27  28
ENDBRANCH  26  27
ENDBRANCH  25  26
ENDBRANCH  24  25
ENDBRANCH  23  24
ENDBRANCH  22  23
ENDBRANCH  21  22
ENDBRANCH  20  21
ENDBRANCH  19  20
ENDBRANCH  18  19
ENDBRANCH   1  18
TORSDOF 28
ENDMDL
MODEL 9
REMARK VINA RESULT:    21.884      0.835      1.640
REMARK INTER + INTRA:          55.939
REMARK INTER:                  56.693
REMARK INTRA:                  -0.754
REMARK UNBOUND:                -1.766
REMARK SMILES CCCCCCCCCCCCCCCCCCCCCCCCCCCCCC(=O)[O-]
REMARK SMILES IDX 16 1 17 2 18 3 19 4 20 5 21 6 22 7 23 8 24 9 25 10 26 11
REMARK SMILES IDX 27 12 28 13 29 14 30 15 31 16 32 17 15 18 14 19 13 20 12 21
REMARK SMILES IDX 11 22 10 23 9 24 8 25 7 26 6 27 5 28 4 29 3 30 2 31 1 32
REMARK H PARENT
REMARK Flexibility Score: inf
ROOT
ATOM      1  C   UNL     1     -11.040  57.163  -3.639  1.00  0.00     0.000 C 
ENDROOT
BRANCH   1   2
ATOM      2  C   UNL     1     -12.561  57.397  -3.521  1.00  0.00     0.000 C 
BRANCH   2   3
ATOM      3  C   UNL     1     -13.035  58.802  -3.935  1.00  0.00     0.000 C 
BRANCH   3   4
ATOM      4  C   UNL     1     -14.512  58.830  -4.361  1.00  0.00     0.000 C 
BRANCH   4   5
ATOM      5  C   UNL     1     -15.083  60.253  -4.278  1.00  0.00     0.000 C 
BRANCH   5   6
ATOM      6  C   UNL     1     -16.035  60.444  -3.086  1.00  0.00     0.000 C 
BRANCH   6   7
ATOM      7  C   UNL     1     -17.356  61.126  -3.489  1.00  0.00     0.000 C 
BRANCH   7   8
ATOM      8  C   UNL     1     -18.590  60.266  -3.164  1.00  0.00     0.000 C 
BRANCH   8   9
ATOM      9  C   UNL     1     -18.341  58.765  -3.393  1.00  0.00     0.000 C 
BRANCH   9  10
ATOM     10  C   UNL     1     -19.061  57.877  -2.358  1.00  0.00     0.000 C 
BRANCH  10  11
ATOM     11  C   UNL     1     -18.211  57.475  -1.139  1.00  0.00     0.000 C 
BRANCH  11  12
ATOM     12  C   UNL     1     -16.703  57.460  -1.440  1.00  0.00     0.000 C 
BRANCH  12  13
ATOM     13  C   UNL     1     -16.367  56.766  -2.775  1.00  0.00     0.006 C 
BRANCH  13  14
ATOM     14  C   UNL     1     -17.067  55.411  -2.961  1.00  0.00     0.053 C 
BRANCH  14  15
ATOM     15  C   UNL     1     -17.209  55.033  -4.404  1.00  0.00     0.041 C 
ATOM     16  O   UNL     1     -17.285  53.822  -4.736  1.00  0.00    -0.550 OA
ATOM     17  O   UNL     1     -17.260  56.021  -5.378  1.00  0.00    -0.550 OA
ENDBRANCH  14  15
ENDBRANCH  13  14
ENDBRANCH  12  13
ENDBRANCH  11  12
ENDBRANCH  10  11
ENDBRANCH   9  10
ENDBRANCH   8   9
ENDBRANCH   7   8
ENDBRANCH   6   7
ENDBRANCH   5   6
ENDBRANCH   4   5
ENDBRANCH   3   4
ENDBRANCH   2   3
ENDBRANCH   1   2
BRANCH   1  18
ATOM     18  C   UNL     1     -10.604  56.243  -4.798  1.00  0.00     0.000 C 
BRANCH  18  19
ATOM     19  C   UNL     1     -10.439  54.759  -4.422  1.00  0.00     0.000 C 
BRANCH  19  20
ATOM     20  C   UNL     1      -8.991  54.402  -4.047  1.00  0.00     0.000 C 
BRANCH  20  21
ATOM     21  C   UNL     1      -8.908  53.258  -3.024  1.00  0.00     0.000 C 
BRANCH  21  22
ATOM     22  C   UNL     1      -7.736  52.302  -3.291  1.00  0.00     0.000 C 
BRANCH  22  23
ATOM     23  C   UNL     1      -8.244  50.887  -3.594  1.00  0.00     0.000 C 
BRANCH  23  24
ATOM     24  C   UNL     1      -9.117  50.359  -2.447  1.00  0.00    -0.000 C 
BRANCH  24  25
ATOM     25  C   UNL     1     -10.400  49.667  -2.939  1.00  0.00    -0.000 C 
BRANCH  25  26
ATOM     26  C   UNL     1     -10.254  48.142  -3.133  1.00  0.00    -0.000 C 
BRANCH  26  27
ATOM     27  C   UNL     1      -8.802  47.664  -2.950  1.00  0.00    -0.000 C 
BRANCH  27  28
ATOM     28  C   UNL     1      -8.425  47.492  -1.469  1.00  0.00    -0.000 C 
BRANCH  28  29
ATOM     29  C   UNL     1      -6.934  47.171  -1.279  1.00  0.00    -0.000 C 
BRANCH  29  30
ATOM     30  C   UNL     1      -6.724  45.670  -1.024  1.00  0.00    -0.000 C 
BRANCH  30  31
ATOM     31  C   UNL     1      -6.776  44.839  -2.317  1.00  0.00    -0.003 C 
ATOM     32  C   UNL     1      -5.889  45.415  -3.423  1.00  0.00     0.004 C 
ENDBRANCH  30  31
ENDBRANCH  29  30
ENDBRANCH  28  29
ENDBRANCH  27  28
ENDBRANCH  26  27
ENDBRANCH  25  26
ENDBRANCH  24  25
ENDBRANCH  23  24
ENDBRANCH  22  23
ENDBRANCH  21  22
ENDBRANCH  20  21
ENDBRANCH  19  20
ENDBRANCH  18  19
ENDBRANCH   1  18
TORSDOF 28
ENDMDL
