MODEL 1
REMARK VINA RESULT:    -5.931      0.000      0.000
REMARK INTER + INTRA:          -7.416
REMARK INTER:                  -6.971
REMARK INTRA:                  -0.445
REMARK UNBOUND:                -0.445
REMARK SMILES C=C[C@]1(C)CC[C@H](C(=C)C)C[C@H]1C(=C)C
REMARK SMILES IDX 7 1 6 2 5 3 3 4 12 5 11 6 4 7 8 8 10 9 9 10 13 11 14 12
REMARK SMILES IDX 15 13 2 14 1 15
REMARK H PARENT
REMARK Flexibility Score: inf
ROOT
ATOM      1  C   UNL     1     -39.726 -47.681  28.945  1.00  0.00     0.015 C 
ATOM      2  C   UNL     1     -40.667 -46.705  28.220  1.00  0.00     0.009 C 
ATOM      3  C   UNL     1     -42.105 -47.244  28.156  1.00  0.00     0.012 C 
ATOM      4  C   UNL     1     -42.206 -48.650  27.494  1.00  0.00    -0.008 C 
ATOM      5  C   UNL     1     -41.187 -49.666  28.142  1.00  0.00     0.024 C 
ATOM      6  C   UNL     1     -39.763 -49.079  28.296  1.00  0.00     0.017 C 
ATOM      7  C   UNL     1     -43.666 -49.146  27.641  1.00  0.00     0.016 C 
ENDROOT
BRANCH   1   8
ATOM      8  C   UNL     1     -38.303 -47.137  28.998  1.00  0.00    -0.077 C 
ATOM      9  C   UNL     1     -37.142 -48.012  28.601  1.00  0.00     0.039 C 
ATOM     10  C   UNL     1     -38.047 -45.878  29.396  1.00  0.00     0.008 C 
ENDBRANCH   1   8
BRANCH   5  11
ATOM     11  C   UNL     1     -41.666 -50.396  29.409  1.00  0.00    -0.077 C 
ATOM     12  C   UNL     1     -41.727 -49.815  30.618  1.00  0.00     0.008 C 
ATOM     13  C   UNL     1     -42.099 -51.842  29.318  1.00  0.00     0.039 C 
ENDBRANCH   5  11
BRANCH   4  14
ATOM     14  C   UNL     1     -41.911 -48.497  25.996  1.00  0.00    -0.028 C 
ATOM     15  C   UNL     1     -42.705 -48.984  25.033  1.00  0.00     0.004 C 
ENDBRANCH   4  14
TORSDOF 3
ENDMDL
MODEL 2
REMARK VINA RESULT:    -5.407     11.203     14.639
REMARK INTER + INTRA:          -6.800
REMARK INTER:                  -6.361
REMARK INTRA:                  -0.439
REMARK UNBOUND:                -0.445
REMARK SMILES C=C[C@]1(C)CC[C@H](C(=C)C)C[C@H]1C(=C)C
REMARK SMILES IDX 7 1 6 2 5 3 3 4 12 5 11 6 4 7 8 8 10 9 9 10 13 11 14 12
REMARK SMILES IDX 15 13 2 14 1 15
REMARK H PARENT
REMARK Flexibility Score: inf
ROOT
ATOM      1  C   UNL     1     -54.312 -47.718  21.189  1.00  0.00     0.015 C 
ATOM      2  C   UNL     1     -53.481 -46.792  22.091  1.00  0.00     0.009 C 
ATOM      3  C   UNL     1     -51.996 -47.188  22.098  1.00  0.00     0.012 C 
ATOM      4  C   UNL     1     -51.756 -48.669  22.515  1.00  0.00    -0.008 C 
ATOM      5  C   UNL     1     -52.662 -49.655  21.679  1.00  0.00     0.024 C 
ATOM      6  C   UNL     1     -54.138 -49.196  21.592  1.00  0.00     0.017 C 
ATOM      7  C   UNL     1     -50.252 -48.985  22.321  1.00  0.00     0.016 C 
ENDROOT
BRANCH   1   8
ATOM      8  C   UNL     1     -55.783 -47.317  21.194  1.00  0.00    -0.077 C 
ATOM      9  C   UNL     1     -56.176 -45.875  20.998  1.00  0.00     0.039 C 
ATOM     10  C   UNL     1     -56.758 -48.227  21.369  1.00  0.00     0.008 C 
ENDBRANCH   1   8
BRANCH   5  11
ATOM     11  C   UNL     1     -52.102 -50.107  20.318  1.00  0.00    -0.077 C 
ATOM     12  C   UNL     1     -51.948 -49.279  19.272  1.00  0.00     0.008 C 
ATOM     13  C   UNL     1     -51.693 -51.548  20.121  1.00  0.00     0.039 C 
ENDBRANCH   5  11
BRANCH   4  14
ATOM     14  C   UNL     1     -52.076 -48.805  24.009  1.00  0.00    -0.028 C 
ATOM     15  C   UNL     1     -51.202 -49.268  24.913  1.00  0.00     0.004 C 
ENDBRANCH   4  14
TORSDOF 3
ENDMDL
MODEL 3
REMARK VINA RESULT:    -5.367      1.438      3.489
REMARK INTER + INTRA:          -6.752
REMARK INTER:                  -6.321
REMARK INTRA:                  -0.432
REMARK UNBOUND:                -0.445
REMARK SMILES C=C[C@]1(C)CC[C@H](C(=C)C)C[C@H]1C(=C)C
REMARK SMILES IDX 7 1 6 2 5 3 3 4 12 5 11 6 4 7 8 8 10 9 9 10 13 11 14 12
REMARK SMILES IDX 15 13 2 14 1 15
REMARK H PARENT
REMARK Flexibility Score: inf
ROOT
ATOM      1  C   UNL     1     -40.411 -48.210  28.212  1.00  0.00     0.015 C 
ATOM      2  C   UNL     1     -40.985 -49.272  29.164  1.00  0.00     0.009 C 
ATOM      3  C   UNL     1     -42.308 -49.851  28.638  1.00  0.00     0.012 C 
ATOM      4  C   UNL     1     -43.388 -48.764  28.362  1.00  0.00    -0.008 C 
ATOM      5  C   UNL     1     -42.816 -47.599  27.464  1.00  0.00     0.024 C 
ATOM      6  C   UNL     1     -41.435 -47.089  27.943  1.00  0.00     0.017 C 
ATOM      7  C   UNL     1     -44.600 -49.453  27.684  1.00  0.00     0.016 C 
ENDROOT
BRANCH   1   8
ATOM      8  C   UNL     1     -39.101 -47.641  28.747  1.00  0.00    -0.077 C 
ATOM      9  C   UNL     1     -37.848 -48.478  28.730  1.00  0.00     0.039 C 
ATOM     10  C   UNL     1     -39.029 -46.393  29.242  1.00  0.00     0.008 C 
ENDBRANCH   1   8
BRANCH   5  11
ATOM     11  C   UNL     1     -42.870 -47.821  25.942  1.00  0.00    -0.077 C 
ATOM     12  C   UNL     1     -42.206 -48.807  25.316  1.00  0.00     0.008 C 
ATOM     13  C   UNL     1     -43.707 -46.901  25.083  1.00  0.00     0.039 C 
ENDBRANCH   5  11
BRANCH   4  14
ATOM     14  C   UNL     1     -43.860 -48.204  29.709  1.00  0.00    -0.028 C 
ATOM     15  C   UNL     1     -44.639 -48.883  30.561  1.00  0.00     0.004 C 
ENDBRANCH   4  14
TORSDOF 3
ENDMDL
MODEL 4
REMARK VINA RESULT:    -5.357      1.158      4.447
REMARK INTER + INTRA:          -6.741
REMARK INTER:                  -6.266
REMARK INTRA:                  -0.476
REMARK UNBOUND:                -0.445
REMARK SMILES C=C[C@]1(C)CC[C@H](C(=C)C)C[C@H]1C(=C)C
REMARK SMILES IDX 7 1 6 2 5 3 3 4 12 5 11 6 4 7 8 8 10 9 9 10 13 11 14 12
REMARK SMILES IDX 15 13 2 14 1 15
REMARK H PARENT
REMARK Flexibility Score: inf
ROOT
ATOM      1  C   UNL     1     -42.362 -47.999  26.855  1.00  0.00     0.015 C 
ATOM      2  C   UNL     1     -43.360 -48.480  27.922  1.00  0.00     0.009 C 
ATOM      3  C   UNL     1     -42.700 -48.597  29.305  1.00  0.00     0.012 C 
ATOM      4  C   UNL     1     -41.447 -49.521  29.313  1.00  0.00    -0.008 C 
ATOM      5  C   UNL     1     -40.434 -49.126  28.170  1.00  0.00     0.024 C 
ATOM      6  C   UNL     1     -41.121 -48.912  26.799  1.00  0.00     0.017 C 
ATOM      7  C   UNL     1     -40.786 -49.422  30.710  1.00  0.00     0.016 C 
ENDROOT
BRANCH   1   8
ATOM      8  C   UNL     1     -43.027 -47.891  25.487  1.00  0.00    -0.077 C 
ATOM      9  C   UNL     1     -43.561 -49.124  24.805  1.00  0.00     0.039 C 
ATOM     10  C   UNL     1     -43.155 -46.708  24.861  1.00  0.00     0.008 C 
ENDBRANCH   1   8
BRANCH   5  11
ATOM     11  C   UNL     1     -39.426 -48.013  28.507  1.00  0.00    -0.077 C 
ATOM     12  C   UNL     1     -39.763 -46.716  28.602  1.00  0.00     0.008 C 
ATOM     13  C   UNL     1     -37.977 -48.367  28.752  1.00  0.00     0.039 C 
ENDBRANCH   5  11
BRANCH   4  14
ATOM     14  C   UNL     1     -41.917 -50.968  29.118  1.00  0.00    -0.028 C 
ATOM     15  C   UNL     1     -42.852 -51.551  29.881  1.00  0.00     0.004 C 
ENDBRANCH   4  14
TORSDOF 3
ENDMDL
MODEL 5
REMARK VINA RESULT:    -5.280     10.511     13.659
REMARK INTER + INTRA:          -6.650
REMARK INTER:                  -6.210
REMARK INTRA:                  -0.440
REMARK UNBOUND:                -0.445
REMARK SMILES C=C[C@]1(C)CC[C@H](C(=C)C)C[C@H]1C(=C)C
REMARK SMILES IDX 7 1 6 2 5 3 3 4 12 5 11 6 4 7 8 8 10 9 9 10 13 11 14 12
REMARK SMILES IDX 15 13 2 14 1 15
REMARK H PARENT
REMARK Flexibility Score: inf
ROOT
ATOM      1  C   UNL     1     -53.714 -48.153  21.890  1.00  0.00     0.015 C 
ATOM      2  C   UNL     1     -53.094 -49.053  20.809  1.00  0.00     0.009 C 
ATOM      3  C   UNL     1     -51.735 -49.618  21.251  1.00  0.00     0.012 C 
ATOM      4  C   UNL     1     -50.713 -48.516  21.658  1.00  0.00    -0.008 C 
ATOM      5  C   UNL     1     -51.338 -47.507  22.698  1.00  0.00     0.024 C 
ATOM      6  C   UNL     1     -52.751 -47.019  22.295  1.00  0.00     0.017 C 
ATOM      7  C   UNL     1     -49.457 -49.215  22.236  1.00  0.00     0.016 C 
ENDROOT
BRANCH   1   8
ATOM      8  C   UNL     1     -55.060 -47.595  21.438  1.00  0.00    -0.077 C 
ATOM      9  C   UNL     1     -56.164 -48.530  21.016  1.00  0.00     0.039 C 
ATOM     10  C   UNL     1     -55.295 -46.272  21.404  1.00  0.00     0.008 C 
ENDBRANCH   1   8
BRANCH   5  11
ATOM     11  C   UNL     1     -51.254 -47.916  24.179  1.00  0.00    -0.077 C 
ATOM     12  C   UNL     1     -51.862 -49.004  24.680  1.00  0.00     0.008 C 
ATOM     13  C   UNL     1     -50.451 -47.072  25.142  1.00  0.00     0.039 C 
ENDBRANCH   5  11
BRANCH   4  14
ATOM     14  C   UNL     1     -50.289 -47.764  20.389  1.00  0.00    -0.028 C 
ATOM     15  C   UNL     1     -49.649 -48.343  19.365  1.00  0.00     0.004 C 
ENDBRANCH   4  14
TORSDOF 3
ENDMDL
MODEL 6
REMARK VINA RESULT:    -5.139      2.417      5.408
REMARK INTER + INTRA:          -6.484
REMARK INTER:                  -5.948
REMARK INTRA:                  -0.537
REMARK UNBOUND:                -0.445
REMARK SMILES C=C[C@]1(C)CC[C@H](C(=C)C)C[C@H]1C(=C)C
REMARK SMILES IDX 7 1 6 2 5 3 3 4 12 5 11 6 4 7 8 8 10 9 9 10 13 11 14 12
REMARK SMILES IDX 15 13 2 14 1 15
REMARK H PARENT
REMARK Flexibility Score: inf
ROOT
ATOM      1  C   UNL     1     -45.041 -49.555  29.548  1.00  0.00     0.015 C 
ATOM      2  C   UNL     1     -44.388 -48.237  29.996  1.00  0.00     0.009 C 
ATOM      3  C   UNL     1     -43.921 -47.397  28.797  1.00  0.00     0.012 C 
ATOM      4  C   UNL     1     -42.948 -48.163  27.852  1.00  0.00    -0.008 C 
ATOM      5  C   UNL     1     -43.533 -49.569  27.440  1.00  0.00     0.024 C 
ATOM      6  C   UNL     1     -44.094 -50.367  28.642  1.00  0.00     0.017 C 
ATOM      7  C   UNL     1     -42.688 -47.275  26.610  1.00  0.00     0.016 C 
ENDROOT
BRANCH   1   8
ATOM      8  C   UNL     1     -45.496 -50.380  30.747  1.00  0.00    -0.077 C 
ATOM      9  C   UNL     1     -46.741 -49.994  31.504  1.00  0.00     0.039 C 
ATOM     10  C   UNL     1     -44.809 -51.461  31.156  1.00  0.00     0.008 C 
ENDBRANCH   1   8
BRANCH   5  11
ATOM     11  C   UNL     1     -44.480 -49.584  26.226  1.00  0.00    -0.077 C 
ATOM     12  C   UNL     1     -45.725 -49.080  26.255  1.00  0.00     0.008 C 
ATOM     13  C   UNL     1     -44.011 -50.187  24.922  1.00  0.00     0.039 C 
ENDBRANCH   5  11
BRANCH   4  14
ATOM     14  C   UNL     1     -41.613 -48.347  28.586  1.00  0.00    -0.028 C 
ATOM     15  C   UNL     1     -40.597 -49.073  28.101  1.00  0.00     0.004 C 
ENDBRANCH   4  14
TORSDOF 3
ENDMDL
MODEL 7
REMARK VINA RESULT:    -5.127      1.753      4.583
REMARK INTER + INTRA:          -6.471
REMARK INTER:                  -6.051
REMARK INTRA:                  -0.420
REMARK UNBOUND:                -0.445
REMARK SMILES C=C[C@]1(C)CC[C@H](C(=C)C)C[C@H]1C(=C)C
REMARK SMILES IDX 7 1 6 2 5 3 3 4 12 5 11 6 4 7 8 8 10 9 9 10 13 11 14 12
REMARK SMILES IDX 15 13 2 14 1 15
REMARK H PARENT
REMARK Flexibility Score: inf
ROOT
ATOM      1  C   UNL     1     -43.281 -47.964  26.043  1.00  0.00     0.015 C 
ATOM      2  C   UNL     1     -41.807 -48.365  25.869  1.00  0.00     0.009 C 
ATOM      3  C   UNL     1     -41.272 -49.114  27.100  1.00  0.00     0.012 C 
ATOM      4  C   UNL     1     -41.440 -48.316  28.427  1.00  0.00    -0.008 C 
ATOM      5  C   UNL     1     -42.920 -47.800  28.605  1.00  0.00     0.024 C 
ATOM      6  C   UNL     1     -43.488 -47.135  27.327  1.00  0.00     0.017 C 
ATOM      7  C   UNL     1     -41.021 -49.239  29.598  1.00  0.00     0.016 C 
ENDROOT
BRANCH   1   8
ATOM      8  C   UNL     1     -43.798 -47.218  24.818  1.00  0.00    -0.077 C 
ATOM      9  C   UNL     1     -44.364 -47.983  23.649  1.00  0.00     0.039 C 
ATOM     10  C   UNL     1     -43.765 -45.876  24.748  1.00  0.00     0.008 C 
ENDBRANCH   1   8
BRANCH   5  11
ATOM     11  C   UNL     1     -43.913 -48.784  29.249  1.00  0.00    -0.077 C 
ATOM     12  C   UNL     1     -44.515 -48.558  30.429  1.00  0.00     0.008 C 
ATOM     13  C   UNL     1     -44.249 -50.076  28.541  1.00  0.00     0.039 C 
ENDBRANCH   5  11
BRANCH   4  14
ATOM     14  C   UNL     1     -40.471 -47.127  28.396  1.00  0.00    -0.028 C 
ATOM     15  C   UNL     1     -39.140 -47.255  28.481  1.00  0.00     0.004 C 
ENDBRANCH   4  14
TORSDOF 3
ENDMDL
MODEL 8
REMARK VINA RESULT:    -5.116      1.381      2.064
REMARK INTER + INTRA:          -6.458
REMARK INTER:                  -6.082
REMARK INTRA:                  -0.376
REMARK UNBOUND:                -0.445
REMARK SMILES C=C[C@]1(C)CC[C@H](C(=C)C)C[C@H]1C(=C)C
REMARK SMILES IDX 7 1 6 2 5 3 3 4 12 5 11 6 4 7 8 8 10 9 9 10 13 11 14 12
REMARK SMILES IDX 15 13 2 14 1 15
REMARK H PARENT
REMARK Flexibility Score: inf
ROOT
ATOM      1  C   UNL     1     -40.983 -47.704  28.477  1.00  0.00     0.015 C 
ATOM      2  C   UNL     1     -41.459 -46.838  27.300  1.00  0.00     0.009 C 
ATOM      3  C   UNL     1     -42.963 -47.012  27.038  1.00  0.00     0.012 C 
ATOM      4  C   UNL     1     -43.377 -48.494  26.792  1.00  0.00    -0.008 C 
ATOM      5  C   UNL     1     -42.827 -49.440  27.929  1.00  0.00     0.024 C 
ATOM      6  C   UNL     1     -41.335 -49.189  28.257  1.00  0.00     0.017 C 
ATOM      7  C   UNL     1     -44.923 -48.553  26.710  1.00  0.00     0.016 C 
ENDROOT
BRANCH   1   8
ATOM      8  C   UNL     1     -39.489 -47.525  28.724  1.00  0.00    -0.077 C 
ATOM      9  C   UNL     1     -38.956 -46.208  29.228  1.00  0.00     0.039 C 
ATOM     10  C   UNL     1     -38.616 -48.524  28.503  1.00  0.00     0.008 C 
ENDBRANCH   1   8
BRANCH   5  11
ATOM     11  C   UNL     1     -43.698 -49.566  29.192  1.00  0.00    -0.077 C 
ATOM     12  C   UNL     1     -44.190 -50.734  29.636  1.00  0.00     0.008 C 
ATOM     13  C   UNL     1     -44.029 -48.329  29.996  1.00  0.00     0.039 C 
ENDBRANCH   5  11
BRANCH   4  14
ATOM     14  C   UNL     1     -42.817 -48.929  25.432  1.00  0.00    -0.028 C 
ATOM     15  C   UNL     1     -43.499 -49.682  24.558  1.00  0.00     0.004 C 
ENDBRANCH   4  14
TORSDOF 3
ENDMDL
MODEL 9
REMARK VINA RESULT:    -5.094      9.929     13.432
REMARK INTER + INTRA:          -6.432
REMARK INTER:                  -6.029
REMARK INTRA:                  -0.403
REMARK UNBOUND:                -0.445
REMARK SMILES C=C[C@]1(C)CC[C@H](C(=C)C)C[C@H]1C(=C)C
REMARK SMILES IDX 7 1 6 2 5 3 3 4 12 5 11 6 4 7 8 8 10 9 9 10 13 11 14 12
REMARK SMILES IDX 15 13 2 14 1 15
REMARK H PARENT
REMARK Flexibility Score: inf
ROOT
ATOM      1  C   UNL     1     -53.152 -47.633  21.738  1.00  0.00     0.015 C 
ATOM      2  C   UNL     1     -52.776 -46.965  23.070  1.00  0.00     0.009 C 
ATOM      3  C   UNL     1     -51.260 -47.008  23.320  1.00  0.00     0.012 C 
ATOM      4  C   UNL     1     -50.671 -48.449  23.278  1.00  0.00    -0.008 C 
ATOM      5  C   UNL     1     -51.110 -49.213  21.968  1.00  0.00     0.024 C 
ATOM      6  C   UNL     1     -52.623 -49.080  21.669  1.00  0.00     0.017 C 
ATOM      7  C   UNL     1     -49.129 -48.341  23.375  1.00  0.00     0.016 C 
ENDROOT
BRANCH   1   8
ATOM      8  C   UNL     1     -54.658 -47.587  21.504  1.00  0.00    -0.077 C 
ATOM      9  C   UNL     1     -55.367 -46.262  21.392  1.00  0.00     0.039 C 
ATOM     10  C   UNL     1     -55.386 -48.712  21.391  1.00  0.00     0.008 C 
ENDBRANCH   1   8
BRANCH   5  11
ATOM     11  C   UNL     1     -50.238 -48.984  20.721  1.00  0.00    -0.077 C 
ATOM     12  C   UNL     1     -50.065 -47.780  20.152  1.00  0.00     0.008 C 
ATOM     13  C   UNL     1     -49.526 -50.155  20.084  1.00  0.00     0.039 C 
ENDBRANCH   5  11
BRANCH   4  14
ATOM     14  C   UNL     1     -51.168 -49.207  24.516  1.00  0.00    -0.028 C 
ATOM     15  C   UNL     1     -50.372 -49.951  25.296  1.00  0.00     0.004 C 
ENDBRANCH   4  14
TORSDOF 3
ENDMDL
