MODEL 1
REMARK VINA RESULT:    -3.706      0.000      0.000
REMARK INTER + INTRA:          -4.835
REMARK INTER:                  -4.573
REMARK INTRA:                  -0.262
REMARK UNBOUND:                -0.262
REMARK SMILES COC(=O)c1ccccc1C(=O)OC
REMARK SMILES IDX 5 1 6 2 7 3 8 4 9 5 10 6 3 7 4 8 2 9 1 10 11 11 12 12 13 13
REMARK SMILES IDX 14 14
REMARK H PARENT
REMARK Flexibility Score: inf
ROOT
ATOM      1  C   UNL     1      26.586  26.891  29.083  1.00  0.00     0.074 A 
ATOM      2  C   UNL     1      26.487  25.718  29.854  1.00  0.00     0.016 A 
ATOM      3  C   UNL     1      27.444  24.710  29.744  1.00  0.00     0.001 A 
ATOM      4  C   UNL     1      28.514  24.853  28.863  1.00  0.00     0.001 A 
ATOM      5  C   UNL     1      28.644  26.018  28.105  1.00  0.00     0.016 A 
ATOM      6  C   UNL     1      27.703  27.058  28.217  1.00  0.00     0.074 A 
ENDROOT
BRANCH   1   7
ATOM      7  C   UNL     1      25.476  27.869  29.166  1.00  0.00     0.338 C 
ATOM      8  O   UNL     1      25.575  28.884  29.909  1.00  0.00    -0.246 OA
BRANCH   7   9
ATOM      9  O   UNL     1      24.341  27.690  28.369  1.00  0.00    -0.465 OA
ATOM     10  C   UNL     1      23.240  28.591  28.389  1.00  0.00     0.282 C 
ENDBRANCH   7   9
ENDBRANCH   1   7
BRANCH   6  11
ATOM     11  C   UNL     1      27.964  28.309  27.469  1.00  0.00     0.338 C 
ATOM     12  O   UNL     1      28.535  29.283  28.034  1.00  0.00    -0.246 OA
BRANCH  11  13
ATOM     13  O   UNL     1      27.628  28.384  26.113  1.00  0.00    -0.465 OA
ATOM     14  C   UNL     1      28.069  29.442  25.270  1.00  0.00     0.282 C 
ENDBRANCH  11  13
ENDBRANCH   6  11
TORSDOF 4
ENDMDL
MODEL 2
REMARK VINA RESULT:    -3.704      0.113      3.469
REMARK INTER + INTRA:          -4.832
REMARK INTER:                  -4.568
REMARK INTRA:                  -0.264
REMARK UNBOUND:                -0.262
REMARK SMILES COC(=O)c1ccccc1C(=O)OC
REMARK SMILES IDX 5 1 6 2 7 3 8 4 9 5 10 6 3 7 4 8 2 9 1 10 11 11 12 12 13 13
REMARK SMILES IDX 14 14
REMARK H PARENT
REMARK Flexibility Score: inf
ROOT
ATOM      1  C   UNL     1      27.736  27.045  28.285  1.00  0.00     0.074 A 
ATOM      2  C   UNL     1      28.678  26.003  28.181  1.00  0.00     0.016 A 
ATOM      3  C   UNL     1      28.518  24.823  28.906  1.00  0.00     0.001 A 
ATOM      4  C   UNL     1      27.420  24.662  29.748  1.00  0.00     0.001 A 
ATOM      5  C   UNL     1      26.462  25.673  29.849  1.00  0.00     0.016 A 
ATOM      6  C   UNL     1      26.591  26.862  29.110  1.00  0.00     0.074 A 
ENDROOT
BRANCH   1   7
ATOM      7  C   UNL     1      28.027  28.313  27.576  1.00  0.00     0.338 C 
ATOM      8  O   UNL     1      28.711  29.214  28.136  1.00  0.00    -0.246 OA
BRANCH   7   9
ATOM      9  O   UNL     1      27.588  28.482  26.259  1.00  0.00    -0.465 OA
ATOM     10  C   UNL     1      28.264  29.315  25.325  1.00  0.00     0.282 C 
ENDBRANCH   7   9
ENDBRANCH   1   7
BRANCH   6  11
ATOM     11  C   UNL     1      25.483  27.842  29.179  1.00  0.00     0.338 C 
ATOM     12  O   UNL     1      25.574  28.857  29.924  1.00  0.00    -0.246 OA
BRANCH  11  13
ATOM     13  O   UNL     1      24.358  27.669  28.366  1.00  0.00    -0.465 OA
ATOM     14  C   UNL     1      23.248  28.558  28.391  1.00  0.00     0.282 C 
ENDBRANCH  11  13
ENDBRANCH   6  11
TORSDOF 4
ENDMDL
MODEL 3
REMARK VINA RESULT:    -3.487     14.214     16.418
REMARK INTER + INTRA:          -4.565
REMARK INTER:                  -4.559
REMARK INTRA:                  -0.006
REMARK UNBOUND:                -0.262
REMARK SMILES COC(=O)c1ccccc1C(=O)OC
REMARK SMILES IDX 5 1 6 2 7 3 8 4 9 5 10 6 3 7 4 8 2 9 1 10 11 11 12 12 13 13
REMARK SMILES IDX 14 14
REMARK H PARENT
REMARK Flexibility Score: inf
ROOT
ATOM      1  C   UNL     1      27.566  42.298  21.436  1.00  0.00     0.074 A 
ATOM      2  C   UNL     1      27.147  43.632  21.274  1.00  0.00     0.016 A 
ATOM      3  C   UNL     1      26.802  44.123  20.015  1.00  0.00     0.001 A 
ATOM      4  C   UNL     1      26.872  43.294  18.898  1.00  0.00     0.001 A 
ATOM      5  C   UNL     1      27.263  41.961  19.039  1.00  0.00     0.016 A 
ATOM      6  C   UNL     1      27.593  41.438  20.302  1.00  0.00     0.074 A 
ENDROOT
BRANCH   1   7
ATOM      7  C   UNL     1      28.024  41.875  22.780  1.00  0.00     0.338 C 
ATOM      8  O   UNL     1      29.050  41.152  22.905  1.00  0.00    -0.246 OA
BRANCH   7   9
ATOM      9  O   UNL     1      27.345  42.332  23.914  1.00  0.00    -0.465 OA
ATOM     10  C   UNL     1      27.971  43.124  24.917  1.00  0.00     0.282 C 
ENDBRANCH   7   9
ENDBRANCH   1   7
BRANCH   6  11
ATOM     11  C   UNL     1      27.889  39.991  20.395  1.00  0.00     0.338 C 
ATOM     12  O   UNL     1      29.029  39.551  20.080  1.00  0.00    -0.246 OA
BRANCH  11  13
ATOM     13  O   UNL     1      26.914  39.118  20.891  1.00  0.00    -0.465 OA
ATOM     14  C   UNL     1      25.772  38.733  20.136  1.00  0.00     0.282 C 
ENDBRANCH  11  13
ENDBRANCH   6  11
TORSDOF 4
ENDMDL
MODEL 4
REMARK VINA RESULT:    -3.483     14.222     16.517
REMARK INTER + INTRA:          -4.560
REMARK INTER:                  -4.531
REMARK INTRA:                  -0.030
REMARK UNBOUND:                -0.262
REMARK SMILES COC(=O)c1ccccc1C(=O)OC
REMARK SMILES IDX 5 1 6 2 7 3 8 4 9 5 10 6 3 7 4 8 2 9 1 10 11 11 12 12 13 13
REMARK SMILES IDX 14 14
REMARK H PARENT
REMARK Flexibility Score: inf
ROOT
ATOM      1  C   UNL     1      27.600  41.445  20.306  1.00  0.00     0.074 A 
ATOM      2  C   UNL     1      27.259  41.921  19.026  1.00  0.00     0.016 A 
ATOM      3  C   UNL     1      26.876  43.249  18.838  1.00  0.00     0.001 A 
ATOM      4  C   UNL     1      26.823  44.122  19.922  1.00  0.00     0.001 A 
ATOM      5  C   UNL     1      27.178  43.677  21.196  1.00  0.00     0.016 A 
ATOM      6  C   UNL     1      27.591  42.349  21.406  1.00  0.00     0.074 A 
ENDROOT
BRANCH   1   7
ATOM      7  C   UNL     1      27.888  39.999  20.452  1.00  0.00     0.338 C 
ATOM      8  O   UNL     1      29.042  39.552  20.208  1.00  0.00    -0.246 OA
BRANCH   7   9
ATOM      9  O   UNL     1      26.887  39.142  20.919  1.00  0.00    -0.465 OA
ATOM     10  C   UNL     1      25.792  38.728  20.111  1.00  0.00     0.282 C 
ENDBRANCH   7   9
ENDBRANCH   1   7
BRANCH   6  11
ATOM     11  C   UNL     1      28.061  41.976  22.759  1.00  0.00     0.338 C 
ATOM     12  O   UNL     1      29.125  41.313  22.905  1.00  0.00    -0.246 OA
BRANCH  11  13
ATOM     13  O   UNL     1      27.349  42.415  23.881  1.00  0.00    -0.465 OA
ATOM     14  C   UNL     1      27.958  43.145  24.939  1.00  0.00     0.282 C 
ENDBRANCH  11  13
ENDBRANCH   6  11
TORSDOF 4
ENDMDL
MODEL 5
REMARK VINA RESULT:    -3.409      2.380      4.668
REMARK INTER + INTRA:          -4.468
REMARK INTER:                  -4.112
REMARK INTRA:                  -0.356
REMARK UNBOUND:                -0.262
REMARK SMILES COC(=O)c1ccccc1C(=O)OC
REMARK SMILES IDX 5 1 6 2 7 3 8 4 9 5 10 6 3 7 4 8 2 9 1 10 11 11 12 12 13 13
REMARK SMILES IDX 14 14
REMARK H PARENT
REMARK Flexibility Score: inf
ROOT
ATOM      1  C   UNL     1      28.431  27.244  26.413  1.00  0.00     0.074 A 
ATOM      2  C   UNL     1      28.759  28.338  25.590  1.00  0.00     0.016 A 
ATOM      3  C   UNL     1      28.917  29.614  26.131  1.00  0.00     0.001 A 
ATOM      4  C   UNL     1      28.747  29.820  27.498  1.00  0.00     0.001 A 
ATOM      5  C   UNL     1      28.444  28.746  28.335  1.00  0.00     0.016 A 
ATOM      6  C   UNL     1      28.303  27.446  27.815  1.00  0.00     0.074 A 
ENDROOT
BRANCH   1   7
ATOM      7  C   UNL     1      28.168  25.941  25.758  1.00  0.00     0.338 C 
ATOM      8  O   UNL     1      29.125  25.231  25.344  1.00  0.00    -0.246 OA
BRANCH   7   9
ATOM      9  O   UNL     1      26.853  25.476  25.654  1.00  0.00    -0.465 OA
ATOM     10  C   UNL     1      26.532  24.092  25.576  1.00  0.00     0.282 C 
ENDBRANCH   7   9
ENDBRANCH   1   7
BRANCH   6  11
ATOM     11  C   UNL     1      28.093  26.338  28.774  1.00  0.00     0.338 C 
ATOM     12  O   UNL     1      29.053  25.587  29.103  1.00  0.00    -0.246 OA
BRANCH  11  13
ATOM     13  O   UNL     1      26.835  26.163  29.361  1.00  0.00    -0.465 OA
ATOM     14  C   UNL     1      25.624  26.505  28.698  1.00  0.00     0.282 C 
ENDBRANCH  11  13
ENDBRANCH   6  11
TORSDOF 4
ENDMDL
MODEL 6
REMARK VINA RESULT:    -3.377      1.912      3.368
REMARK INTER + INTRA:          -4.429
REMARK INTER:                  -4.126
REMARK INTRA:                  -0.303
REMARK UNBOUND:                -0.262
REMARK SMILES COC(=O)c1ccccc1C(=O)OC
REMARK SMILES IDX 5 1 6 2 7 3 8 4 9 5 10 6 3 7 4 8 2 9 1 10 11 11 12 12 13 13
REMARK SMILES IDX 14 14
REMARK H PARENT
REMARK Flexibility Score: inf
ROOT
ATOM      1  C   UNL     1      26.826  27.241  28.020  1.00  0.00     0.074 A 
ATOM      2  C   UNL     1      27.277  28.024  26.940  1.00  0.00     0.016 A 
ATOM      3  C   UNL     1      28.415  27.660  26.222  1.00  0.00     0.001 A 
ATOM      4  C   UNL     1      29.124  26.511  26.569  1.00  0.00     0.001 A 
ATOM      5  C   UNL     1      28.681  25.708  27.621  1.00  0.00     0.016 A 
ATOM      6  C   UNL     1      27.522  26.044  28.345  1.00  0.00     0.074 A 
ENDROOT
BRANCH   1   7
ATOM      7  C   UNL     1      25.678  27.747  28.808  1.00  0.00     0.338 C 
ATOM      8  O   UNL     1      25.872  28.473  29.822  1.00  0.00    -0.246 OA
BRANCH   7   9
ATOM      9  O   UNL     1      24.375  27.463  28.388  1.00  0.00    -0.465 OA
ATOM     10  C   UNL     1      23.345  28.444  28.363  1.00  0.00     0.282 C 
ENDBRANCH   7   9
ENDBRANCH   1   7
BRANCH   6  11
ATOM     11  C   UNL     1      27.048  25.089  29.372  1.00  0.00     0.338 C 
ATOM     12  O   UNL     1      27.582  25.066  30.516  1.00  0.00    -0.246 OA
BRANCH  11  13
ATOM     13  O   UNL     1      25.964  24.252  29.087  1.00  0.00    -0.465 OA
ATOM     14  C   UNL     1      25.515  24.000  27.761  1.00  0.00     0.282 C 
ENDBRANCH  11  13
ENDBRANCH   6  11
TORSDOF 4
ENDMDL
MODEL 7
REMARK VINA RESULT:    -3.376      2.499      4.007
REMARK INTER + INTRA:          -4.428
REMARK INTER:                  -4.063
REMARK INTRA:                  -0.364
REMARK UNBOUND:                -0.262
REMARK SMILES COC(=O)c1ccccc1C(=O)OC
REMARK SMILES IDX 5 1 6 2 7 3 8 4 9 5 10 6 3 7 4 8 2 9 1 10 11 11 12 12 13 13
REMARK SMILES IDX 14 14
REMARK H PARENT
REMARK Flexibility Score: inf
ROOT
ATOM      1  C   UNL     1      28.255  27.377  27.729  1.00  0.00     0.074 A 
ATOM      2  C   UNL     1      28.405  28.715  28.140  1.00  0.00     0.016 A 
ATOM      3  C   UNL     1      28.786  29.701  27.230  1.00  0.00     0.001 A 
ATOM      4  C   UNL     1      29.025  29.370  25.899  1.00  0.00     0.001 A 
ATOM      5  C   UNL     1      28.860  28.054  25.465  1.00  0.00     0.016 A 
ATOM      6  C   UNL     1      28.454  27.047  26.359  1.00  0.00     0.074 A 
ENDROOT
BRANCH   1   7
ATOM      7  C   UNL     1      27.960  26.364  28.769  1.00  0.00     0.338 C 
ATOM      8  O   UNL     1      28.869  25.592  29.183  1.00  0.00    -0.246 OA
BRANCH   7   9
ATOM      9  O   UNL     1      26.681  26.306  29.331  1.00  0.00    -0.465 OA
ATOM     10  C   UNL     1      25.525  25.966  28.575  1.00  0.00     0.282 C 
ENDBRANCH   7   9
ENDBRANCH   1   7
BRANCH   6  11
ATOM     11  C   UNL     1      28.190  25.699  25.808  1.00  0.00     0.338 C 
ATOM     12  O   UNL     1      29.124  24.856  25.708  1.00  0.00    -0.246 OA
BRANCH  11  13
ATOM     13  O   UNL     1      26.884  25.342  25.454  1.00  0.00    -0.465 OA
ATOM     14  C   UNL     1      26.587  24.188  24.678  1.00  0.00     0.282 C 
ENDBRANCH  11  13
ENDBRANCH   6  11
TORSDOF 4
ENDMDL
MODEL 8
REMARK VINA RESULT:    -3.376      1.914      3.654
REMARK INTER + INTRA:          -4.427
REMARK INTER:                  -4.138
REMARK INTRA:                  -0.289
REMARK UNBOUND:                -0.262
REMARK SMILES COC(=O)c1ccccc1C(=O)OC
REMARK SMILES IDX 5 1 6 2 7 3 8 4 9 5 10 6 3 7 4 8 2 9 1 10 11 11 12 12 13 13
REMARK SMILES IDX 14 14
REMARK H PARENT
REMARK Flexibility Score: inf
ROOT
ATOM      1  C   UNL     1      27.472  26.029  28.293  1.00  0.00     0.074 A 
ATOM      2  C   UNL     1      28.619  25.657  27.567  1.00  0.00     0.016 A 
ATOM      3  C   UNL     1      29.101  26.461  26.534  1.00  0.00     0.001 A 
ATOM      4  C   UNL     1      28.446  27.647  26.207  1.00  0.00     0.001 A 
ATOM      5  C   UNL     1      27.321  28.047  26.930  1.00  0.00     0.016 A 
ATOM      6  C   UNL     1      26.831  27.263  27.990  1.00  0.00     0.074 A 
ENDROOT
BRANCH   1   7
ATOM      7  C   UNL     1      26.950  25.074  29.298  1.00  0.00     0.338 C 
ATOM      8  O   UNL     1      27.420  25.062  30.469  1.00  0.00    -0.246 OA
BRANCH   7   9
ATOM      9  O   UNL     1      25.892  24.225  28.958  1.00  0.00    -0.465 OA
ATOM     10  C   UNL     1      25.423  24.081  27.623  1.00  0.00     0.282 C 
ENDBRANCH   7   9
ENDBRANCH   1   7
BRANCH   6  11
ATOM     11  C   UNL     1      25.703  27.802  28.784  1.00  0.00     0.338 C 
ATOM     12  O   UNL     1      25.920  28.580  29.754  1.00  0.00    -0.246 OA
BRANCH  11  13
ATOM     13  O   UNL     1      24.390  27.490  28.415  1.00  0.00    -0.465 OA
ATOM     14  C   UNL     1      23.346  28.456  28.404  1.00  0.00     0.282 C 
ENDBRANCH  11  13
ENDBRANCH   6  11
TORSDOF 4
ENDMDL
