MODEL 1
REMARK VINA RESULT:    -6.165      0.000      0.000
REMARK INTER + INTRA:          -6.266
REMARK INTER:                  -6.706
REMARK INTRA:                   0.439
REMARK UNBOUND:                 0.439
REMARK SMILES C[C@@H]1[C@H](C)CC[C@@]2(C(=O)[O-])CC[C@@]3(C)C(=CC[C@H]4[C@]5(C)CC[C@@H](O)C(C)(C)[C@H]5CC[C@@]43C)[C@H]12
REMARK SMILES IDX 7 1 6 2 11 3 33 4 5 5 12 6 15 7 2 8 3 9 13 10 16 11 1 12
REMARK SMILES IDX 4 13 14 14 31 15 17 16 18 17 30 18 32 19 19 20 29 21 28 22
REMARK SMILES IDX 21 23 20 24 25 25 22 26 23 27 26 28 27 29 8 30 9 31 10 32
REMARK SMILES IDX 24 33
REMARK H PARENT 24 34
REMARK Flexibility Score: inf
ROOT
ATOM      1  C   UNL     1      71.894  55.032  18.292  1.00  0.00     0.017 C 
ATOM      2  C   UNL     1      72.714  53.881  17.631  1.00  0.00     0.014 C 
ATOM      3  C   UNL     1      70.398  54.756  18.005  1.00  0.00     0.014 C 
ATOM      4  C   UNL     1      72.152  54.997  19.840  1.00  0.00     0.030 C 
ATOM      5  C   UNL     1      74.212  53.946  17.954  1.00  0.00     0.004 C 
ATOM      6  C   UNL     1      69.453  55.706  18.760  1.00  0.00     0.013 C 
ATOM      7  C   UNL     1      71.168  55.881  20.643  1.00  0.00    -0.063 C 
ATOM      8  C   UNL     1      73.683  55.084  20.193  1.00  0.00    -0.003 C 
ATOM      9  C   UNL     1      74.451  53.935  19.475  1.00  0.00    -0.011 C 
ATOM     10  C   UNL     1      69.650  55.732  20.320  1.00  0.00    -0.006 C 
ATOM     11  C   UNL     1      71.586  56.565  21.754  1.00  0.00    -0.027 C 
ATOM     12  C   UNL     1      74.335  56.467  19.946  1.00  0.00     0.008 C 
ATOM     13  C   UNL     1      75.956  53.933  19.791  1.00  0.00     0.008 C 
ATOM     14  C   UNL     1      69.174  54.345  20.866  1.00  0.00     0.017 C 
ATOM     15  C   UNL     1      68.819  56.938  21.000  1.00  0.00    -0.020 C 
ATOM     16  C   UNL     1      70.706  57.425  22.638  1.00  0.00     0.032 C 
ATOM     17  C   UNL     1      69.238  56.995  22.519  1.00  0.00     0.006 C 
ATOM     18  C   UNL     1      67.254  56.804  20.851  1.00  0.00     0.008 C 
ATOM     19  C   UNL     1      69.208  58.277  20.268  1.00  0.00     0.012 C 
ATOM     20  C   UNL     1      68.191  57.626  23.521  1.00  0.00    -0.025 C 
ATOM     21  C   UNL     1      66.426  56.315  22.059  1.00  0.00     0.005 C 
ATOM     22  C   UNL     1      66.950  56.661  23.487  1.00  0.00     0.003 C 
ATOM     23  C   UNL     1      68.763  57.606  24.973  1.00  0.00     0.010 C 
ATOM     24  C   UNL     1      67.862  59.095  23.149  1.00  0.00     0.012 C 
ATOM     25  C   UNL     1      65.833  56.919  24.572  1.00  0.00    -0.006 C 
ATOM     26  C   UNL     1      67.717  57.895  26.063  1.00  0.00     0.033 C 
ATOM     27  C   UNL     1      66.504  56.949  25.983  1.00  0.00     0.120 C 
ATOM     28  C   UNL     1      65.015  58.218  24.316  1.00  0.00     0.014 C 
ATOM     29  C   UNL     1      64.835  55.727  24.565  1.00  0.00     0.014 C 
ENDROOT
BRANCH   1  30
ATOM     30  C   UNL     1      72.254  56.373  17.653  1.00  0.00     0.048 C 
ATOM     31  O   UNL     1      72.754  56.418  16.498  1.00  0.00    -0.550 OA
ATOM     32  O   UNL     1      71.939  57.570  18.285  1.00  0.00    -0.550 OA
ENDBRANCH   1  30
BRANCH  27  33
ATOM     33  O   UNL     1      65.562  57.314  26.962  1.00  0.00    -0.393 OA
ATOM     34  H   UNL     1      65.423  58.294  26.881  1.00  0.00     0.210 HD
ENDBRANCH  27  33
TORSDOF 2
ENDMDL
MODEL 2
REMARK VINA RESULT:    -5.443      3.806      6.419
REMARK INTER + INTRA:          -5.481
REMARK INTER:                  -5.971
REMARK INTRA:                   0.490
REMARK UNBOUND:                 0.439
REMARK SMILES C[C@@H]1[C@H](C)CC[C@@]2(C(=O)[O-])CC[C@@]3(C)C(=CC[C@H]4[C@]5(C)CC[C@@H](O)C(C)(C)[C@H]5CC[C@@]43C)[C@H]12
REMARK SMILES IDX 7 1 6 2 11 3 33 4 5 5 12 6 15 7 2 8 3 9 13 10 16 11 1 12
REMARK SMILES IDX 4 13 14 14 31 15 17 16 18 17 30 18 32 19 19 20 29 21 28 22
REMARK SMILES IDX 21 23 20 24 25 25 22 26 23 27 26 28 27 29 8 30 9 31 10 32
REMARK SMILES IDX 24 33
REMARK H PARENT 24 34
REMARK Flexibility Score: inf
ROOT
ATOM      1  C   UNL     1      69.010  53.762  18.995  1.00  0.00     0.017 C 
ATOM      2  C   UNL     1      67.509  53.531  18.636  1.00  0.00     0.014 C 
ATOM      3  C   UNL     1      69.199  55.281  19.226  1.00  0.00     0.014 C 
ATOM      4  C   UNL     1      69.328  52.980  20.318  1.00  0.00     0.030 C 
ATOM      5  C   UNL     1      67.140  52.046  18.516  1.00  0.00     0.004 C 
ATOM      6  C   UNL     1      70.590  55.639  19.777  1.00  0.00     0.013 C 
ATOM      7  C   UNL     1      70.687  53.372  20.946  1.00  0.00    -0.063 C 
ATOM      8  C   UNL     1      68.976  51.451  20.208  1.00  0.00    -0.003 C 
ATOM      9  C   UNL     1      67.479  51.286  19.811  1.00  0.00    -0.011 C 
ATOM     10  C   UNL     1      70.988  54.894  21.104  1.00  0.00    -0.006 C 
ATOM     11  C   UNL     1      71.469  52.434  21.568  1.00  0.00    -0.027 C 
ATOM     12  C   UNL     1      69.917  50.626  19.296  1.00  0.00     0.008 C 
ATOM     13  C   UNL     1      67.046  49.814  19.709  1.00  0.00     0.008 C 
ATOM     14  C   UNL     1      70.066  55.453  22.238  1.00  0.00     0.017 C 
ATOM     15  C   UNL     1      72.546  55.116  21.461  1.00  0.00    -0.020 C 
ATOM     16  C   UNL     1      72.794  52.708  22.251  1.00  0.00     0.032 C 
ATOM     17  C   UNL     1      72.883  54.177  22.683  1.00  0.00     0.006 C 
ATOM     18  C   UNL     1      72.925  56.614  21.779  1.00  0.00     0.008 C 
ATOM     19  C   UNL     1      73.401  54.713  20.202  1.00  0.00     0.012 C 
ATOM     20  C   UNL     1      74.093  54.613  23.601  1.00  0.00    -0.025 C 
ATOM     21  C   UNL     1      73.117  57.042  23.250  1.00  0.00     0.005 C 
ATOM     22  C   UNL     1      73.650  55.973  24.254  1.00  0.00     0.003 C 
ATOM     23  C   UNL     1      74.289  53.579  24.753  1.00  0.00     0.010 C 
ATOM     24  C   UNL     1      75.416  54.699  22.795  1.00  0.00     0.012 C 
ATOM     25  C   UNL     1      74.575  56.530  25.405  1.00  0.00    -0.006 C 
ATOM     26  C   UNL     1      75.219  54.064  25.879  1.00  0.00     0.033 C 
ATOM     27  C   UNL     1      74.770  55.410  26.477  1.00  0.00     0.120 C 
ATOM     28  C   UNL     1      75.947  57.056  24.892  1.00  0.00     0.014 C 
ATOM     29  C   UNL     1      73.852  57.715  26.107  1.00  0.00     0.014 C 
ENDROOT
BRANCH   1  30
ATOM     30  C   UNL     1      69.903  53.352  17.825  1.00  0.00     0.048 C 
ATOM     31  O   UNL     1      69.406  53.111  16.692  1.00  0.00    -0.550 OA
ATOM     32  O   UNL     1      71.287  53.341  17.955  1.00  0.00    -0.550 OA
ENDBRANCH   1  30
BRANCH  27  33
ATOM     33  O   UNL     1      75.700  55.822  27.448  1.00  0.00    -0.393 OA
ATOM     34  H   UNL     1      75.814  55.067  28.083  1.00  0.00     0.210 HD
ENDBRANCH  27  33
TORSDOF 2
ENDMDL
MODEL 3
REMARK VINA RESULT:    -5.237      3.463      7.662
REMARK INTER + INTRA:          -5.257
REMARK INTER:                  -5.752
REMARK INTRA:                   0.496
REMARK UNBOUND:                 0.439
REMARK SMILES C[C@@H]1[C@H](C)CC[C@@]2(C(=O)[O-])CC[C@@]3(C)C(=CC[C@H]4[C@]5(C)CC[C@@H](O)C(C)(C)[C@H]5CC[C@@]43C)[C@H]12
REMARK SMILES IDX 7 1 6 2 11 3 33 4 5 5 12 6 15 7 2 8 3 9 13 10 16 11 1 12
REMARK SMILES IDX 4 13 14 14 31 15 17 16 18 17 30 18 32 19 19 20 29 21 28 22
REMARK SMILES IDX 21 23 20 24 25 25 22 26 23 27 26 28 27 29 8 30 9 31 10 32
REMARK SMILES IDX 24 33
REMARK H PARENT 24 34
REMARK Flexibility Score: inf
ROOT
ATOM      1  C   UNL     1      72.016  53.843  24.793  1.00  0.00     0.017 C 
ATOM      2  C   UNL     1      72.772  53.041  25.898  1.00  0.00     0.014 C 
ATOM      3  C   UNL     1      72.666  55.245  24.715  1.00  0.00     0.014 C 
ATOM      4  C   UNL     1      72.202  53.095  23.425  1.00  0.00     0.030 C 
ATOM      5  C   UNL     1      72.326  51.576  25.991  1.00  0.00     0.004 C 
ATOM      6  C   UNL     1      72.151  56.085  23.534  1.00  0.00     0.013 C 
ATOM      7  C   UNL     1      71.768  53.940  22.204  1.00  0.00    -0.063 C 
ATOM      8  C   UNL     1      71.730  51.596  23.495  1.00  0.00    -0.003 C 
ATOM      9  C   UNL     1      72.490  50.860  24.638  1.00  0.00    -0.011 C 
ATOM     10  C   UNL     1      72.299  55.404  22.124  1.00  0.00    -0.006 C 
ATOM     11  C   UNL     1      71.163  53.353  21.124  1.00  0.00    -0.027 C 
ATOM     12  C   UNL     1      70.197  51.395  23.588  1.00  0.00     0.008 C 
ATOM     13  C   UNL     1      72.104  49.377  24.755  1.00  0.00     0.008 C 
ATOM     14  C   UNL     1      73.829  55.344  21.802  1.00  0.00     0.017 C 
ATOM     15  C   UNL     1      71.498  56.222  20.987  1.00  0.00    -0.020 C 
ATOM     16  C   UNL     1      70.733  54.070  19.860  1.00  0.00     0.032 C 
ATOM     17  C   UNL     1      71.546  55.357  19.669  1.00  0.00     0.006 C 
ATOM     18  C   UNL     1      72.054  57.675  20.728  1.00  0.00     0.008 C 
ATOM     19  C   UNL     1      70.012  56.410  21.470  1.00  0.00     0.012 C 
ATOM     20  C   UNL     1      71.398  56.137  18.302  1.00  0.00    -0.025 C 
ATOM     21  C   UNL     1      72.933  57.931  19.484  1.00  0.00     0.005 C 
ATOM     22  C   UNL     1      72.665  57.065  18.215  1.00  0.00     0.003 C 
ATOM     23  C   UNL     1      71.465  55.136  17.106  1.00  0.00     0.010 C 
ATOM     24  C   UNL     1      70.049  56.897  18.224  1.00  0.00     0.012 C 
ATOM     25  C   UNL     1      72.902  57.797  16.836  1.00  0.00    -0.006 C 
ATOM     26  C   UNL     1      71.654  55.809  15.736  1.00  0.00     0.033 C 
ATOM     27  C   UNL     1      72.887  56.730  15.694  1.00  0.00     0.120 C 
ATOM     28  C   UNL     1      71.871  58.929  16.555  1.00  0.00     0.014 C 
ATOM     29  C   UNL     1      74.317  58.442  16.842  1.00  0.00     0.014 C 
ENDROOT
BRANCH   1  30
ATOM     30  C   UNL     1      70.550  54.028  25.182  1.00  0.00     0.048 C 
ATOM     31  O   UNL     1      70.151  53.726  26.339  1.00  0.00    -0.550 OA
ATOM     32  O   UNL     1      69.652  54.630  24.309  1.00  0.00    -0.550 OA
ENDBRANCH   1  30
BRANCH  27  33
ATOM     33  O   UNL     1      72.957  57.360  14.439  1.00  0.00    -0.393 OA
ATOM     34  H   UNL     1      73.753  57.954  14.455  1.00  0.00     0.210 HD
ENDBRANCH  27  33
TORSDOF 2
ENDMDL
MODEL 4
REMARK VINA RESULT:    -5.066      1.857      8.416
REMARK INTER + INTRA:          -5.071
REMARK INTER:                  -5.570
REMARK INTRA:                   0.499
REMARK UNBOUND:                 0.439
REMARK SMILES C[C@@H]1[C@H](C)CC[C@@]2(C(=O)[O-])CC[C@@]3(C)C(=CC[C@H]4[C@]5(C)CC[C@@H](O)C(C)(C)[C@H]5CC[C@@]43C)[C@H]12
REMARK SMILES IDX 7 1 6 2 11 3 33 4 5 5 12 6 15 7 2 8 3 9 13 10 16 11 1 12
REMARK SMILES IDX 4 13 14 14 31 15 17 16 18 17 30 18 32 19 19 20 29 21 28 22
REMARK SMILES IDX 21 23 20 24 25 25 22 26 23 27 26 28 27 29 8 30 9 31 10 32
REMARK SMILES IDX 24 33
REMARK H PARENT 24 34
REMARK Flexibility Score: inf
ROOT
ATOM      1  C   UNL     1      68.998  56.922  25.443  1.00  0.00     0.017 C 
ATOM      2  C   UNL     1      68.004  56.411  26.532  1.00  0.00     0.014 C 
ATOM      3  C   UNL     1      70.426  56.562  25.917  1.00  0.00     0.014 C 
ATOM      4  C   UNL     1      68.682  56.176  24.098  1.00  0.00     0.030 C 
ATOM      5  C   UNL     1      66.533  56.574  26.129  1.00  0.00     0.004 C 
ATOM      6  C   UNL     1      71.502  56.833  24.852  1.00  0.00     0.013 C 
ATOM      7  C   UNL     1      69.783  56.360  23.026  1.00  0.00    -0.063 C 
ATOM      8  C   UNL     1      67.182  56.348  23.657  1.00  0.00    -0.003 C 
ATOM      9  C   UNL     1      66.241  55.859  24.797  1.00  0.00    -0.011 C 
ATOM     10  C   UNL     1      71.258  56.122  23.470  1.00  0.00    -0.006 C 
ATOM     11  C   UNL     1      69.459  56.470  21.699  1.00  0.00    -0.027 C 
ATOM     12  C   UNL     1      66.804  57.765  23.155  1.00  0.00     0.008 C 
ATOM     13  C   UNL     1      64.752  55.969  24.433  1.00  0.00     0.008 C 
ATOM     14  C   UNL     1      71.450  54.587  23.704  1.00  0.00     0.017 C 
ATOM     15  C   UNL     1      72.272  56.668  22.339  1.00  0.00    -0.020 C 
ATOM     16  C   UNL     1      70.450  56.612  20.562  1.00  0.00     0.032 C 
ATOM     17  C   UNL     1      71.816  56.044  20.964  1.00  0.00     0.006 C 
ATOM     18  C   UNL     1      73.789  56.350  22.628  1.00  0.00     0.008 C 
ATOM     19  C   UNL     1      72.162  58.238  22.296  1.00  0.00     0.012 C 
ATOM     20  C   UNL     1      72.925  55.903  19.846  1.00  0.00    -0.025 C 
ATOM     21  C   UNL     1      74.470  55.191  21.866  1.00  0.00     0.005 C 
ATOM     22  C   UNL     1      73.967  54.877  20.423  1.00  0.00     0.003 C 
ATOM     23  C   UNL     1      72.307  55.273  18.559  1.00  0.00     0.010 C 
ATOM     24  C   UNL     1      73.532  57.279  19.471  1.00  0.00     0.012 C 
ATOM     25  C   UNL     1      75.073  54.365  19.419  1.00  0.00    -0.006 C 
ATOM     26  C   UNL     1      73.349  54.797  17.532  1.00  0.00     0.033 C 
ATOM     27  C   UNL     1      74.369  53.815  18.137  1.00  0.00     0.120 C 
ATOM     28  C   UNL     1      76.125  55.452  19.056  1.00  0.00     0.014 C 
ATOM     29  C   UNL     1      75.835  53.175  20.070  1.00  0.00     0.014 C 
ENDROOT
BRANCH   1  30
ATOM     30  C   UNL     1      68.914  58.443  25.320  1.00  0.00     0.048 C 
ATOM     31  O   UNL     1      68.269  59.119  26.166  1.00  0.00    -0.550 OA
ATOM     32  O   UNL     1      69.632  59.119  24.342  1.00  0.00    -0.550 OA
ENDBRANCH   1  30
BRANCH  27  33
ATOM     33  O   UNL     1      75.327  53.478  17.164  1.00  0.00    -0.393 OA
ATOM     34  H   UNL     1      74.986  52.678  16.684  1.00  0.00     0.210 HD
ENDBRANCH  27  33
TORSDOF 2
ENDMDL
MODEL 5
REMARK VINA RESULT:    -5.021      3.818      7.561
REMARK INTER + INTRA:          -5.022
REMARK INTER:                  -5.493
REMARK INTRA:                   0.471
REMARK UNBOUND:                 0.439
REMARK SMILES C[C@@H]1[C@H](C)CC[C@@]2(C(=O)[O-])CC[C@@]3(C)C(=CC[C@H]4[C@]5(C)CC[C@@H](O)C(C)(C)[C@H]5CC[C@@]43C)[C@H]12
REMARK SMILES IDX 7 1 6 2 11 3 33 4 5 5 12 6 15 7 2 8 3 9 13 10 16 11 1 12
REMARK SMILES IDX 4 13 14 14 31 15 17 16 18 17 30 18 32 19 19 20 29 21 28 22
REMARK SMILES IDX 21 23 20 24 25 25 22 26 23 27 26 28 27 29 8 30 9 31 10 32
REMARK SMILES IDX 24 33
REMARK H PARENT 24 34
REMARK Flexibility Score: inf
ROOT
ATOM      1  C   UNL     1      73.233  53.228  24.235  1.00  0.00     0.017 C 
ATOM      2  C   UNL     1      72.748  52.117  25.217  1.00  0.00     0.014 C 
ATOM      3  C   UNL     1      73.826  52.519  22.994  1.00  0.00     0.014 C 
ATOM      4  C   UNL     1      71.991  54.090  23.811  1.00  0.00     0.030 C 
ATOM      5  C   UNL     1      72.005  52.675  26.439  1.00  0.00     0.004 C 
ATOM      6  C   UNL     1      74.171  53.488  21.851  1.00  0.00     0.013 C 
ATOM      7  C   UNL     1      72.278  55.023  22.610  1.00  0.00    -0.063 C 
ATOM      8  C   UNL     1      71.228  54.689  25.050  1.00  0.00    -0.003 C 
ATOM      9  C   UNL     1      70.804  53.538  26.009  1.00  0.00    -0.011 C 
ATOM     10  C   UNL     1      72.978  54.393  21.368  1.00  0.00    -0.006 C 
ATOM     11  C   UNL     1      71.714  56.270  22.540  1.00  0.00    -0.027 C 
ATOM     12  C   UNL     1      71.974  55.825  25.792  1.00  0.00     0.008 C 
ATOM     13  C   UNL     1      70.026  54.039  27.237  1.00  0.00     0.008 C 
ATOM     14  C   UNL     1      71.948  53.452  20.659  1.00  0.00     0.017 C 
ATOM     15  C   UNL     1      73.486  55.555  20.370  1.00  0.00    -0.020 C 
ATOM     16  C   UNL     1      71.889  57.251  21.399  1.00  0.00     0.032 C 
ATOM     17  C   UNL     1      72.260  56.512  20.107  1.00  0.00     0.006 C 
ATOM     18  C   UNL     1      74.085  55.020  19.012  1.00  0.00     0.008 C 
ATOM     19  C   UNL     1      74.654  56.336  21.078  1.00  0.00     0.012 C 
ATOM     20  C   UNL     1      72.277  57.333  18.756  1.00  0.00    -0.025 C 
ATOM     21  C   UNL     1      73.223  55.090  17.733  1.00  0.00     0.005 C 
ATOM     22  C   UNL     1      72.192  56.255  17.614  1.00  0.00     0.003 C 
ATOM     23  C   UNL     1      71.000  58.224  18.657  1.00  0.00     0.010 C 
ATOM     24  C   UNL     1      73.521  58.254  18.666  1.00  0.00     0.012 C 
ATOM     25  C   UNL     1      71.958  56.802  16.152  1.00  0.00    -0.006 C 
ATOM     26  C   UNL     1      70.755  58.815  17.258  1.00  0.00     0.033 C 
ATOM     27  C   UNL     1      70.704  57.734  16.162  1.00  0.00     0.120 C 
ATOM     28  C   UNL     1      73.197  57.539  15.565  1.00  0.00     0.014 C 
ATOM     29  C   UNL     1      71.634  55.608  15.211  1.00  0.00     0.014 C 
ENDROOT
BRANCH   1  30
ATOM     30  C   UNL     1      74.346  54.054  24.878  1.00  0.00     0.048 C 
ATOM     31  O   UNL     1      75.123  53.535  25.724  1.00  0.00    -0.550 OA
ATOM     32  O   UNL     1      74.594  55.358  24.466  1.00  0.00    -0.550 OA
ENDBRANCH   1  30
BRANCH  27  33
ATOM     33  O   UNL     1      70.546  58.350  14.907  1.00  0.00    -0.393 OA
ATOM     34  H   UNL     1      69.577  58.533  14.792  1.00  0.00     0.210 HD
ENDBRANCH  27  33
TORSDOF 2
ENDMDL
MODEL 6
REMARK VINA RESULT:    -5.000      1.607      3.277
REMARK INTER + INTRA:          -4.999
REMARK INTER:                  -5.438
REMARK INTRA:                   0.440
REMARK UNBOUND:                 0.439
REMARK SMILES C[C@@H]1[C@H](C)CC[C@@]2(C(=O)[O-])CC[C@@]3(C)C(=CC[C@H]4[C@]5(C)CC[C@@H](O)C(C)(C)[C@H]5CC[C@@]43C)[C@H]12
REMARK SMILES IDX 7 1 6 2 11 3 33 4 5 5 12 6 15 7 2 8 3 9 13 10 16 11 1 12
REMARK SMILES IDX 4 13 14 14 31 15 17 16 18 17 30 18 32 19 19 20 29 21 28 22
REMARK SMILES IDX 21 23 20 24 25 25 22 26 23 27 26 28 27 29 8 30 9 31 10 32
REMARK SMILES IDX 24 33
REMARK H PARENT 24 34
REMARK Flexibility Score: inf
ROOT
ATOM      1  C   UNL     1      73.088  55.714  19.073  1.00  0.00     0.017 C 
ATOM      2  C   UNL     1      74.493  56.151  18.553  1.00  0.00     0.014 C 
ATOM      3  C   UNL     1      73.253  55.310  20.559  1.00  0.00     0.014 C 
ATOM      4  C   UNL     1      72.116  56.941  18.962  1.00  0.00     0.030 C 
ATOM      5  C   UNL     1      74.458  56.715  17.127  1.00  0.00     0.004 C 
ATOM      6  C   UNL     1      71.912  55.039  21.262  1.00  0.00     0.013 C 
ATOM      7  C   UNL     1      70.786  56.736  19.725  1.00  0.00    -0.063 C 
ATOM      8  C   UNL     1      72.051  57.521  17.501  1.00  0.00    -0.003 C 
ATOM      9  C   UNL     1      73.483  57.902  17.024  1.00  0.00    -0.011 C 
ATOM     10  C   UNL     1      70.878  56.221  21.194  1.00  0.00    -0.006 C 
ATOM     11  C   UNL     1      69.608  57.228  19.226  1.00  0.00    -0.027 C 
ATOM     12  C   UNL     1      71.311  56.627  16.474  1.00  0.00     0.008 C 
ATOM     13  C   UNL     1      73.503  58.504  15.610  1.00  0.00     0.008 C 
ATOM     14  C   UNL     1      71.447  57.380  22.077  1.00  0.00     0.017 C 
ATOM     15  C   UNL     1      69.420  55.760  21.711  1.00  0.00    -0.020 C 
ATOM     16  C   UNL     1      68.256  57.123  19.903  1.00  0.00     0.032 C 
ATOM     17  C   UNL     1      68.424  56.947  21.417  1.00  0.00     0.006 C 
ATOM     18  C   UNL     1      69.378  55.352  23.234  1.00  0.00     0.008 C 
ATOM     19  C   UNL     1      68.997  54.473  20.909  1.00  0.00     0.012 C 
ATOM     20  C   UNL     1      67.134  57.034  22.327  1.00  0.00    -0.025 C 
ATOM     21  C   UNL     1      68.796  56.349  24.261  1.00  0.00     0.005 C 
ATOM     22  C   UNL     1      67.668  57.313  23.779  1.00  0.00     0.003 C 
ATOM     23  C   UNL     1      66.263  58.257  21.903  1.00  0.00     0.010 C 
ATOM     24  C   UNL     1      66.267  55.754  22.206  1.00  0.00     0.012 C 
ATOM     25  C   UNL     1      66.582  57.677  24.865  1.00  0.00    -0.006 C 
ATOM     26  C   UNL     1      65.163  58.623  22.913  1.00  0.00     0.033 C 
ATOM     27  C   UNL     1      65.717  58.863  24.330  1.00  0.00     0.120 C 
ATOM     28  C   UNL     1      65.686  56.471  25.269  1.00  0.00     0.014 C 
ATOM     29  C   UNL     1      67.301  58.179  26.151  1.00  0.00     0.014 C 
ENDROOT
BRANCH   1  30
ATOM     30  C   UNL     1      72.598  54.487  18.306  1.00  0.00     0.048 C 
ATOM     31  O   UNL     1      73.417  53.725  17.725  1.00  0.00    -0.550 OA
ATOM     32  O   UNL     1      71.257  54.126  18.323  1.00  0.00    -0.550 OA
ENDBRANCH   1  30
BRANCH  27  33
ATOM     33  O   UNL     1      64.652  59.125  25.210  1.00  0.00    -0.393 OA
ATOM     34  H   UNL     1      64.004  59.697  24.722  1.00  0.00     0.210 HD
ENDBRANCH  27  33
TORSDOF 2
ENDMDL
MODEL 7
REMARK VINA RESULT:    -4.973      1.562      8.078
REMARK INTER + INTRA:          -4.969
REMARK INTER:                  -5.803
REMARK INTRA:                   0.834
REMARK UNBOUND:                 0.439
REMARK SMILES C[C@@H]1[C@H](C)CC[C@@]2(C(=O)[O-])CC[C@@]3(C)C(=CC[C@H]4[C@]5(C)CC[C@@H](O)C(C)(C)[C@H]5CC[C@@]43C)[C@H]12
REMARK SMILES IDX 7 1 6 2 11 3 33 4 5 5 12 6 15 7 2 8 3 9 13 10 16 11 1 12
REMARK SMILES IDX 4 13 14 14 31 15 17 16 18 17 30 18 32 19 19 20 29 21 28 22
REMARK SMILES IDX 21 23 20 24 25 25 22 26 23 27 26 28 27 29 8 30 9 31 10 32
REMARK SMILES IDX 24 33
REMARK H PARENT 24 34
REMARK Flexibility Score: inf
ROOT
ATOM      1  C   UNL     1      66.208  57.766  22.780  1.00  0.00     0.017 C 
ATOM      2  C   UNL     1      65.427  58.910  23.497  1.00  0.00     0.014 C 
ATOM      3  C   UNL     1      66.013  57.960  21.257  1.00  0.00     0.014 C 
ATOM      4  C   UNL     1      67.729  57.903  23.142  1.00  0.00     0.030 C 
ATOM      5  C   UNL     1      65.645  58.929  25.016  1.00  0.00     0.004 C 
ATOM      6  C   UNL     1      66.885  57.017  20.411  1.00  0.00     0.013 C 
ATOM      7  C   UNL     1      68.648  57.027  22.257  1.00  0.00    -0.063 C 
ATOM      8  C   UNL     1      67.976  57.903  24.695  1.00  0.00    -0.003 C 
ATOM      9  C   UNL     1      67.143  59.039  25.358  1.00  0.00    -0.011 C 
ATOM     10  C   UNL     1      68.426  57.091  20.715  1.00  0.00    -0.006 C 
ATOM     11  C   UNL     1      69.763  56.428  22.782  1.00  0.00    -0.027 C 
ATOM     12  C   UNL     1      67.761  56.537  25.393  1.00  0.00     0.008 C 
ATOM     13  C   UNL     1      67.350  59.125  26.879  1.00  0.00     0.008 C 
ATOM     14  C   UNL     1      68.926  58.487  20.214  1.00  0.00     0.017 C 
ATOM     15  C   UNL     1      69.229  55.893  19.991  1.00  0.00    -0.020 C 
ATOM     16  C   UNL     1      70.754  55.584  22.006  1.00  0.00     0.032 C 
ATOM     17  C   UNL     1      70.716  55.944  20.515  1.00  0.00     0.006 C 
ATOM     18  C   UNL     1      69.185  55.951  18.415  1.00  0.00     0.008 C 
ATOM     19  C   UNL     1      68.548  54.531  20.391  1.00  0.00     0.012 C 
ATOM     20  C   UNL     1      71.824  55.328  19.570  1.00  0.00    -0.025 C 
ATOM     21  C   UNL     1      70.420  56.474  17.649  1.00  0.00     0.005 C 
ATOM     22  C   UNL     1      71.824  56.236  18.286  1.00  0.00     0.003 C 
ATOM     23  C   UNL     1      73.227  55.458  20.239  1.00  0.00     0.010 C 
ATOM     24  C   UNL     1      71.558  53.827  19.285  1.00  0.00     0.012 C 
ATOM     25  C   UNL     1      72.999  55.994  17.259  1.00  0.00    -0.006 C 
ATOM     26  C   UNL     1      74.404  55.189  19.284  1.00  0.00     0.033 C 
ATOM     27  C   UNL     1      74.358  56.076  18.026  1.00  0.00     0.120 C 
ATOM     28  C   UNL     1      72.874  54.649  16.487  1.00  0.00     0.014 C 
ATOM     29  C   UNL     1      72.996  57.140  16.208  1.00  0.00     0.014 C 
ENDROOT
BRANCH   1  30
ATOM     30  C   UNL     1      65.621  56.407  23.157  1.00  0.00     0.048 C 
ATOM     31  O   UNL     1      65.976  55.363  22.546  1.00  0.00    -0.550 OA
ATOM     32  O   UNL     1      64.768  56.277  24.247  1.00  0.00    -0.550 OA
ENDBRANCH   1  30
BRANCH  27  33
ATOM     33  O   UNL     1      75.420  55.729  17.172  1.00  0.00    -0.393 OA
ATOM     34  H   UNL     1      75.282  54.782  16.904  1.00  0.00     0.210 HD
ENDBRANCH  27  33
TORSDOF 2
ENDMDL
MODEL 8
REMARK VINA RESULT:    -4.937      2.480      8.027
REMARK INTER + INTRA:          -4.931
REMARK INTER:                  -5.377
REMARK INTRA:                   0.447
REMARK UNBOUND:                 0.439
REMARK SMILES C[C@@H]1[C@H](C)CC[C@@]2(C(=O)[O-])CC[C@@]3(C)C(=CC[C@H]4[C@]5(C)CC[C@@H](O)C(C)(C)[C@H]5CC[C@@]43C)[C@H]12
REMARK SMILES IDX 7 1 6 2 11 3 33 4 5 5 12 6 15 7 2 8 3 9 13 10 16 11 1 12
REMARK SMILES IDX 4 13 14 14 31 15 17 16 18 17 30 18 32 19 19 20 29 21 28 22
REMARK SMILES IDX 21 23 20 24 25 25 22 26 23 27 26 28 27 29 8 30 9 31 10 32
REMARK SMILES IDX 24 33
REMARK H PARENT 24 34
REMARK Flexibility Score: inf
ROOT
ATOM      1  C   UNL     1      70.148  54.894  25.609  1.00  0.00     0.017 C 
ATOM      2  C   UNL     1      69.091  54.284  26.581  1.00  0.00     0.014 C 
ATOM      3  C   UNL     1      70.875  53.713  24.921  1.00  0.00     0.014 C 
ATOM      4  C   UNL     1      69.393  55.752  24.533  1.00  0.00     0.030 C 
ATOM      5  C   UNL     1      68.191  55.343  27.234  1.00  0.00     0.004 C 
ATOM      6  C   UNL     1      71.815  54.161  23.789  1.00  0.00     0.013 C 
ATOM      7  C   UNL     1      70.288  56.154  23.336  1.00  0.00    -0.063 C 
ATOM      8  C   UNL     1      68.480  56.857  25.182  1.00  0.00    -0.003 C 
ATOM      9  C   UNL     1      67.475  56.193  26.168  1.00  0.00    -0.011 C 
ATOM     10  C   UNL     1      71.135  55.029  22.668  1.00  0.00    -0.006 C 
ATOM     11  C   UNL     1      70.145  57.377  22.734  1.00  0.00    -0.027 C 
ATOM     12  C   UNL     1      69.244  58.038  25.831  1.00  0.00     0.008 C 
ATOM     13  C   UNL     1      66.525  57.207  26.827  1.00  0.00     0.008 C 
ATOM     14  C   UNL     1      70.158  54.088  21.888  1.00  0.00     0.017 C 
ATOM     15  C   UNL     1      72.232  55.677  21.677  1.00  0.00    -0.020 C 
ATOM     16  C   UNL     1      70.934  57.863  21.536  1.00  0.00     0.032 C 
ATOM     17  C   UNL     1      71.467  56.675  20.725  1.00  0.00     0.006 C 
ATOM     18  C   UNL     1      73.050  54.617  20.843  1.00  0.00     0.008 C 
ATOM     19  C   UNL     1      73.290  56.448  22.551  1.00  0.00     0.012 C 
ATOM     20  C   UNL     1      72.133  56.968  19.321  1.00  0.00    -0.025 C 
ATOM     21  C   UNL     1      72.685  54.386  19.361  1.00  0.00     0.005 C 
ATOM     22  C   UNL     1      72.112  55.594  18.557  1.00  0.00     0.003 C 
ATOM     23  C   UNL     1      71.254  57.971  18.512  1.00  0.00     0.010 C 
ATOM     24  C   UNL     1      73.548  57.582  19.480  1.00  0.00     0.012 C 
ATOM     25  C   UNL     1      72.508  55.637  17.029  1.00  0.00    -0.006 C 
ATOM     26  C   UNL     1      71.631  58.077  17.024  1.00  0.00     0.033 C 
ATOM     27  C   UNL     1      71.626  56.711  16.314  1.00  0.00     0.120 C 
ATOM     28  C   UNL     1      74.021  55.912  16.793  1.00  0.00     0.014 C 
ATOM     29  C   UNL     1      72.173  54.264  16.381  1.00  0.00     0.014 C 
ENDROOT
BRANCH   1  30
ATOM     30  C   UNL     1      71.189  55.693  26.391  1.00  0.00     0.048 C 
ATOM     31  O   UNL     1      71.447  55.407  27.591  1.00  0.00    -0.550 OA
ATOM     32  O   UNL     1      71.947  56.677  25.769  1.00  0.00    -0.550 OA
ENDBRANCH   1  30
BRANCH  27  33
ATOM     33  O   UNL     1      72.045  56.876  14.982  1.00  0.00    -0.393 OA
ATOM     34  H   UNL     1      72.634  57.675  14.958  1.00  0.00     0.210 HD
ENDBRANCH  27  33
TORSDOF 2
ENDMDL
MODEL 9
REMARK VINA RESULT:    -4.826      3.065      5.179
REMARK INTER + INTRA:          -4.810
REMARK INTER:                  -5.296
REMARK INTRA:                   0.486
REMARK UNBOUND:                 0.439
REMARK SMILES C[C@@H]1[C@H](C)CC[C@@]2(C(=O)[O-])CC[C@@]3(C)C(=CC[C@H]4[C@]5(C)CC[C@@H](O)C(C)(C)[C@H]5CC[C@@]43C)[C@H]12
REMARK SMILES IDX 7 1 6 2 11 3 33 4 5 5 12 6 15 7 2 8 3 9 13 10 16 11 1 12
REMARK SMILES IDX 4 13 14 14 31 15 17 16 18 17 30 18 32 19 19 20 29 21 28 22
REMARK SMILES IDX 21 23 20 24 25 25 22 26 23 27 26 28 27 29 8 30 9 31 10 32
REMARK SMILES IDX 24 33
REMARK H PARENT 24 34
REMARK Flexibility Score: inf
ROOT
ATOM      1  C   UNL     1      72.875  55.593  17.500  1.00  0.00     0.017 C 
ATOM      2  C   UNL     1      73.467  56.509  16.384  1.00  0.00     0.014 C 
ATOM      3  C   UNL     1      74.066  54.912  18.216  1.00  0.00     0.014 C 
ATOM      4  C   UNL     1      72.091  56.496  18.517  1.00  0.00     0.030 C 
ATOM      5  C   UNL     1      72.404  57.362  15.678  1.00  0.00     0.004 C 
ATOM      6  C   UNL     1      73.647  54.125  19.469  1.00  0.00     0.013 C 
ATOM      7  C   UNL     1      71.720  55.760  19.826  1.00  0.00    -0.063 C 
ATOM      8  C   UNL     1      70.982  57.364  17.814  1.00  0.00    -0.003 C 
ATOM      9  C   UNL     1      71.626  58.225  16.688  1.00  0.00    -0.011 C 
ATOM     10  C   UNL     1      72.852  54.959  20.539  1.00  0.00    -0.006 C 
ATOM     11  C   UNL     1      70.532  56.013  20.461  1.00  0.00    -0.027 C 
ATOM     12  C   UNL     1      69.750  56.570  17.311  1.00  0.00     0.008 C 
ATOM     13  C   UNL     1      70.609  59.125  15.967  1.00  0.00     0.008 C 
ATOM     14  C   UNL     1      73.856  55.988  21.157  1.00  0.00     0.017 C 
ATOM     15  C   UNL     1      72.221  54.007  21.680  1.00  0.00    -0.020 C 
ATOM     16  C   UNL     1      70.082  55.385  21.764  1.00  0.00     0.032 C 
ATOM     17  C   UNL     1      71.292  54.910  22.579  1.00  0.00     0.006 C 
ATOM     18  C   UNL     1      73.296  53.256  22.557  1.00  0.00     0.008 C 
ATOM     19  C   UNL     1      71.380  52.881  20.972  1.00  0.00     0.012 C 
ATOM     20  C   UNL     1      71.047  54.422  24.063  1.00  0.00    -0.025 C 
ATOM     21  C   UNL     1      73.608  53.783  23.975  1.00  0.00     0.005 C 
ATOM     22  C   UNL     1      72.456  54.486  24.758  1.00  0.00     0.003 C 
ATOM     23  C   UNL     1      70.109  55.423  24.806  1.00  0.00     0.010 C 
ATOM     24  C   UNL     1      70.387  53.019  24.098  1.00  0.00     0.012 C 
ATOM     25  C   UNL     1      72.474  54.272  26.322  1.00  0.00    -0.006 C 
ATOM     26  C   UNL     1      70.063  55.224  26.331  1.00  0.00     0.033 C 
ATOM     27  C   UNL     1      71.461  55.266  26.975  1.00  0.00     0.120 C 
ATOM     28  C   UNL     1      72.169  52.806  26.746  1.00  0.00     0.014 C 
ATOM     29  C   UNL     1      73.886  54.633  26.865  1.00  0.00     0.014 C 
ENDROOT
BRANCH   1  30
ATOM     30  C   UNL     1      72.011  54.496  16.881  1.00  0.00     0.048 C 
ATOM     31  O   UNL     1      72.030  54.289  15.638  1.00  0.00    -0.550 OA
ATOM     32  O   UNL     1      71.271  53.635  17.683  1.00  0.00    -0.550 OA
ENDBRANCH   1  30
BRANCH  27  33
ATOM     33  O   UNL     1      71.348  55.010  28.353  1.00  0.00    -0.393 OA
ATOM     34  H   UNL     1      71.244  55.888  28.805  1.00  0.00     0.210 HD
ENDBRANCH  27  33
TORSDOF 2
ENDMDL
