MODEL 1
REMARK VINA RESULT:    -5.622      0.000      0.000
REMARK INTER + INTRA:          -6.115
REMARK INTER:                  -6.115
REMARK INTRA:                   0.000
REMARK UNBOUND:                 0.000
REMARK SMILES Cc1cc(O)c2c(c1)C(=O)c1cc(O)cc(O)c1C2=O
REMARK SMILES IDX 1 1 2 2 8 3 7 4 6 5 4 6 3 7 19 8 20 9 18 10 11 11 9 12 10 13
REMARK SMILES IDX 12 14 13 15 15 16 16 17 5 18 17 20 14 22
REMARK H PARENT 5 19 17 21 14 23
REMARK Flexibility Score: inf
ROOT
ATOM      1  C   UNL     1     -42.706  76.258 -23.900  1.00  0.00     0.044 C 
ATOM      2  C   UNL     1     -41.526  76.006 -24.791  1.00  0.00    -0.047 A 
ATOM      3  C   UNL     1     -40.238  76.355 -24.368  1.00  0.00     0.016 A 
ATOM      4  C   UNL     1     -39.123  76.098 -25.183  1.00  0.00     0.038 A 
ATOM      5  C   UNL     1     -39.299  75.481 -26.442  1.00  0.00     0.076 A 
ATOM      6  C   UNL     1     -40.596  75.053 -26.828  1.00  0.00     0.127 A 
ATOM      7  C   UNL     1     -41.693  75.339 -26.008  1.00  0.00     0.050 A 
ATOM      8  C   UNL     1     -38.120  75.360 -27.338  1.00  0.00     0.201 C 
ATOM      9  O   UNL     1     -38.277  75.374 -28.588  1.00  0.00    -0.288 OA
ATOM     10  C   UNL     1     -36.750  75.413 -26.764  1.00  0.00     0.076 A 
ATOM     11  C   UNL     1     -36.577  76.028 -25.503  1.00  0.00     0.041 A 
ATOM     12  C   UNL     1     -37.761  76.463 -24.726  1.00  0.00     0.194 C 
ATOM     13  O   UNL     1     -37.609  77.125 -23.662  1.00  0.00    -0.289 OA
ATOM     14  C   UNL     1     -35.283  76.219 -24.991  1.00  0.00     0.059 A 
ATOM     15  C   UNL     1     -34.164  75.791 -25.711  1.00  0.00     0.120 A 
ATOM     16  C   UNL     1     -34.333  75.149 -26.936  1.00  0.00     0.093 A 
ATOM     17  C   UNL     1     -35.611  74.927 -27.459  1.00  0.00     0.131 A 
ENDROOT
BRANCH   6  18
ATOM     18  O   UNL     1     -40.834  74.316 -27.989  1.00  0.00    -0.507 OA
ATOM     19  H   UNL     1     -40.278  73.520 -28.269  1.00  0.00     0.293 HD
ENDBRANCH   6  18
BRANCH  17  20
ATOM     20  O   UNL     1     -35.705  74.196 -28.645  1.00  0.00    -0.507 OA
ATOM     21  H   UNL     1     -34.984  74.185 -29.353  1.00  0.00     0.293 HD
ENDBRANCH  17  20
BRANCH  15  22
ATOM     22  O   UNL     1     -32.879  75.991 -25.212  1.00  0.00    -0.508 OA
ATOM     23  H   UNL     1     -32.314  76.781 -25.502  1.00  0.00     0.293 HD
ENDBRANCH  15  22
TORSDOF 3
ENDMDL
MODEL 2
REMARK VINA RESULT:    -5.278      1.726      5.753
REMARK INTER + INTRA:          -5.741
REMARK INTER:                  -5.741
REMARK INTRA:                   0.000
REMARK UNBOUND:                 0.000
REMARK SMILES Cc1cc(O)c2c(c1)C(=O)c1cc(O)cc(O)c1C2=O
REMARK SMILES IDX 1 1 2 2 8 3 7 4 6 5 4 6 3 7 19 8 20 9 18 10 11 11 9 12 10 13
REMARK SMILES IDX 12 14 13 15 15 16 16 17 5 18 17 20 14 22
REMARK H PARENT 5 19 17 21 14 23
REMARK Flexibility Score: inf
ROOT
ATOM      1  C   UNL     1     -34.345  76.136 -25.843  1.00  0.00     0.044 C 
ATOM      2  C   UNL     1     -35.823  75.975 -26.037  1.00  0.00    -0.047 A 
ATOM      3  C   UNL     1     -36.699  76.162 -24.961  1.00  0.00     0.016 A 
ATOM      4  C   UNL     1     -38.088  76.041 -25.139  1.00  0.00     0.038 A 
ATOM      5  C   UNL     1     -38.608  75.727 -26.414  1.00  0.00     0.076 A 
ATOM      6  C   UNL     1     -37.722  75.622 -27.517  1.00  0.00     0.127 A 
ATOM      7  C   UNL     1     -36.342  75.727 -27.311  1.00  0.00     0.050 A 
ATOM      8  C   UNL     1     -40.066  75.461 -26.532  1.00  0.00     0.201 C 
ATOM      9  O   UNL     1     -40.488  74.664 -27.412  1.00  0.00    -0.288 OA
ATOM     10  C   UNL     1     -40.997  75.984 -25.498  1.00  0.00     0.076 A 
ATOM     11  C   UNL     1     -40.472  76.300 -24.225  1.00  0.00     0.041 A 
ATOM     12  C   UNL     1     -39.009  76.248 -23.996  1.00  0.00     0.194 C 
ATOM     13  O   UNL     1     -38.546  76.405 -22.832  1.00  0.00    -0.289 OA
ATOM     14  C   UNL     1     -41.340  76.665 -23.183  1.00  0.00     0.059 A 
ATOM     15  C   UNL     1     -42.720  76.735 -23.399  1.00  0.00     0.120 A 
ATOM     16  C   UNL     1     -43.237  76.463 -24.665  1.00  0.00     0.093 A 
ATOM     17  C   UNL     1     -42.392  76.117 -25.725  1.00  0.00     0.131 A 
ENDROOT
BRANCH   6  18
ATOM     18  O   UNL     1     -38.168  75.451 -28.829  1.00  0.00    -0.507 OA
ATOM     19  H   UNL     1     -38.025  76.133 -29.560  1.00  0.00     0.293 HD
ENDBRANCH   6  18
BRANCH  17  20
ATOM     20  O   UNL     1     -42.973  75.949 -26.984  1.00  0.00    -0.507 OA
ATOM     21  H   UNL     1     -43.584  76.630 -27.412  1.00  0.00     0.293 HD
ENDBRANCH  17  20
BRANCH  15  22
ATOM     22  O   UNL     1     -43.584  77.084 -22.365  1.00  0.00    -0.508 OA
ATOM     23  H   UNL     1     -44.487  76.637 -22.253  1.00  0.00     0.293 HD
ENDBRANCH  15  22
TORSDOF 3
ENDMDL
MODEL 3
REMARK VINA RESULT:    -4.806      2.582      4.395
REMARK INTER + INTRA:          -5.228
REMARK INTER:                  -5.228
REMARK INTRA:                   0.000
REMARK UNBOUND:                 0.000
REMARK SMILES Cc1cc(O)c2c(c1)C(=O)c1cc(O)cc(O)c1C2=O
REMARK SMILES IDX 1 1 2 2 8 3 7 4 6 5 4 6 3 7 19 8 20 9 18 10 11 11 9 12 10 13
REMARK SMILES IDX 12 14 13 15 15 16 16 17 5 18 17 20 14 22
REMARK H PARENT 5 19 17 21 14 23
REMARK Flexibility Score: inf
ROOT
ATOM      1  C   UNL     1     -39.308  76.754 -19.095  1.00  0.00     0.044 C 
ATOM      2  C   UNL     1     -39.767  76.534 -20.506  1.00  0.00    -0.047 A 
ATOM      3  C   UNL     1     -38.874  76.702 -21.571  1.00  0.00     0.016 A 
ATOM      4  C   UNL     1     -39.287  76.471 -22.894  1.00  0.00     0.038 A 
ATOM      5  C   UNL     1     -40.615  76.064 -23.156  1.00  0.00     0.076 A 
ATOM      6  C   UNL     1     -41.489  75.814 -22.067  1.00  0.00     0.127 A 
ATOM      7  C   UNL     1     -41.062  76.071 -20.760  1.00  0.00     0.050 A 
ATOM      8  C   UNL     1     -41.056  75.974 -24.572  1.00  0.00     0.201 C 
ATOM      9  O   UNL     1     -42.262  76.187 -24.868  1.00  0.00    -0.288 OA
ATOM     10  C   UNL     1     -40.045  75.821 -25.651  1.00  0.00     0.076 A 
ATOM     11  C   UNL     1     -38.718  76.225 -25.384  1.00  0.00     0.041 A 
ATOM     12  C   UNL     1     -38.334  76.643 -24.016  1.00  0.00     0.194 C 
ATOM     13  O   UNL     1     -37.187  77.125 -23.802  1.00  0.00    -0.289 OA
ATOM     14  C   UNL     1     -37.766  76.224 -26.419  1.00  0.00     0.059 A 
ATOM     15  C   UNL     1     -38.119  75.811 -27.707  1.00  0.00     0.120 A 
ATOM     16  C   UNL     1     -39.417  75.374 -27.963  1.00  0.00     0.093 A 
ATOM     17  C   UNL     1     -40.377  75.345 -26.947  1.00  0.00     0.131 A 
ENDROOT
BRANCH   6  18
ATOM     18  O   UNL     1     -42.769  75.280 -22.234  1.00  0.00    -0.507 OA
ATOM     19  H   UNL     1     -43.526  75.432 -21.583  1.00  0.00     0.293 HD
ENDBRANCH   6  18
BRANCH  17  20
ATOM     20  O   UNL     1     -41.629  74.808 -27.257  1.00  0.00    -0.507 OA
ATOM     21  H   UNL     1     -42.493  75.133 -26.848  1.00  0.00     0.293 HD
ENDBRANCH  17  20
BRANCH  15  22
ATOM     22  O   UNL     1     -37.181  75.821 -28.737  1.00  0.00    -0.508 OA
ATOM     23  H   UNL     1     -36.331  75.271 -28.687  1.00  0.00     0.293 HD
ENDBRANCH  15  22
TORSDOF 3
ENDMDL
MODEL 4
REMARK VINA RESULT:    -4.749      1.609      5.603
REMARK INTER + INTRA:          -5.165
REMARK INTER:                  -5.165
REMARK INTRA:                   0.000
REMARK UNBOUND:                 0.000
REMARK SMILES Cc1cc(O)c2c(c1)C(=O)c1cc(O)cc(O)c1C2=O
REMARK SMILES IDX 1 1 2 2 8 3 7 4 6 5 4 6 3 7 19 8 20 9 18 10 11 11 9 12 10 13
REMARK SMILES IDX 12 14 13 15 15 16 16 17 5 18 17 20 14 22
REMARK H PARENT 5 19 17 21 14 23
REMARK Flexibility Score: inf
ROOT
ATOM      1  C   UNL     1     -32.277  77.125 -23.697  1.00  0.00     0.044 C 
ATOM      2  C   UNL     1     -33.398  76.823 -24.647  1.00  0.00    -0.047 A 
ATOM      3  C   UNL     1     -34.689  76.590 -24.162  1.00  0.00     0.016 A 
ATOM      4  C   UNL     1     -35.751  76.334 -25.045  1.00  0.00     0.038 A 
ATOM      5  C   UNL     1     -35.517  76.312 -26.439  1.00  0.00     0.076 A 
ATOM      6  C   UNL     1     -34.225  76.633 -26.928  1.00  0.00     0.127 A 
ATOM      7  C   UNL     1     -33.179  76.864 -26.028  1.00  0.00     0.050 A 
ATOM      8  C   UNL     1     -36.628  75.893 -27.332  1.00  0.00     0.201 C 
ATOM      9  O   UNL     1     -36.372  75.317 -28.423  1.00  0.00    -0.288 OA
ATOM     10  C   UNL     1     -38.033  75.983 -26.854  1.00  0.00     0.076 A 
ATOM     11  C   UNL     1     -38.263  76.008 -25.460  1.00  0.00     0.041 A 
ATOM     12  C   UNL     1     -37.118  76.095 -24.524  1.00  0.00     0.194 C 
ATOM     13  O   UNL     1     -37.309  75.990 -23.280  1.00  0.00    -0.289 OA
ATOM     14  C   UNL     1     -39.578  75.954 -24.968  1.00  0.00     0.059 A 
ATOM     15  C   UNL     1     -40.663  75.893 -25.848  1.00  0.00     0.120 A 
ATOM     16  C   UNL     1     -40.440  75.908 -27.224  1.00  0.00     0.093 A 
ATOM     17  C   UNL     1     -39.142  75.982 -27.739  1.00  0.00     0.131 A 
ENDROOT
BRANCH   6  18
ATOM     18  O   UNL     1     -33.945  76.768 -28.290  1.00  0.00    -0.507 OA
ATOM     19  H   UNL     1     -33.122  77.231 -28.647  1.00  0.00     0.293 HD
ENDBRANCH   6  18
BRANCH  17  20
ATOM     20  O   UNL     1     -39.004  76.087 -29.125  1.00  0.00    -0.507 OA
ATOM     21  H   UNL     1     -38.134  75.925 -29.613  1.00  0.00     0.293 HD
ENDBRANCH  17  20
BRANCH  15  22
ATOM     22  O   UNL     1     -41.967  75.826 -25.364  1.00  0.00    -0.508 OA
ATOM     23  H   UNL     1     -42.667  76.511 -25.628  1.00  0.00     0.293 HD
ENDBRANCH  15  22
TORSDOF 3
ENDMDL
MODEL 5
REMARK VINA RESULT:    -4.469      1.456      2.353
REMARK INTER + INTRA:          -4.861
REMARK INTER:                  -4.861
REMARK INTRA:                   0.000
REMARK UNBOUND:                 0.000
REMARK SMILES Cc1cc(O)c2c(c1)C(=O)c1cc(O)cc(O)c1C2=O
REMARK SMILES IDX 1 1 2 2 8 3 7 4 6 5 4 6 3 7 19 8 20 9 18 10 11 11 9 12 10 13
REMARK SMILES IDX 12 14 13 15 15 16 16 17 5 18 17 20 14 22
REMARK H PARENT 5 19 17 21 14 23
REMARK Flexibility Score: inf
ROOT
ATOM      1  C   UNL     1     -43.656  76.294 -21.421  1.00  0.00     0.044 C 
ATOM      2  C   UNL     1     -42.773  76.212 -22.631  1.00  0.00    -0.047 A 
ATOM      3  C   UNL     1     -41.383  76.309 -22.496  1.00  0.00     0.016 A 
ATOM      4  C   UNL     1     -40.546  76.204 -23.620  1.00  0.00     0.038 A 
ATOM      5  C   UNL     1     -41.109  75.999 -24.899  1.00  0.00     0.076 A 
ATOM      6  C   UNL     1     -42.511  75.818 -25.018  1.00  0.00     0.127 A 
ATOM      7  C   UNL     1     -43.325  75.946 -23.888  1.00  0.00     0.050 A 
ATOM      8  C   UNL     1     -40.207  76.043 -26.079  1.00  0.00     0.201 C 
ATOM      9  O   UNL     1     -40.648  76.435 -27.192  1.00  0.00    -0.288 OA
ATOM     10  C   UNL     1     -38.750  75.807 -25.903  1.00  0.00     0.076 A 
ATOM     11  C   UNL     1     -38.191  76.009 -24.620  1.00  0.00     0.041 A 
ATOM     12  C   UNL     1     -39.075  76.300 -23.468  1.00  0.00     0.194 C 
ATOM     13  O   UNL     1     -38.574  76.607 -22.350  1.00  0.00    -0.289 OA
ATOM     14  C   UNL     1     -36.799  75.930 -24.445  1.00  0.00     0.059 A 
ATOM     15  C   UNL     1     -35.963  75.635 -25.526  1.00  0.00     0.120 A 
ATOM     16  C   UNL     1     -36.514  75.395 -26.783  1.00  0.00     0.093 A 
ATOM     17  C   UNL     1     -37.898  75.448 -26.981  1.00  0.00     0.131 A 
ENDROOT
BRANCH   6  18
ATOM     18  O   UNL     1     -43.128  75.475 -26.223  1.00  0.00    -0.507 OA
ATOM     19  H   UNL     1     -44.099  75.207 -26.296  1.00  0.00     0.293 HD
ENDBRANCH   6  18
BRANCH  17  20
ATOM     20  O   UNL     1     -38.382  75.105 -28.245  1.00  0.00    -0.507 OA
ATOM     21  H   UNL     1     -39.138  74.452 -28.396  1.00  0.00     0.293 HD
ENDBRANCH  17  20
BRANCH  15  22
ATOM     22  O   UNL     1     -34.582  75.568 -25.357  1.00  0.00    -0.508 OA
ATOM     23  H   UNL     1     -34.142  74.786 -24.885  1.00  0.00     0.293 HD
ENDBRANCH  15  22
TORSDOF 3
ENDMDL
MODEL 6
REMARK VINA RESULT:    -4.449     14.504     15.821
REMARK INTER + INTRA:          -4.839
REMARK INTER:                  -4.839
REMARK INTRA:                   0.000
REMARK UNBOUND:                 0.000
REMARK SMILES Cc1cc(O)c2c(c1)C(=O)c1cc(O)cc(O)c1C2=O
REMARK SMILES IDX 1 1 2 2 8 3 7 4 6 5 4 6 3 7 19 8 20 9 18 10 11 11 9 12 10 13
REMARK SMILES IDX 12 14 13 15 15 16 16 17 5 18 17 20 14 22
REMARK H PARENT 5 19 17 21 14 23
REMARK Flexibility Score: inf
ROOT
ATOM      1  C   UNL     1     -42.530  69.411  -9.603  1.00  0.00     0.044 C 
ATOM      2  C   UNL     1     -42.153  70.794 -10.046  1.00  0.00    -0.047 A 
ATOM      3  C   UNL     1     -40.921  71.342  -9.671  1.00  0.00     0.016 A 
ATOM      4  C   UNL     1     -40.547  72.626 -10.104  1.00  0.00     0.038 A 
ATOM      5  C   UNL     1     -41.420  73.373 -10.926  1.00  0.00     0.076 A 
ATOM      6  C   UNL     1     -42.629  72.779 -11.372  1.00  0.00     0.127 A 
ATOM      7  C   UNL     1     -42.989  71.508 -10.911  1.00  0.00     0.050 A 
ATOM      8  C   UNL     1     -41.058  74.779 -11.241  1.00  0.00     0.201 C 
ATOM      9  O   UNL     1     -41.965  75.630 -11.441  1.00  0.00    -0.288 OA
ATOM     10  C   UNL     1     -39.642  75.218 -11.133  1.00  0.00     0.076 A 
ATOM     11  C   UNL     1     -38.771  74.466 -10.312  1.00  0.00     0.041 A 
ATOM     12  C   UNL     1     -39.238  73.197  -9.708  1.00  0.00     0.194 C 
ATOM     13  O   UNL     1     -38.510  72.589  -8.875  1.00  0.00    -0.289 OA
ATOM     14  C   UNL     1     -37.464  74.925 -10.076  1.00  0.00     0.059 A 
ATOM     15  C   UNL     1     -37.013  76.113 -10.660  1.00  0.00     0.120 A 
ATOM     16  C   UNL     1     -37.856  76.835 -11.502  1.00  0.00     0.093 A 
ATOM     17  C   UNL     1     -39.154  76.389 -11.770  1.00  0.00     0.131 A 
ENDROOT
BRANCH   6  18
ATOM     18  O   UNL     1     -43.478  73.395 -12.294  1.00  0.00    -0.507 OA
ATOM     19  H   UNL     1     -44.275  72.937 -12.711  1.00  0.00     0.293 HD
ENDBRANCH   6  18
BRANCH  17  20
ATOM     20  O   UNL     1     -39.908  77.116 -12.695  1.00  0.00    -0.507 OA
ATOM     21  H   UNL     1     -40.485  76.687 -13.404  1.00  0.00     0.293 HD
ENDBRANCH  17  20
BRANCH  15  22
ATOM     22  O   UNL     1     -35.722  76.577 -10.418  1.00  0.00    -0.508 OA
ATOM     23  H   UNL     1     -35.057  76.038  -9.875  1.00  0.00     0.293 HD
ENDBRANCH  15  22
TORSDOF 3
ENDMDL
MODEL 7
REMARK VINA RESULT:    -4.275     14.522     16.276
REMARK INTER + INTRA:          -4.650
REMARK INTER:                  -4.650
REMARK INTRA:                   0.000
REMARK UNBOUND:                 0.000
REMARK SMILES Cc1cc(O)c2c(c1)C(=O)c1cc(O)cc(O)c1C2=O
REMARK SMILES IDX 1 1 2 2 8 3 7 4 6 5 4 6 3 7 19 8 20 9 18 10 11 11 9 12 10 13
REMARK SMILES IDX 12 14 13 15 15 16 16 17 5 18 17 20 14 22
REMARK H PARENT 5 19 17 21 14 23
REMARK Flexibility Score: inf
ROOT
ATOM      1  C   UNL     1     -35.994  76.945 -10.375  1.00  0.00     0.044 C 
ATOM      2  C   UNL     1     -37.272  76.254 -10.749  1.00  0.00    -0.047 A 
ATOM      3  C   UNL     1     -37.509  74.939 -10.333  1.00  0.00     0.016 A 
ATOM      4  C   UNL     1     -38.715  74.293 -10.654  1.00  0.00     0.038 A 
ATOM      5  C   UNL     1     -39.699  74.975 -11.404  1.00  0.00     0.076 A 
ATOM      6  C   UNL     1     -39.488  76.334 -11.750  1.00  0.00     0.127 A 
ATOM      7  C   UNL     1     -38.272  76.950 -11.436  1.00  0.00     0.050 A 
ATOM      8  C   UNL     1     -40.894  74.213 -11.852  1.00  0.00     0.201 C 
ATOM      9  O   UNL     1     -41.475  74.531 -12.924  1.00  0.00    -0.288 OA
ATOM     10  C   UNL     1     -41.286  72.969 -11.138  1.00  0.00     0.076 A 
ATOM     11  C   UNL     1     -40.299  72.292 -10.386  1.00  0.00     0.041 A 
ATOM     12  C   UNL     1     -38.962  72.903 -10.204  1.00  0.00     0.194 C 
ATOM     13  O   UNL     1     -38.040  72.248  -9.643  1.00  0.00    -0.289 OA
ATOM     14  C   UNL     1     -40.594  71.044  -9.811  1.00  0.00     0.059 A 
ATOM     15  C   UNL     1     -41.861  70.474  -9.964  1.00  0.00     0.120 A 
ATOM     16  C   UNL     1     -42.848  71.157 -10.671  1.00  0.00     0.093 A 
ATOM     17  C   UNL     1     -42.588  72.410 -11.235  1.00  0.00     0.131 A 
ENDROOT
BRANCH   6  18
ATOM     18  O   UNL     1     -40.466  77.116 -12.369  1.00  0.00    -0.507 OA
ATOM     19  H   UNL     1     -40.761  76.987 -13.326  1.00  0.00     0.293 HD
ENDBRANCH   6  18
BRANCH  17  20
ATOM     20  O   UNL     1     -43.652  73.075 -11.849  1.00  0.00    -0.507 OA
ATOM     21  H   UNL     1     -43.810  73.075 -12.847  1.00  0.00     0.293 HD
ENDBRANCH  17  20
BRANCH  15  22
ATOM     22  O   UNL     1     -42.151  69.231  -9.406  1.00  0.00    -0.508 OA
ATOM     23  H   UNL     1     -41.514  68.447  -9.494  1.00  0.00     0.293 HD
ENDBRANCH  15  22
TORSDOF 3
ENDMDL
MODEL 8
REMARK VINA RESULT:    -4.113     13.692     15.669
REMARK INTER + INTRA:          -4.474
REMARK INTER:                  -4.474
REMARK INTRA:                   0.000
REMARK UNBOUND:                 0.000
REMARK SMILES Cc1cc(O)c2c(c1)C(=O)c1cc(O)cc(O)c1C2=O
REMARK SMILES IDX 1 1 2 2 8 3 7 4 6 5 4 6 3 7 19 8 20 9 18 10 11 11 9 12 10 13
REMARK SMILES IDX 12 14 13 15 15 16 16 17 5 18 17 20 14 22
REMARK H PARENT 5 19 17 21 14 23
REMARK Flexibility Score: inf
ROOT
ATOM      1  C   UNL     1     -36.965  73.256  -8.878  1.00  0.00     0.044 C 
ATOM      2  C   UNL     1     -38.257  73.092  -9.623  1.00  0.00    -0.047 A 
ATOM      3  C   UNL     1     -38.913  74.211 -10.149  1.00  0.00     0.016 A 
ATOM      4  C   UNL     1     -40.109  74.065 -10.872  1.00  0.00     0.038 A 
ATOM      5  C   UNL     1     -40.657  72.778 -11.073  1.00  0.00     0.076 A 
ATOM      6  C   UNL     1     -39.943  71.642 -10.611  1.00  0.00     0.127 A 
ATOM      7  C   UNL     1     -38.765  71.814  -9.876  1.00  0.00     0.050 A 
ATOM      8  C   UNL     1     -41.994  72.675 -11.711  1.00  0.00     0.201 C 
ATOM      9  O   UNL     1     -42.758  71.716 -11.417  1.00  0.00    -0.288 OA
ATOM     10  C   UNL     1     -42.502  73.795 -12.546  1.00  0.00     0.076 A 
ATOM     11  C   UNL     1     -41.949  75.080 -12.345  1.00  0.00     0.041 A 
ATOM     12  C   UNL     1     -40.795  75.253 -11.433  1.00  0.00     0.194 C 
ATOM     13  O   UNL     1     -40.380  76.412 -11.152  1.00  0.00    -0.289 OA
ATOM     14  C   UNL     1     -42.496  76.188 -13.015  1.00  0.00     0.059 A 
ATOM     15  C   UNL     1     -43.573  76.027 -13.891  1.00  0.00     0.120 A 
ATOM     16  C   UNL     1     -44.094  74.755 -14.122  1.00  0.00     0.093 A 
ATOM     17  C   UNL     1     -43.555  73.633 -13.484  1.00  0.00     0.131 A 
ENDROOT
BRANCH   6  18
ATOM     18  O   UNL     1     -40.345  70.334 -10.887  1.00  0.00    -0.507 OA
ATOM     19  H   UNL     1     -41.094  69.865 -10.399  1.00  0.00     0.293 HD
ENDBRANCH   6  18
BRANCH  17  20
ATOM     20  O   UNL     1     -44.068  72.382 -13.836  1.00  0.00    -0.507 OA
ATOM     21  H   UNL     1     -44.497  72.186 -14.729  1.00  0.00     0.293 HD
ENDBRANCH  17  20
BRANCH  15  22
ATOM     22  O   UNL     1     -44.125  77.124 -14.547  1.00  0.00    -0.508 OA
ATOM     23  H   UNL     1     -43.716  78.049 -14.472  1.00  0.00     0.293 HD
ENDBRANCH  15  22
TORSDOF 3
ENDMDL
MODEL 9
REMARK VINA RESULT:    -3.875      1.933      2.874
REMARK INTER + INTRA:          -4.215
REMARK INTER:                  -4.215
REMARK INTRA:                   0.000
REMARK UNBOUND:                 0.000
REMARK SMILES Cc1cc(O)c2c(c1)C(=O)c1cc(O)cc(O)c1C2=O
REMARK SMILES IDX 1 1 2 2 8 3 7 4 6 5 4 6 3 7 19 8 20 9 18 10 11 11 9 12 10 13
REMARK SMILES IDX 12 14 13 15 15 16 16 17 5 18 17 20 14 22
REMARK H PARENT 5 19 17 21 14 23
REMARK Flexibility Score: inf
ROOT
ATOM      1  C   UNL     1     -39.560  76.242 -20.411  1.00  0.00     0.044 C 
ATOM      2  C   UNL     1     -39.492  76.284 -21.909  1.00  0.00    -0.047 A 
ATOM      3  C   UNL     1     -38.260  76.162 -22.562  1.00  0.00     0.016 A 
ATOM      4  C   UNL     1     -38.189  76.172 -23.965  1.00  0.00     0.038 A 
ATOM      5  C   UNL     1     -39.371  76.306 -24.728  1.00  0.00     0.076 A 
ATOM      6  C   UNL     1     -40.624  76.343 -24.063  1.00  0.00     0.127 A 
ATOM      7  C   UNL     1     -40.667  76.352 -22.664  1.00  0.00     0.050 A 
ATOM      8  C   UNL     1     -39.244  76.461 -26.200  1.00  0.00     0.201 C 
ATOM      9  O   UNL     1     -40.105  77.125 -26.837  1.00  0.00    -0.288 OA
ATOM     10  C   UNL     1     -38.009  75.999 -26.887  1.00  0.00     0.076 A 
ATOM     11  C   UNL     1     -36.830  75.863 -26.119  1.00  0.00     0.041 A 
ATOM     12  C   UNL     1     -36.882  76.035 -24.649  1.00  0.00     0.194 C 
ATOM     13  O   UNL     1     -35.814  76.041 -23.976  1.00  0.00    -0.289 OA
ATOM     14  C   UNL     1     -35.614  75.562 -26.756  1.00  0.00     0.059 A 
ATOM     15  C   UNL     1     -35.564  75.379 -28.141  1.00  0.00     0.120 A 
ATOM     16  C   UNL     1     -36.733  75.472 -28.895  1.00  0.00     0.093 A 
ATOM     17  C   UNL     1     -37.959  75.751 -28.283  1.00  0.00     0.131 A 
ENDROOT
BRANCH   6  18
ATOM     18  O   UNL     1     -41.842  76.336 -24.746  1.00  0.00    -0.507 OA
ATOM     19  H   UNL     1     -42.330  75.491 -25.008  1.00  0.00     0.293 HD
ENDBRANCH   6  18
BRANCH  17  20
ATOM     20  O   UNL     1     -39.100  75.738 -29.090  1.00  0.00    -0.507 OA
ATOM     21  H   UNL     1     -39.239  76.364 -29.870  1.00  0.00     0.293 HD
ENDBRANCH  17  20
BRANCH  15  22
ATOM     22  O   UNL     1     -34.358  75.092 -28.776  1.00  0.00    -0.508 OA
ATOM     23  H   UNL     1     -33.552  75.700 -28.685  1.00  0.00     0.293 HD
ENDBRANCH  15  22
TORSDOF 3
ENDMDL
