MODEL 1
REMARK VINA RESULT:    -6.684      0.000      0.000
REMARK INTER + INTRA:          -6.826
REMARK INTER:                  -7.270
REMARK INTRA:                   0.444
REMARK UNBOUND:                 0.444
REMARK SMILES C[C@H]1[C@@H](C)CC[C@]2(C(=O)[O-])CC[C@]3(C)C(=CC[C@H]4[C@@]5(C)CC[C@@H](O)C(C)(C)[C@H]5CC[C@]43C)[C@@H]12
REMARK SMILES IDX 7 1 6 2 11 3 33 4 5 5 12 6 15 7 2 8 3 9 13 10 16 11 1 12
REMARK SMILES IDX 4 13 14 14 31 15 17 16 18 17 30 18 32 19 19 20 29 21 28 22
REMARK SMILES IDX 21 23 20 24 25 25 22 26 23 27 26 28 27 29 8 30 9 31 10 32
REMARK SMILES IDX 24 33
REMARK H PARENT 24 34
REMARK Flexibility Score: inf
ROOT
ATOM      1  C   UNL     1       4.207 -18.087  -0.491  1.00  0.00     0.017 C 
ATOM      2  C   UNL     1       5.540 -18.873  -0.264  1.00  0.00     0.014 C 
ATOM      3  C   UNL     1       3.447 -18.052   0.861  1.00  0.00     0.014 C 
ATOM      4  C   UNL     1       3.368 -18.862  -1.562  1.00  0.00     0.030 C 
ATOM      5  C   UNL     1       6.328 -19.148  -1.555  1.00  0.00     0.004 C 
ATOM      6  C   UNL     1       1.972 -17.608   0.752  1.00  0.00     0.013 C 
ATOM      7  C   UNL     1       1.901 -18.384  -1.606  1.00  0.00    -0.063 C 
ATOM      8  C   UNL     1       4.151 -19.045  -2.913  1.00  0.00    -0.003 C 
ATOM      9  C   UNL     1       5.456 -19.845  -2.622  1.00  0.00    -0.011 C 
ATOM     10  C   UNL     1       1.101 -18.407  -0.284  1.00  0.00    -0.006 C 
ATOM     11  C   UNL     1       1.361 -17.921  -2.745  1.00  0.00    -0.027 C 
ATOM     12  C   UNL     1       4.451 -17.744  -3.711  1.00  0.00     0.008 C 
ATOM     13  C   UNL     1       6.272 -20.138  -3.891  1.00  0.00     0.008 C 
ATOM     14  C   UNL     1       1.001 -19.891   0.202  1.00  0.00     0.017 C 
ATOM     15  C   UNL     1      -0.399 -17.780  -0.417  1.00  0.00    -0.020 C 
ATOM     16  C   UNL     1       0.096 -17.140  -2.819  1.00  0.00     0.032 C 
ATOM     17  C   UNL     1      -0.405 -16.590  -1.448  1.00  0.00     0.006 C 
ATOM     18  C   UNL     1      -1.446 -18.825  -0.938  1.00  0.00     0.008 C 
ATOM     19  C   UNL     1      -0.867 -17.347   1.009  1.00  0.00     0.012 C 
ATOM     20  C   UNL     1      -1.801 -15.790  -1.553  1.00  0.00    -0.025 C 
ATOM     21  C   UNL     1      -2.715 -18.258  -1.633  1.00  0.00     0.005 C 
ATOM     22  C   UNL     1      -3.063 -16.757  -1.387  1.00  0.00     0.003 C 
ATOM     23  C   UNL     1      -1.898 -14.959  -2.889  1.00  0.00     0.010 C 
ATOM     24  C   UNL     1      -1.817 -14.707  -0.418  1.00  0.00     0.012 C 
ATOM     25  C   UNL     1      -4.372 -16.295  -2.178  1.00  0.00    -0.006 C 
ATOM     26  C   UNL     1      -2.614 -15.682  -4.033  1.00  0.00     0.033 C 
ATOM     27  C   UNL     1      -4.089 -15.990  -3.703  1.00  0.00     0.120 C 
ATOM     28  C   UNL     1      -4.959 -15.012  -1.514  1.00  0.00     0.014 C 
ATOM     29  C   UNL     1      -5.509 -17.353  -2.038  1.00  0.00     0.014 C 
ENDROOT
BRANCH   1  30
ATOM     30  C   UNL     1       4.484 -16.641  -0.894  1.00  0.00     0.048 C 
ATOM     31  O   UNL     1       5.664 -16.207  -0.980  1.00  0.00    -0.550 OA
ATOM     32  O   UNL     1       3.435 -15.748  -1.088  1.00  0.00    -0.550 OA
ENDBRANCH   1  30
BRANCH  27  33
ATOM     33  O   UNL     1      -4.572 -16.995  -4.564  1.00  0.00    -0.393 OA
ATOM     34  H   UNL     1      -4.355 -17.875  -4.162  1.00  0.00     0.210 HD
ENDBRANCH  27  33
TORSDOF 2
ENDMDL
MODEL 2
REMARK VINA RESULT:    -6.497      9.987     12.587
REMARK INTER + INTRA:          -6.623
REMARK INTER:                  -7.045
REMARK INTRA:                   0.422
REMARK UNBOUND:                 0.444
REMARK SMILES C[C@H]1[C@@H](C)CC[C@]2(C(=O)[O-])CC[C@]3(C)C(=CC[C@H]4[C@@]5(C)CC[C@@H](O)C(C)(C)[C@H]5CC[C@]43C)[C@@H]12
REMARK SMILES IDX 7 1 6 2 11 3 33 4 5 5 12 6 15 7 2 8 3 9 13 10 16 11 1 12
REMARK SMILES IDX 4 13 14 14 31 15 17 16 18 17 30 18 32 19 19 20 29 21 28 22
REMARK SMILES IDX 21 23 20 24 25 25 22 26 23 27 26 28 27 29 8 30 9 31 10 32
REMARK SMILES IDX 24 33
REMARK H PARENT 24 34
REMARK Flexibility Score: inf
ROOT
ATOM      1  C   UNL     1      -8.642 -12.332   5.766  1.00  0.00     0.017 C 
ATOM      2  C   UNL     1      -8.758 -11.891   7.262  1.00  0.00     0.014 C 
ATOM      3  C   UNL     1      -9.360 -11.260   4.905  1.00  0.00     0.014 C 
ATOM      4  C   UNL     1      -9.361 -13.714   5.615  1.00  0.00     0.030 C 
ATOM      5  C   UNL     1      -8.248 -12.941   8.262  1.00  0.00     0.004 C 
ATOM      6  C   UNL     1      -9.630 -11.690   3.446  1.00  0.00     0.013 C 
ATOM      7  C   UNL     1      -9.619 -14.075   4.136  1.00  0.00    -0.063 C 
ATOM      8  C   UNL     1      -8.758 -14.806   6.572  1.00  0.00    -0.003 C 
ATOM      9  C   UNL     1      -8.917 -14.316   8.042  1.00  0.00    -0.011 C 
ATOM     10  C   UNL     1     -10.394 -13.053   3.275  1.00  0.00    -0.006 C 
ATOM     11  C   UNL     1      -9.143 -15.216   3.612  1.00  0.00    -0.027 C 
ATOM     12  C   UNL     1      -7.295 -15.242   6.277  1.00  0.00     0.008 C 
ATOM     13  C   UNL     1      -8.416 -15.340   9.071  1.00  0.00     0.008 C 
ATOM     14  C   UNL     1     -11.828 -12.890   3.881  1.00  0.00     0.017 C 
ATOM     15  C   UNL     1     -10.517 -13.480   1.706  1.00  0.00    -0.020 C 
ATOM     16  C   UNL     1      -9.045 -15.494   2.153  1.00  0.00     0.032 C 
ATOM     17  C   UNL     1      -9.217 -14.240   1.244  1.00  0.00     0.006 C 
ATOM     18  C   UNL     1     -11.719 -14.450   1.436  1.00  0.00     0.008 C 
ATOM     19  C   UNL     1     -10.788 -12.185   0.875  1.00  0.00     0.012 C 
ATOM     20  C   UNL     1      -9.155 -14.581  -0.332  1.00  0.00    -0.025 C 
ATOM     21  C   UNL     1     -11.620 -15.355   0.176  1.00  0.00     0.005 C 
ATOM     22  C   UNL     1     -10.593 -14.947  -0.926  1.00  0.00     0.003 C 
ATOM     23  C   UNL     1      -8.108 -15.718  -0.641  1.00  0.00     0.010 C 
ATOM     24  C   UNL     1      -8.588 -13.319  -1.071  1.00  0.00     0.012 C 
ATOM     25  C   UNL     1     -10.572 -15.973  -2.151  1.00  0.00    -0.006 C 
ATOM     26  C   UNL     1      -8.706 -17.127  -0.704  1.00  0.00     0.033 C 
ATOM     27  C   UNL     1      -9.737 -17.279  -1.842  1.00  0.00     0.120 C 
ATOM     28  C   UNL     1      -9.960 -15.276  -3.405  1.00  0.00     0.014 C 
ATOM     29  C   UNL     1     -12.021 -16.345  -2.589  1.00  0.00     0.014 C 
ENDROOT
BRANCH   1  30
ATOM     30  C   UNL     1      -7.184 -12.375   5.317  1.00  0.00     0.048 C 
ATOM     31  O   UNL     1      -6.267 -11.915   6.049  1.00  0.00    -0.550 OA
ATOM     32  O   UNL     1      -6.848 -12.843   4.051  1.00  0.00    -0.550 OA
ENDBRANCH   1  30
BRANCH  27  33
ATOM     33  O   UNL     1     -10.548 -18.406  -1.604  1.00  0.00    -0.393 OA
ATOM     34  H   UNL     1     -11.281 -18.135  -0.995  1.00  0.00     0.210 HD
ENDBRANCH  27  33
TORSDOF 2
ENDMDL
MODEL 3
REMARK VINA RESULT:    -6.386      7.030     11.762
REMARK INTER + INTRA:          -6.502
REMARK INTER:                  -6.923
REMARK INTRA:                   0.421
REMARK UNBOUND:                 0.444
REMARK SMILES C[C@H]1[C@@H](C)CC[C@]2(C(=O)[O-])CC[C@]3(C)C(=CC[C@H]4[C@@]5(C)CC[C@@H](O)C(C)(C)[C@H]5CC[C@]43C)[C@@H]12
REMARK SMILES IDX 7 1 6 2 11 3 33 4 5 5 12 6 15 7 2 8 3 9 13 10 16 11 1 12
REMARK SMILES IDX 4 13 14 14 31 15 17 16 18 17 30 18 32 19 19 20 29 21 28 22
REMARK SMILES IDX 21 23 20 24 25 25 22 26 23 27 26 28 27 29 8 30 9 31 10 32
REMARK SMILES IDX 24 33
REMARK H PARENT 24 34
REMARK Flexibility Score: inf
ROOT
ATOM      1  C   UNL     1      -9.921 -13.166   4.395  1.00  0.00     0.017 C 
ATOM      2  C   UNL     1     -10.697 -12.986   5.741  1.00  0.00     0.014 C 
ATOM      3  C   UNL     1     -10.933 -12.953   3.239  1.00  0.00     0.014 C 
ATOM      4  C   UNL     1      -9.358 -14.627   4.357  1.00  0.00     0.030 C 
ATOM      5  C   UNL     1      -9.871 -13.341   6.988  1.00  0.00     0.004 C 
ATOM      6  C   UNL     1     -10.425 -13.412   1.854  1.00  0.00     0.013 C 
ATOM      7  C   UNL     1      -8.886 -15.029   2.943  1.00  0.00    -0.063 C 
ATOM      8  C   UNL     1      -8.431 -14.940   5.588  1.00  0.00    -0.003 C 
ATOM      9  C   UNL     1      -9.264 -14.757   6.892  1.00  0.00    -0.011 C 
ATOM     10  C   UNL     1      -9.899 -14.892   1.784  1.00  0.00    -0.006 C 
ATOM     11  C   UNL     1      -7.625 -15.437   2.727  1.00  0.00    -0.027 C 
ATOM     12  C   UNL     1      -7.094 -14.148   5.656  1.00  0.00     0.008 C 
ATOM     13  C   UNL     1      -8.470 -15.101   8.161  1.00  0.00     0.008 C 
ATOM     14  C   UNL     1     -11.102 -15.853   2.070  1.00  0.00     0.017 C 
ATOM     15  C   UNL     1      -9.269 -15.237   0.320  1.00  0.00    -0.020 C 
ATOM     16  C   UNL     1      -6.986 -15.522   1.385  1.00  0.00     0.032 C 
ATOM     17  C   UNL     1      -7.762 -14.782   0.254  1.00  0.00     0.006 C 
ATOM     18  C   UNL     1      -9.284 -16.773   0.003  1.00  0.00     0.008 C 
ATOM     19  C   UNL     1     -10.158 -14.545  -0.761  1.00  0.00     0.012 C 
ATOM     20  C   UNL     1      -7.073 -14.933  -1.197  1.00  0.00    -0.025 C 
ATOM     21  C   UNL     1      -8.247 -17.283  -1.036  1.00  0.00     0.005 C 
ATOM     22  C   UNL     1      -7.589 -16.228  -1.978  1.00  0.00     0.003 C 
ATOM     23  C   UNL     1      -5.499 -14.922  -1.097  1.00  0.00     0.010 C 
ATOM     24  C   UNL     1      -7.419 -13.647  -2.026  1.00  0.00     0.012 C 
ATOM     25  C   UNL     1      -6.526 -16.878  -2.977  1.00  0.00    -0.006 C 
ATOM     26  C   UNL     1      -4.861 -16.312  -1.023  1.00  0.00     0.033 C 
ATOM     27  C   UNL     1      -5.128 -17.151  -2.290  1.00  0.00     0.120 C 
ATOM     28  C   UNL     1      -6.305 -15.930  -4.195  1.00  0.00     0.014 C 
ATOM     29  C   UNL     1      -7.085 -18.189  -3.609  1.00  0.00     0.014 C 
ENDROOT
BRANCH   1  30
ATOM     30  C   UNL     1      -8.829 -12.111   4.245  1.00  0.00     0.048 C 
ATOM     31  O   UNL     1      -8.733 -11.158   5.064  1.00  0.00    -0.550 OA
ATOM     32  O   UNL     1      -7.974 -12.130   3.149  1.00  0.00    -0.550 OA
ENDBRANCH   1  30
BRANCH  27  33
ATOM     33  O   UNL     1      -4.907 -18.515  -2.016  1.00  0.00    -0.393 OA
ATOM     34  H   UNL     1      -5.787 -18.970  -1.988  1.00  0.00     0.210 HD
ENDBRANCH  27  33
TORSDOF 2
ENDMDL
MODEL 4
REMARK VINA RESULT:    -6.307      1.631      7.832
REMARK INTER + INTRA:          -6.416
REMARK INTER:                  -6.833
REMARK INTRA:                   0.417
REMARK UNBOUND:                 0.444
REMARK SMILES C[C@H]1[C@@H](C)CC[C@]2(C(=O)[O-])CC[C@]3(C)C(=CC[C@H]4[C@@]5(C)CC[C@@H](O)C(C)(C)[C@H]5CC[C@]43C)[C@@H]12
REMARK SMILES IDX 7 1 6 2 11 3 33 4 5 5 12 6 15 7 2 8 3 9 13 10 16 11 1 12
REMARK SMILES IDX 4 13 14 14 31 15 17 16 18 17 30 18 32 19 19 20 29 21 28 22
REMARK SMILES IDX 21 23 20 24 25 25 22 26 23 27 26 28 27 29 8 30 9 31 10 32
REMARK SMILES IDX 24 33
REMARK H PARENT 24 34
REMARK Flexibility Score: inf
ROOT
ATOM      1  C   UNL     1      -3.206 -15.292  -1.253  1.00  0.00     0.017 C 
ATOM      2  C   UNL     1      -4.501 -14.538  -0.807  1.00  0.00     0.014 C 
ATOM      3  C   UNL     1      -3.384 -16.788  -0.881  1.00  0.00     0.014 C 
ATOM      4  C   UNL     1      -1.998 -14.681  -0.466  1.00  0.00     0.030 C 
ATOM      5  C   UNL     1      -4.410 -13.009  -0.946  1.00  0.00     0.004 C 
ATOM      6  C   UNL     1      -2.085 -17.620  -0.947  1.00  0.00     0.013 C 
ATOM      7  C   UNL     1      -0.739 -15.569  -0.556  1.00  0.00    -0.063 C 
ATOM      8  C   UNL     1      -1.857 -13.133  -0.702  1.00  0.00    -0.003 C 
ATOM      9  C   UNL     1      -3.169 -12.440  -0.226  1.00  0.00    -0.011 C 
ATOM     10  C   UNL     1      -0.874 -17.047  -0.124  1.00  0.00    -0.006 C 
ATOM     11  C   UNL     1       0.416 -15.082  -1.038  1.00  0.00    -0.027 C 
ATOM     12  C   UNL     1      -1.477 -12.692  -2.144  1.00  0.00     0.008 C 
ATOM     13  C   UNL     1      -3.116 -10.910  -0.352  1.00  0.00     0.008 C 
ATOM     14  C   UNL     1      -1.254 -17.080   1.394  1.00  0.00     0.017 C 
ATOM     15  C   UNL     1       0.482 -17.923  -0.360  1.00  0.00    -0.020 C 
ATOM     16  C   UNL     1       1.566 -15.920  -1.473  1.00  0.00     0.032 C 
ATOM     17  C   UNL     1       1.230 -17.431  -1.656  1.00  0.00     0.006 C 
ATOM     18  C   UNL     1       1.502 -17.787   0.822  1.00  0.00     0.008 C 
ATOM     19  C   UNL     1       0.074 -19.429  -0.432  1.00  0.00     0.012 C 
ATOM     20  C   UNL     1       2.507 -18.322  -2.080  1.00  0.00    -0.025 C 
ATOM     21  C   UNL     1       2.994 -18.075   0.496  1.00  0.00     0.005 C 
ATOM     22  C   UNL     1       3.308 -18.871  -0.810  1.00  0.00     0.003 C 
ATOM     23  C   UNL     1       3.464 -17.539  -3.057  1.00  0.00     0.010 C 
ATOM     24  C   UNL     1       1.984 -19.530  -2.932  1.00  0.00     0.012 C 
ATOM     25  C   UNL     1       4.875 -19.075  -1.040  1.00  0.00    -0.006 C 
ATOM     26  C   UNL     1       4.623 -16.817  -2.364  1.00  0.00     0.033 C 
ATOM     27  C   UNL     1       5.577 -17.792  -1.642  1.00  0.00     0.120 C 
ATOM     28  C   UNL     1       5.109 -20.272  -2.012  1.00  0.00     0.014 C 
ATOM     29  C   UNL     1       5.580 -19.510   0.280  1.00  0.00     0.014 C 
ENDROOT
BRANCH   1  30
ATOM     30  C   UNL     1      -3.021 -15.218  -2.766  1.00  0.00     0.048 C 
ATOM     31  O   UNL     1      -3.923 -14.742  -3.506  1.00  0.00    -0.550 OA
ATOM     32  O   UNL     1      -1.889 -15.758  -3.367  1.00  0.00    -0.550 OA
ENDBRANCH   1  30
BRANCH  27  33
ATOM     33  O   UNL     1       6.349 -17.092  -0.694  1.00  0.00    -0.393 OA
ATOM     34  H   UNL     1       6.485 -17.684   0.089  1.00  0.00     0.210 HD
ENDBRANCH  27  33
TORSDOF 2
ENDMDL
MODEL 5
REMARK VINA RESULT:    -6.066      9.699     12.923
REMARK INTER + INTRA:          -6.154
REMARK INTER:                  -6.576
REMARK INTRA:                   0.421
REMARK UNBOUND:                 0.444
REMARK SMILES C[C@H]1[C@@H](C)CC[C@]2(C(=O)[O-])CC[C@]3(C)C(=CC[C@H]4[C@@]5(C)CC[C@@H](O)C(C)(C)[C@H]5CC[C@]43C)[C@@H]12
REMARK SMILES IDX 7 1 6 2 11 3 33 4 5 5 12 6 15 7 2 8 3 9 13 10 16 11 1 12
REMARK SMILES IDX 4 13 14 14 31 15 17 16 18 17 30 18 32 19 19 20 29 21 28 22
REMARK SMILES IDX 21 23 20 24 25 25 22 26 23 27 26 28 27 29 8 30 9 31 10 32
REMARK SMILES IDX 24 33
REMARK H PARENT 24 34
REMARK Flexibility Score: inf
ROOT
ATOM      1  C   UNL     1      -9.065 -14.345  -0.937  1.00  0.00     0.017 C 
ATOM      2  C   UNL     1      -8.858 -14.960  -2.360  1.00  0.00     0.014 C 
ATOM      3  C   UNL     1      -7.752 -13.621  -0.544  1.00  0.00     0.014 C 
ATOM      4  C   UNL     1      -9.353 -15.519   0.057  1.00  0.00     0.030 C 
ATOM      5  C   UNL     1     -10.012 -15.864  -2.822  1.00  0.00     0.004 C 
ATOM      6  C   UNL     1      -7.657 -13.239   0.950  1.00  0.00     0.013 C 
ATOM      7  C   UNL     1      -9.224 -15.076   1.530  1.00  0.00    -0.063 C 
ATOM      8  C   UNL     1     -10.601 -16.372  -0.375  1.00  0.00    -0.003 C 
ATOM      9  C   UNL     1     -10.326 -16.968  -1.788  1.00  0.00    -0.011 C 
ATOM     10  C   UNL     1      -7.896 -14.416   1.964  1.00  0.00    -0.006 C 
ATOM     11  C   UNL     1     -10.248 -15.219   2.386  1.00  0.00    -0.027 C 
ATOM     12  C   UNL     1     -11.976 -15.648  -0.325  1.00  0.00     0.008 C 
ATOM     13  C   UNL     1     -11.461 -17.877  -2.285  1.00  0.00     0.008 C 
ATOM     14  C   UNL     1      -6.746 -15.462   1.780  1.00  0.00     0.017 C 
ATOM     15  C   UNL     1      -7.902 -13.887   3.507  1.00  0.00    -0.020 C 
ATOM     16  C   UNL     1     -10.345 -14.535   3.704  1.00  0.00     0.032 C 
ATOM     17  C   UNL     1      -9.335 -13.363   3.899  1.00  0.00     0.006 C 
ATOM     18  C   UNL     1      -7.546 -15.017   4.534  1.00  0.00     0.008 C 
ATOM     19  C   UNL     1      -6.799 -12.790   3.644  1.00  0.00     0.012 C 
ATOM     20  C   UNL     1      -9.430 -12.673   5.354  1.00  0.00    -0.025 C 
ATOM     21  C   UNL     1      -8.055 -14.825   5.990  1.00  0.00     0.005 C 
ATOM     22  C   UNL     1      -8.482 -13.388   6.423  1.00  0.00     0.003 C 
ATOM     23  C   UNL     1     -10.918 -12.608   5.871  1.00  0.00     0.010 C 
ATOM     24  C   UNL     1      -9.007 -11.171   5.198  1.00  0.00     0.012 C 
ATOM     25  C   UNL     1      -9.008 -13.334   7.930  1.00  0.00    -0.006 C 
ATOM     26  C   UNL     1     -11.326 -13.778   6.771  1.00  0.00     0.033 C 
ATOM     27  C   UNL     1     -10.502 -13.832   8.075  1.00  0.00     0.120 C 
ATOM     28  C   UNL     1      -8.918 -11.871   8.463  1.00  0.00     0.014 C 
ATOM     29  C   UNL     1      -8.071 -14.145   8.876  1.00  0.00     0.014 C 
ENDROOT
BRANCH   1  30
ATOM     30  C   UNL     1     -10.176 -13.297  -0.948  1.00  0.00     0.048 C 
ATOM     31  O   UNL     1     -10.706 -12.928  -2.030  1.00  0.00    -0.550 OA
ATOM     32  O   UNL     1     -10.563 -12.665   0.228  1.00  0.00    -0.550 OA
ENDBRANCH   1  30
BRANCH  27  33
ATOM     33  O   UNL     1     -10.600 -15.115   8.649  1.00  0.00    -0.393 OA
ATOM     34  H   UNL     1      -9.884 -15.204   9.329  1.00  0.00     0.210 HD
ENDBRANCH  27  33
TORSDOF 2
ENDMDL
MODEL 6
REMARK VINA RESULT:    -5.948      1.950      3.376
REMARK INTER + INTRA:          -6.026
REMARK INTER:                  -6.447
REMARK INTRA:                   0.421
REMARK UNBOUND:                 0.444
REMARK SMILES C[C@H]1[C@@H](C)CC[C@]2(C(=O)[O-])CC[C@]3(C)C(=CC[C@H]4[C@@]5(C)CC[C@@H](O)C(C)(C)[C@H]5CC[C@]43C)[C@@H]12
REMARK SMILES IDX 7 1 6 2 11 3 33 4 5 5 12 6 15 7 2 8 3 9 13 10 16 11 1 12
REMARK SMILES IDX 4 13 14 14 31 15 17 16 18 17 30 18 32 19 19 20 29 21 28 22
REMARK SMILES IDX 21 23 20 24 25 25 22 26 23 27 26 28 27 29 8 30 9 31 10 32
REMARK SMILES IDX 24 33
REMARK H PARENT 24 34
REMARK Flexibility Score: inf
ROOT
ATOM      1  C   UNL     1       4.058 -18.203  -1.632  1.00  0.00     0.017 C 
ATOM      2  C   UNL     1       5.504 -18.482  -1.106  1.00  0.00     0.014 C 
ATOM      3  C   UNL     1       4.101 -16.883  -2.445  1.00  0.00     0.014 C 
ATOM      4  C   UNL     1       3.117 -18.041  -0.390  1.00  0.00     0.030 C 
ATOM      5  C   UNL     1       5.593 -19.667  -0.130  1.00  0.00     0.004 C 
ATOM      6  C   UNL     1       2.714 -16.282  -2.761  1.00  0.00     0.013 C 
ATOM      7  C   UNL     1       1.757 -17.418  -0.771  1.00  0.00    -0.063 C 
ATOM      8  C   UNL     1       3.143 -19.305   0.544  1.00  0.00    -0.003 C 
ATOM      9  C   UNL     1       4.602 -19.519   1.045  1.00  0.00    -0.011 C 
ATOM     10  C   UNL     1       1.773 -16.067  -1.521  1.00  0.00    -0.006 C 
ATOM     11  C   UNL     1       0.607 -18.057  -0.500  1.00  0.00    -0.027 C 
ATOM     12  C   UNL     1       2.553 -20.612  -0.058  1.00  0.00     0.008 C 
ATOM     13  C   UNL     1       4.731 -20.697   2.022  1.00  0.00     0.008 C 
ATOM     14  C   UNL     1       2.431 -14.997  -0.587  1.00  0.00     0.017 C 
ATOM     15  C   UNL     1       0.292 -15.552  -1.972  1.00  0.00    -0.020 C 
ATOM     16  C   UNL     1      -0.708 -17.716  -1.110  1.00  0.00     0.032 C 
ATOM     17  C   UNL     1      -0.619 -16.779  -2.352  1.00  0.00     0.006 C 
ATOM     18  C   UNL     1      -0.453 -14.781  -0.828  1.00  0.00     0.008 C 
ATOM     19  C   UNL     1       0.473 -14.544  -3.151  1.00  0.00     0.012 C 
ATOM     20  C   UNL     1      -2.061 -16.388  -2.961  1.00  0.00    -0.025 C 
ATOM     21  C   UNL     1      -2.005 -14.744  -0.905  1.00  0.00     0.005 C 
ATOM     22  C   UNL     1      -2.668 -15.076  -2.279  1.00  0.00     0.003 C 
ATOM     23  C   UNL     1      -3.076 -17.592  -2.874  1.00  0.00     0.010 C 
ATOM     24  C   UNL     1      -1.879 -16.143  -4.499  1.00  0.00     0.012 C 
ATOM     25  C   UNL     1      -4.264 -15.028  -2.214  1.00  0.00    -0.006 C 
ATOM     26  C   UNL     1      -3.971 -17.575  -1.632  1.00  0.00     0.033 C 
ATOM     27  C   UNL     1      -4.890 -16.336  -1.585  1.00  0.00     0.120 C 
ATOM     28  C   UNL     1      -4.839 -14.844  -3.652  1.00  0.00     0.014 C 
ATOM     29  C   UNL     1      -4.752 -13.766  -1.442  1.00  0.00     0.014 C 
ENDROOT
BRANCH   1  30
ATOM     30  C   UNL     1       3.595 -19.307  -2.580  1.00  0.00     0.048 C 
ATOM     31  O   UNL     1       4.388 -20.212  -2.955  1.00  0.00    -0.550 OA
ATOM     32  O   UNL     1       2.314 -19.284  -3.119  1.00  0.00    -0.550 OA
ENDBRANCH   1  30
BRANCH  27  33
ATOM     33  O   UNL     1      -5.363 -16.142  -0.272  1.00  0.00    -0.393 OA
ATOM     34  H   UNL     1      -5.717 -15.218  -0.206  1.00  0.00     0.210 HD
ENDBRANCH  27  33
TORSDOF 2
ENDMDL
MODEL 7
REMARK VINA RESULT:    -5.802      1.623      7.795
REMARK INTER + INTRA:          -5.867
REMARK INTER:                  -6.291
REMARK INTRA:                   0.424
REMARK UNBOUND:                 0.444
REMARK SMILES C[C@H]1[C@@H](C)CC[C@]2(C(=O)[O-])CC[C@]3(C)C(=CC[C@H]4[C@@]5(C)CC[C@@H](O)C(C)(C)[C@H]5CC[C@]43C)[C@@H]12
REMARK SMILES IDX 7 1 6 2 11 3 33 4 5 5 12 6 15 7 2 8 3 9 13 10 16 11 1 12
REMARK SMILES IDX 4 13 14 14 31 15 17 16 18 17 30 18 32 19 19 20 29 21 28 22
REMARK SMILES IDX 21 23 20 24 25 25 22 26 23 27 26 28 27 29 8 30 9 31 10 32
REMARK SMILES IDX 24 33
REMARK H PARENT 24 34
REMARK Flexibility Score: inf
ROOT
ATOM      1  C   UNL     1      -4.152 -15.915  -2.665  1.00  0.00     0.017 C 
ATOM      2  C   UNL     1      -5.260 -14.901  -3.097  1.00  0.00     0.014 C 
ATOM      3  C   UNL     1      -4.136 -15.961  -1.115  1.00  0.00     0.014 C 
ATOM      4  C   UNL     1      -2.780 -15.387  -3.203  1.00  0.00     0.030 C 
ATOM      5  C   UNL     1      -5.283 -14.608  -4.606  1.00  0.00     0.004 C 
ATOM      6  C   UNL     1      -2.896 -16.654  -0.509  1.00  0.00     0.013 C 
ATOM      7  C   UNL     1      -1.583 -16.107  -2.545  1.00  0.00    -0.063 C 
ATOM      8  C   UNL     1      -2.788 -15.191  -4.763  1.00  0.00    -0.003 C 
ATOM      9  C   UNL     1      -3.899 -14.162  -5.125  1.00  0.00    -0.011 C 
ATOM     10  C   UNL     1      -1.508 -16.105  -1.001  1.00  0.00    -0.006 C 
ATOM     11  C   UNL     1      -0.670 -16.749  -3.291  1.00  0.00    -0.027 C 
ATOM     12  C   UNL     1      -2.918 -16.487  -5.614  1.00  0.00     0.008 C 
ATOM     13  C   UNL     1      -3.954 -13.846  -6.628  1.00  0.00     0.008 C 
ATOM     14  C   UNL     1      -1.370 -14.622  -0.519  1.00  0.00     0.017 C 
ATOM     15  C   UNL     1      -0.269 -16.983  -0.406  1.00  0.00    -0.020 C 
ATOM     16  C   UNL     1       0.309 -17.735  -2.756  1.00  0.00     0.032 C 
ATOM     17  C   UNL     1      -0.005 -18.241  -1.316  1.00  0.00     0.006 C 
ATOM     18  C   UNL     1       1.075 -16.178  -0.360  1.00  0.00     0.008 C 
ATOM     19  C   UNL     1      -0.615 -17.365   1.068  1.00  0.00     0.012 C 
ATOM     20  C   UNL     1       1.099 -19.270  -0.746  1.00  0.00    -0.025 C 
ATOM     21  C   UNL     1       2.389 -17.007  -0.370  1.00  0.00     0.005 C 
ATOM     22  C   UNL     1       2.292 -18.519   0.006  1.00  0.00     0.003 C 
ATOM     23  C   UNL     1       1.651 -20.218  -1.879  1.00  0.00     0.010 C 
ATOM     24  C   UNL     1       0.376 -20.239   0.254  1.00  0.00     0.012 C 
ATOM     25  C   UNL     1       3.705 -19.259  -0.068  1.00  0.00    -0.006 C 
ATOM     26  C   UNL     1       2.942 -19.726  -2.540  1.00  0.00     0.033 C 
ATOM     27  C   UNL     1       4.118 -19.643  -1.545  1.00  0.00     0.120 C 
ATOM     28  C   UNL     1       3.658 -20.562   0.789  1.00  0.00     0.014 C 
ATOM     29  C   UNL     1       4.820 -18.400   0.602  1.00  0.00     0.014 C 
ENDROOT
BRANCH   1  30
ATOM     30  C   UNL     1      -4.474 -17.324  -3.158  1.00  0.00     0.048 C 
ATOM     31  O   UNL     1      -5.581 -17.581  -3.704  1.00  0.00    -0.550 OA
ATOM     32  O   UNL     1      -3.587 -18.371  -2.935  1.00  0.00    -0.550 OA
ENDBRANCH   1  30
BRANCH  27  33
ATOM     33  O   UNL     1       5.128 -18.810  -2.067  1.00  0.00    -0.393 OA
ATOM     34  H   UNL     1       5.374 -18.150  -1.369  1.00  0.00     0.210 HD
ENDBRANCH  27  33
TORSDOF 2
ENDMDL
MODEL 8
REMARK VINA RESULT:    -5.785      2.962      9.566
REMARK INTER + INTRA:          -5.848
REMARK INTER:                  -6.272
REMARK INTRA:                   0.424
REMARK UNBOUND:                 0.444
REMARK SMILES C[C@H]1[C@@H](C)CC[C@]2(C(=O)[O-])CC[C@]3(C)C(=CC[C@H]4[C@@]5(C)CC[C@@H](O)C(C)(C)[C@H]5CC[C@]43C)[C@@H]12
REMARK SMILES IDX 7 1 6 2 11 3 33 4 5 5 12 6 15 7 2 8 3 9 13 10 16 11 1 12
REMARK SMILES IDX 4 13 14 14 31 15 17 16 18 17 30 18 32 19 19 20 29 21 28 22
REMARK SMILES IDX 21 23 20 24 25 25 22 26 23 27 26 28 27 29 8 30 9 31 10 32
REMARK SMILES IDX 24 33
REMARK H PARENT 24 34
REMARK Flexibility Score: inf
ROOT
ATOM      1  C   UNL     1      -8.470 -16.732  -1.860  1.00  0.00     0.017 C 
ATOM      2  C   UNL     1      -9.887 -17.211  -1.405  1.00  0.00     0.014 C 
ATOM      3  C   UNL     1      -8.082 -17.548  -3.120  1.00  0.00     0.014 C 
ATOM      4  C   UNL     1      -7.466 -17.028  -0.695  1.00  0.00     0.030 C 
ATOM      5  C   UNL     1     -10.342 -16.621  -0.060  1.00  0.00     0.004 C 
ATOM      6  C   UNL     1      -6.591 -17.446  -3.512  1.00  0.00     0.013 C 
ATOM      7  C   UNL     1      -5.996 -16.928  -1.158  1.00  0.00    -0.063 C 
ATOM      8  C   UNL     1      -7.891 -16.331   0.649  1.00  0.00    -0.003 C 
ATOM      9  C   UNL     1      -9.299 -16.860   1.054  1.00  0.00    -0.011 C 
ATOM     10  C   UNL     1      -5.567 -17.786  -2.369  1.00  0.00    -0.006 C 
ATOM     11  C   UNL     1      -5.139 -16.088  -0.555  1.00  0.00    -0.027 C 
ATOM     12  C   UNL     1      -7.847 -14.776   0.657  1.00  0.00     0.008 C 
ATOM     13  C   UNL     1      -9.789 -16.289   2.394  1.00  0.00     0.008 C 
ATOM     14  C   UNL     1      -5.742 -19.294  -1.987  1.00  0.00     0.017 C 
ATOM     15  C   UNL     1      -4.029 -17.525  -2.843  1.00  0.00    -0.020 C 
ATOM     16  C   UNL     1      -3.827 -15.675  -1.122  1.00  0.00     0.032 C 
ATOM     17  C   UNL     1      -3.642 -16.013  -2.633  1.00  0.00     0.006 C 
ATOM     18  C   UNL     1      -2.992 -18.367  -2.022  1.00  0.00     0.008 C 
ATOM     19  C   UNL     1      -3.901 -17.981  -4.332  1.00  0.00     0.012 C 
ATOM     20  C   UNL     1      -2.193 -15.598  -3.207  1.00  0.00    -0.025 C 
ATOM     21  C   UNL     1      -1.538 -17.823  -1.961  1.00  0.00     0.005 C 
ATOM     22  C   UNL     1      -1.117 -16.767  -3.031  1.00  0.00     0.003 C 
ATOM     23  C   UNL     1      -1.676 -14.253  -2.567  1.00  0.00     0.010 C 
ATOM     24  C   UNL     1      -2.361 -15.264  -4.730  1.00  0.00     0.012 C 
ATOM     25  C   UNL     1       0.390 -16.271  -2.841  1.00  0.00    -0.006 C 
ATOM     26  C   UNL     1      -0.766 -14.441  -1.349  1.00  0.00     0.033 C 
ATOM     27  C   UNL     1       0.538 -15.188  -1.699  1.00  0.00     0.120 C 
ATOM     28  C   UNL     1       0.910 -15.659  -4.178  1.00  0.00     0.014 C 
ATOM     29  C   UNL     1       1.342 -17.476  -2.574  1.00  0.00     0.014 C 
ENDROOT
BRANCH   1  30
ATOM     30  C   UNL     1      -8.489 -15.259  -2.260  1.00  0.00     0.048 C 
ATOM     31  O   UNL     1      -9.576 -14.625  -2.340  1.00  0.00    -0.550 OA
ATOM     32  O   UNL     1      -7.316 -14.612  -2.630  1.00  0.00    -0.550 OA
ENDBRANCH   1  30
BRANCH  27  33
ATOM     33  O   UNL     1       1.123 -15.704  -0.525  1.00  0.00    -0.393 OA
ATOM     34  H   UNL     1       1.968 -16.157  -0.776  1.00  0.00     0.210 HD
ENDBRANCH  27  33
TORSDOF 2
ENDMDL
MODEL 9
REMARK VINA RESULT:    -5.696      2.088      3.248
REMARK INTER + INTRA:          -5.752
REMARK INTER:                  -6.170
REMARK INTRA:                   0.418
REMARK UNBOUND:                 0.444
REMARK SMILES C[C@H]1[C@@H](C)CC[C@]2(C(=O)[O-])CC[C@]3(C)C(=CC[C@H]4[C@@]5(C)CC[C@@H](O)C(C)(C)[C@H]5CC[C@]43C)[C@@H]12
REMARK SMILES IDX 7 1 6 2 11 3 33 4 5 5 12 6 15 7 2 8 3 9 13 10 16 11 1 12
REMARK SMILES IDX 4 13 14 14 31 15 17 16 18 17 30 18 32 19 19 20 29 21 28 22
REMARK SMILES IDX 21 23 20 24 25 25 22 26 23 27 26 28 27 29 8 30 9 31 10 32
REMARK SMILES IDX 24 33
REMARK H PARENT 24 34
REMARK Flexibility Score: inf
ROOT
ATOM      1  C   UNL     1       2.702 -16.997  -0.561  1.00  0.00     0.017 C 
ATOM      2  C   UNL     1       3.684 -17.077   0.654  1.00  0.00     0.014 C 
ATOM      3  C   UNL     1       1.871 -15.697  -0.407  1.00  0.00     0.014 C 
ATOM      4  C   UNL     1       1.762 -18.248  -0.503  1.00  0.00     0.030 C 
ATOM      5  C   UNL     1       4.458 -18.403   0.742  1.00  0.00     0.004 C 
ATOM      6  C   UNL     1       0.635 -15.617  -1.329  1.00  0.00     0.013 C 
ATOM      7  C   UNL     1       0.538 -18.096  -1.431  1.00  0.00    -0.063 C 
ATOM      8  C   UNL     1       2.567 -19.598  -0.518  1.00  0.00    -0.003 C 
ATOM      9  C   UNL     1       3.512 -19.623   0.721  1.00  0.00    -0.011 C 
ATOM     10  C   UNL     1      -0.346 -16.842  -1.250  1.00  0.00    -0.006 C 
ATOM     11  C   UNL     1       0.284 -19.000  -2.391  1.00  0.00    -0.027 C 
ATOM     12  C   UNL     1       3.343 -19.918  -1.827  1.00  0.00     0.008 C 
ATOM     13  C   UNL     1       4.305 -20.933   0.841  1.00  0.00     0.008 C 
ATOM     14  C   UNL     1      -0.964 -16.883   0.188  1.00  0.00     0.017 C 
ATOM     15  C   UNL     1      -1.546 -16.724  -2.349  1.00  0.00    -0.020 C 
ATOM     16  C   UNL     1      -0.649 -18.779  -3.529  1.00  0.00     0.032 C 
ATOM     17  C   UNL     1      -1.071 -17.293  -3.738  1.00  0.00     0.006 C 
ATOM     18  C   UNL     1      -2.820 -17.543  -1.943  1.00  0.00     0.008 C 
ATOM     19  C   UNL     1      -1.980 -15.225  -2.426  1.00  0.00     0.012 C 
ATOM     20  C   UNL     1      -2.120 -17.092  -4.947  1.00  0.00    -0.025 C 
ATOM     21  C   UNL     1      -3.768 -17.979  -3.095  1.00  0.00     0.005 C 
ATOM     22  C   UNL     1      -3.636 -17.234  -4.460  1.00  0.00     0.003 C 
ATOM     23  C   UNL     1      -1.818 -18.067  -6.149  1.00  0.00     0.010 C 
ATOM     24  C   UNL     1      -1.892 -15.658  -5.542  1.00  0.00     0.012 C 
ATOM     25  C   UNL     1      -4.647 -17.794  -5.563  1.00  0.00    -0.006 C 
ATOM     26  C   UNL     1      -2.619 -19.372  -6.120  1.00  0.00     0.033 C 
ATOM     27  C   UNL     1      -4.139 -19.133  -6.234  1.00  0.00     0.120 C 
ATOM     28  C   UNL     1      -4.848 -16.723  -6.679  1.00  0.00     0.014 C 
ATOM     29  C   UNL     1      -6.071 -17.993  -4.962  1.00  0.00     0.014 C 
ENDROOT
BRANCH   1  30
ATOM     30  C   UNL     1       3.466 -16.896  -1.879  1.00  0.00     0.048 C 
ATOM     31  O   UNL     1       4.717 -16.745  -1.891  1.00  0.00    -0.550 OA
ATOM     32  O   UNL     1       2.785 -16.878  -3.091  1.00  0.00    -0.550 OA
ENDBRANCH   1  30
BRANCH  27  33
ATOM     33  O   UNL     1      -4.837 -20.272  -5.785  1.00  0.00    -0.393 OA
ATOM     34  H   UNL     1      -5.549 -19.971  -5.164  1.00  0.00     0.210 HD
ENDBRANCH  27  33
TORSDOF 2
ENDMDL
