MODEL 1
REMARK VINA RESULT:    -7.873      0.000      0.000
REMARK INTER + INTRA:          -9.760
REMARK INTER:                  -9.484
REMARK INTRA:                  -0.276
REMARK UNBOUND:                -0.276
REMARK SMILES Oc1cc(O)c2cc(O)c(-c3ccc(O)c(O)c3)[o+]c2c1.[Cl-]
REMARK SMILES IDX 10 1 19 2 20 3 21 4 2 5 3 6 4 7 6 8 7 9 8 10 11 11 12 12
REMARK SMILES IDX 13 13 14 14 18 15 16 16 15 17 17 19 9 21 1 23 5 25
REMARK H PARENT 15 18 17 20 9 22 1 24 5 26
REMARK Flexibility Score: inf
ROOT
ATOM      1  C   UNL     1      33.647   5.256   8.362  1.00  0.00     0.402 A 
ATOM      2  O   UNL     1      32.989   5.830   9.365  1.00  0.00    -0.202 OA
ATOM      3  C   UNL     1      33.574   6.603  10.275  1.00  0.00     0.368 A 
ATOM      4  C   UNL     1      32.798   7.158  11.295  1.00  0.00     0.162 A 
ATOM      5  C   UNL     1      33.388   7.974  12.266  1.00  0.00     0.128 A 
ATOM      6  C   UNL     1      34.760   8.231  12.216  1.00  0.00     0.093 A 
ATOM      7  C   UNL     1      35.559   7.687  11.204  1.00  0.00     0.136 A 
ATOM      8  C   UNL     1      34.965   6.861  10.215  1.00  0.00     0.125 A 
ATOM      9  C   UNL     1      35.684   6.282   9.157  1.00  0.00     0.078 A 
ATOM     10  C   UNL     1      35.028   5.483   8.216  1.00  0.00     0.223 A 
ENDROOT
BRANCH   1  11
ATOM     11  C   UNL     1      32.884   4.407   7.418  1.00  0.00     0.087 A 
ATOM     12  C   UNL     1      32.422   3.132   7.789  1.00  0.00     0.022 A 
ATOM     13  C   UNL     1      31.684   2.359   6.890  1.00  0.00     0.051 A 
ATOM     14  C   UNL     1      31.385   2.852   5.612  1.00  0.00     0.157 A 
ATOM     15  C   UNL     1      32.563   4.905   6.145  1.00  0.00     0.068 A 
ATOM     16  C   UNL     1      31.824   4.133   5.241  1.00  0.00     0.158 A 
BRANCH  14  17
ATOM     17  O   UNL     1      30.649   2.078   4.716  1.00  0.00    -0.504 OA
ATOM     18  H   UNL     1      29.650   2.200   4.605  1.00  0.00     0.293 HD
ENDBRANCH  14  17
BRANCH  16  19
ATOM     19  O   UNL     1      31.537   4.657   3.981  1.00  0.00    -0.504 OA
ATOM     20  H   UNL     1      30.654   5.110   3.775  1.00  0.00     0.293 HD
ENDBRANCH  16  19
ENDBRANCH   1  11
BRANCH  10  21
ATOM     21  O   UNL     1      35.733   4.950   7.138  1.00  0.00    -0.500 OA
ATOM     22  H   UNL     1      35.364   4.977   6.194  1.00  0.00     0.294 HD
ENDBRANCH  10  21
BRANCH   5  23
ATOM     23  O   UNL     1      32.621   8.532  13.285  1.00  0.00    -0.507 OA
ATOM     24  H   UNL     1      31.738   8.992  13.094  1.00  0.00     0.293 HD
ENDBRANCH   5  23
BRANCH   7  25
ATOM     25  O   UNL     1      36.923   7.990  11.227  1.00  0.00    -0.507 OA
ATOM     26  H   UNL     1      37.658   7.309  11.351  1.00  0.00     0.293 HD
ENDBRANCH   7  25
TORSDOF 6
ENDMDL
MODEL 2
REMARK VINA RESULT:    -6.739      2.554      2.730
REMARK INTER + INTRA:          -8.393
REMARK INTER:                  -8.888
REMARK INTRA:                   0.494
REMARK UNBOUND:                -0.276
REMARK SMILES Oc1cc(O)c2cc(O)c(-c3ccc(O)c(O)c3)[o+]c2c1.[Cl-]
REMARK SMILES IDX 10 1 19 2 20 3 21 4 2 5 3 6 4 7 6 8 7 9 8 10 11 11 12 12
REMARK SMILES IDX 13 13 14 14 18 15 16 16 15 17 17 19 9 21 1 23 5 25
REMARK H PARENT 15 18 17 20 9 22 1 24 5 26
REMARK Flexibility Score: inf
ROOT
ATOM      1  C   UNL     1      32.991   4.433   9.292  1.00  0.00     0.402 A 
ATOM      2  O   UNL     1      32.817   3.675  10.371  1.00  0.00    -0.202 OA
ATOM      3  C   UNL     1      33.252   4.016  11.580  1.00  0.00     0.368 A 
ATOM      4  C   UNL     1      33.025   3.150  12.652  1.00  0.00     0.162 A 
ATOM      5  C   UNL     1      33.473   3.483  13.934  1.00  0.00     0.128 A 
ATOM      6  C   UNL     1      34.153   4.685  14.142  1.00  0.00     0.093 A 
ATOM      7  C   UNL     1      34.393   5.570  13.084  1.00  0.00     0.136 A 
ATOM      8  C   UNL     1      33.938   5.238  11.781  1.00  0.00     0.125 A 
ATOM      9  C   UNL     1      34.122   6.068  10.664  1.00  0.00     0.078 A 
ATOM     10  C   UNL     1      33.640   5.676   9.412  1.00  0.00     0.223 A 
ENDROOT
BRANCH   1  11
ATOM     11  C   UNL     1      32.469   3.938   7.996  1.00  0.00     0.087 A 
ATOM     12  C   UNL     1      31.888   2.663   7.880  1.00  0.00     0.022 A 
ATOM     13  C   UNL     1      31.381   2.228   6.653  1.00  0.00     0.051 A 
ATOM     14  C   UNL     1      31.434   3.063   5.529  1.00  0.00     0.157 A 
ATOM     15  C   UNL     1      32.500   4.780   6.872  1.00  0.00     0.068 A 
ATOM     16  C   UNL     1      31.994   4.347   5.641  1.00  0.00     0.158 A 
BRANCH  14  17
ATOM     17  O   UNL     1      30.929   2.625   4.305  1.00  0.00    -0.504 OA
ATOM     18  H   UNL     1      30.336   3.215   3.734  1.00  0.00     0.293 HD
ENDBRANCH  14  17
BRANCH  16  19
ATOM     19  O   UNL     1      32.055   5.205   4.544  1.00  0.00    -0.504 OA
ATOM     20  H   UNL     1      31.242   5.704   4.205  1.00  0.00     0.293 HD
ENDBRANCH  16  19
ENDBRANCH   1  11
BRANCH  10  21
ATOM     21  O   UNL     1      33.778   6.522   8.312  1.00  0.00    -0.500 OA
ATOM     22  H   UNL     1      32.974   6.874   7.807  1.00  0.00     0.294 HD
ENDBRANCH  10  21
BRANCH   5  23
ATOM     23  O   UNL     1      33.250   2.625  15.009  1.00  0.00    -0.507 OA
ATOM     24  H   UNL     1      34.008   2.111  15.443  1.00  0.00     0.293 HD
ENDBRANCH   5  23
BRANCH   7  25
ATOM     25  O   UNL     1      35.083   6.750  13.375  1.00  0.00    -0.507 OA
ATOM     26  H   UNL     1      35.298   7.070  14.308  1.00  0.00     0.293 HD
ENDBRANCH   7  25
TORSDOF 6
ENDMDL
MODEL 3
REMARK VINA RESULT:    -6.712      1.705      1.771
REMARK INTER + INTRA:          -8.361
REMARK INTER:                  -8.855
REMARK INTRA:                   0.494
REMARK UNBOUND:                -0.276
REMARK SMILES Oc1cc(O)c2cc(O)c(-c3ccc(O)c(O)c3)[o+]c2c1.[Cl-]
REMARK SMILES IDX 10 1 19 2 20 3 21 4 2 5 3 6 4 7 6 8 7 9 8 10 11 11 12 12
REMARK SMILES IDX 13 13 14 14 18 15 16 16 15 17 17 19 9 21 1 23 5 25
REMARK H PARENT 15 18 17 20 9 22 1 24 5 26
REMARK Flexibility Score: inf
ROOT
ATOM      1  C   UNL     1      33.097   5.045   8.505  1.00  0.00     0.402 A 
ATOM      2  O   UNL     1      33.082   4.519   9.727  1.00  0.00    -0.202 OA
ATOM      3  C   UNL     1      33.632   5.112  10.783  1.00  0.00     0.368 A 
ATOM      4  C   UNL     1      33.568   4.479  12.026  1.00  0.00     0.162 A 
ATOM      5  C   UNL     1      34.140   5.078  13.153  1.00  0.00     0.128 A 
ATOM      6  C   UNL     1      34.780   6.315  13.033  1.00  0.00     0.093 A 
ATOM      7  C   UNL     1      34.856   6.970  11.797  1.00  0.00     0.136 A 
ATOM      8  C   UNL     1      34.276   6.366  10.652  1.00  0.00     0.125 A 
ATOM      9  C   UNL     1      34.293   6.954   9.377  1.00  0.00     0.078 A 
ATOM     10  C   UNL     1      33.694   6.302   8.295  1.00  0.00     0.223 A 
ENDROOT
BRANCH   1  11
ATOM     11  C   UNL     1      32.459   4.282   7.407  1.00  0.00     0.087 A 
ATOM     12  C   UNL     1      31.939   2.993   7.617  1.00  0.00     0.022 A 
ATOM     13  C   UNL     1      31.320   2.302   6.572  1.00  0.00     0.051 A 
ATOM     14  C   UNL     1      31.199   2.894   5.307  1.00  0.00     0.157 A 
ATOM     15  C   UNL     1      32.315   4.879   6.144  1.00  0.00     0.068 A 
ATOM     16  C   UNL     1      31.697   4.190   5.094  1.00  0.00     0.158 A 
BRANCH  14  17
ATOM     17  O   UNL     1      30.582   2.202   4.266  1.00  0.00    -0.504 OA
ATOM     18  H   UNL     1      30.813   1.237   4.059  1.00  0.00     0.293 HD
ENDBRANCH  14  17
BRANCH  16  19
ATOM     19  O   UNL     1      31.586   4.810   3.850  1.00  0.00    -0.504 OA
ATOM     20  H   UNL     1      31.933   5.747   3.683  1.00  0.00     0.293 HD
ENDBRANCH  16  19
ENDBRANCH   1  11
BRANCH  10  21
ATOM     21  O   UNL     1      33.667   6.908   7.040  1.00  0.00    -0.500 OA
ATOM     22  H   UNL     1      34.447   6.835   6.397  1.00  0.00     0.294 HD
ENDBRANCH  10  21
BRANCH   5  23
ATOM     23  O   UNL     1      34.081   4.454  14.396  1.00  0.00    -0.507 OA
ATOM     24  H   UNL     1      34.873   4.455  15.028  1.00  0.00     0.293 HD
ENDBRANCH   5  23
BRANCH   7  25
ATOM     25  O   UNL     1      35.515   8.201  11.761  1.00  0.00    -0.507 OA
ATOM     26  H   UNL     1      36.515   8.317  11.846  1.00  0.00     0.293 HD
ENDBRANCH   7  25
TORSDOF 6
ENDMDL
MODEL 4
REMARK VINA RESULT:    -6.510      1.638      2.859
REMARK INTER + INTRA:          -8.117
REMARK INTER:                  -8.081
REMARK INTRA:                  -0.037
REMARK UNBOUND:                -0.276
REMARK SMILES Oc1cc(O)c2cc(O)c(-c3ccc(O)c(O)c3)[o+]c2c1.[Cl-]
REMARK SMILES IDX 10 1 19 2 20 3 21 4 2 5 3 6 4 7 6 8 7 9 8 10 11 11 12 12
REMARK SMILES IDX 13 13 14 14 18 15 16 16 15 17 17 19 9 21 1 23 5 25
REMARK H PARENT 15 18 17 20 9 22 1 24 5 26
REMARK Flexibility Score: inf
ROOT
ATOM      1  C   UNL     1      33.593   4.662   8.995  1.00  0.00     0.402 A 
ATOM      2  O   UNL     1      34.814   5.160   8.819  1.00  0.00    -0.202 OA
ATOM      3  C   UNL     1      35.531   5.699   9.800  1.00  0.00     0.368 A 
ATOM      4  C   UNL     1      36.804   6.199   9.516  1.00  0.00     0.162 A 
ATOM      5  C   UNL     1      37.579   6.773  10.528  1.00  0.00     0.128 A 
ATOM      6  C   UNL     1      37.076   6.850  11.829  1.00  0.00     0.093 A 
ATOM      7  C   UNL     1      35.803   6.356  12.140  1.00  0.00     0.136 A 
ATOM      8  C   UNL     1      35.014   5.770  11.116  1.00  0.00     0.125 A 
ATOM      9  C   UNL     1      33.734   5.238  11.337  1.00  0.00     0.078 A 
ATOM     10  C   UNL     1      33.017   4.670  10.279  1.00  0.00     0.223 A 
ENDROOT
BRANCH   1  11
ATOM     11  C   UNL     1      32.891   4.097   7.820  1.00  0.00     0.087 A 
ATOM     12  C   UNL     1      32.324   2.811   7.855  1.00  0.00     0.022 A 
ATOM     13  C   UNL     1      31.646   2.308   6.742  1.00  0.00     0.051 A 
ATOM     14  C   UNL     1      31.512   3.086   5.583  1.00  0.00     0.157 A 
ATOM     15  C   UNL     1      32.735   4.881   6.665  1.00  0.00     0.068 A 
ATOM     16  C   UNL     1      32.057   4.380   5.548  1.00  0.00     0.158 A 
BRANCH  14  17
ATOM     17  O   UNL     1      30.836   2.580   4.474  1.00  0.00    -0.504 OA
ATOM     18  H   UNL     1      30.420   1.657   4.481  1.00  0.00     0.293 HD
ENDBRANCH  14  17
BRANCH  16  19
ATOM     19  O   UNL     1      31.935   5.183   4.414  1.00  0.00    -0.504 OA
ATOM     20  H   UNL     1      31.390   4.898   3.609  1.00  0.00     0.293 HD
ENDBRANCH  16  19
ENDBRANCH   1  11
BRANCH  10  21
ATOM     21  O   UNL     1      31.767   4.097  10.508  1.00  0.00    -0.500 OA
ATOM     22  H   UNL     1      31.319   4.142  11.416  1.00  0.00     0.294 HD
ENDBRANCH  10  21
BRANCH   5  23
ATOM     23  O   UNL     1      38.849   7.273  10.253  1.00  0.00    -0.507 OA
ATOM     24  H   UNL     1      39.049   8.266  10.296  1.00  0.00     0.293 HD
ENDBRANCH   5  23
BRANCH   7  25
ATOM     25  O   UNL     1      35.372   6.473  13.464  1.00  0.00    -0.507 OA
ATOM     26  H   UNL     1      35.971   6.717  14.240  1.00  0.00     0.293 HD
ENDBRANCH   7  25
TORSDOF 6
ENDMDL
MODEL 5
REMARK VINA RESULT:    -6.493      2.902      6.871
REMARK INTER + INTRA:          -8.097
REMARK INTER:                  -7.939
REMARK INTRA:                  -0.158
REMARK UNBOUND:                -0.276
REMARK SMILES Oc1cc(O)c2cc(O)c(-c3ccc(O)c(O)c3)[o+]c2c1.[Cl-]
REMARK SMILES IDX 10 1 19 2 20 3 21 4 2 5 3 6 4 7 6 8 7 9 8 10 11 11 12 12
REMARK SMILES IDX 13 13 14 14 18 15 16 16 15 17 17 19 9 21 1 23 5 25
REMARK H PARENT 15 18 17 20 9 22 1 24 5 26
REMARK Flexibility Score: inf
ROOT
ATOM      1  C   UNL     1      32.760   3.820   9.504  1.00  0.00     0.402 A 
ATOM      2  O   UNL     1      32.022   3.062   8.697  1.00  0.00    -0.202 OA
ATOM      3  C   UNL     1      31.850   3.324   7.405  1.00  0.00     0.368 A 
ATOM      4  C   UNL     1      31.053   2.469   6.640  1.00  0.00     0.162 A 
ATOM      5  C   UNL     1      30.852   2.723   5.279  1.00  0.00     0.128 A 
ATOM      6  C   UNL     1      31.449   3.837   4.684  1.00  0.00     0.093 A 
ATOM      7  C   UNL     1      32.252   4.708   5.430  1.00  0.00     0.136 A 
ATOM      8  C   UNL     1      32.461   4.454   6.811  1.00  0.00     0.125 A 
ATOM      9  C   UNL     1      33.259   5.265   7.633  1.00  0.00     0.078 A 
ATOM     10  C   UNL     1      33.424   4.947   8.985  1.00  0.00     0.223 A 
ENDROOT
BRANCH   1  11
ATOM     11  C   UNL     1      32.868   3.428  10.928  1.00  0.00     0.087 A 
ATOM     12  C   UNL     1      33.461   2.213  11.311  1.00  0.00     0.022 A 
ATOM     13  C   UNL     1      33.573   1.876  12.662  1.00  0.00     0.051 A 
ATOM     14  C   UNL     1      33.107   2.753  13.651  1.00  0.00     0.157 A 
ATOM     15  C   UNL     1      32.422   4.314  11.924  1.00  0.00     0.068 A 
ATOM     16  C   UNL     1      32.532   3.979  13.279  1.00  0.00     0.158 A 
BRANCH  14  17
ATOM     17  O   UNL     1      33.219   2.413  14.998  1.00  0.00    -0.504 OA
ATOM     18  H   UNL     1      34.119   2.232  15.427  1.00  0.00     0.293 HD
ENDBRANCH  14  17
BRANCH  16  19
ATOM     19  O   UNL     1      32.066   4.878  14.238  1.00  0.00    -0.504 OA
ATOM     20  H   UNL     1      32.417   4.881  15.187  1.00  0.00     0.293 HD
ENDBRANCH  16  19
ENDBRANCH   1  11
BRANCH  10  21
ATOM     21  O   UNL     1      34.256   5.724   9.790  1.00  0.00    -0.500 OA
ATOM     22  H   UNL     1      35.253   5.788   9.619  1.00  0.00     0.294 HD
ENDBRANCH  10  21
BRANCH   5  23
ATOM     23  O   UNL     1      30.059   1.875   4.509  1.00  0.00    -0.507 OA
ATOM     24  H   UNL     1      30.202   1.778   3.511  1.00  0.00     0.293 HD
ENDBRANCH   5  23
BRANCH   7  25
ATOM     25  O   UNL     1      32.811   5.801   4.761  1.00  0.00    -0.507 OA
ATOM     26  H   UNL     1      33.155   6.634   5.216  1.00  0.00     0.293 HD
ENDBRANCH   7  25
TORSDOF 6
ENDMDL
MODEL 6
REMARK VINA RESULT:    -6.489      1.692      7.101
REMARK INTER + INTRA:          -8.093
REMARK INTER:                  -7.746
REMARK INTRA:                  -0.347
REMARK UNBOUND:                -0.276
REMARK SMILES Oc1cc(O)c2cc(O)c(-c3ccc(O)c(O)c3)[o+]c2c1.[Cl-]
REMARK SMILES IDX 10 1 19 2 20 3 21 4 2 5 3 6 4 7 6 8 7 9 8 10 11 11 12 12
REMARK SMILES IDX 13 13 14 14 18 15 16 16 15 17 17 19 9 21 1 23 5 25
REMARK H PARENT 15 18 17 20 9 22 1 24 5 26
REMARK Flexibility Score: inf
ROOT
ATOM      1  C   UNL     1      33.461   5.195   8.439  1.00  0.00     0.402 A 
ATOM      2  O   UNL     1      33.178   5.585   7.199  1.00  0.00    -0.202 OA
ATOM      3  C   UNL     1      32.351   4.923   6.397  1.00  0.00     0.368 A 
ATOM      4  C   UNL     1      32.120   5.410   5.108  1.00  0.00     0.162 A 
ATOM      5  C   UNL     1      31.256   4.732   4.242  1.00  0.00     0.128 A 
ATOM      6  C   UNL     1      30.624   3.561   4.668  1.00  0.00     0.093 A 
ATOM      7  C   UNL     1      30.838   3.053   5.955  1.00  0.00     0.136 A 
ATOM      8  C   UNL     1      31.712   3.739   6.838  1.00  0.00     0.125 A 
ATOM      9  C   UNL     1      31.978   3.311   8.148  1.00  0.00     0.078 A 
ATOM     10  C   UNL     1      32.847   4.043   8.963  1.00  0.00     0.223 A 
ENDROOT
BRANCH   1  11
ATOM     11  C   UNL     1      34.408   6.014   9.232  1.00  0.00     0.087 A 
ATOM     12  C   UNL     1      33.966   7.100  10.008  1.00  0.00     0.022 A 
ATOM     13  C   UNL     1      34.874   7.842  10.766  1.00  0.00     0.051 A 
ATOM     14  C   UNL     1      36.234   7.503  10.771  1.00  0.00     0.157 A 
ATOM     15  C   UNL     1      35.768   5.665   9.258  1.00  0.00     0.068 A 
ATOM     16  C   UNL     1      36.682   6.407  10.016  1.00  0.00     0.158 A 
BRANCH  14  17
ATOM     17  O   UNL     1      37.138   8.247  11.528  1.00  0.00    -0.504 OA
ATOM     18  H   UNL     1      37.599   9.067  11.151  1.00  0.00     0.293 HD
ENDBRANCH  14  17
BRANCH  16  19
ATOM     19  O   UNL     1      38.026   6.038  10.006  1.00  0.00    -0.504 OA
ATOM     20  H   UNL     1      38.413   5.435   9.291  1.00  0.00     0.293 HD
ENDBRANCH  16  19
ENDBRANCH   1  11
BRANCH  10  21
ATOM     21  O   UNL     1      33.072   3.646  10.281  1.00  0.00    -0.500 OA
ATOM     22  H   UNL     1      32.947   2.684  10.576  1.00  0.00     0.294 HD
ENDBRANCH  10  21
BRANCH   5  23
ATOM     23  O   UNL     1      31.020   5.211   2.956  1.00  0.00    -0.507 OA
ATOM     24  H   UNL     1      31.223   4.651   2.136  1.00  0.00     0.293 HD
ENDBRANCH   5  23
BRANCH   7  25
ATOM     25  O   UNL     1      30.170   1.876   6.302  1.00  0.00    -0.507 OA
ATOM     26  H   UNL     1      29.170   1.799   6.416  1.00  0.00     0.293 HD
ENDBRANCH   7  25
TORSDOF 6
ENDMDL
MODEL 7
REMARK VINA RESULT:    -6.296     17.987     20.375
REMARK INTER + INTRA:          -7.860
REMARK INTER:                  -7.927
REMARK INTRA:                   0.067
REMARK UNBOUND:                -0.276
REMARK SMILES Oc1cc(O)c2cc(O)c(-c3ccc(O)c(O)c3)[o+]c2c1.[Cl-]
REMARK SMILES IDX 10 1 19 2 20 3 21 4 2 5 3 6 4 7 6 8 7 9 8 10 11 11 12 12
REMARK SMILES IDX 13 13 14 14 18 15 16 16 15 17 17 19 9 21 1 23 5 25
REMARK H PARENT 15 18 17 20 9 22 1 24 5 26
REMARK Flexibility Score: inf
ROOT
ATOM      1  C   UNL     1      42.184  20.986  17.005  1.00  0.00     0.402 A 
ATOM      2  O   UNL     1      40.880  21.248  17.033  1.00  0.00    -0.202 OA
ATOM      3  C   UNL     1      40.144  21.403  15.937  1.00  0.00     0.368 A 
ATOM      4  C   UNL     1      38.781  21.679  16.069  1.00  0.00     0.162 A 
ATOM      5  C   UNL     1      37.983  21.849  14.933  1.00  0.00     0.128 A 
ATOM      6  C   UNL     1      38.552  21.744  13.662  1.00  0.00     0.093 A 
ATOM      7  C   UNL     1      39.916  21.467  13.503  1.00  0.00     0.136 A 
ATOM      8  C   UNL     1      40.729  21.292  14.653  1.00  0.00     0.125 A 
ATOM      9  C   UNL     1      42.101  21.000  14.590  1.00  0.00     0.078 A 
ATOM     10  C   UNL     1      42.837  20.834  15.767  1.00  0.00     0.223 A 
ENDROOT
BRANCH   1  11
ATOM     11  C   UNL     1      42.898  20.845  18.295  1.00  0.00     0.087 A 
ATOM     12  C   UNL     1      44.195  21.358  18.474  1.00  0.00     0.022 A 
ATOM     13  C   UNL     1      44.839  21.233  19.707  1.00  0.00     0.051 A 
ATOM     14  C   UNL     1      44.194  20.608  20.783  1.00  0.00     0.157 A 
ATOM     15  C   UNL     1      42.247  20.240  19.382  1.00  0.00     0.068 A 
ATOM     16  C   UNL     1      42.890  20.113  20.619  1.00  0.00     0.158 A 
BRANCH  14  17
ATOM     17  O   UNL     1      44.840  20.485  22.012  1.00  0.00    -0.504 OA
ATOM     18  H   UNL     1      45.410  19.677  22.234  1.00  0.00     0.293 HD
ENDBRANCH  14  17
BRANCH  16  19
ATOM     19  O   UNL     1      42.216  19.493  21.671  1.00  0.00    -0.504 OA
ATOM     20  H   UNL     1      41.743  20.023  22.393  1.00  0.00     0.293 HD
ENDBRANCH  16  19
ENDBRANCH   1  11
BRANCH  10  21
ATOM     21  O   UNL     1      44.189  20.495  15.706  1.00  0.00    -0.500 OA
ATOM     22  H   UNL     1      44.894  21.169  15.431  1.00  0.00     0.294 HD
ENDBRANCH  10  21
BRANCH   5  23
ATOM     23  O   UNL     1      36.623  22.125  15.056  1.00  0.00    -0.507 OA
ATOM     24  H   UNL     1      36.088  22.508  14.285  1.00  0.00     0.293 HD
ENDBRANCH   5  23
BRANCH   7  25
ATOM     25  O   UNL     1      40.408  21.382  12.198  1.00  0.00    -0.507 OA
ATOM     26  H   UNL     1      41.375  21.516  11.942  1.00  0.00     0.293 HD
ENDBRANCH   7  25
TORSDOF 6
ENDMDL
MODEL 8
REMARK VINA RESULT:    -6.264      2.415      6.896
REMARK INTER + INTRA:          -7.822
REMARK INTER:                  -8.197
REMARK INTRA:                   0.375
REMARK UNBOUND:                -0.276
REMARK SMILES Oc1cc(O)c2cc(O)c(-c3ccc(O)c(O)c3)[o+]c2c1.[Cl-]
REMARK SMILES IDX 10 1 19 2 20 3 21 4 2 5 3 6 4 7 6 8 7 9 8 10 11 11 12 12
REMARK SMILES IDX 13 13 14 14 18 15 16 16 15 17 17 19 9 21 1 23 5 25
REMARK H PARENT 15 18 17 20 9 22 1 24 5 26
REMARK Flexibility Score: inf
ROOT
ATOM      1  C   UNL     1      33.742   5.216   9.950  1.00  0.00     0.402 A 
ATOM      2  O   UNL     1      33.006   4.217   9.471  1.00  0.00    -0.202 OA
ATOM      3  C   UNL     1      32.607   4.145   8.205  1.00  0.00     0.368 A 
ATOM      4  C   UNL     1      31.833   3.057   7.797  1.00  0.00     0.162 A 
ATOM      5  C   UNL     1      31.398   2.958   6.472  1.00  0.00     0.128 A 
ATOM      6  C   UNL     1      31.738   3.953   5.553  1.00  0.00     0.093 A 
ATOM      7  C   UNL     1      32.514   5.054   5.936  1.00  0.00     0.136 A 
ATOM      8  C   UNL     1      32.959   5.158   7.280  1.00  0.00     0.125 A 
ATOM      9  C   UNL     1      33.750   6.218   7.751  1.00  0.00     0.078 A 
ATOM     10  C   UNL     1      34.156   6.250   9.089  1.00  0.00     0.223 A 
ENDROOT
BRANCH   1  11
ATOM     11  C   UNL     1      34.114   5.188  11.383  1.00  0.00     0.087 A 
ATOM     12  C   UNL     1      35.118   6.028  11.896  1.00  0.00     0.022 A 
ATOM     13  C   UNL     1      35.436   6.001  13.256  1.00  0.00     0.051 A 
ATOM     14  C   UNL     1      34.748   5.144  14.126  1.00  0.00     0.157 A 
ATOM     15  C   UNL     1      33.413   4.347  12.263  1.00  0.00     0.068 A 
ATOM     16  C   UNL     1      33.729   4.316  13.626  1.00  0.00     0.158 A 
BRANCH  14  17
ATOM     17  O   UNL     1      35.068   5.117  15.482  1.00  0.00    -0.504 OA
ATOM     18  H   UNL     1      34.351   5.075  16.197  1.00  0.00     0.293 HD
ENDBRANCH  14  17
BRANCH  16  19
ATOM     19  O   UNL     1      33.020   3.458  14.466  1.00  0.00    -0.504 OA
ATOM     20  H   UNL     1      33.024   3.566  15.473  1.00  0.00     0.293 HD
ENDBRANCH  16  19
ENDBRANCH   1  11
BRANCH  10  21
ATOM     21  O   UNL     1      34.983   7.276   9.545  1.00  0.00    -0.500 OA
ATOM     22  H   UNL     1      35.986   7.156   9.624  1.00  0.00     0.294 HD
ENDBRANCH  10  21
BRANCH   5  23
ATOM     23  O   UNL     1      30.626   1.875   6.057  1.00  0.00    -0.507 OA
ATOM     24  H   UNL     1      29.906   1.479   6.651  1.00  0.00     0.293 HD
ENDBRANCH   5  23
BRANCH   7  25
ATOM     25  O   UNL     1      32.808   6.007   4.958  1.00  0.00    -0.507 OA
ATOM     26  H   UNL     1      32.780   7.005   5.106  1.00  0.00     0.293 HD
ENDBRANCH   7  25
TORSDOF 6
ENDMDL
MODEL 9
REMARK VINA RESULT:    -6.169      3.424      6.623
REMARK INTER + INTRA:          -7.707
REMARK INTER:                  -7.941
REMARK INTRA:                   0.234
REMARK UNBOUND:                -0.276
REMARK SMILES Oc1cc(O)c2cc(O)c(-c3ccc(O)c(O)c3)[o+]c2c1.[Cl-]
REMARK SMILES IDX 10 1 19 2 20 3 21 4 2 5 3 6 4 7 6 8 7 9 8 10 11 11 12 12
REMARK SMILES IDX 13 13 14 14 18 15 16 16 15 17 17 19 9 21 1 23 5 25
REMARK H PARENT 15 18 17 20 9 22 1 24 5 26
REMARK Flexibility Score: inf
ROOT
ATOM      1  C   UNL     1      33.767   5.687  11.482  1.00  0.00     0.402 A 
ATOM      2  O   UNL     1      33.619   5.162  10.269  1.00  0.00    -0.202 OA
ATOM      3  C   UNL     1      33.585   5.890   9.157  1.00  0.00     0.368 A 
ATOM      4  C   UNL     1      33.421   5.247   7.928  1.00  0.00     0.162 A 
ATOM      5  C   UNL     1      33.379   5.989   6.744  1.00  0.00     0.128 A 
ATOM      6  C   UNL     1      33.498   7.380   6.791  1.00  0.00     0.093 A 
ATOM      7  C   UNL     1      33.663   8.049   8.010  1.00  0.00     0.136 A 
ATOM      8  C   UNL     1      33.709   7.300   9.215  1.00  0.00     0.125 A 
ATOM      9  C   UNL     1      33.883   7.882  10.480  1.00  0.00     0.078 A 
ATOM     10  C   UNL     1      33.924   7.078  11.623  1.00  0.00     0.223 A 
ENDROOT
BRANCH   1  11
ATOM     11  C   UNL     1      33.780   4.770  12.645  1.00  0.00     0.087 A 
ATOM     12  C   UNL     1      33.020   3.587  12.654  1.00  0.00     0.022 A 
ATOM     13  C   UNL     1      33.067   2.726  13.753  1.00  0.00     0.051 A 
ATOM     14  C   UNL     1      33.882   3.026  14.852  1.00  0.00     0.157 A 
ATOM     15  C   UNL     1      34.612   5.055  13.740  1.00  0.00     0.068 A 
ATOM     16  C   UNL     1      34.661   4.195  14.843  1.00  0.00     0.158 A 
BRANCH  14  17
ATOM     17  O   UNL     1      33.926   2.165  15.948  1.00  0.00    -0.504 OA
ATOM     18  H   UNL     1      33.771   2.499  16.892  1.00  0.00     0.293 HD
ENDBRANCH  14  17
BRANCH  16  19
ATOM     19  O   UNL     1      35.489   4.518  15.918  1.00  0.00    -0.504 OA
ATOM     20  H   UNL     1      35.747   5.475  16.129  1.00  0.00     0.293 HD
ENDBRANCH  16  19
ENDBRANCH   1  11
BRANCH  10  21
ATOM     21  O   UNL     1      34.146   7.651  12.875  1.00  0.00    -0.500 OA
ATOM     22  H   UNL     1      33.999   8.640  13.041  1.00  0.00     0.294 HD
ENDBRANCH  10  21
BRANCH   5  23
ATOM     23  O   UNL     1      33.217   5.355   5.514  1.00  0.00    -0.507 OA
ATOM     24  H   UNL     1      33.921   5.420   4.788  1.00  0.00     0.293 HD
ENDBRANCH   5  23
BRANCH   7  25
ATOM     25  O   UNL     1      33.771   9.441   7.972  1.00  0.00    -0.507 OA
ATOM     26  H   UNL     1      34.053   9.970   7.159  1.00  0.00     0.293 HD
ENDBRANCH   7  25
TORSDOF 6
ENDMDL
