MODEL 1
REMARK VINA RESULT:    -7.989      0.000      0.000
REMARK INTER + INTRA:          -9.233
REMARK INTER:                  -9.390
REMARK INTRA:                   0.157
REMARK UNBOUND:                 0.157
REMARK SMILES O=c1c(O)c(-c2ccc(O)cc2)oc2cc(O)cc(O)c12
REMARK SMILES IDX 5 1 3 2 2 3 1 4 21 5 19 6 18 7 16 8 15 9 14 10 13 11 6 12
REMARK SMILES IDX 7 13 8 14 9 15 12 16 11 17 10 18 4 20 20 22 17 24
REMARK H PARENT 10 19 4 21 20 23 17 25
REMARK Flexibility Score: inf
ROOT
ATOM      1  C   UNL     1      17.221  22.619  40.546  1.00  0.00     0.180 A 
ATOM      2  C   UNL     1      16.835  23.602  39.618  1.00  0.00     0.208 A 
ATOM      3  C   UNL     1      15.712  24.397  39.897  1.00  0.00     0.238 A 
ATOM      4  O   UNL     1      15.339  25.238  39.038  1.00  0.00    -0.285 OA
ATOM      5  C   UNL     1      14.999  24.211  41.106  1.00  0.00     0.111 A 
ATOM      6  C   UNL     1      13.871  24.986  41.508  1.00  0.00     0.134 A 
ATOM      7  C   UNL     1      13.164  24.629  42.663  1.00  0.00     0.093 A 
ATOM      8  C   UNL     1      13.581  23.566  43.464  1.00  0.00     0.123 A 
ATOM      9  C   UNL     1      14.719  22.838  43.110  1.00  0.00     0.094 A 
ATOM     10  C   UNL     1      15.423  23.148  41.945  1.00  0.00     0.146 A 
ATOM     11  O   UNL     1      16.493  22.424  41.639  1.00  0.00    -0.452 OA
ENDROOT
BRANCH   1  12
ATOM     12  C   UNL     1      18.408  21.759  40.334  1.00  0.00     0.021 A 
ATOM     13  C   UNL     1      19.593  22.326  39.837  1.00  0.00     0.016 A 
ATOM     14  C   UNL     1      20.719  21.529  39.608  1.00  0.00     0.047 A 
ATOM     15  C   UNL     1      20.668  20.152  39.859  1.00  0.00     0.115 A 
ATOM     16  C   UNL     1      18.359  20.372  40.565  1.00  0.00     0.016 A 
ATOM     17  C   UNL     1      19.486  19.577  40.334  1.00  0.00     0.047 A 
BRANCH  15  18
ATOM     18  O   UNL     1      21.783  19.347  39.635  1.00  0.00    -0.508 OA
ATOM     19  H   UNL     1      22.460  19.165  40.367  1.00  0.00     0.293 HD
ENDBRANCH  15  18
ENDBRANCH   1  12
BRANCH   2  20
ATOM     20  O   UNL     1      17.540  23.754  38.421  1.00  0.00    -0.502 OA
ATOM     21  H   UNL     1      18.130  23.022  38.041  1.00  0.00     0.293 HD
ENDBRANCH   2  20
BRANCH   6  22
ATOM     22  O   UNL     1      13.424  26.125  40.831  1.00  0.00    -0.507 OA
ATOM     23  H   UNL     1      13.264  26.176  39.837  1.00  0.00     0.293 HD
ENDBRANCH   6  22
BRANCH   8  24
ATOM     24  O   UNL     1      12.863  23.248  44.615  1.00  0.00    -0.508 OA
ATOM     25  H   UNL     1      12.092  23.823  44.934  1.00  0.00     0.293 HD
ENDBRANCH   8  24
TORSDOF 5
ENDMDL
MODEL 2
REMARK VINA RESULT:    -7.987      0.060      1.058
REMARK INTER + INTRA:          -9.232
REMARK INTER:                  -9.319
REMARK INTRA:                   0.087
REMARK UNBOUND:                 0.157
REMARK SMILES O=c1c(O)c(-c2ccc(O)cc2)oc2cc(O)cc(O)c12
REMARK SMILES IDX 5 1 3 2 2 3 1 4 21 5 19 6 18 7 16 8 15 9 14 10 13 11 6 12
REMARK SMILES IDX 7 13 8 14 9 15 12 16 11 17 10 18 4 20 20 22 17 24
REMARK H PARENT 10 19 4 21 20 23 17 25
REMARK Flexibility Score: inf
ROOT
ATOM      1  C   UNL     1      17.211  22.646  40.503  1.00  0.00     0.180 A 
ATOM      2  C   UNL     1      16.809  23.649  39.604  1.00  0.00     0.208 A 
ATOM      3  C   UNL     1      15.686  24.432  39.914  1.00  0.00     0.238 A 
ATOM      4  O   UNL     1      15.299  25.292  39.080  1.00  0.00    -0.285 OA
ATOM      5  C   UNL     1      14.988  24.212  41.126  1.00  0.00     0.111 A 
ATOM      6  C   UNL     1      13.860  24.972  41.560  1.00  0.00     0.134 A 
ATOM      7  C   UNL     1      13.168  24.583  42.714  1.00  0.00     0.093 A 
ATOM      8  C   UNL     1      13.599  23.504  43.484  1.00  0.00     0.123 A 
ATOM      9  C   UNL     1      14.736  22.790  43.099  1.00  0.00     0.094 A 
ATOM     10  C   UNL     1      15.426  23.132  41.934  1.00  0.00     0.146 A 
ATOM     11  O   UNL     1      16.496  22.421  41.599  1.00  0.00    -0.452 OA
ENDROOT
BRANCH   1  12
ATOM     12  C   UNL     1      18.399  21.797  40.257  1.00  0.00     0.021 A 
ATOM     13  C   UNL     1      18.339  20.423  40.543  1.00  0.00     0.016 A 
ATOM     14  C   UNL     1      19.457  19.607  40.339  1.00  0.00     0.047 A 
ATOM     15  C   UNL     1      20.652  20.159  39.863  1.00  0.00     0.115 A 
ATOM     16  C   UNL     1      19.610  22.347  39.798  1.00  0.00     0.016 A 
ATOM     17  C   UNL     1      20.726  21.529  39.597  1.00  0.00     0.047 A 
BRANCH  15  18
ATOM     18  O   UNL     1      21.772  19.356  39.656  1.00  0.00    -0.508 OA
ATOM     19  H   UNL     1      22.167  19.226  38.732  1.00  0.00     0.293 HD
ENDBRANCH  15  18
ENDBRANCH   1  12
BRANCH   2  20
ATOM     20  O   UNL     1      17.500  23.834  38.403  1.00  0.00    -0.502 OA
ATOM     21  H   UNL     1      18.327  23.298  38.164  1.00  0.00     0.293 HD
ENDBRANCH   2  20
BRANCH   6  22
ATOM     22  O   UNL     1      13.400  26.125  40.916  1.00  0.00    -0.507 OA
ATOM     23  H   UNL     1      12.477  26.236  40.528  1.00  0.00     0.293 HD
ENDBRANCH   6  22
BRANCH   8  24
ATOM     24  O   UNL     1      12.896  23.154  44.634  1.00  0.00    -0.508 OA
ATOM     25  H   UNL     1      11.900  23.322  44.717  1.00  0.00     0.293 HD
ENDBRANCH   8  24
TORSDOF 5
ENDMDL
MODEL 3
REMARK VINA RESULT:    -7.925      1.225      6.486
REMARK INTER + INTRA:          -9.158
REMARK INTER:                  -9.592
REMARK INTRA:                   0.434
REMARK UNBOUND:                 0.157
REMARK SMILES O=c1c(O)c(-c2ccc(O)cc2)oc2cc(O)cc(O)c12
REMARK SMILES IDX 5 1 3 2 2 3 1 4 21 5 19 6 18 7 16 8 15 9 14 10 13 11 6 12
REMARK SMILES IDX 7 13 8 14 9 15 12 16 11 17 10 18 4 20 20 22 17 24
REMARK H PARENT 10 19 4 21 20 23 17 25
REMARK Flexibility Score: inf
ROOT
ATOM      1  C   UNL     1      16.437  23.279  40.675  1.00  0.00     0.180 A 
ATOM      2  C   UNL     1      16.954  24.141  39.692  1.00  0.00     0.208 A 
ATOM      3  C   UNL     1      18.100  23.752  38.980  1.00  0.00     0.238 A 
ATOM      4  O   UNL     1      18.589  24.551  38.140  1.00  0.00    -0.285 OA
ATOM      5  C   UNL     1      18.704  22.500  39.247  1.00  0.00     0.111 A 
ATOM      6  C   UNL     1      19.845  21.988  38.559  1.00  0.00     0.134 A 
ATOM      7  C   UNL     1      20.437  20.796  38.995  1.00  0.00     0.093 A 
ATOM      8  C   UNL     1      19.894  20.066  40.052  1.00  0.00     0.123 A 
ATOM      9  C   UNL     1      18.744  20.529  40.694  1.00  0.00     0.094 A 
ATOM     10  C   UNL     1      18.151  21.732  40.304  1.00  0.00     0.146 A 
ATOM     11  O   UNL     1      17.065  22.143  40.949  1.00  0.00    -0.452 OA
ENDROOT
BRANCH   1  12
ATOM     12  C   UNL     1      15.219  23.609  41.449  1.00  0.00     0.021 A 
ATOM     13  C   UNL     1      14.295  24.529  40.926  1.00  0.00     0.016 A 
ATOM     14  C   UNL     1      13.148  24.872  41.651  1.00  0.00     0.047 A 
ATOM     15  C   UNL     1      12.921  24.311  42.914  1.00  0.00     0.115 A 
ATOM     16  C   UNL     1      14.993  23.065  42.727  1.00  0.00     0.016 A 
ATOM     17  C   UNL     1      13.847  23.411  43.450  1.00  0.00     0.047 A 
BRANCH  15  18
ATOM     18  O   UNL     1      11.783  24.644  43.645  1.00  0.00    -0.508 OA
ATOM     19  H   UNL     1      10.958  25.026  43.197  1.00  0.00     0.293 HD
ENDBRANCH  15  18
ENDBRANCH   1  12
BRANCH   2  20
ATOM     20  O   UNL     1      16.354  25.382  39.459  1.00  0.00    -0.502 OA
ATOM     21  H   UNL     1      16.823  26.127  38.956  1.00  0.00     0.293 HD
ENDBRANCH   2  20
BRANCH   6  22
ATOM     22  O   UNL     1      20.413  22.590  37.432  1.00  0.00    -0.507 OA
ATOM     23  H   UNL     1      20.192  23.518  37.104  1.00  0.00     0.293 HD
ENDBRANCH   6  22
BRANCH   8  24
ATOM     24  O   UNL     1      20.500  18.876  40.450  1.00  0.00    -0.508 OA
ATOM     25  H   UNL     1      21.027  18.306  39.798  1.00  0.00     0.293 HD
ENDBRANCH   8  24
TORSDOF 5
ENDMDL
MODEL 4
REMARK VINA RESULT:    -7.760      1.207      6.517
REMARK INTER + INTRA:          -8.964
REMARK INTER:                  -9.311
REMARK INTRA:                   0.347
REMARK UNBOUND:                 0.157
REMARK SMILES O=c1c(O)c(-c2ccc(O)cc2)oc2cc(O)cc(O)c12
REMARK SMILES IDX 5 1 3 2 2 3 1 4 21 5 19 6 18 7 16 8 15 9 14 10 13 11 6 12
REMARK SMILES IDX 7 13 8 14 9 15 12 16 11 17 10 18 4 20 20 22 17 24
REMARK H PARENT 10 19 4 21 20 23 17 25
REMARK Flexibility Score: inf
ROOT
ATOM      1  C   UNL     1      16.343  23.274  40.792  1.00  0.00     0.180 A 
ATOM      2  C   UNL     1      16.870  24.097  39.781  1.00  0.00     0.208 A 
ATOM      3  C   UNL     1      18.002  23.665  39.072  1.00  0.00     0.238 A 
ATOM      4  O   UNL     1      18.501  24.430  38.206  1.00  0.00    -0.285 OA
ATOM      5  C   UNL     1      18.582  22.408  39.369  1.00  0.00     0.111 A 
ATOM      6  C   UNL     1      19.706  21.853  38.686  1.00  0.00     0.134 A 
ATOM      7  C   UNL     1      20.277  20.662  39.151  1.00  0.00     0.093 A 
ATOM      8  C   UNL     1      19.727  19.973  40.231  1.00  0.00     0.123 A 
ATOM      9  C   UNL     1      18.592  20.477  40.869  1.00  0.00     0.094 A 
ATOM     10  C   UNL     1      18.022  21.682  40.451  1.00  0.00     0.146 A 
ATOM     11  O   UNL     1      16.950  22.132  41.092  1.00  0.00    -0.452 OA
ENDROOT
BRANCH   1  12
ATOM     12  C   UNL     1      15.138  23.650  41.566  1.00  0.00     0.021 A 
ATOM     13  C   UNL     1      14.911  23.061  42.821  1.00  0.00     0.016 A 
ATOM     14  C   UNL     1      13.768  23.385  43.560  1.00  0.00     0.047 A 
ATOM     15  C   UNL     1      12.831  24.289  43.044  1.00  0.00     0.115 A 
ATOM     16  C   UNL     1      14.182  24.542  41.047  1.00  0.00     0.016 A 
ATOM     17  C   UNL     1      13.040  24.863  41.787  1.00  0.00     0.047 A 
BRANCH  15  18
ATOM     18  O   UNL     1      11.689  24.620  43.771  1.00  0.00    -0.508 OA
ATOM     19  H   UNL     1      11.730  25.247  44.565  1.00  0.00     0.293 HD
ENDBRANCH  15  18
ENDBRANCH   1  12
BRANCH   2  20
ATOM     20  O   UNL     1      16.294  25.343  39.519  1.00  0.00    -0.502 OA
ATOM     21  H   UNL     1      15.644  25.492  38.756  1.00  0.00     0.293 HD
ENDBRANCH   2  20
BRANCH   6  22
ATOM     22  O   UNL     1      20.277  22.413  37.539  1.00  0.00    -0.507 OA
ATOM     23  H   UNL     1      20.095  23.346  37.203  1.00  0.00     0.293 HD
ENDBRANCH   6  22
BRANCH   8  24
ATOM     24  O   UNL     1      20.312  18.782  40.657  1.00  0.00    -0.508 OA
ATOM     25  H   UNL     1      21.311  18.710  40.817  1.00  0.00     0.293 HD
ENDBRANCH   8  24
TORSDOF 5
ENDMDL
MODEL 5
REMARK VINA RESULT:    -7.752      1.176      1.897
REMARK INTER + INTRA:          -8.955
REMARK INTER:                  -8.781
REMARK INTRA:                  -0.174
REMARK UNBOUND:                 0.157
REMARK SMILES O=c1c(O)c(-c2ccc(O)cc2)oc2cc(O)cc(O)c12
REMARK SMILES IDX 5 1 3 2 2 3 1 4 21 5 19 6 18 7 16 8 15 9 14 10 13 11 6 12
REMARK SMILES IDX 7 13 8 14 9 15 12 16 11 17 10 18 4 20 20 22 17 24
REMARK H PARENT 10 19 4 21 20 23 17 25
REMARK Flexibility Score: inf
ROOT
ATOM      1  C   UNL     1      16.077  22.741  41.325  1.00  0.00     0.180 A 
ATOM      2  C   UNL     1      15.479  23.762  40.566  1.00  0.00     0.208 A 
ATOM      3  C   UNL     1      14.424  24.499  41.127  1.00  0.00     0.238 A 
ATOM      4  O   UNL     1      13.857  25.375  40.424  1.00  0.00    -0.285 OA
ATOM      5  C   UNL     1      13.990  24.216  42.445  1.00  0.00     0.111 A 
ATOM      6  C   UNL     1      12.957  24.926  43.127  1.00  0.00     0.134 A 
ATOM      7  C   UNL     1      12.521  24.475  44.380  1.00  0.00     0.093 A 
ATOM      8  C   UNL     1      13.123  23.383  45.003  1.00  0.00     0.123 A 
ATOM      9  C   UNL     1      14.175  22.718  44.369  1.00  0.00     0.094 A 
ATOM     10  C   UNL     1      14.607  23.122  43.104  1.00  0.00     0.146 A 
ATOM     11  O   UNL     1      15.603  22.456  42.532  1.00  0.00    -0.452 OA
ENDROOT
BRANCH   1  12
ATOM     12  C   UNL     1      17.210  21.938  40.811  1.00  0.00     0.021 A 
ATOM     13  C   UNL     1      17.050  20.554  40.626  1.00  0.00     0.016 A 
ATOM     14  C   UNL     1      18.114  19.773  40.163  1.00  0.00     0.047 A 
ATOM     15  C   UNL     1      19.355  20.364  39.895  1.00  0.00     0.115 A 
ATOM     16  C   UNL     1      18.465  22.520  40.558  1.00  0.00     0.016 A 
ATOM     17  C   UNL     1      19.527  21.737  40.097  1.00  0.00     0.047 A 
BRANCH  15  18
ATOM     18  O   UNL     1      20.422  19.596  39.433  1.00  0.00    -0.508 OA
ATOM     19  H   UNL     1      20.943  19.858  38.604  1.00  0.00     0.293 HD
ENDBRANCH  15  18
ENDBRANCH   1  12
BRANCH   2  20
ATOM     20  O   UNL     1      15.909  24.010  39.260  1.00  0.00    -0.502 OA
ATOM     21  H   UNL     1      16.315  24.895  38.979  1.00  0.00     0.293 HD
ENDBRANCH   2  20
BRANCH   6  22
ATOM     22  O   UNL     1      12.350  26.085  42.636  1.00  0.00    -0.507 OA
ATOM     23  H   UNL     1      11.729  26.116  41.842  1.00  0.00     0.293 HD
ENDBRANCH   6  22
BRANCH   8  24
ATOM     24  O   UNL     1      12.674  22.972  46.256  1.00  0.00    -0.508 OA
ATOM     25  H   UNL     1      12.636  23.612  47.041  1.00  0.00     0.293 HD
ENDBRANCH   8  24
TORSDOF 5
ENDMDL
MODEL 6
REMARK VINA RESULT:    -7.451      1.744      6.966
REMARK INTER + INTRA:          -8.602
REMARK INTER:                  -8.385
REMARK INTRA:                  -0.217
REMARK UNBOUND:                 0.157
REMARK SMILES O=c1c(O)c(-c2ccc(O)cc2)oc2cc(O)cc(O)c12
REMARK SMILES IDX 5 1 3 2 2 3 1 4 21 5 19 6 18 7 16 8 15 9 14 10 13 11 6 12
REMARK SMILES IDX 7 13 8 14 9 15 12 16 11 17 10 18 4 20 20 22 17 24
REMARK H PARENT 10 19 4 21 20 23 17 25
REMARK Flexibility Score: inf
ROOT
ATOM      1  C   UNL     1      16.970  22.287  40.941  1.00  0.00     0.180 A 
ATOM      2  C   UNL     1      17.046  20.916  40.638  1.00  0.00     0.208 A 
ATOM      3  C   UNL     1      18.243  20.399  40.118  1.00  0.00     0.238 A 
ATOM      4  O   UNL     1      18.288  19.182  39.799  1.00  0.00    -0.285 OA
ATOM      5  C   UNL     1      19.354  21.255  39.921  1.00  0.00     0.111 A 
ATOM      6  C   UNL     1      20.628  20.831  39.437  1.00  0.00     0.134 A 
ATOM      7  C   UNL     1      21.613  21.786  39.158  1.00  0.00     0.093 A 
ATOM      8  C   UNL     1      21.395  23.141  39.405  1.00  0.00     0.123 A 
ATOM      9  C   UNL     1      20.172  23.560  39.934  1.00  0.00     0.094 A 
ATOM     10  C   UNL     1      19.158  22.634  40.190  1.00  0.00     0.146 A 
ATOM     11  O   UNL     1      18.006  23.075  40.683  1.00  0.00    -0.452 OA
ENDROOT
BRANCH   1  12
ATOM     12  C   UNL     1      15.751  22.901  41.515  1.00  0.00     0.021 A 
ATOM     13  C   UNL     1      15.000  23.801  40.742  1.00  0.00     0.016 A 
ATOM     14  C   UNL     1      13.857  24.409  41.272  1.00  0.00     0.047 A 
ATOM     15  C   UNL     1      13.462  24.136  42.588  1.00  0.00     0.115 A 
ATOM     16  C   UNL     1      15.359  22.647  42.842  1.00  0.00     0.016 A 
ATOM     17  C   UNL     1      14.217  23.258  43.370  1.00  0.00     0.047 A 
BRANCH  15  18
ATOM     18  O   UNL     1      12.326  24.736  43.127  1.00  0.00    -0.508 OA
ATOM     19  H   UNL     1      12.048  24.576  44.088  1.00  0.00     0.293 HD
ENDBRANCH  15  18
ENDBRANCH   1  12
BRANCH   2  20
ATOM     20  O   UNL     1      15.931  20.094  40.820  1.00  0.00    -0.502 OA
ATOM     21  H   UNL     1      14.991  20.394  40.590  1.00  0.00     0.293 HD
ENDBRANCH   2  20
BRANCH   6  22
ATOM     22  O   UNL     1      20.983  19.493  39.243  1.00  0.00    -0.507 OA
ATOM     23  H   UNL     1      20.333  18.722  39.227  1.00  0.00     0.293 HD
ENDBRANCH   6  22
BRANCH   8  24
ATOM     24  O   UNL     1      22.403  24.062  39.130  1.00  0.00    -0.508 OA
ATOM     25  H   UNL     1      22.191  24.994  38.793  1.00  0.00     0.293 HD
ENDBRANCH   8  24
TORSDOF 5
ENDMDL
MODEL 7
REMARK VINA RESULT:    -6.314      1.930      6.790
REMARK INTER + INTRA:          -7.265
REMARK INTER:                  -7.445
REMARK INTRA:                   0.180
REMARK UNBOUND:                 0.157
REMARK SMILES O=c1c(O)c(-c2ccc(O)cc2)oc2cc(O)cc(O)c12
REMARK SMILES IDX 5 1 3 2 2 3 1 4 21 5 19 6 18 7 16 8 15 9 14 10 13 11 6 12
REMARK SMILES IDX 7 13 8 14 9 15 12 16 11 17 10 18 4 20 20 22 17 24
REMARK H PARENT 10 19 4 21 20 23 17 25
REMARK Flexibility Score: inf
ROOT
ATOM      1  C   UNL     1      16.543  23.120  40.689  1.00  0.00     0.180 A 
ATOM      2  C   UNL     1      17.184  21.870  40.646  1.00  0.00     0.208 A 
ATOM      3  C   UNL     1      18.311  21.711  39.825  1.00  0.00     0.238 A 
ATOM      4  O   UNL     1      18.848  20.575  39.749  1.00  0.00    -0.285 OA
ATOM      5  C   UNL     1      18.793  22.807  39.070  1.00  0.00     0.111 A 
ATOM      6  C   UNL     1      19.950  22.770  38.235  1.00  0.00     0.134 A 
ATOM      7  C   UNL     1      20.259  23.875  37.432  1.00  0.00     0.093 A 
ATOM      8  C   UNL     1      19.492  25.038  37.482  1.00  0.00     0.123 A 
ATOM      9  C   UNL     1      18.392  25.106  38.339  1.00  0.00     0.094 A 
ATOM     10  C   UNL     1      18.039  24.007  39.125  1.00  0.00     0.146 A 
ATOM     11  O   UNL     1      16.979  24.109  39.919  1.00  0.00    -0.452 OA
ENDROOT
BRANCH   1  12
ATOM     12  C   UNL     1      15.364  23.372  41.550  1.00  0.00     0.021 A 
ATOM     13  C   UNL     1      14.355  24.241  41.103  1.00  0.00     0.016 A 
ATOM     14  C   UNL     1      13.244  24.510  41.909  1.00  0.00     0.047 A 
ATOM     15  C   UNL     1      13.138  23.927  43.177  1.00  0.00     0.115 A 
ATOM     16  C   UNL     1      15.259  22.806  42.833  1.00  0.00     0.016 A 
ATOM     17  C   UNL     1      14.148  23.078  43.637  1.00  0.00     0.047 A 
BRANCH  15  18
ATOM     18  O   UNL     1      12.035  24.187  43.989  1.00  0.00    -0.508 OA
ATOM     19  H   UNL     1      12.070  24.045  44.992  1.00  0.00     0.293 HD
ENDBRANCH  15  18
ENDBRANCH   1  12
BRANCH   2  20
ATOM     20  O   UNL     1      16.679  20.796  41.384  1.00  0.00    -0.502 OA
ATOM     21  H   UNL     1      17.119  20.465  42.235  1.00  0.00     0.293 HD
ENDBRANCH   2  20
BRANCH   6  22
ATOM     22  O   UNL     1      20.838  21.691  38.179  1.00  0.00    -0.507 OA
ATOM     23  H   UNL     1      20.950  21.001  38.906  1.00  0.00     0.293 HD
ENDBRANCH   6  22
BRANCH   8  24
ATOM     24  O   UNL     1      19.837  26.125  36.681  1.00  0.00    -0.508 OA
ATOM     25  H   UNL     1      19.825  27.073  37.040  1.00  0.00     0.293 HD
ENDBRANCH   8  24
TORSDOF 5
ENDMDL
MODEL 8
REMARK VINA RESULT:    -5.773      1.848      7.424
REMARK INTER + INTRA:          -6.629
REMARK INTER:                  -7.104
REMARK INTRA:                   0.475
REMARK UNBOUND:                 0.157
REMARK SMILES O=c1c(O)c(-c2ccc(O)cc2)oc2cc(O)cc(O)c12
REMARK SMILES IDX 5 1 3 2 2 3 1 4 21 5 19 6 18 7 16 8 15 9 14 10 13 11 6 12
REMARK SMILES IDX 7 13 8 14 9 15 12 16 11 17 10 18 4 20 20 22 17 24
REMARK H PARENT 10 19 4 21 20 23 17 25
REMARK Flexibility Score: inf
ROOT
ATOM      1  C   UNL     1      17.981  22.260  39.888  1.00  0.00     0.180 A 
ATOM      2  C   UNL     1      17.970  21.061  40.622  1.00  0.00     0.208 A 
ATOM      3  C   UNL     1      19.063  20.186  40.513  1.00  0.00     0.238 A 
ATOM      4  O   UNL     1      19.022  19.090  41.131  1.00  0.00    -0.285 OA
ATOM      5  C   UNL     1      20.159  20.528  39.686  1.00  0.00     0.111 A 
ATOM      6  C   UNL     1      21.336  19.735  39.533  1.00  0.00     0.134 A 
ATOM      7  C   UNL     1      22.300  20.106  38.587  1.00  0.00     0.093 A 
ATOM      8  C   UNL     1      22.162  21.273  37.837  1.00  0.00     0.123 A 
ATOM      9  C   UNL     1      21.043  22.087  38.022  1.00  0.00     0.094 A 
ATOM     10  C   UNL     1      20.047  21.724  38.932  1.00  0.00     0.146 A 
ATOM     11  O   UNL     1      18.993  22.520  39.070  1.00  0.00    -0.452 OA
ENDROOT
BRANCH   1  12
ATOM     12  C   UNL     1      16.878  23.244  39.970  1.00  0.00     0.021 A 
ATOM     13  C   UNL     1      16.890  24.369  39.128  1.00  0.00     0.016 A 
ATOM     14  C   UNL     1      15.870  25.322  39.204  1.00  0.00     0.047 A 
ATOM     15  C   UNL     1      14.834  25.170  40.134  1.00  0.00     0.115 A 
ATOM     16  C   UNL     1      15.844  23.109  40.914  1.00  0.00     0.016 A 
ATOM     17  C   UNL     1      14.826  24.064  40.989  1.00  0.00     0.047 A 
BRANCH  15  18
ATOM     18  O   UNL     1      13.811  26.113  40.218  1.00  0.00    -0.508 OA
ATOM     19  H   UNL     1      12.865  25.848  40.466  1.00  0.00     0.293 HD
ENDBRANCH  15  18
ENDBRANCH   1  12
BRANCH   2  20
ATOM     20  O   UNL     1      16.868  20.734  41.416  1.00  0.00    -0.502 OA
ATOM     21  H   UNL     1      16.428  21.403  42.038  1.00  0.00     0.293 HD
ENDBRANCH   2  20
BRANCH   6  22
ATOM     22  O   UNL     1      21.617  18.598  40.297  1.00  0.00    -0.507 OA
ATOM     23  H   UNL     1      22.449  18.472  40.853  1.00  0.00     0.293 HD
ENDBRANCH   6  22
BRANCH   8  24
ATOM     24  O   UNL     1      23.149  21.620  36.916  1.00  0.00    -0.508 OA
ATOM     25  H   UNL     1      22.914  21.920  35.977  1.00  0.00     0.293 HD
ENDBRANCH   8  24
TORSDOF 5
ENDMDL
