MODEL 1
REMARK VINA RESULT:    85.438      0.000      0.000
REMARK INTER + INTRA:         135.079
REMARK INTER:                 135.385
REMARK INTRA:                  -0.306
REMARK UNBOUND:                -0.306
REMARK SMILES C[C@@H]1O[C@H](O[C@@H]2[C@H](Oc3cc(O)c4c(c3)O[C@H](c3ccc(O)cc3)CC4=O)O[C@@H](CO)[C@H](O)[C@@H]2O)[C@H](O)[C@@H](O)[C@@H]1O
REMARK SMILES IDX 6 1 34 2 32 3 29 4 28 5 7 6 5 7 4 8 1 9 2 10 40 11 3 12
REMARK SMILES IDX 38 13 36 14 41 15 39 17 37 19 35 21 8 23 9 24 10 25 15 26
REMARK SMILES IDX 11 27 14 28 13 29 16 30 26 31 17 32 27 33 25 34 12 35 18 37
REMARK SMILES IDX 19 38 24 39 20 40 23 41 21 42 22 43 33 45 30 47 31 48
REMARK H PARENT 41 16 39 18 37 20 35 22 12 36 22 44 33 46 31 49
REMARK Flexibility Score: inf
ROOT
ATOM      1  C   UNL     1     -16.918  11.112  -8.801  1.00  0.00     0.221 C 
ATOM      2  C   UNL     1     -18.251  11.351  -8.086  1.00  0.00     0.181 C 
ATOM      3  C   UNL     1     -18.037  11.402  -6.547  1.00  0.00     0.177 C 
ATOM      4  C   UNL     1     -16.772  10.599  -6.081  1.00  0.00     0.179 C 
ATOM      5  O   UNL     1     -16.556   9.482  -6.916  1.00  0.00    -0.332 OA
ATOM      6  C   UNL     1     -16.209   9.827  -8.254  1.00  0.00     0.339 C 
ENDROOT
BRANCH   1   7
ATOM      7  O   UNL     1     -17.138  11.029 -10.212  1.00  0.00    -0.337 OA
BRANCH   7   8
ATOM      8  C   UNL     1     -16.670  12.191 -10.889  1.00  0.00     0.282 C 
ATOM      9  C   UNL     1     -17.837  13.684 -13.908  1.00  0.00     0.041 C 
ATOM     10  C   UNL     1     -16.668  13.233 -13.026  1.00  0.00     0.150 C 
ATOM     11  C   UNL     1     -16.027  14.429 -12.243  1.00  0.00     0.174 C 
ATOM     12  O   UNL     1     -17.130  12.143 -12.225  1.00  0.00    -0.344 OA
ATOM     13  C   UNL     1     -16.789  14.746 -10.934  1.00  0.00     0.179 C 
ATOM     14  C   UNL     1     -17.224  13.450 -10.184  1.00  0.00     0.202 C 
BRANCH  11  15
ATOM     15  O   UNL     1     -15.962  15.579 -13.050  1.00  0.00    -0.388 OA
ATOM     16  H   UNL     1     -15.222  16.149 -12.708  1.00  0.00     0.211 HD
ENDBRANCH  11  15
BRANCH  13  17
ATOM     17  O   UNL     1     -15.960  15.518 -10.106  1.00  0.00    -0.387 OA
ATOM     18  H   UNL     1     -15.045  15.151 -10.220  1.00  0.00     0.211 HD
ENDBRANCH  13  17
BRANCH  14  19
ATOM     19  O   UNL     1     -18.625  13.355 -10.118  1.00  0.00    -0.385 OA
ATOM     20  H   UNL     1     -18.864  13.161  -9.176  1.00  0.00     0.211 HD
ENDBRANCH  14  19
ENDBRANCH   7   8
ENDBRANCH   1   7
BRANCH   2  21
ATOM     21  O   UNL     1     -19.228  10.387  -8.454  1.00  0.00    -0.387 OA
ATOM     22  H   UNL     1     -19.196   9.652  -7.792  1.00  0.00     0.211 HD
ENDBRANCH   2  21
BRANCH   6  23
ATOM     23  O   UNL     1     -16.558   8.731  -9.110  1.00  0.00    -0.462 OA
BRANCH  23  24
ATOM     24  C   UNL     1     -15.835   7.543  -9.261  1.00  0.00     0.130 A 
ATOM     25  C   UNL     1     -16.305   6.301  -8.774  1.00  0.00     0.093 A 
ATOM     26  C   UNL     1     -14.596   7.609  -9.911  1.00  0.00     0.094 A 
ATOM     27  C   UNL     1     -15.517   5.152  -8.920  1.00  0.00     0.133 A 
ATOM     28  C   UNL     1     -13.791   6.467 -10.018  1.00  0.00     0.138 A 
ATOM     29  C   UNL     1     -14.248   5.231  -9.540  1.00  0.00     0.102 A 
ATOM     30  O   UNL     1     -12.527   6.560 -10.609  1.00  0.00    -0.484 OA
ATOM     31  C   UNL     1     -13.375   4.054  -9.739  1.00  0.00     0.174 C 
ATOM     32  C   UNL     1     -11.460   5.676 -10.247  1.00  0.00     0.211 C 
ATOM     33  O   UNL     1     -13.857   2.888  -9.649  1.00  0.00    -0.294 OA
ATOM     34  C   UNL     1     -11.925   4.204 -10.153  1.00  0.00     0.131 C 
BRANCH  27  35
ATOM     35  O   UNL     1     -15.998   3.930  -8.433  1.00  0.00    -0.507 OA
ATOM     36  H   UNL     1     -16.408   3.836  -7.505  1.00  0.00     0.293 HD
ENDBRANCH  27  35
BRANCH  32  37
ATOM     37  C   UNL     1     -10.331   5.827 -11.240  1.00  0.00    -0.007 A 
ATOM     38  C   UNL     1      -9.983   7.095 -11.742  1.00  0.00     0.011 A 
ATOM     39  C   UNL     1      -9.567   4.705 -11.615  1.00  0.00     0.011 A 
ATOM     40  C   UNL     1      -8.904   7.228 -12.628  1.00  0.00     0.046 A 
ATOM     41  C   UNL     1      -8.509   4.840 -12.518  1.00  0.00     0.046 A 
ATOM     42  C   UNL     1      -8.162   6.104 -13.023  1.00  0.00     0.115 A 
BRANCH  42  43
ATOM     43  O   UNL     1      -7.095   6.245 -13.913  1.00  0.00    -0.508 OA
ATOM     44  H   UNL     1      -6.985   7.070 -14.479  1.00  0.00     0.293 HD
ENDBRANCH  42  43
ENDBRANCH  32  37
ENDBRANCH  23  24
ENDBRANCH   6  23
BRANCH   3  45
ATOM     45  O   UNL     1     -19.198  10.964  -5.876  1.00  0.00    -0.387 OA
ATOM     46  H   UNL     1     -18.918  10.477  -5.064  1.00  0.00     0.211 HD
ENDBRANCH   3  45
BRANCH   4  47
ATOM     47  C   UNL     1     -15.490  11.438  -5.875  1.00  0.00     0.191 C 
BRANCH  47  48
ATOM     48  O   UNL     1     -14.347  10.620  -5.875  1.00  0.00    -0.394 OA
ATOM     49  H   UNL     1     -14.620   9.714  -6.176  1.00  0.00     0.210 HD
ENDBRANCH  47  48
ENDBRANCH   4  47
TORSDOF 14
ENDMDL
MODEL 2
REMARK VINA RESULT:    85.882      2.484      8.479
REMARK INTER + INTRA:         135.783
REMARK INTER:                 132.886
REMARK INTRA:                   2.897
REMARK UNBOUND:                -0.306
REMARK SMILES C[C@@H]1O[C@H](O[C@@H]2[C@H](Oc3cc(O)c4c(c3)O[C@H](c3ccc(O)cc3)CC4=O)O[C@@H](CO)[C@H](O)[C@@H]2O)[C@H](O)[C@@H](O)[C@@H]1O
REMARK SMILES IDX 6 1 34 2 32 3 29 4 28 5 7 6 5 7 4 8 1 9 2 10 40 11 3 12
REMARK SMILES IDX 38 13 36 14 41 15 39 17 37 19 35 21 8 23 9 24 10 25 15 26
REMARK SMILES IDX 11 27 14 28 13 29 16 30 26 31 17 32 27 33 25 34 12 35 18 37
REMARK SMILES IDX 19 38 24 39 20 40 23 41 21 42 22 43 33 45 30 47 31 48
REMARK H PARENT 41 16 39 18 37 20 35 22 12 36 22 44 33 46 31 49
REMARK Flexibility Score: inf
ROOT
ATOM      1  C   UNL     1     -15.072   5.900 -10.008  1.00  0.00     0.221 C 
ATOM      2  C   UNL     1     -14.423   6.060 -11.386  1.00  0.00     0.181 C 
ATOM      3  C   UNL     1     -13.384   4.930 -11.629  1.00  0.00     0.177 C 
ATOM      4  C   UNL     1     -12.791   4.351 -10.297  1.00  0.00     0.179 C 
ATOM      5  O   UNL     1     -12.715   5.355  -9.308  1.00  0.00    -0.332 OA
ATOM      6  C   UNL     1     -13.987   5.834  -8.881  1.00  0.00     0.339 C 
ENDROOT
BRANCH   1   7
ATOM      7  O   UNL     1     -15.996   6.969  -9.785  1.00  0.00    -0.337 OA
BRANCH   7   8
ATOM      8  C   UNL     1     -17.342   6.556  -9.999  1.00  0.00     0.282 C 
ATOM      9  C   UNL     1     -18.671   4.324 -12.439  1.00  0.00     0.041 C 
ATOM     10  C   UNL     1     -18.771   5.641 -11.663  1.00  0.00     0.150 C 
ATOM     11  C   UNL     1     -19.793   5.549 -10.479  1.00  0.00     0.174 C 
ATOM     12  O   UNL     1     -17.444   6.033 -11.309  1.00  0.00    -0.344 OA
ATOM     13  C   UNL     1     -19.159   4.940  -9.206  1.00  0.00     0.179 C 
ATOM     14  C   UNL     1     -17.712   5.469  -8.965  1.00  0.00     0.202 C 
BRANCH  11  15
ATOM     15  O   UNL     1     -20.927   4.805 -10.853  1.00  0.00    -0.388 OA
ATOM     16  H   UNL     1     -20.617   3.908 -11.150  1.00  0.00     0.211 HD
ENDBRANCH  11  15
BRANCH  13  17
ATOM     17  O   UNL     1     -19.969   5.254  -8.104  1.00  0.00    -0.387 OA
ATOM     18  H   UNL     1     -20.849   5.515  -8.481  1.00  0.00     0.211 HD
ENDBRANCH  13  17
BRANCH  14  19
ATOM     19  O   UNL     1     -16.775   4.423  -9.049  1.00  0.00    -0.385 OA
ATOM     20  H   UNL     1     -16.056   4.618  -8.397  1.00  0.00     0.211 HD
ENDBRANCH  14  19
ENDBRANCH   7   8
ENDBRANCH   1   7
BRANCH   2  21
ATOM     21  O   UNL     1     -13.853   7.350 -11.554  1.00  0.00    -0.387 OA
ATOM     22  H   UNL     1     -14.524   7.925 -12.001  1.00  0.00     0.211 HD
ENDBRANCH   2  21
BRANCH   6  23
ATOM     23  O   UNL     1     -13.819   7.156  -8.351  1.00  0.00    -0.462 OA
BRANCH  23  24
ATOM     24  C   UNL     1     -14.833   8.099  -8.152  1.00  0.00     0.130 A 
ATOM     25  C   UNL     1     -15.745   8.016  -7.074  1.00  0.00     0.093 A 
ATOM     26  C   UNL     1     -14.940   9.148  -9.073  1.00  0.00     0.094 A 
ATOM     27  C   UNL     1     -16.765   8.968  -6.951  1.00  0.00     0.133 A 
ATOM     28  C   UNL     1     -15.987  10.074  -8.972  1.00  0.00     0.138 A 
ATOM     29  C   UNL     1     -16.895  10.003  -7.906  1.00  0.00     0.102 A 
ATOM     30  O   UNL     1     -16.123  11.078  -9.936  1.00  0.00    -0.484 OA
ATOM     31  C   UNL     1     -17.938  11.047  -7.825  1.00  0.00     0.174 C 
ATOM     32  C   UNL     1     -17.397  11.648 -10.254  1.00  0.00     0.211 C 
ATOM     33  O   UNL     1     -18.556  11.241  -6.738  1.00  0.00    -0.294 OA
ATOM     34  C   UNL     1     -18.226  11.973  -8.990  1.00  0.00     0.131 C 
BRANCH  27  35
ATOM     35  O   UNL     1     -17.660   8.873  -5.877  1.00  0.00    -0.507 OA
ATOM     36  H   UNL     1     -18.567   9.337  -5.880  1.00  0.00     0.293 HD
ENDBRANCH  27  35
BRANCH  32  37
ATOM     37  C   UNL     1     -17.192  12.882 -11.102  1.00  0.00    -0.007 A 
ATOM     38  C   UNL     1     -17.077  14.151 -10.506  1.00  0.00     0.011 A 
ATOM     39  C   UNL     1     -17.038  12.761 -12.497  1.00  0.00     0.011 A 
ATOM     40  C   UNL     1     -16.842  15.282 -11.300  1.00  0.00     0.046 A 
ATOM     41  C   UNL     1     -16.829  13.896 -13.287  1.00  0.00     0.046 A 
ATOM     42  C   UNL     1     -16.718  15.163 -12.692  1.00  0.00     0.115 A 
BRANCH  42  43
ATOM     43  O   UNL     1     -16.492  16.297 -13.477  1.00  0.00    -0.508 OA
ATOM     44  H   UNL     1     -17.199  16.659 -14.097  1.00  0.00     0.293 HD
ENDBRANCH  42  43
ENDBRANCH  32  37
ENDBRANCH  23  24
ENDBRANCH   6  23
BRANCH   3  45
ATOM     45  O   UNL     1     -12.362   5.380 -12.491  1.00  0.00    -0.387 OA
ATOM     46  H   UNL     1     -12.441   6.361 -12.576  1.00  0.00     0.211 HD
ENDBRANCH   3  45
BRANCH   4  47
ATOM     47  C   UNL     1     -13.464   3.060  -9.776  1.00  0.00     0.191 C 
BRANCH  47  48
ATOM     48  O   UNL     1     -13.622   3.102  -8.379  1.00  0.00    -0.394 OA
ATOM     49  H   UNL     1     -14.559   3.370  -8.187  1.00  0.00     0.210 HD
ENDBRANCH  47  48
ENDBRANCH   4  47
TORSDOF 14
ENDMDL
