MODEL 1
REMARK VINA RESULT:    -3.834      0.000      0.000
REMARK INTER + INTRA:          -4.075
REMARK INTER:                  -4.059
REMARK INTRA:                  -0.017
REMARK UNBOUND:                -0.017
REMARK SMILES O=C([O-])c1cccnc1
REMARK SMILES IDX 4 1 5 2 9 3 6 4 8 5 7 6 2 7 1 8 3 9
REMARK H PARENT
REMARK Flexibility Score: inf
ROOT
ATOM      1  C   UNL     1      28.610  -2.459  45.788  1.00  0.00     0.016 A 
ATOM      2  C   UNL     1      29.880  -2.276  46.358  1.00  0.00     0.013 A 
ATOM      3  C   UNL     1      28.447  -2.193  44.417  1.00  0.00     0.120 A 
ATOM      4  C   UNL     1      30.946  -1.839  45.569  1.00  0.00     0.021 A 
ATOM      5  N   UNL     1      29.503  -1.768  43.671  1.00  0.00    -0.264 NA
ATOM      6  C   UNL     1      30.736  -1.588  44.214  1.00  0.00     0.111 A 
ENDROOT
BRANCH   1   7
ATOM      7  C   UNL     1      27.473  -2.922  46.613  1.00  0.00     0.073 C 
ATOM      8  O   UNL     1      26.502  -2.156  46.854  1.00  0.00    -0.545 OA
ATOM      9  O   UNL     1      27.460  -4.211  47.135  1.00  0.00    -0.545 OA
ENDBRANCH   1   7
TORSDOF 1
ENDMDL
MODEL 2
REMARK VINA RESULT:    -3.593      3.034      3.922
REMARK INTER + INTRA:          -3.820
REMARK INTER:                  -3.803
REMARK INTRA:                  -0.017
REMARK UNBOUND:                -0.017
REMARK SMILES O=C([O-])c1cccnc1
REMARK SMILES IDX 4 1 5 2 9 3 6 4 8 5 7 6 2 7 1 8 3 9
REMARK H PARENT
REMARK Flexibility Score: inf
ROOT
ATOM      1  C   UNL     1      29.189  -2.066  44.837  1.00  0.00     0.016 A 
ATOM      2  C   UNL     1      28.231  -1.177  45.349  1.00  0.00     0.013 A 
ATOM      3  C   UNL     1      29.185  -3.394  45.301  1.00  0.00     0.120 A 
ATOM      4  C   UNL     1      27.304  -1.614  46.297  1.00  0.00     0.021 A 
ATOM      5  N   UNL     1      28.270  -3.794  46.225  1.00  0.00    -0.264 NA
ATOM      6  C   UNL     1      27.340  -2.940  46.728  1.00  0.00     0.111 A 
ENDROOT
BRANCH   1   7
ATOM      7  C   UNL     1      30.176  -1.615  43.832  1.00  0.00     0.073 C 
ATOM      8  O   UNL     1      31.402  -1.562  44.117  1.00  0.00    -0.545 OA
ATOM      9  O   UNL     1      29.763  -1.243  42.557  1.00  0.00    -0.545 OA
ENDBRANCH   1   7
TORSDOF 1
ENDMDL
MODEL 3
REMARK VINA RESULT:    -3.556      3.018      3.833
REMARK INTER + INTRA:          -3.781
REMARK INTER:                  -3.763
REMARK INTRA:                  -0.017
REMARK UNBOUND:                -0.017
REMARK SMILES O=C([O-])c1cccnc1
REMARK SMILES IDX 4 1 5 2 9 3 6 4 8 5 7 6 2 7 1 8 3 9
REMARK H PARENT
REMARK Flexibility Score: inf
ROOT
ATOM      1  C   UNL     1      29.178  -2.099  44.837  1.00  0.00     0.016 A 
ATOM      2  C   UNL     1      29.202  -3.420  45.312  1.00  0.00     0.013 A 
ATOM      3  C   UNL     1      28.195  -1.226  45.338  1.00  0.00     0.120 A 
ATOM      4  C   UNL     1      28.267  -3.842  46.258  1.00  0.00     0.021 A 
ATOM      5  N   UNL     1      27.296  -1.663  46.261  1.00  0.00    -0.264 NA
ATOM      6  C   UNL     1      27.311  -2.940  46.726  1.00  0.00     0.111 A 
ENDROOT
BRANCH   1   7
ATOM      7  C   UNL     1      30.164  -1.639  43.835  1.00  0.00     0.073 C 
ATOM      8  O   UNL     1      31.386  -1.558  44.128  1.00  0.00    -0.545 OA
ATOM      9  O   UNL     1      29.753  -1.291  42.553  1.00  0.00    -0.545 OA
ENDBRANCH   1   7
TORSDOF 1
ENDMDL
MODEL 4
REMARK VINA RESULT:    -3.540     11.781     13.030
REMARK INTER + INTRA:          -3.764
REMARK INTER:                  -3.740
REMARK INTRA:                  -0.023
REMARK UNBOUND:                -0.017
REMARK SMILES O=C([O-])c1cccnc1
REMARK SMILES IDX 4 1 5 2 9 3 6 4 8 5 7 6 2 7 1 8 3 9
REMARK H PARENT
REMARK Flexibility Score: inf
ROOT
ATOM      1  C   UNL     1      21.248 -12.030  45.623  1.00  0.00     0.016 A 
ATOM      2  C   UNL     1      20.488 -11.125  46.381  1.00  0.00     0.013 A 
ATOM      3  C   UNL     1      20.999 -13.406  45.778  1.00  0.00     0.120 A 
ATOM      4  C   UNL     1      19.513 -11.593  47.262  1.00  0.00     0.021 A 
ATOM      5  N   UNL     1      20.042 -13.836  46.644  1.00  0.00    -0.264 NA
ATOM      6  C   UNL     1      19.302 -12.967  47.382  1.00  0.00     0.111 A 
ENDROOT
BRANCH   1   7
ATOM      7  C   UNL     1      22.285 -11.546  44.686  1.00  0.00     0.073 C 
ATOM      8  O   UNL     1      22.294 -10.346  44.305  1.00  0.00    -0.545 OA
ATOM      9  O   UNL     1      23.265 -12.411  44.212  1.00  0.00    -0.545 OA
ENDBRANCH   1   7
TORSDOF 1
ENDMDL
MODEL 5
REMARK VINA RESULT:    -3.486      2.739      3.465
REMARK INTER + INTRA:          -3.707
REMARK INTER:                  -3.689
REMARK INTRA:                  -0.018
REMARK UNBOUND:                -0.017
REMARK SMILES O=C([O-])c1cccnc1
REMARK SMILES IDX 4 1 5 2 9 3 6 4 8 5 7 6 2 7 1 8 3 9
REMARK H PARENT
REMARK Flexibility Score: inf
ROOT
ATOM      1  C   UNL     1      29.047  -1.739  43.803  1.00  0.00     0.016 A 
ATOM      2  C   UNL     1      28.327  -2.188  44.921  1.00  0.00     0.013 A 
ATOM      3  C   UNL     1      30.429  -1.516  43.943  1.00  0.00     0.120 A 
ATOM      4  C   UNL     1      28.979  -2.403  46.136  1.00  0.00     0.021 A 
ATOM      5  N   UNL     1      31.040  -1.733  45.139  1.00  0.00    -0.264 NA
ATOM      6  C   UNL     1      30.351  -2.167  46.227  1.00  0.00     0.111 A 
ENDROOT
BRANCH   1   7
ATOM      7  C   UNL     1      28.367  -1.508  42.510  1.00  0.00     0.073 C 
ATOM      8  O   UNL     1      28.391  -0.372  41.967  1.00  0.00    -0.545 OA
ATOM      9  O   UNL     1      27.691  -2.544  41.876  1.00  0.00    -0.545 OA
ENDBRANCH   1   7
TORSDOF 1
ENDMDL
MODEL 6
REMARK VINA RESULT:    -3.473      1.055      1.697
REMARK INTER + INTRA:          -3.693
REMARK INTER:                  -3.675
REMARK INTRA:                  -0.018
REMARK UNBOUND:                -0.017
REMARK SMILES O=C([O-])c1cccnc1
REMARK SMILES IDX 4 1 5 2 9 3 6 4 8 5 7 6 2 7 1 8 3 9
REMARK H PARENT
REMARK Flexibility Score: inf
ROOT
ATOM      1  C   UNL     1      29.024  -1.818  44.843  1.00  0.00     0.016 A 
ATOM      2  C   UNL     1      30.405  -1.799  45.096  1.00  0.00     0.013 A 
ATOM      3  C   UNL     1      28.575  -1.474  43.555  1.00  0.00     0.120 A 
ATOM      4  C   UNL     1      31.298  -1.444  44.084  1.00  0.00     0.021 A 
ATOM      5  N   UNL     1      29.467  -1.133  42.587  1.00  0.00    -0.264 NA
ATOM      6  C   UNL     1      30.806  -1.111  42.822  1.00  0.00     0.111 A 
ENDROOT
BRANCH   1   7
ATOM      7  C   UNL     1      28.067  -2.192  45.907  1.00  0.00     0.073 C 
ATOM      8  O   UNL     1      28.130  -3.323  46.458  1.00  0.00    -0.545 OA
ATOM      9  O   UNL     1      27.082  -1.299  46.314  1.00  0.00    -0.545 OA
ENDBRANCH   1   7
TORSDOF 1
ENDMDL
MODEL 7
REMARK VINA RESULT:    -3.455     12.683     13.815
REMARK INTER + INTRA:          -3.674
REMARK INTER:                  -3.657
REMARK INTRA:                  -0.017
REMARK UNBOUND:                -0.017
REMARK SMILES O=C([O-])c1cccnc1
REMARK SMILES IDX 4 1 5 2 9 3 6 4 8 5 7 6 2 7 1 8 3 9
REMARK H PARENT
REMARK Flexibility Score: inf
ROOT
ATOM      1  C   UNL     1      20.754 -13.726  45.031  1.00  0.00     0.016 A 
ATOM      2  C   UNL     1      21.777 -13.380  44.133  1.00  0.00     0.013 A 
ATOM      3  C   UNL     1      20.385 -12.792  46.016  1.00  0.00     0.120 A 
ATOM      4  C   UNL     1      22.402 -12.136  44.228  1.00  0.00     0.021 A 
ATOM      5  N   UNL     1      21.010 -11.586  46.085  1.00  0.00    -0.264 NA
ATOM      6  C   UNL     1      22.001 -11.242  45.221  1.00  0.00     0.111 A 
ENDROOT
BRANCH   1   7
ATOM      7  C   UNL     1      20.084 -15.042  44.941  1.00  0.00     0.073 C 
ATOM      8  O   UNL     1      19.281 -15.289  44.003  1.00  0.00    -0.545 OA
ATOM      9  O   UNL     1      20.333 -16.024  45.893  1.00  0.00    -0.545 OA
ENDBRANCH   1   7
TORSDOF 1
ENDMDL
MODEL 8
REMARK VINA RESULT:    -3.418     12.203     13.182
REMARK INTER + INTRA:          -3.635
REMARK INTER:                  -3.613
REMARK INTRA:                  -0.022
REMARK UNBOUND:                -0.017
REMARK SMILES O=C([O-])c1cccnc1
REMARK SMILES IDX 4 1 5 2 9 3 6 4 8 5 7 6 2 7 1 8 3 9
REMARK H PARENT
REMARK Flexibility Score: inf
ROOT
ATOM      1  C   UNL     1      20.704 -12.714  45.813  1.00  0.00     0.016 A 
ATOM      2  C   UNL     1      21.830 -11.914  45.562  1.00  0.00     0.013 A 
ATOM      3  C   UNL     1      20.417 -13.763  44.920  1.00  0.00     0.120 A 
ATOM      4  C   UNL     1      22.635 -12.164  44.450  1.00  0.00     0.021 A 
ATOM      5  N   UNL     1      21.219 -13.985  43.844  1.00  0.00    -0.264 NA
ATOM      6  C   UNL     1      22.310 -13.215  43.593  1.00  0.00     0.111 A 
ENDROOT
BRANCH   1   7
ATOM      7  C   UNL     1      19.843 -12.459  46.988  1.00  0.00     0.073 C 
ATOM      8  O   UNL     1      19.177 -13.392  47.509  1.00  0.00    -0.545 OA
ATOM      9  O   UNL     1      19.758 -11.184  47.534  1.00  0.00    -0.545 OA
ENDBRANCH   1   7
TORSDOF 1
ENDMDL
MODEL 9
REMARK VINA RESULT:    -3.392     12.771     14.144
REMARK INTER + INTRA:          -3.607
REMARK INTER:                  -3.587
REMARK INTRA:                  -0.021
REMARK UNBOUND:                -0.017
REMARK SMILES O=C([O-])c1cccnc1
REMARK SMILES IDX 4 1 5 2 9 3 6 4 8 5 7 6 2 7 1 8 3 9
REMARK H PARENT
REMARK Flexibility Score: inf
ROOT
ATOM      1  C   UNL     1      21.106 -13.230  45.160  1.00  0.00     0.016 A 
ATOM      2  C   UNL     1      20.754 -14.318  44.345  1.00  0.00     0.013 A 
ATOM      3  C   UNL     1      20.434 -13.067  46.384  1.00  0.00     0.120 A 
ATOM      4  C   UNL     1      19.759 -15.208  44.754  1.00  0.00     0.021 A 
ATOM      5  N   UNL     1      19.469 -13.949  46.760  1.00  0.00    -0.264 NA
ATOM      6  C   UNL     1      19.121 -15.005  45.978  1.00  0.00     0.111 A 
ENDROOT
BRANCH   1   7
ATOM      7  C   UNL     1      22.158 -12.280  44.737  1.00  0.00     0.073 C 
ATOM      8  O   UNL     1      23.183 -12.688  44.129  1.00  0.00    -0.545 OA
ATOM      9  O   UNL     1      22.029 -10.922  45.005  1.00  0.00    -0.545 OA
ENDBRANCH   1   7
TORSDOF 1
ENDMDL
