MODEL 1
REMARK VINA RESULT:    -3.637      0.000      0.000
REMARK INTER + INTRA:          -4.931
REMARK INTER:                  -4.700
REMARK INTRA:                  -0.231
REMARK UNBOUND:                -0.231
REMARK SMILES CCO[C@H]1O[C@H](CO)[C@@H](O)[C@@H](O)[C@H]1O
REMARK SMILES IDX 4 1 13 2 11 3 9 4 6 5 5 6 3 7 2 8 1 9 14 10 12 12 7 14 8 15
REMARK SMILES IDX 10 17
REMARK H PARENT 14 11 12 13 8 16 10 18
REMARK Flexibility Score: inf
ROOT
ATOM      1  C   UNL     1      15.882  -7.186   6.405  1.00  0.00     0.281 C 
ATOM      2  C   UNL     1      16.292  -6.814   4.965  1.00  0.00     0.202 C 
ATOM      3  C   UNL     1      17.606  -7.502   4.533  1.00  0.00     0.179 C 
ATOM      4  C   UNL     1      18.670  -7.397   5.648  1.00  0.00     0.177 C 
ATOM      5  C   UNL     1      18.074  -7.764   7.033  1.00  0.00     0.178 C 
ATOM      6  O   UNL     1      16.945  -6.954   7.320  1.00  0.00    -0.341 OA
ENDROOT
BRANCH   1   7
ATOM      7  O   UNL     1      15.421  -8.527   6.469  1.00  0.00    -0.350 OA
BRANCH   7   8
ATOM      8  C   UNL     1      14.249  -8.628   7.257  1.00  0.00     0.160 C 
ATOM      9  C   UNL     1      13.012  -8.506   6.375  1.00  0.00     0.035 C 
ENDBRANCH   7   8
ENDBRANCH   1   7
BRANCH   2  10
ATOM     10  O   UNL     1      15.250  -7.133   4.079  1.00  0.00    -0.385 OA
ATOM     11  H   UNL     1      14.455  -6.620   4.377  1.00  0.00     0.211 HD
ENDBRANCH   2  10
BRANCH   3  12
ATOM     12  O   UNL     1      17.390  -8.831   4.117  1.00  0.00    -0.387 OA
ATOM     13  H   UNL     1      17.453  -9.423   4.908  1.00  0.00     0.211 HD
ENDBRANCH   3  12
BRANCH   5  14
ATOM     14  C   UNL     1      19.106  -7.572   8.152  1.00  0.00     0.191 C 
BRANCH  14  15
ATOM     15  O   UNL     1      18.771  -6.462   8.942  1.00  0.00    -0.394 OA
ATOM     16  H   UNL     1      17.904  -6.128   8.591  1.00  0.00     0.210 HD
ENDBRANCH  14  15
ENDBRANCH   5  14
BRANCH   4  17
ATOM     17  O   UNL     1      19.804  -8.171   5.337  1.00  0.00    -0.387 OA
ATOM     18  H   UNL     1      20.513  -7.557   5.014  1.00  0.00     0.211 HD
ENDBRANCH   4  17
TORSDOF 7
ENDMDL
MODEL 2
REMARK VINA RESULT:    -3.600      1.618      3.846
REMARK INTER + INTRA:          -4.883
REMARK INTER:                  -4.472
REMARK INTRA:                  -0.412
REMARK UNBOUND:                -0.231
REMARK SMILES CCO[C@H]1O[C@H](CO)[C@@H](O)[C@@H](O)[C@H]1O
REMARK SMILES IDX 4 1 13 2 11 3 9 4 6 5 5 6 3 7 2 8 1 9 14 10 12 12 7 14 8 15
REMARK SMILES IDX 10 17
REMARK H PARENT 14 11 12 13 8 16 10 18
REMARK Flexibility Score: inf
ROOT
ATOM      1  C   UNL     1      18.614  -8.267   5.152  1.00  0.00     0.281 C 
ATOM      2  C   UNL     1      17.123  -8.663   5.176  1.00  0.00     0.202 C 
ATOM      3  C   UNL     1      16.302  -7.797   6.157  1.00  0.00     0.179 C 
ATOM      4  C   UNL     1      17.042  -7.646   7.504  1.00  0.00     0.177 C 
ATOM      5  C   UNL     1      18.537  -7.288   7.289  1.00  0.00     0.178 C 
ATOM      6  O   UNL     1      19.166  -8.254   6.462  1.00  0.00    -0.341 OA
ENDROOT
BRANCH   1   7
ATOM      7  O   UNL     1      18.794  -7.021   4.496  1.00  0.00    -0.350 OA
BRANCH   7   8
ATOM      8  C   UNL     1      20.106  -6.902   3.976  1.00  0.00     0.160 C 
ATOM      9  C   UNL     1      20.816  -5.712   4.610  1.00  0.00     0.035 C 
ENDBRANCH   7   8
ENDBRANCH   1   7
BRANCH   2  10
ATOM     10  O   UNL     1      16.591  -8.586   3.879  1.00  0.00    -0.385 OA
ATOM     11  H   UNL     1      15.875  -7.899   3.905  1.00  0.00     0.211 HD
ENDBRANCH   2  10
BRANCH   3  12
ATOM     12  O   UNL     1      15.951  -6.555   5.591  1.00  0.00    -0.387 OA
ATOM     13  H   UNL     1      15.224  -6.157   6.131  1.00  0.00     0.211 HD
ENDBRANCH   3  12
BRANCH   5  14
ATOM     14  C   UNL     1      19.292  -7.228   8.624  1.00  0.00     0.191 C 
BRANCH  14  15
ATOM     15  O   UNL     1      19.082  -5.992   9.250  1.00  0.00    -0.394 OA
ATOM     16  H   UNL     1      18.254  -6.095   9.789  1.00  0.00     0.210 HD
ENDBRANCH  14  15
ENDBRANCH   5  14
BRANCH   4  17
ATOM     17  O   UNL     1      16.389  -6.716   8.335  1.00  0.00    -0.387 OA
ATOM     18  H   UNL     1      15.557  -7.140   8.672  1.00  0.00     0.211 HD
ENDBRANCH   4  17
TORSDOF 7
ENDMDL
MODEL 3
REMARK VINA RESULT:    -3.571      2.124      3.506
REMARK INTER + INTRA:          -4.845
REMARK INTER:                  -4.469
REMARK INTRA:                  -0.376
REMARK UNBOUND:                -0.231
REMARK SMILES CCO[C@H]1O[C@H](CO)[C@@H](O)[C@@H](O)[C@H]1O
REMARK SMILES IDX 4 1 13 2 11 3 9 4 6 5 5 6 3 7 2 8 1 9 14 10 12 12 7 14 8 15
REMARK SMILES IDX 10 17
REMARK H PARENT 14 11 12 13 8 16 10 18
REMARK Flexibility Score: inf
ROOT
ATOM      1  C   UNL     1      17.874  -8.077   5.625  1.00  0.00     0.281 C 
ATOM      2  C   UNL     1      18.680  -9.375   5.840  1.00  0.00     0.202 C 
ATOM      3  C   UNL     1      20.172  -9.097   6.130  1.00  0.00     0.179 C 
ATOM      4  C   UNL     1      20.731  -8.040   5.152  1.00  0.00     0.177 C 
ATOM      5  C   UNL     1      19.773  -6.826   5.026  1.00  0.00     0.178 C 
ATOM      6  O   UNL     1      18.476  -7.253   4.637  1.00  0.00    -0.341 OA
ENDROOT
BRANCH   1   7
ATOM      7  O   UNL     1      17.699  -7.383   6.850  1.00  0.00    -0.350 OA
BRANCH   7   8
ATOM      8  C   UNL     1      16.334  -7.086   7.081  1.00  0.00     0.160 C 
ATOM      9  C   UNL     1      15.458  -7.849   6.095  1.00  0.00     0.035 C 
ENDBRANCH   7   8
ENDBRANCH   1   7
BRANCH   2  10
ATOM     10  O   UNL     1      18.103 -10.125   6.878  1.00  0.00    -0.385 OA
ATOM     11  H   UNL     1      18.355 -11.072   6.720  1.00  0.00     0.211 HD
ENDBRANCH   2  10
BRANCH   3  12
ATOM     12  O   UNL     1      20.387  -8.753   7.479  1.00  0.00    -0.387 OA
ATOM     13  H   UNL     1      21.203  -9.215   7.796  1.00  0.00     0.211 HD
ENDBRANCH   3  12
BRANCH   5  14
ATOM     14  C   UNL     1      20.284  -5.819   3.987  1.00  0.00     0.191 C 
BRANCH  14  15
ATOM     15  O   UNL     1      21.222  -4.953   4.564  1.00  0.00    -0.394 OA
ATOM     16  H   UNL     1      21.804  -5.520   5.136  1.00  0.00     0.210 HD
ENDBRANCH  14  15
ENDBRANCH   5  14
BRANCH   4  17
ATOM     17  O   UNL     1      22.032  -7.652   5.522  1.00  0.00    -0.387 OA
ATOM     18  H   UNL     1      22.624  -8.445   5.433  1.00  0.00     0.211 HD
ENDBRANCH   4  17
TORSDOF 7
ENDMDL
MODEL 4
REMARK VINA RESULT:    -3.248      2.250      3.060
REMARK INTER + INTRA:          -4.428
REMARK INTER:                  -4.025
REMARK INTRA:                  -0.404
REMARK UNBOUND:                -0.231
REMARK SMILES CCO[C@H]1O[C@H](CO)[C@@H](O)[C@@H](O)[C@H]1O
REMARK SMILES IDX 4 1 13 2 11 3 9 4 6 5 5 6 3 7 2 8 1 9 14 10 12 12 7 14 8 15
REMARK SMILES IDX 10 17
REMARK H PARENT 14 11 12 13 8 16 10 18
REMARK Flexibility Score: inf
ROOT
ATOM      1  C   UNL     1      17.742  -7.952   3.980  1.00  0.00     0.281 C 
ATOM      2  C   UNL     1      18.040  -9.420   4.349  1.00  0.00     0.202 C 
ATOM      3  C   UNL     1      18.912  -9.540   5.619  1.00  0.00     0.179 C 
ATOM      4  C   UNL     1      20.091  -8.543   5.569  1.00  0.00     0.177 C 
ATOM      5  C   UNL     1      19.615  -7.129   5.140  1.00  0.00     0.178 C 
ATOM      6  O   UNL     1      18.937  -7.188   3.895  1.00  0.00    -0.341 OA
ENDROOT
BRANCH   1   7
ATOM      7  O   UNL     1      16.819  -7.379   4.895  1.00  0.00    -0.350 OA
BRANCH   7   8
ATOM      8  C   UNL     1      15.735  -6.773   4.216  1.00  0.00     0.160 C 
ATOM      9  C   UNL     1      14.453  -7.556   4.470  1.00  0.00     0.035 C 
ENDBRANCH   7   8
ENDBRANCH   1   7
BRANCH   2  10
ATOM     10  O   UNL     1      16.835 -10.124   4.505  1.00  0.00    -0.385 OA
ATOM     11  H   UNL     1      16.110  -9.446   4.531  1.00  0.00     0.211 HD
ENDBRANCH   2  10
BRANCH   3  12
ATOM     12  O   UNL     1      18.145  -9.412   6.794  1.00  0.00    -0.387 OA
ATOM     13  H   UNL     1      18.723  -9.043   7.509  1.00  0.00     0.211 HD
ENDBRANCH   3  12
BRANCH   5  14
ATOM     14  C   UNL     1      20.798  -6.161   5.003  1.00  0.00     0.191 C 
BRANCH  14  15
ATOM     15  O   UNL     1      21.053  -5.522   6.224  1.00  0.00    -0.394 OA
ATOM     16  H   UNL     1      20.601  -6.068   6.919  1.00  0.00     0.210 HD
ENDBRANCH  14  15
ENDBRANCH   5  14
BRANCH   4  17
ATOM     17  O   UNL     1      20.782  -8.520   6.795  1.00  0.00    -0.387 OA
ATOM     18  H   UNL     1      20.372  -7.817   7.363  1.00  0.00     0.211 HD
ENDBRANCH   4  17
TORSDOF 7
ENDMDL
MODEL 5
REMARK VINA RESULT:    -3.234      1.975      4.518
REMARK INTER + INTRA:          -4.410
REMARK INTER:                  -4.262
REMARK INTRA:                  -0.149
REMARK UNBOUND:                -0.231
REMARK SMILES CCO[C@H]1O[C@H](CO)[C@@H](O)[C@@H](O)[C@H]1O
REMARK SMILES IDX 4 1 13 2 11 3 9 4 6 5 5 6 3 7 2 8 1 9 14 10 12 12 7 14 8 15
REMARK SMILES IDX 10 17
REMARK H PARENT 14 11 12 13 8 16 10 18
REMARK Flexibility Score: inf
ROOT
ATOM      1  C   UNL     1      19.840  -7.396   6.310  1.00  0.00     0.281 C 
ATOM      2  C   UNL     1      20.050  -8.885   5.962  1.00  0.00     0.202 C 
ATOM      3  C   UNL     1      18.824  -9.499   5.250  1.00  0.00     0.179 C 
ATOM      4  C   UNL     1      17.516  -9.091   5.964  1.00  0.00     0.177 C 
ATOM      5  C   UNL     1      17.495  -7.570   6.274  1.00  0.00     0.178 C 
ATOM      6  O   UNL     1      18.634  -7.201   7.035  1.00  0.00    -0.341 OA
ENDROOT
BRANCH   1   7
ATOM      7  O   UNL     1      19.881  -6.594   5.139  1.00  0.00    -0.350 OA
BRANCH   7   8
ATOM      8  C   UNL     1      20.900  -5.615   5.226  1.00  0.00     0.160 C 
ATOM      9  C   UNL     1      20.960  -4.805   3.937  1.00  0.00     0.035 C 
ENDBRANCH   7   8
ENDBRANCH   1   7
BRANCH   2  10
ATOM     10  O   UNL     1      21.205  -9.030   5.176  1.00  0.00    -0.385 OA
ATOM     11  H   UNL     1      21.152  -9.927   4.754  1.00  0.00     0.211 HD
ENDBRANCH   2  10
BRANCH   3  12
ATOM     12  O   UNL     1      18.808  -9.192   3.875  1.00  0.00    -0.387 OA
ATOM     13  H   UNL     1      17.878  -8.984   3.609  1.00  0.00     0.211 HD
ENDBRANCH   3  12
BRANCH   5  14
ATOM     14  C   UNL     1      16.237  -7.181   7.063  1.00  0.00     0.191 C 
BRANCH  14  15
ATOM     15  O   UNL     1      16.573  -6.831   8.378  1.00  0.00    -0.394 OA
ATOM     16  H   UNL     1      16.107  -7.485   8.963  1.00  0.00     0.210 HD
ENDBRANCH  14  15
ENDBRANCH   5  14
BRANCH   4  17
ATOM     17  O   UNL     1      16.391  -9.496   5.222  1.00  0.00    -0.387 OA
ATOM     18  H   UNL     1      16.342  -8.930   4.408  1.00  0.00     0.211 HD
ENDBRANCH   4  17
TORSDOF 7
ENDMDL
MODEL 6
REMARK VINA RESULT:    -3.197      2.357      3.467
REMARK INTER + INTRA:          -4.362
REMARK INTER:                  -4.233
REMARK INTRA:                  -0.129
REMARK UNBOUND:                -0.231
REMARK SMILES CCO[C@H]1O[C@H](CO)[C@@H](O)[C@@H](O)[C@H]1O
REMARK SMILES IDX 4 1 13 2 11 3 9 4 6 5 5 6 3 7 2 8 1 9 14 10 12 12 7 14 8 15
REMARK SMILES IDX 10 17
REMARK H PARENT 14 11 12 13 8 16 10 18
REMARK Flexibility Score: inf
ROOT
ATOM      1  C   UNL     1      19.271  -7.448   5.349  1.00  0.00     0.281 C 
ATOM      2  C   UNL     1      19.921  -8.844   5.459  1.00  0.00     0.202 C 
ATOM      3  C   UNL     1      19.625  -9.522   6.816  1.00  0.00     0.179 C 
ATOM      4  C   UNL     1      19.825  -8.526   7.980  1.00  0.00     0.177 C 
ATOM      5  C   UNL     1      19.144  -7.164   7.679  1.00  0.00     0.178 C 
ATOM      6  O   UNL     1      19.620  -6.627   6.455  1.00  0.00    -0.341 OA
ENDROOT
BRANCH   1   7
ATOM      7  O   UNL     1      17.864  -7.557   5.201  1.00  0.00    -0.350 OA
BRANCH   7   8
ATOM      8  C   UNL     1      17.435  -7.006   3.969  1.00  0.00     0.160 C 
ATOM      9  C   UNL     1      15.940  -6.711   4.019  1.00  0.00     0.035 C 
ENDBRANCH   7   8
ENDBRANCH   1   7
BRANCH   2  10
ATOM     10  O   UNL     1      19.490  -9.653   4.395  1.00  0.00    -0.385 OA
ATOM     11  H   UNL     1      19.084 -10.464   4.799  1.00  0.00     0.211 HD
ENDBRANCH   2  10
BRANCH   3  12
ATOM     12  O   UNL     1      18.352 -10.124   6.833  1.00  0.00    -0.387 OA
ATOM     13  H   UNL     1      17.765  -9.640   6.201  1.00  0.00     0.211 HD
ENDBRANCH   3  12
BRANCH   5  14
ATOM     14  C   UNL     1      19.419  -6.146   8.794  1.00  0.00     0.191 C 
BRANCH  14  15
ATOM     15  O   UNL     1      20.301  -5.153   8.345  1.00  0.00    -0.394 OA
ATOM     16  H   UNL     1      19.915  -4.806   7.498  1.00  0.00     0.210 HD
ENDBRANCH  14  15
ENDBRANCH   5  14
BRANCH   4  17
ATOM     17  O   UNL     1      19.388  -9.081   9.197  1.00  0.00    -0.387 OA
ATOM     18  H   UNL     1      19.450 -10.068   9.121  1.00  0.00     0.211 HD
ENDBRANCH   4  17
TORSDOF 7
ENDMDL
MODEL 7
REMARK VINA RESULT:    -3.182      7.403      9.716
REMARK INTER + INTRA:          -4.342
REMARK INTER:                  -4.083
REMARK INTRA:                  -0.259
REMARK UNBOUND:                -0.231
REMARK SMILES CCO[C@H]1O[C@H](CO)[C@@H](O)[C@@H](O)[C@H]1O
REMARK SMILES IDX 4 1 13 2 11 3 9 4 6 5 5 6 3 7 2 8 1 9 14 10 12 12 7 14 8 15
REMARK SMILES IDX 10 17
REMARK H PARENT 14 11 12 13 8 16 10 18
REMARK Flexibility Score: inf
ROOT
ATOM      1  C   UNL     1       6.664  -8.785   5.157  1.00  0.00     0.281 C 
ATOM      2  C   UNL     1       7.233  -9.773   6.196  1.00  0.00     0.202 C 
ATOM      3  C   UNL     1       8.471  -9.207   6.926  1.00  0.00     0.179 C 
ATOM      4  C   UNL     1       9.448  -8.555   5.922  1.00  0.00     0.177 C 
ATOM      5  C   UNL     1       8.698  -7.628   4.929  1.00  0.00     0.178 C 
ATOM      6  O   UNL     1       7.672  -8.342   4.258  1.00  0.00    -0.341 OA
ENDROOT
BRANCH   1   7
ATOM      7  O   UNL     1       6.020  -7.694   5.798  1.00  0.00    -0.350 OA
BRANCH   7   8
ATOM      8  C   UNL     1       4.998  -7.152   4.982  1.00  0.00     0.160 C 
ATOM      9  C   UNL     1       3.992  -8.235   4.612  1.00  0.00     0.035 C 
ENDBRANCH   7   8
ENDBRANCH   1   7
BRANCH   2  10
ATOM     10  O   UNL     1       6.231 -10.125   7.115  1.00  0.00    -0.385 OA
ATOM     11  H   UNL     1       5.709 -10.861   6.701  1.00  0.00     0.211 HD
ENDBRANCH   2  10
BRANCH   3  12
ATOM     12  O   UNL     1       8.109  -8.335   7.971  1.00  0.00    -0.387 OA
ATOM     13  H   UNL     1       8.756  -7.586   7.996  1.00  0.00     0.211 HD
ENDBRANCH   3  12
BRANCH   5  14
ATOM     14  C   UNL     1       9.655  -7.053   3.875  1.00  0.00     0.191 C 
BRANCH  14  15
ATOM     15  O   UNL     1       9.696  -5.654   3.963  1.00  0.00    -0.394 OA
ATOM     16  H   UNL     1       9.195  -5.416   4.787  1.00  0.00     0.210 HD
ENDBRANCH  14  15
ENDBRANCH   5  14
BRANCH   4  17
ATOM     17  O   UNL     1      10.485  -7.883   6.595  1.00  0.00    -0.387 OA
ATOM     18  H   UNL     1      10.246  -6.921   6.640  1.00  0.00     0.211 HD
ENDBRANCH   4  17
TORSDOF 7
ENDMDL
MODEL 8
REMARK VINA RESULT:    -3.103      1.800      4.519
REMARK INTER + INTRA:          -4.241
REMARK INTER:                  -3.845
REMARK INTRA:                  -0.396
REMARK UNBOUND:                -0.231
REMARK SMILES CCO[C@H]1O[C@H](CO)[C@@H](O)[C@@H](O)[C@H]1O
REMARK SMILES IDX 4 1 13 2 11 3 9 4 6 5 5 6 3 7 2 8 1 9 14 10 12 12 7 14 8 15
REMARK SMILES IDX 10 17
REMARK H PARENT 14 11 12 13 8 16 10 18
REMARK Flexibility Score: inf
ROOT
ATOM      1  C   UNL     1      18.872  -7.850   5.006  1.00  0.00     0.281 C 
ATOM      2  C   UNL     1      19.720  -6.974   5.952  1.00  0.00     0.202 C 
ATOM      3  C   UNL     1      19.202  -7.010   7.407  1.00  0.00     0.179 C 
ATOM      4  C   UNL     1      17.665  -6.853   7.444  1.00  0.00     0.177 C 
ATOM      5  C   UNL     1      16.980  -7.775   6.401  1.00  0.00     0.178 C 
ATOM      6  O   UNL     1      17.492  -7.525   5.101  1.00  0.00    -0.341 OA
ENDROOT
BRANCH   1   7
ATOM      7  O   UNL     1      19.103  -9.229   5.253  1.00  0.00    -0.350 OA
BRANCH   7   8
ATOM      8  C   UNL     1      19.366  -9.927   4.050  1.00  0.00     0.160 C 
ATOM      9  C   UNL     1      20.867 -10.125   3.876  1.00  0.00     0.035 C 
ENDBRANCH   7   8
ENDBRANCH   1   7
BRANCH   2  10
ATOM     10  O   UNL     1      21.064  -7.377   5.893  1.00  0.00    -0.385 OA
ATOM     11  H   UNL     1      21.140  -8.198   6.446  1.00  0.00     0.211 HD
ENDBRANCH   2  10
BRANCH   3  12
ATOM     12  O   UNL     1      19.644  -8.159   8.092  1.00  0.00    -0.387 OA
ATOM     13  H   UNL     1      20.625  -8.234   7.981  1.00  0.00     0.211 HD
ENDBRANCH   3  12
BRANCH   5  14
ATOM     14  C   UNL     1      15.461  -7.553   6.374  1.00  0.00     0.191 C 
BRANCH  14  15
ATOM     15  O   UNL     1      14.861  -8.139   7.497  1.00  0.00    -0.394 OA
ATOM     16  H   UNL     1      14.800  -9.110   7.301  1.00  0.00     0.210 HD
ENDBRANCH  14  15
ENDBRANCH   5  14
BRANCH   4  17
ATOM     17  O   UNL     1      17.170  -7.063   8.744  1.00  0.00    -0.387 OA
ATOM     18  H   UNL     1      17.945  -7.213   9.345  1.00  0.00     0.211 HD
ENDBRANCH   4  17
TORSDOF 7
ENDMDL
