MODEL 1
REMARK VINA RESULT:    -4.476      0.000      0.000
REMARK INTER + INTRA:          -5.173
REMARK INTER:                  -5.130
REMARK INTRA:                  -0.043
REMARK UNBOUND:                -0.043
REMARK SMILES CC(C)[C@@H]([NH3+])C(=O)[O-]
REMARK SMILES IDX 4 1 5 2 6 6 7 7 8 8 2 9 1 10 3 11
REMARK H PARENT 5 3 5 4 5 5
REMARK Flexibility Score: inf
ROOT
ATOM      1  C   UNL     1     -19.283  23.730 -20.460  1.00  0.00     0.230 C 
ENDROOT
BRANCH   1   2
ATOM      2  N   UNL     1     -18.733  23.313 -21.758  1.00  0.00    -0.350 N 
ATOM      3  H   UNL     1     -18.995  22.326 -21.985  1.00  0.00     0.345 HD
ATOM      4  H   UNL     1     -17.691  23.398 -21.749  1.00  0.00     0.345 HD
ATOM      5  H   UNL     1     -19.103  23.937 -22.511  1.00  0.00     0.345 HD
ENDBRANCH   1   2
BRANCH   1   6
ATOM      6  C   UNL     1     -19.568  25.214 -20.448  1.00  0.00     0.099 C 
ATOM      7  O   UNL     1     -20.447  25.708 -21.203  1.00  0.00    -0.544 OA
ATOM      8  O   UNL     1     -18.874  26.043 -19.576  1.00  0.00    -0.544 OA
ENDBRANCH   1   6
BRANCH   1   9
ATOM      9  C   UNL     1     -20.522  22.876 -20.055  1.00  0.00     0.047 C 
ATOM     10  C   UNL     1     -20.683  21.655 -20.972  1.00  0.00     0.014 C 
ATOM     11  C   UNL     1     -20.510  22.430 -18.582  1.00  0.00     0.014 C 
ENDBRANCH   1   9
TORSDOF 3
ENDMDL
MODEL 2
REMARK VINA RESULT:    -4.230      1.625      2.427
REMARK INTER + INTRA:          -4.891
REMARK INTER:                  -4.846
REMARK INTRA:                  -0.045
REMARK UNBOUND:                -0.043
REMARK SMILES CC(C)[C@@H]([NH3+])C(=O)[O-]
REMARK SMILES IDX 4 1 5 2 6 6 7 7 8 8 2 9 1 10 3 11
REMARK H PARENT 5 3 5 4 5 5
REMARK Flexibility Score: inf
ROOT
ATOM      1  C   UNL     1     -20.000  23.519 -20.270  1.00  0.00     0.230 C 
ENDROOT
BRANCH   1   2
ATOM      2  N   UNL     1     -20.222  23.078 -18.886  1.00  0.00    -0.350 N 
ATOM      3  H   UNL     1     -20.817  22.218 -18.848  1.00  0.00     0.345 HD
ATOM      4  H   UNL     1     -20.683  23.839 -18.337  1.00  0.00     0.345 HD
ATOM      5  H   UNL     1     -19.302  22.865 -18.436  1.00  0.00     0.345 HD
ENDBRANCH   1   2
BRANCH   1   6
ATOM      6  C   UNL     1     -19.757  25.009 -20.329  1.00  0.00     0.099 C 
ATOM      7  O   UNL     1     -18.943  25.560 -19.541  1.00  0.00    -0.544 OA
ATOM      8  O   UNL     1     -20.415  25.780 -21.278  1.00  0.00    -0.544 OA
ENDBRANCH   1   6
BRANCH   1   9
ATOM      9  C   UNL     1     -18.874  22.696 -20.967  1.00  0.00     0.047 C 
ATOM     10  C   UNL     1     -18.079  21.865 -19.950  1.00  0.00     0.014 C 
ATOM     11  C   UNL     1     -19.382  21.792 -22.103  1.00  0.00     0.014 C 
ENDBRANCH   1   9
TORSDOF 3
ENDMDL
MODEL 3
REMARK VINA RESULT:    -4.080      2.305      3.372
REMARK INTER + INTRA:          -4.720
REMARK INTER:                  -4.647
REMARK INTRA:                  -0.073
REMARK UNBOUND:                -0.043
REMARK SMILES CC(C)[C@@H]([NH3+])C(=O)[O-]
REMARK SMILES IDX 4 1 5 2 6 6 7 7 8 8 2 9 1 10 3 11
REMARK H PARENT 5 3 5 4 5 5
REMARK Flexibility Score: inf
ROOT
ATOM      1  C   UNL     1     -19.742  23.421 -20.804  1.00  0.00     0.230 C 
ENDROOT
BRANCH   1   2
ATOM      2  N   UNL     1     -18.708  23.349 -21.847  1.00  0.00    -0.350 N 
ATOM      3  H   UNL     1     -17.747  23.379 -21.436  1.00  0.00     0.345 HD
ATOM      4  H   UNL     1     -18.820  24.144 -22.517  1.00  0.00     0.345 HD
ATOM      5  H   UNL     1     -18.814  22.457 -22.382  1.00  0.00     0.345 HD
ENDBRANCH   1   2
BRANCH   1   6
ATOM      6  C   UNL     1     -19.419  22.487 -19.661  1.00  0.00     0.099 C 
ATOM      7  O   UNL     1     -18.371  21.788 -19.676  1.00  0.00    -0.544 OA
ATOM      8  O   UNL     1     -20.270  22.416 -18.566  1.00  0.00    -0.544 OA
ENDBRANCH   1   6
BRANCH   1   9
ATOM      9  C   UNL     1     -19.990  24.886 -20.334  1.00  0.00     0.047 C 
ATOM     10  C   UNL     1     -18.771  25.447 -19.588  1.00  0.00     0.014 C 
ATOM     11  C   UNL     1     -20.395  25.839 -21.471  1.00  0.00     0.014 C 
ENDBRANCH   1   9
TORSDOF 3
ENDMDL
MODEL 4
REMARK VINA RESULT:    -3.921      2.855      3.417
REMARK INTER + INTRA:          -4.537
REMARK INTER:                  -4.494
REMARK INTRA:                  -0.043
REMARK UNBOUND:                -0.043
REMARK SMILES CC(C)[C@@H]([NH3+])C(=O)[O-]
REMARK SMILES IDX 4 1 5 2 6 6 7 7 8 8 2 9 1 10 3 11
REMARK H PARENT 5 3 5 4 5 5
REMARK Flexibility Score: inf
ROOT
ATOM      1  C   UNL     1     -19.639  22.656 -19.478  1.00  0.00     0.230 C 
ENDROOT
BRANCH   1   2
ATOM      2  N   UNL     1     -19.647  24.079 -19.848  1.00  0.00    -0.350 N 
ATOM      3  H   UNL     1     -18.699  24.400 -20.152  1.00  0.00     0.345 HD
ATOM      4  H   UNL     1     -19.962  24.658 -19.036  1.00  0.00     0.345 HD
ATOM      5  H   UNL     1     -20.318  24.230 -20.635  1.00  0.00     0.345 HD
ENDBRANCH   1   2
BRANCH   1   6
ATOM      6  C   UNL     1     -21.044  22.151 -19.251  1.00  0.00     0.099 C 
ATOM      7  O   UNL     1     -21.392  21.696 -18.128  1.00  0.00    -0.544 OA
ATOM      8  O   UNL     1     -21.975  22.212 -20.279  1.00  0.00    -0.544 OA
ENDBRANCH   1   6
BRANCH   1   9
ATOM      9  C   UNL     1     -18.847  21.794 -20.507  1.00  0.00     0.047 C 
ATOM     10  C   UNL     1     -18.821  22.460 -21.891  1.00  0.00     0.014 C 
ATOM     11  C   UNL     1     -17.415  21.457 -20.059  1.00  0.00     0.014 C 
ENDBRANCH   1   9
TORSDOF 3
ENDMDL
MODEL 5
REMARK VINA RESULT:    -3.891      3.138      3.838
REMARK INTER + INTRA:          -4.502
REMARK INTER:                  -4.451
REMARK INTRA:                  -0.051
REMARK UNBOUND:                -0.043
REMARK SMILES CC(C)[C@@H]([NH3+])C(=O)[O-]
REMARK SMILES IDX 4 1 5 2 6 6 7 7 8 8 2 9 1 10 3 11
REMARK H PARENT 5 3 5 4 5 5
REMARK Flexibility Score: inf
ROOT
ATOM      1  C   UNL     1     -21.066  22.367 -19.667  1.00  0.00     0.230 C 
ENDROOT
BRANCH   1   2
ATOM      2  N   UNL     1     -21.043  21.287 -20.663  1.00  0.00    -0.350 N 
ATOM      3  H   UNL     1     -21.983  21.147 -21.098  1.00  0.00     0.345 HD
ATOM      4  H   UNL     1     -20.735  20.393 -20.215  1.00  0.00     0.345 HD
ATOM      5  H   UNL     1     -20.358  21.523 -21.417  1.00  0.00     0.345 HD
ENDBRANCH   1   2
BRANCH   1   6
ATOM      6  C   UNL     1     -21.792  21.931 -18.416  1.00  0.00     0.099 C 
ATOM      7  O   UNL     1     -21.163  21.416 -17.452  1.00  0.00    -0.544 OA
ATOM      8  O   UNL     1     -23.163  22.124 -18.309  1.00  0.00    -0.544 OA
ENDBRANCH   1   6
BRANCH   1   9
ATOM      9  C   UNL     1     -19.637  22.917 -19.374  1.00  0.00     0.047 C 
ATOM     10  C   UNL     1     -18.557  22.026 -20.005  1.00  0.00     0.014 C 
ATOM     11  C   UNL     1     -19.436  24.378 -19.811  1.00  0.00     0.014 C 
ENDBRANCH   1   9
TORSDOF 3
ENDMDL
MODEL 6
REMARK VINA RESULT:    -3.863      2.987      3.706
REMARK INTER + INTRA:          -4.470
REMARK INTER:                  -4.415
REMARK INTRA:                  -0.056
REMARK UNBOUND:                -0.043
REMARK SMILES CC(C)[C@@H]([NH3+])C(=O)[O-]
REMARK SMILES IDX 4 1 5 2 6 6 7 7 8 8 2 9 1 10 3 11
REMARK H PARENT 5 3 5 4 5 5
REMARK Flexibility Score: inf
ROOT
ATOM      1  C   UNL     1     -20.597  21.923 -19.157  1.00  0.00     0.230 C 
ENDROOT
BRANCH   1   2
ATOM      2  N   UNL     1     -20.269  22.256 -17.763  1.00  0.00    -0.350 N 
ATOM      3  H   UNL     1     -19.809  23.193 -17.691  1.00  0.00     0.345 HD
ATOM      4  H   UNL     1     -19.634  21.529 -17.361  1.00  0.00     0.345 HD
ATOM      5  H   UNL     1     -21.146  22.271 -17.193  1.00  0.00     0.345 HD
ENDBRANCH   1   2
BRANCH   1   6
ATOM      6  C   UNL     1     -22.061  22.168 -19.440  1.00  0.00     0.099 C 
ATOM      7  O   UNL     1     -22.462  22.390 -20.613  1.00  0.00    -0.544 OA
ATOM      8  O   UNL     1     -22.982  22.120 -18.402  1.00  0.00    -0.544 OA
ENDBRANCH   1   6
BRANCH   1   9
ATOM      9  C   UNL     1     -19.658  22.656 -20.164  1.00  0.00     0.047 C 
ATOM     10  C   UNL     1     -19.438  24.120 -19.757  1.00  0.00     0.014 C 
ATOM     11  C   UNL     1     -18.303  21.956 -20.365  1.00  0.00     0.014 C 
ENDBRANCH   1   9
TORSDOF 3
ENDMDL
MODEL 7
REMARK VINA RESULT:    -3.847      2.565      3.298
REMARK INTER + INTRA:          -4.452
REMARK INTER:                  -4.410
REMARK INTRA:                  -0.042
REMARK UNBOUND:                -0.043
REMARK SMILES CC(C)[C@@H]([NH3+])C(=O)[O-]
REMARK SMILES IDX 4 1 5 2 6 6 7 7 8 8 2 9 1 10 3 11
REMARK H PARENT 5 3 5 4 5 5
REMARK Flexibility Score: inf
ROOT
ATOM      1  C   UNL     1     -19.826  23.424 -20.330  1.00  0.00     0.230 C 
ENDROOT
BRANCH   1   2
ATOM      2  N   UNL     1     -21.168  23.064 -20.809  1.00  0.00    -0.350 N 
ATOM      3  H   UNL     1     -21.214  23.063 -21.854  1.00  0.00     0.345 HD
ATOM      4  H   UNL     1     -21.875  23.738 -20.434  1.00  0.00     0.345 HD
ATOM      5  H   UNL     1     -21.417  22.109 -20.464  1.00  0.00     0.345 HD
ENDBRANCH   1   2
BRANCH   1   6
ATOM      6  C   UNL     1     -18.802  22.413 -20.787  1.00  0.00     0.099 C 
ATOM      7  O   UNL     1     -18.638  22.170 -22.013  1.00  0.00    -0.544 OA
ATOM      8  O   UNL     1     -18.008  21.761 -19.852  1.00  0.00    -0.544 OA
ENDBRANCH   1   6
BRANCH   1   9
ATOM      9  C   UNL     1     -19.445  24.885 -20.717  1.00  0.00     0.047 C 
ATOM     10  C   UNL     1     -20.602  25.591 -21.440  1.00  0.00     0.014 C 
ATOM     11  C   UNL     1     -18.972  25.736 -19.526  1.00  0.00     0.014 C 
ENDBRANCH   1   9
TORSDOF 3
ENDMDL
MODEL 8
REMARK VINA RESULT:    -3.664      2.516      2.895
REMARK INTER + INTRA:          -4.243
REMARK INTER:                  -4.201
REMARK INTRA:                  -0.042
REMARK UNBOUND:                -0.043
REMARK SMILES CC(C)[C@@H]([NH3+])C(=O)[O-]
REMARK SMILES IDX 4 1 5 2 6 6 7 7 8 8 2 9 1 10 3 11
REMARK H PARENT 5 3 5 4 5 5
REMARK Flexibility Score: inf
ROOT
ATOM      1  C   UNL     1     -20.003  23.078 -20.465  1.00  0.00     0.230 C 
ENDROOT
BRANCH   1   2
ATOM      2  N   UNL     1     -19.696  24.090 -19.444  1.00  0.00    -0.350 N 
ATOM      3  H   UNL     1     -19.379  24.987 -19.877  1.00  0.00     0.345 HD
ATOM      4  H   UNL     1     -18.949  23.736 -18.802  1.00  0.00     0.345 HD
ATOM      5  H   UNL     1     -20.551  24.279 -18.873  1.00  0.00     0.345 HD
ENDBRANCH   1   2
BRANCH   1   6
ATOM      6  C   UNL     1     -18.742  22.398 -20.946  1.00  0.00     0.099 C 
ATOM      7  O   UNL     1     -18.421  22.423 -22.164  1.00  0.00    -0.544 OA
ATOM      8  O   UNL     1     -17.909  21.762 -20.035  1.00  0.00    -0.544 OA
ENDBRANCH   1   6
BRANCH   1   9
ATOM      9  C   UNL     1     -21.082  22.067 -19.973  1.00  0.00     0.047 C 
ATOM     10  C   UNL     1     -21.067  21.935 -18.443  1.00  0.00     0.014 C 
ATOM     11  C   UNL     1     -22.504  22.397 -20.458  1.00  0.00     0.014 C 
ENDBRANCH   1   9
TORSDOF 3
ENDMDL
MODEL 9
REMARK VINA RESULT:    -3.527     13.706     14.496
REMARK INTER + INTRA:          -4.085
REMARK INTER:                  -4.055
REMARK INTRA:                  -0.030
REMARK UNBOUND:                -0.043
REMARK SMILES CC(C)[C@@H]([NH3+])C(=O)[O-]
REMARK SMILES IDX 4 1 5 2 6 6 7 7 8 8 2 9 1 10 3 11
REMARK H PARENT 5 3 5 4 5 5
REMARK Flexibility Score: inf
ROOT
ATOM      1  C   UNL     1     -17.215  36.438 -27.269  1.00  0.00     0.230 C 
ENDROOT
BRANCH   1   2
ATOM      2  N   UNL     1     -16.489  35.637 -28.264  1.00  0.00    -0.350 N 
ATOM      3  H   UNL     1     -16.562  34.614 -28.059  1.00  0.00     0.345 HD
ATOM      4  H   UNL     1     -15.481  35.913 -28.280  1.00  0.00     0.345 HD
ATOM      5  H   UNL     1     -16.889  35.815 -29.214  1.00  0.00     0.345 HD
ENDBRANCH   1   2
BRANCH   1   6
ATOM      6  C   UNL     1     -18.347  37.203 -27.914  1.00  0.00     0.099 C 
ATOM      7  O   UNL     1     -18.792  38.259 -27.392  1.00  0.00    -0.544 OA
ATOM      8  O   UNL     1     -18.888  36.755 -29.113  1.00  0.00    -0.544 OA
ENDBRANCH   1   6
BRANCH   1   9
ATOM      9  C   UNL     1     -17.684  35.574 -26.059  1.00  0.00     0.047 C 
ATOM     10  C   UNL     1     -17.475  36.313 -24.730  1.00  0.00     0.014 C 
ATOM     11  C   UNL     1     -19.142  35.095 -26.171  1.00  0.00     0.014 C 
ENDBRANCH   1   9
TORSDOF 3
ENDMDL
