MODEL 1
REMARK VINA RESULT:    -3.629      0.000      0.000
REMARK INTER + INTRA:          -4.228
REMARK INTER:                  -4.160
REMARK INTRA:                  -0.069
REMARK UNBOUND:                -0.069
REMARK SMILES CC(C)[C@H]([NH3+])C(=O)[O-]
REMARK SMILES IDX 4 1 5 2 6 6 7 7 8 8 2 9 1 10 3 11
REMARK H PARENT 5 3 5 4 5 5
REMARK Flexibility Score: inf
ROOT
ATOM      1  C   UNL     1       9.155   4.405 -34.214  1.00  0.00     0.230 C 
ENDROOT
BRANCH   1   2
ATOM      2  N   UNL     1       8.213   3.441 -33.626  1.00  0.00    -0.350 N 
ATOM      3  H   UNL     1       8.736   2.717 -33.081  1.00  0.00     0.345 HD
ATOM      4  H   UNL     1       7.570   3.939 -32.968  1.00  0.00     0.345 HD
ATOM      5  H   UNL     1       7.639   2.971 -34.360  1.00  0.00     0.345 HD
ENDBRANCH   1   2
BRANCH   1   6
ATOM      6  C   UNL     1       8.416   5.563 -34.843  1.00  0.00     0.099 C 
ATOM      7  O   UNL     1       7.504   5.364 -35.689  1.00  0.00    -0.544 OA
ATOM      8  O   UNL     1       8.763   6.867 -34.508  1.00  0.00    -0.544 OA
ENDBRANCH   1   6
BRANCH   1   9
ATOM      9  C   UNL     1      10.147   3.717 -35.199  1.00  0.00     0.047 C 
ATOM     10  C   UNL     1      10.724   2.426 -34.599  1.00  0.00     0.014 C 
ATOM     11  C   UNL     1      11.288   4.635 -35.669  1.00  0.00     0.014 C 
ENDBRANCH   1   9
TORSDOF 3
ENDMDL
MODEL 2
REMARK VINA RESULT:    -3.616      2.286      3.313
REMARK INTER + INTRA:          -4.213
REMARK INTER:                  -4.160
REMARK INTRA:                  -0.053
REMARK UNBOUND:                -0.069
REMARK SMILES CC(C)[C@H]([NH3+])C(=O)[O-]
REMARK SMILES IDX 4 1 5 2 6 6 7 7 8 8 2 9 1 10 3 11
REMARK H PARENT 5 3 5 4 5 5
REMARK Flexibility Score: inf
ROOT
ATOM      1  C   UNL     1       9.061   4.349 -34.698  1.00  0.00     0.230 C 
ENDROOT
BRANCH   1   2
ATOM      2  N   UNL     1       8.934   4.658 -33.266  1.00  0.00    -0.350 N 
ATOM      3  H   UNL     1       8.354   5.518 -33.135  1.00  0.00     0.345 HD
ATOM      4  H   UNL     1       8.454   3.866 -32.779  1.00  0.00     0.345 HD
ATOM      5  H   UNL     1       9.868   4.803 -32.821  1.00  0.00     0.345 HD
ENDBRANCH   1   2
BRANCH   1   6
ATOM      6  C   UNL     1      10.380   3.672 -34.986  1.00  0.00     0.099 C 
ATOM      7  O   UNL     1      10.598   2.492 -34.602  1.00  0.00    -0.544 OA
ATOM      8  O   UNL     1      11.379   4.365 -35.659  1.00  0.00    -0.544 OA
ENDBRANCH   1   6
BRANCH   1   9
ATOM      9  C   UNL     1       8.823   5.609 -35.584  1.00  0.00     0.047 C 
ATOM     10  C   UNL     1       8.926   6.900 -34.758  1.00  0.00     0.014 C 
ATOM     11  C   UNL     1       7.491   5.580 -36.353  1.00  0.00     0.014 C 
ENDBRANCH   1   9
TORSDOF 3
ENDMDL
MODEL 3
REMARK VINA RESULT:    -3.452      2.825      3.567
REMARK INTER + INTRA:          -4.026
REMARK INTER:                  -3.968
REMARK INTRA:                  -0.057
REMARK UNBOUND:                -0.069
REMARK SMILES CC(C)[C@H]([NH3+])C(=O)[O-]
REMARK SMILES IDX 4 1 5 2 6 6 7 7 8 8 2 9 1 10 3 11
REMARK H PARENT 5 3 5 4 5 5
REMARK Flexibility Score: inf
ROOT
ATOM      1  C   UNL     1      11.236   5.782 -35.947  1.00  0.00     0.230 C 
ENDROOT
BRANCH   1   2
ATOM      2  N   UNL     1      12.256   4.748 -35.718  1.00  0.00    -0.350 N 
ATOM      3  H   UNL     1      12.971   5.094 -35.038  1.00  0.00     0.345 HD
ATOM      4  H   UNL     1      11.805   3.897 -35.307  1.00  0.00     0.345 HD
ATOM      5  H   UNL     1      12.731   4.475 -36.607  1.00  0.00     0.345 HD
ENDBRANCH   1   2
BRANCH   1   6
ATOM      6  C   UNL     1       9.847   5.199 -35.837  1.00  0.00     0.099 C 
ATOM      7  O   UNL     1       9.556   4.392 -34.915  1.00  0.00    -0.544 OA
ATOM      8  O   UNL     1       8.882   5.534 -36.780  1.00  0.00    -0.544 OA
ENDBRANCH   1   6
BRANCH   1   9
ATOM      9  C   UNL     1      11.469   6.536 -37.291  1.00  0.00     0.047 C 
ATOM     10  C   UNL     1      12.300   5.691 -38.268  1.00  0.00     0.014 C 
ATOM     11  C   UNL     1      12.110   7.923 -37.117  1.00  0.00     0.014 C 
ENDBRANCH   1   9
TORSDOF 3
ENDMDL
MODEL 4
REMARK VINA RESULT:    -3.424      2.403      3.649
REMARK INTER + INTRA:          -3.993
REMARK INTER:                  -3.922
REMARK INTRA:                  -0.071
REMARK UNBOUND:                -0.069
REMARK SMILES CC(C)[C@H]([NH3+])C(=O)[O-]
REMARK SMILES IDX 4 1 5 2 6 6 7 7 8 8 2 9 1 10 3 11
REMARK H PARENT 5 3 5 4 5 5
REMARK Flexibility Score: inf
ROOT
ATOM      1  C   UNL     1       8.253   5.528 -36.045  1.00  0.00     0.230 C 
ENDROOT
BRANCH   1   2
ATOM      2  N   UNL     1       6.987   4.804 -36.237  1.00  0.00    -0.350 N 
ATOM      3  H   UNL     1       6.218   5.283 -35.717  1.00  0.00     0.345 HD
ATOM      4  H   UNL     1       6.738   4.800 -37.253  1.00  0.00     0.345 HD
ATOM      5  H   UNL     1       7.060   3.814 -35.909  1.00  0.00     0.345 HD
ENDBRANCH   1   2
BRANCH   1   6
ATOM      6  C   UNL     1       9.117   4.837 -35.017  1.00  0.00     0.099 C 
ATOM      7  O   UNL     1      10.233   4.349 -35.336  1.00  0.00    -0.544 OA
ATOM      8  O   UNL     1       8.666   4.711 -33.709  1.00  0.00    -0.544 OA
ENDBRANCH   1   6
BRANCH   1   9
ATOM      9  C   UNL     1       8.013   7.033 -35.718  1.00  0.00     0.047 C 
ATOM     10  C   UNL     1       6.956   7.645 -36.650  1.00  0.00     0.014 C 
ATOM     11  C   UNL     1       9.295   7.883 -35.747  1.00  0.00     0.014 C 
ENDBRANCH   1   9
TORSDOF 3
ENDMDL
MODEL 5
REMARK VINA RESULT:    -3.388      2.528      3.382
REMARK INTER + INTRA:          -3.951
REMARK INTER:                  -3.906
REMARK INTRA:                  -0.045
REMARK UNBOUND:                -0.069
REMARK SMILES CC(C)[C@H]([NH3+])C(=O)[O-]
REMARK SMILES IDX 4 1 5 2 6 6 7 7 8 8 2 9 1 10 3 11
REMARK H PARENT 5 3 5 4 5 5
REMARK Flexibility Score: inf
ROOT
ATOM      1  C   UNL     1       8.784   5.791 -34.775  1.00  0.00     0.230 C 
ENDROOT
BRANCH   1   2
ATOM      2  N   UNL     1      10.023   6.565 -34.607  1.00  0.00    -0.350 N 
ATOM      3  H   UNL     1      10.379   6.464 -33.629  1.00  0.00     0.345 HD
ATOM      4  H   UNL     1      10.755   6.196 -35.257  1.00  0.00     0.345 HD
ATOM      5  H   UNL     1       9.873   7.578 -34.815  1.00  0.00     0.345 HD
ENDBRANCH   1   2
BRANCH   1   6
ATOM      6  C   UNL     1       8.933   4.406 -34.191  1.00  0.00     0.099 C 
ATOM      7  O   UNL     1       9.853   3.637 -34.579  1.00  0.00    -0.544 OA
ATOM      8  O   UNL     1       8.027   3.959 -33.236  1.00  0.00    -0.544 OA
ENDBRANCH   1   6
BRANCH   1   9
ATOM      9  C   UNL     1       8.311   5.772 -36.260  1.00  0.00     0.047 C 
ATOM     10  C   UNL     1       9.474   6.067 -37.220  1.00  0.00     0.014 C 
ATOM     11  C   UNL     1       7.137   6.724 -36.546  1.00  0.00     0.014 C 
ENDBRANCH   1   9
TORSDOF 3
ENDMDL
MODEL 6
REMARK VINA RESULT:    -3.368      2.969      3.790
REMARK INTER + INTRA:          -3.929
REMARK INTER:                  -3.870
REMARK INTRA:                  -0.059
REMARK UNBOUND:                -0.069
REMARK SMILES CC(C)[C@H]([NH3+])C(=O)[O-]
REMARK SMILES IDX 4 1 5 2 6 6 7 7 8 8 2 9 1 10 3 11
REMARK H PARENT 5 3 5 4 5 5
REMARK Flexibility Score: inf
ROOT
ATOM      1  C   UNL     1      11.192   5.074 -36.273  1.00  0.00     0.230 C 
ENDROOT
BRANCH   1   2
ATOM      2  N   UNL     1      12.023   4.146 -35.491  1.00  0.00    -0.350 N 
ATOM      3  H   UNL     1      12.999   4.512 -35.420  1.00  0.00     0.345 HD
ATOM      4  H   UNL     1      11.636   4.064 -34.522  1.00  0.00     0.345 HD
ATOM      5  H   UNL     1      12.043   3.194 -35.923  1.00  0.00     0.345 HD
ENDBRANCH   1   2
BRANCH   1   6
ATOM      6  C   UNL     1      12.010   6.246 -36.761  1.00  0.00     0.099 C 
ATOM      7  O   UNL     1      12.159   7.272 -36.045  1.00  0.00    -0.544 OA
ATOM      8  O   UNL     1      12.583   6.209 -38.027  1.00  0.00    -0.544 OA
ENDBRANCH   1   6
BRANCH   1   9
ATOM      9  C   UNL     1       9.919   5.512 -35.488  1.00  0.00     0.047 C 
ATOM     10  C   UNL     1       9.372   4.364 -34.627  1.00  0.00     0.014 C 
ATOM     11  C   UNL     1       8.803   6.075 -36.385  1.00  0.00     0.014 C 
ENDBRANCH   1   9
TORSDOF 3
ENDMDL
MODEL 7
REMARK VINA RESULT:    -3.362      2.542      3.224
REMARK INTER + INTRA:          -3.923
REMARK INTER:                  -3.907
REMARK INTRA:                  -0.016
REMARK UNBOUND:                -0.069
REMARK SMILES CC(C)[C@H]([NH3+])C(=O)[O-]
REMARK SMILES IDX 4 1 5 2 6 6 7 7 8 8 2 9 1 10 3 11
REMARK H PARENT 5 3 5 4 5 5
REMARK Flexibility Score: inf
ROOT
ATOM      1  C   UNL     1      10.759   5.508 -36.124  1.00  0.00     0.230 C 
ENDROOT
BRANCH   1   2
ATOM      2  N   UNL     1      11.896   4.654 -35.750  1.00  0.00    -0.350 N 
ATOM      3  H   UNL     1      12.605   4.646 -36.518  1.00  0.00     0.345 HD
ATOM      4  H   UNL     1      12.353   5.039 -34.891  1.00  0.00     0.345 HD
ATOM      5  H   UNL     1      11.591   3.674 -35.554  1.00  0.00     0.345 HD
ENDBRANCH   1   2
BRANCH   1   6
ATOM      6  C   UNL     1      11.117   6.969 -35.990  1.00  0.00     0.099 C 
ATOM      7  O   UNL     1      10.231   7.832 -35.750  1.00  0.00    -0.544 OA
ATOM      8  O   UNL     1      12.435   7.375 -36.164  1.00  0.00    -0.544 OA
ENDBRANCH   1   6
BRANCH   1   9
ATOM      9  C   UNL     1       9.468   5.129 -35.336  1.00  0.00     0.047 C 
ATOM     10  C   UNL     1       9.625   3.776 -34.625  1.00  0.00     0.014 C 
ATOM     11  C   UNL     1       8.196   5.125 -36.201  1.00  0.00     0.014 C 
ENDBRANCH   1   9
TORSDOF 3
ENDMDL
MODEL 8
REMARK VINA RESULT:    -3.362     14.037     14.877
REMARK INTER + INTRA:          -3.922
REMARK INTER:                  -3.868
REMARK INTRA:                  -0.054
REMARK UNBOUND:                -0.069
REMARK SMILES CC(C)[C@H]([NH3+])C(=O)[O-]
REMARK SMILES IDX 4 1 5 2 6 6 7 7 8 8 2 9 1 10 3 11
REMARK H PARENT 5 3 5 4 5 5
REMARK Flexibility Score: inf
ROOT
ATOM      1  C   UNL     1      15.727  -9.014 -35.057  1.00  0.00     0.230 C 
ENDROOT
BRANCH   1   2
ATOM      2  N   UNL     1      16.803  -9.083 -34.057  1.00  0.00    -0.350 N 
ATOM      3  H   UNL     1      17.311  -8.171 -34.014  1.00  0.00     0.345 HD
ATOM      4  H   UNL     1      16.391  -9.269 -33.113  1.00  0.00     0.345 HD
ATOM      5  H   UNL     1      17.483  -9.845 -34.279  1.00  0.00     0.345 HD
ENDBRANCH   1   2
BRANCH   1   6
ATOM      6  C   UNL     1      16.295  -8.861 -36.448  1.00  0.00     0.099 C 
ATOM      7  O   UNL     1      17.116  -7.944 -36.713  1.00  0.00    -0.544 OA
ATOM      8  O   UNL     1      15.886  -9.724 -37.459  1.00  0.00    -0.544 OA
ENDBRANCH   1   6
BRANCH   1   9
ATOM      9  C   UNL     1      14.683  -7.911 -34.707  1.00  0.00     0.047 C 
ATOM     10  C   UNL     1      13.946  -8.235 -33.399  1.00  0.00     0.014 C 
ATOM     11  C   UNL     1      13.667  -7.644 -35.831  1.00  0.00     0.014 C 
ENDBRANCH   1   9
TORSDOF 3
ENDMDL
MODEL 9
REMARK VINA RESULT:    -3.252      8.096      9.037
REMARK INTER + INTRA:          -3.795
REMARK INTER:                  -3.735
REMARK INTRA:                  -0.060
REMARK UNBOUND:                -0.069
REMARK SMILES CC(C)[C@H]([NH3+])C(=O)[O-]
REMARK SMILES IDX 4 1 5 2 6 6 7 7 8 8 2 9 1 10 3 11
REMARK H PARENT 5 3 5 4 5 5
REMARK Flexibility Score: inf
ROOT
ATOM      1  C   UNL     1      12.280  -3.811 -34.969  1.00  0.00     0.230 C 
ENDROOT
BRANCH   1   2
ATOM      2  N   UNL     1      13.345  -4.786 -35.246  1.00  0.00    -0.350 N 
ATOM      3  H   UNL     1      14.258  -4.293 -35.376  1.00  0.00     0.345 HD
ATOM      4  H   UNL     1      13.442  -5.437 -34.432  1.00  0.00     0.345 HD
ATOM      5  H   UNL     1      13.135  -5.350 -36.100  1.00  0.00     0.345 HD
ENDBRANCH   1   2
BRANCH   1   6
ATOM      6  C   UNL     1      12.775  -2.400 -35.181  1.00  0.00     0.099 C 
ATOM      7  O   UNL     1      12.618  -1.520 -34.294  1.00  0.00    -0.544 OA
ATOM      8  O   UNL     1      13.385  -2.056 -36.382  1.00  0.00    -0.544 OA
ENDBRANCH   1   6
BRANCH   1   9
ATOM      9  C   UNL     1      11.654  -4.024 -33.557  1.00  0.00     0.047 C 
ATOM     10  C   UNL     1      12.556  -4.899 -32.673  1.00  0.00     0.014 C 
ATOM     11  C   UNL     1      10.230  -4.604 -33.594  1.00  0.00     0.014 C 
ENDBRANCH   1   9
TORSDOF 3
ENDMDL
