MODEL 1
REMARK VINA RESULT:    -4.693      0.000      0.000
REMARK INTER + INTRA:         -11.109
REMARK INTER:                  -8.670
REMARK INTRA:                  -2.439
REMARK UNBOUND:                -2.439
REMARK SMILES CCCCCCCCCCCCCCCCO
REMARK SMILES IDX 9 1 8 2 7 3 6 4 5 5 4 6 3 7 2 8 1 9 10 10 11 11 12 12 13 13
REMARK SMILES IDX 14 14 15 15 16 16 17 17
REMARK H PARENT 17 18
REMARK Flexibility Score: inf
ROOT
ATOM      1  C   UNL     1       1.830  54.976  20.767  1.00  0.00     0.000 C 
ENDROOT
BRANCH   1   2
ATOM      2  C   UNL     1       2.664  53.801  20.232  1.00  0.00    -0.000 C 
BRANCH   2   3
ATOM      3  C   UNL     1       2.149  53.343  18.860  1.00  0.00    -0.000 C 
BRANCH   3   4
ATOM      4  C   UNL     1       1.715  51.865  18.845  1.00  0.00    -0.000 C 
BRANCH   4   5
ATOM      5  C   UNL     1       0.198  51.635  18.726  1.00  0.00    -0.000 C 
BRANCH   5   6
ATOM      6  C   UNL     1      -0.496  52.424  17.599  1.00  0.00    -0.000 C 
BRANCH   6   7
ATOM      7  C   UNL     1      -1.961  52.797  17.913  1.00  0.00    -0.000 C 
BRANCH   7   8
ATOM      8  C   UNL     1      -2.339  52.515  19.376  1.00  0.00    -0.003 C 
ATOM      9  C   UNL     1      -2.989  53.735  20.021  1.00  0.00     0.004 C 
ENDBRANCH   7   8
ENDBRANCH   6   7
ENDBRANCH   5   6
ENDBRANCH   4   5
ENDBRANCH   3   4
ENDBRANCH   2   3
ENDBRANCH   1   2
BRANCH   1  10
ATOM     10  C   UNL     1       0.371  54.940  20.284  1.00  0.00     0.000 C 
BRANCH  10  11
ATOM     11  C   UNL     1      -0.039  56.227  19.545  1.00  0.00     0.000 C 
BRANCH  11  12
ATOM     12  C   UNL     1      -0.172  56.019  18.027  1.00  0.00     0.000 C 
BRANCH  12  13
ATOM     13  C   UNL     1       1.028  56.581  17.246  1.00  0.00     0.000 C 
BRANCH  13  14
ATOM     14  C   UNL     1       1.805  57.642  18.043  1.00  0.00     0.002 C 
BRANCH  14  15
ATOM     15  C   UNL     1       3.271  57.249  18.281  1.00  0.00     0.028 C 
BRANCH  15  16
ATOM     16  C   UNL     1       3.767  56.238  17.243  1.00  0.00     0.156 C 
BRANCH  16  17
ATOM     17  O   UNL     1       4.683  56.837  16.365  1.00  0.00    -0.396 OA
ATOM     18  H   UNL     1       5.589  56.566  16.663  1.00  0.00     0.210 HD
ENDBRANCH  16  17
ENDBRANCH  15  16
ENDBRANCH  14  15
ENDBRANCH  13  14
ENDBRANCH  12  13
ENDBRANCH  11  12
ENDBRANCH  10  11
ENDBRANCH   1  10
TORSDOF 15
ENDMDL
MODEL 2
REMARK VINA RESULT:    -4.638      1.210      3.369
REMARK INTER + INTRA:         -11.009
REMARK INTER:                  -8.768
REMARK INTRA:                  -2.240
REMARK UNBOUND:                -2.439
REMARK SMILES CCCCCCCCCCCCCCCCO
REMARK SMILES IDX 9 1 8 2 7 3 6 4 5 5 4 6 3 7 2 8 1 9 10 10 11 11 12 12 13 13
REMARK SMILES IDX 14 14 15 15 16 16 17 17
REMARK H PARENT 17 18
REMARK Flexibility Score: inf
ROOT
ATOM      1  C   UNL     1      -2.643  54.759  19.445  1.00  0.00     0.000 C 
ENDROOT
BRANCH   1   2
ATOM      2  C   UNL     1      -2.429  53.242  19.564  1.00  0.00    -0.000 C 
BRANCH   2   3
ATOM      3  C   UNL     1      -2.513  52.568  18.187  1.00  0.00    -0.000 C 
BRANCH   3   4
ATOM      4  C   UNL     1      -1.214  51.840  17.795  1.00  0.00    -0.000 C 
BRANCH   4   5
ATOM      5  C   UNL     1      -0.043  52.762  17.409  1.00  0.00    -0.000 C 
BRANCH   5   6
ATOM      6  C   UNL     1       1.203  52.645  18.308  1.00  0.00    -0.000 C 
BRANCH   6   7
ATOM      7  C   UNL     1       1.063  53.373  19.663  1.00  0.00    -0.000 C 
BRANCH   7   8
ATOM      8  C   UNL     1       2.401  53.927  20.174  1.00  0.00    -0.003 C 
ATOM      9  C   UNL     1       2.192  55.186  21.009  1.00  0.00     0.004 C 
ENDBRANCH   7   8
ENDBRANCH   6   7
ENDBRANCH   5   6
ENDBRANCH   4   5
ENDBRANCH   3   4
ENDBRANCH   2   3
ENDBRANCH   1   2
BRANCH   1  10
ATOM     10  C   UNL     1      -2.928  55.210  18.003  1.00  0.00     0.000 C 
BRANCH  10  11
ATOM     11  C   UNL     1      -2.051  56.400  17.572  1.00  0.00     0.000 C 
BRANCH  11  12
ATOM     12  C   UNL     1      -0.631  56.329  18.158  1.00  0.00     0.000 C 
BRANCH  12  13
ATOM     13  C   UNL     1       0.427  56.930  17.217  1.00  0.00     0.000 C 
BRANCH  13  14
ATOM     14  C   UNL     1       1.815  56.296  17.407  1.00  0.00     0.002 C 
BRANCH  14  15
ATOM     15  C   UNL     1       2.295  55.534  16.162  1.00  0.00     0.028 C 
BRANCH  15  16
ATOM     16  C   UNL     1       3.792  55.219  16.227  1.00  0.00     0.156 C 
BRANCH  16  17
ATOM     17  O   UNL     1       4.550  56.399  16.193  1.00  0.00    -0.396 OA
ATOM     18  H   UNL     1       3.971  57.103  15.802  1.00  0.00     0.210 HD
ENDBRANCH  16  17
ENDBRANCH  15  16
ENDBRANCH  14  15
ENDBRANCH  13  14
ENDBRANCH  12  13
ENDBRANCH  11  12
ENDBRANCH  10  11
ENDBRANCH   1  10
TORSDOF 15
ENDMDL
MODEL 3
REMARK VINA RESULT:    -4.631      1.475      2.884
REMARK INTER + INTRA:         -10.995
REMARK INTER:                  -8.456
REMARK INTRA:                  -2.539
REMARK UNBOUND:                -2.439
REMARK SMILES CCCCCCCCCCCCCCCCO
REMARK SMILES IDX 9 1 8 2 7 3 6 4 5 5 4 6 3 7 2 8 1 9 10 10 11 11 12 12 13 13
REMARK SMILES IDX 14 14 15 15 16 16 17 17
REMARK H PARENT 17 18
REMARK Flexibility Score: inf
ROOT
ATOM      1  C   UNL     1       2.686  53.604  20.229  1.00  0.00     0.000 C 
ENDROOT
BRANCH   1   2
ATOM      2  C   UNL     1       1.994  54.891  20.704  1.00  0.00    -0.000 C 
BRANCH   2   3
ATOM      3  C   UNL     1       0.467  54.756  20.618  1.00  0.00    -0.000 C 
BRANCH   3   4
ATOM      4  C   UNL     1      -0.197  55.923  19.863  1.00  0.00    -0.000 C 
BRANCH   4   5
ATOM      5  C   UNL     1      -1.547  55.587  19.204  1.00  0.00    -0.000 C 
BRANCH   5   6
ATOM      6  C   UNL     1      -1.450  54.831  17.864  1.00  0.00    -0.000 C 
BRANCH   6   7
ATOM      7  C   UNL     1      -2.450  53.661  17.737  1.00  0.00    -0.000 C 
BRANCH   7   8
ATOM      8  C   UNL     1      -2.190  52.552  18.767  1.00  0.00    -0.003 C 
ATOM      9  C   UNL     1      -1.415  51.394  18.145  1.00  0.00     0.004 C 
ENDBRANCH   7   8
ENDBRANCH   6   7
ENDBRANCH   5   6
ENDBRANCH   4   5
ENDBRANCH   3   4
ENDBRANCH   2   3
ENDBRANCH   1   2
BRANCH   1  10
ATOM     10  C   UNL     1       1.791  52.746  19.320  1.00  0.00     0.000 C 
BRANCH  10  11
ATOM     11  C   UNL     1       2.357  52.608  17.894  1.00  0.00     0.000 C 
BRANCH  11  12
ATOM     12  C   UNL     1       1.511  53.354  16.848  1.00  0.00     0.000 C 
BRANCH  12  13
ATOM     13  C   UNL     1       2.270  54.525  16.202  1.00  0.00     0.000 C 
BRANCH  13  14
ATOM     14  C   UNL     1       2.079  55.846  16.967  1.00  0.00     0.002 C 
BRANCH  14  15
ATOM     15  C   UNL     1       3.387  56.371  17.579  1.00  0.00     0.028 C 
BRANCH  15  16
ATOM     16  C   UNL     1       3.142  57.555  18.520  1.00  0.00     0.156 C 
BRANCH  16  17
ATOM     17  O   UNL     1       2.068  58.335  18.067  1.00  0.00    -0.396 OA
ATOM     18  H   UNL     1       2.010  59.123  18.667  1.00  0.00     0.210 HD
ENDBRANCH  16  17
ENDBRANCH  15  16
ENDBRANCH  14  15
ENDBRANCH  13  14
ENDBRANCH  12  13
ENDBRANCH  11  12
ENDBRANCH  10  11
ENDBRANCH   1  10
TORSDOF 15
ENDMDL
MODEL 4
REMARK VINA RESULT:    -4.616      2.920      5.441
REMARK INTER + INTRA:         -10.968
REMARK INTER:                  -8.733
REMARK INTRA:                  -2.235
REMARK UNBOUND:                -2.439
REMARK SMILES CCCCCCCCCCCCCCCCO
REMARK SMILES IDX 9 1 8 2 7 3 6 4 5 5 4 6 3 7 2 8 1 9 10 10 11 11 12 12 13 13
REMARK SMILES IDX 14 14 15 15 16 16 17 17
REMARK H PARENT 17 18
REMARK Flexibility Score: inf
ROOT
ATOM      1  C   UNL     1       1.570  53.779  20.033  1.00  0.00     0.000 C 
ENDROOT
BRANCH   1   2
ATOM      2  C   UNL     1       1.689  55.262  20.417  1.00  0.00    -0.000 C 
BRANCH   2   3
ATOM      3  C   UNL     1       2.123  56.107  19.210  1.00  0.00    -0.000 C 
BRANCH   3   4
ATOM      4  C   UNL     1       0.934  56.597  18.362  1.00  0.00    -0.000 C 
BRANCH   4   5
ATOM      5  C   UNL     1       0.967  56.164  16.886  1.00  0.00    -0.000 C 
BRANCH   5   6
ATOM      6  C   UNL     1       1.814  54.910  16.591  1.00  0.00    -0.000 C 
BRANCH   6   7
ATOM      7  C   UNL     1       2.925  55.143  15.545  1.00  0.00    -0.000 C 
BRANCH   7   8
ATOM      8  C   UNL     1       4.334  55.026  16.146  1.00  0.00    -0.003 C 
ATOM      9  C   UNL     1       4.360  54.019  17.292  1.00  0.00     0.004 C 
ENDBRANCH   7   8
ENDBRANCH   6   7
ENDBRANCH   5   6
ENDBRANCH   4   5
ENDBRANCH   3   4
ENDBRANCH   2   3
ENDBRANCH   1   2
BRANCH   1  10
ATOM     10  C   UNL     1       0.112  53.317  19.878  1.00  0.00     0.000 C 
BRANCH  10  11
ATOM     11  C   UNL     1      -0.100  52.441  18.629  1.00  0.00     0.000 C 
BRANCH  11  12
ATOM     12  C   UNL     1      -1.128  53.041  17.655  1.00  0.00     0.000 C 
BRANCH  12  13
ATOM     13  C   UNL     1      -2.279  53.759  18.380  1.00  0.00     0.000 C 
BRANCH  13  14
ATOM     14  C   UNL     1      -2.630  55.111  17.737  1.00  0.00     0.002 C 
BRANCH  14  15
ATOM     15  C   UNL     1      -2.806  56.233  18.773  1.00  0.00     0.028 C 
BRANCH  15  16
ATOM     16  C   UNL     1      -4.282  56.564  19.013  1.00  0.00     0.156 C 
BRANCH  16  17
ATOM     17  O   UNL     1      -4.538  57.915  18.741  1.00  0.00    -0.396 OA
ATOM     18  H   UNL     1      -4.823  58.333  19.594  1.00  0.00     0.210 HD
ENDBRANCH  16  17
ENDBRANCH  15  16
ENDBRANCH  14  15
ENDBRANCH  13  14
ENDBRANCH  12  13
ENDBRANCH  11  12
ENDBRANCH  10  11
ENDBRANCH   1  10
TORSDOF 15
ENDMDL
MODEL 5
REMARK VINA RESULT:    -4.612      2.714      4.702
REMARK INTER + INTRA:         -10.960
REMARK INTER:                  -8.615
REMARK INTRA:                  -2.345
REMARK UNBOUND:                -2.439
REMARK SMILES CCCCCCCCCCCCCCCCO
REMARK SMILES IDX 9 1 8 2 7 3 6 4 5 5 4 6 3 7 2 8 1 9 10 10 11 11 12 12 13 13
REMARK SMILES IDX 14 14 15 15 16 16 17 17
REMARK H PARENT 17 18
REMARK Flexibility Score: inf
ROOT
ATOM      1  C   UNL     1       2.534  53.782  20.314  1.00  0.00     0.000 C 
ENDROOT
BRANCH   1   2
ATOM      2  C   UNL     1       3.727  53.390  19.429  1.00  0.00    -0.000 C 
BRANCH   2   3
ATOM      3  C   UNL     1       3.305  52.372  18.360  1.00  0.00    -0.000 C 
BRANCH   3   4
ATOM      4  C   UNL     1       1.792  52.393  18.075  1.00  0.00    -0.000 C 
BRANCH   4   5
ATOM      5  C   UNL     1       1.381  53.146  16.797  1.00  0.00    -0.000 C 
BRANCH   5   6
ATOM      6  C   UNL     1       0.869  54.582  17.022  1.00  0.00    -0.000 C 
BRANCH   6   7
ATOM      7  C   UNL     1       1.762  55.667  16.381  1.00  0.00    -0.000 C 
BRANCH   7   8
ATOM      8  C   UNL     1       3.055  55.089  15.787  1.00  0.00    -0.003 C 
ATOM      9  C   UNL     1       4.285  55.664  16.482  1.00  0.00     0.004 C 
ENDBRANCH   7   8
ENDBRANCH   6   7
ENDBRANCH   5   6
ENDBRANCH   4   5
ENDBRANCH   3   4
ENDBRANCH   2   3
ENDBRANCH   1   2
BRANCH   1  10
ATOM     10  C   UNL     1       2.243  55.291  20.289  1.00  0.00     0.000 C 
BRANCH  10  11
ATOM     11  C   UNL     1       0.735  55.602  20.287  1.00  0.00     0.000 C 
BRANCH  11  12
ATOM     12  C   UNL     1      -0.120  54.382  20.669  1.00  0.00     0.000 C 
BRANCH  12  13
ATOM     13  C   UNL     1      -1.465  54.346  19.923  1.00  0.00     0.000 C 
BRANCH  13  14
ATOM     14  C   UNL     1      -1.907  55.737  19.436  1.00  0.00     0.002 C 
BRANCH  14  15
ATOM     15  C   UNL     1      -2.784  55.673  18.177  1.00  0.00     0.028 C 
BRANCH  15  16
ATOM     16  C   UNL     1      -2.745  56.984  17.386  1.00  0.00     0.156 C 
BRANCH  16  17
ATOM     17  O   UNL     1      -4.013  57.583  17.355  1.00  0.00    -0.396 OA
ATOM     18  H   UNL     1      -3.871  58.553  17.210  1.00  0.00     0.210 HD
ENDBRANCH  16  17
ENDBRANCH  15  16
ENDBRANCH  14  15
ENDBRANCH  13  14
ENDBRANCH  12  13
ENDBRANCH  11  12
ENDBRANCH  10  11
ENDBRANCH   1  10
TORSDOF 15
ENDMDL
MODEL 6
REMARK VINA RESULT:    -4.562      1.306      2.297
REMARK INTER + INTRA:         -10.867
REMARK INTER:                  -8.639
REMARK INTRA:                  -2.229
REMARK UNBOUND:                -2.439
REMARK SMILES CCCCCCCCCCCCCCCCO
REMARK SMILES IDX 9 1 8 2 7 3 6 4 5 5 4 6 3 7 2 8 1 9 10 10 11 11 12 12 13 13
REMARK SMILES IDX 14 14 15 15 16 16 17 17
REMARK H PARENT 17 18
REMARK Flexibility Score: inf
ROOT
ATOM      1  C   UNL     1       2.412  53.168  19.459  1.00  0.00     0.000 C 
ENDROOT
BRANCH   1   2
ATOM      2  C   UNL     1       1.833  52.200  18.415  1.00  0.00    -0.000 C 
BRANCH   2   3
ATOM      3  C   UNL     1       0.579  52.791  17.756  1.00  0.00    -0.000 C 
BRANCH   3   4
ATOM      4  C   UNL     1      -0.682  51.940  17.996  1.00  0.00    -0.000 C 
BRANCH   4   5
ATOM      5  C   UNL     1      -2.008  52.722  17.975  1.00  0.00    -0.000 C 
BRANCH   5   6
ATOM      6  C   UNL     1      -2.460  53.279  19.339  1.00  0.00    -0.000 C 
BRANCH   6   7
ATOM      7  C   UNL     1      -2.658  54.810  19.351  1.00  0.00    -0.000 C 
BRANCH   7   8
ATOM      8  C   UNL     1      -2.519  55.431  17.953  1.00  0.00    -0.003 C 
ATOM      9  C   UNL     1      -3.266  56.758  17.863  1.00  0.00     0.004 C 
ENDBRANCH   7   8
ENDBRANCH   6   7
ENDBRANCH   5   6
ENDBRANCH   4   5
ENDBRANCH   3   4
ENDBRANCH   2   3
ENDBRANCH   1   2
BRANCH   1  10
ATOM     10  C   UNL     1       1.329  53.997  20.168  1.00  0.00     0.000 C 
BRANCH  10  11
ATOM     11  C   UNL     1       1.636  55.506  20.151  1.00  0.00     0.000 C 
BRANCH  11  12
ATOM     12  C   UNL     1       0.717  56.285  19.195  1.00  0.00     0.000 C 
BRANCH  12  13
ATOM     13  C   UNL     1       1.475  56.861  17.987  1.00  0.00     0.000 C 
BRANCH  13  14
ATOM     14  C   UNL     1       1.210  56.073  16.693  1.00  0.00     0.002 C 
BRANCH  14  15
ATOM     15  C   UNL     1       2.493  55.495  16.077  1.00  0.00     0.028 C 
BRANCH  15  16
ATOM     16  C   UNL     1       3.723  55.786  16.941  1.00  0.00     0.156 C 
BRANCH  16  17
ATOM     17  O   UNL     1       4.574  56.700  16.302  1.00  0.00    -0.396 OA
ATOM     18  H   UNL     1       5.481  56.298  16.301  1.00  0.00     0.210 HD
ENDBRANCH  16  17
ENDBRANCH  15  16
ENDBRANCH  14  15
ENDBRANCH  13  14
ENDBRANCH  12  13
ENDBRANCH  11  12
ENDBRANCH  10  11
ENDBRANCH   1  10
TORSDOF 15
ENDMDL
MODEL 7
REMARK VINA RESULT:    -4.529      2.945      5.643
REMARK INTER + INTRA:         -10.808
REMARK INTER:                  -8.444
REMARK INTRA:                  -2.364
REMARK UNBOUND:                -2.439
REMARK SMILES CCCCCCCCCCCCCCCCO
REMARK SMILES IDX 9 1 8 2 7 3 6 4 5 5 4 6 3 7 2 8 1 9 10 10 11 11 12 12 13 13
REMARK SMILES IDX 14 14 15 15 16 16 17 17
REMARK H PARENT 17 18
REMARK Flexibility Score: inf
ROOT
ATOM      1  C   UNL     1       0.203  52.769  17.213  1.00  0.00     0.000 C 
ENDROOT
BRANCH   1   2
ATOM      2  C   UNL     1       1.439  52.532  18.095  1.00  0.00    -0.000 C 
BRANCH   2   3
ATOM      3  C   UNL     1       1.208  53.063  19.517  1.00  0.00    -0.000 C 
BRANCH   3   4
ATOM      4  C   UNL     1       2.298  54.050  19.973  1.00  0.00    -0.000 C 
BRANCH   4   5
ATOM      5  C   UNL     1       1.837  55.512  20.106  1.00  0.00    -0.000 C 
BRANCH   5   6
ATOM      6  C   UNL     1       2.406  56.475  19.046  1.00  0.00    -0.000 C 
BRANCH   6   7
ATOM      7  C   UNL     1       1.364  56.941  18.006  1.00  0.00    -0.000 C 
BRANCH   7   8
ATOM      8  C   UNL     1       1.409  56.111  16.715  1.00  0.00    -0.003 C 
ATOM      9  C   UNL     1       2.822  55.610  16.433  1.00  0.00     0.004 C 
ENDBRANCH   7   8
ENDBRANCH   6   7
ENDBRANCH   5   6
ENDBRANCH   4   5
ENDBRANCH   3   4
ENDBRANCH   2   3
ENDBRANCH   1   2
BRANCH   1  10
ATOM     10  C   UNL     1      -1.107  52.340  17.895  1.00  0.00     0.000 C 
BRANCH  10  11
ATOM     11  C   UNL     1      -2.220  53.393  17.750  1.00  0.00     0.000 C 
BRANCH  11  12
ATOM     12  C   UNL     1      -1.740  54.811  18.101  1.00  0.00     0.000 C 
BRANCH  12  13
ATOM     13  C   UNL     1      -1.922  55.144  19.592  1.00  0.00     0.000 C 
BRANCH  13  14
ATOM     14  C   UNL     1      -2.789  54.108  20.327  1.00  0.00     0.002 C 
BRANCH  14  15
ATOM     15  C   UNL     1      -2.038  53.411  21.472  1.00  0.00     0.028 C 
BRANCH  15  16
ATOM     16  C   UNL     1      -2.981  52.997  22.606  1.00  0.00     0.156 C 
BRANCH  16  17
ATOM     17  O   UNL     1      -2.350  53.134  23.851  1.00  0.00    -0.396 OA
ATOM     18  H   UNL     1      -2.594  52.336  24.388  1.00  0.00     0.210 HD
ENDBRANCH  16  17
ENDBRANCH  15  16
ENDBRANCH  14  15
ENDBRANCH  13  14
ENDBRANCH  12  13
ENDBRANCH  11  12
ENDBRANCH  10  11
ENDBRANCH   1  10
TORSDOF 15
ENDMDL
MODEL 8
REMARK VINA RESULT:    -4.487      2.671      5.137
REMARK INTER + INTRA:         -10.729
REMARK INTER:                  -8.301
REMARK INTRA:                  -2.428
REMARK UNBOUND:                -2.439
REMARK SMILES CCCCCCCCCCCCCCCCO
REMARK SMILES IDX 9 1 8 2 7 3 6 4 5 5 4 6 3 7 2 8 1 9 10 10 11 11 12 12 13 13
REMARK SMILES IDX 14 14 15 15 16 16 17 17
REMARK H PARENT 17 18
REMARK Flexibility Score: inf
ROOT
ATOM      1  C   UNL     1       1.931  54.968  20.625  1.00  0.00     0.000 C 
ENDROOT
BRANCH   1   2
ATOM      2  C   UNL     1       2.638  53.682  20.172  1.00  0.00    -0.000 C 
BRANCH   2   3
ATOM      3  C   UNL     1       1.819  52.957  19.094  1.00  0.00    -0.000 C 
BRANCH   3   4
ATOM      4  C   UNL     1       2.301  53.265  17.665  1.00  0.00    -0.000 C 
BRANCH   4   5
ATOM      5  C   UNL     1       1.416  54.249  16.878  1.00  0.00    -0.000 C 
BRANCH   5   6
ATOM      6  C   UNL     1       2.059  55.620  16.590  1.00  0.00    -0.000 C 
BRANCH   6   7
ATOM      7  C   UNL     1       3.594  55.634  16.762  1.00  0.00    -0.000 C 
BRANCH   7   8
ATOM      8  C   UNL     1       4.057  56.653  17.814  1.00  0.00    -0.003 C 
ATOM      9  C   UNL     1       2.894  57.513  18.297  1.00  0.00     0.004 C 
ENDBRANCH   7   8
ENDBRANCH   6   7
ENDBRANCH   5   6
ENDBRANCH   4   5
ENDBRANCH   3   4
ENDBRANCH   2   3
ENDBRANCH   1   2
BRANCH   1  10
ATOM     10  C   UNL     1       0.400  54.877  20.516  1.00  0.00     0.000 C 
BRANCH  10  11
ATOM     11  C   UNL     1      -0.199  56.007  19.659  1.00  0.00     0.000 C 
BRANCH  11  12
ATOM     12  C   UNL     1      -1.704  55.818  19.401  1.00  0.00     0.000 C 
BRANCH  12  13
ATOM     13  C   UNL     1      -1.986  54.978  18.143  1.00  0.00     0.000 C 
BRANCH  13  14
ATOM     14  C   UNL     1      -2.449  53.551  18.479  1.00  0.00     0.002 C 
BRANCH  14  15
ATOM     15  C   UNL     1      -1.763  52.485  17.610  1.00  0.00     0.028 C 
BRANCH  15  16
ATOM     16  C   UNL     1      -2.283  51.077  17.916  1.00  0.00     0.156 C 
BRANCH  16  17
ATOM     17  O   UNL     1      -2.833  51.020  19.205  1.00  0.00    -0.396 OA
ATOM     18  H   UNL     1      -3.818  50.977  19.097  1.00  0.00     0.210 HD
ENDBRANCH  16  17
ENDBRANCH  15  16
ENDBRANCH  14  15
ENDBRANCH  13  14
ENDBRANCH  12  13
ENDBRANCH  11  12
ENDBRANCH  10  11
ENDBRANCH   1  10
TORSDOF 15
ENDMDL
MODEL 9
REMARK VINA RESULT:    -4.422      2.621      5.071
REMARK INTER + INTRA:         -10.610
REMARK INTER:                  -8.134
REMARK INTRA:                  -2.476
REMARK UNBOUND:                -2.439
REMARK SMILES CCCCCCCCCCCCCCCCO
REMARK SMILES IDX 9 1 8 2 7 3 6 4 5 5 4 6 3 7 2 8 1 9 10 10 11 11 12 12 13 13
REMARK SMILES IDX 14 14 15 15 16 16 17 17
REMARK H PARENT 17 18
REMARK Flexibility Score: inf
ROOT
ATOM      1  C   UNL     1       0.203  54.467  20.596  1.00  0.00     0.000 C 
ENDROOT
BRANCH   1   2
ATOM      2  C   UNL     1       1.607  55.091  20.611  1.00  0.00    -0.000 C 
BRANCH   2   3
ATOM      3  C   UNL     1       2.665  54.068  20.172  1.00  0.00    -0.000 C 
BRANCH   3   4
ATOM      4  C   UNL     1       2.140  53.076  19.118  1.00  0.00    -0.000 C 
BRANCH   4   5
ATOM      5  C   UNL     1       2.516  53.414  17.664  1.00  0.00    -0.000 C 
BRANCH   5   6
ATOM      6  C   UNL     1       1.446  54.199  16.879  1.00  0.00    -0.000 C 
BRANCH   6   7
ATOM      7  C   UNL     1       1.859  55.650  16.550  1.00  0.00    -0.000 C 
BRANCH   7   8
ATOM      8  C   UNL     1       0.905  56.686  17.165  1.00  0.00    -0.003 C 
ATOM      9  C   UNL     1       1.675  57.751  17.939  1.00  0.00     0.004 C 
ENDBRANCH   7   8
ENDBRANCH   6   7
ENDBRANCH   5   6
ENDBRANCH   4   5
ENDBRANCH   3   4
ENDBRANCH   2   3
ENDBRANCH   1   2
BRANCH   1  10
ATOM     10  C   UNL     1      -0.837  55.355  19.893  1.00  0.00     0.000 C 
BRANCH  10  11
ATOM     11  C   UNL     1      -2.094  54.572  19.472  1.00  0.00     0.000 C 
BRANCH  11  12
ATOM     12  C   UNL     1      -2.049  54.131  17.999  1.00  0.00     0.000 C 
BRANCH  12  13
ATOM     13  C   UNL     1      -2.304  52.624  17.826  1.00  0.00     0.000 C 
BRANCH  13  14
ATOM     14  C   UNL     1      -1.040  51.780  18.062  1.00  0.00     0.002 C 
BRANCH  14  15
ATOM     15  C   UNL     1      -1.069  51.030  19.403  1.00  0.00     0.028 C 
BRANCH  15  16
ATOM     16  C   UNL     1      -1.253  49.522  19.210  1.00  0.00     0.156 C 
BRANCH  16  17
ATOM     17  O   UNL     1      -0.780  49.120  17.953  1.00  0.00    -0.396 OA
ATOM     18  H   UNL     1      -0.568  49.946  17.446  1.00  0.00     0.210 HD
ENDBRANCH  16  17
ENDBRANCH  15  16
ENDBRANCH  14  15
ENDBRANCH  13  14
ENDBRANCH  12  13
ENDBRANCH  11  12
ENDBRANCH  10  11
ENDBRANCH   1  10
TORSDOF 15
ENDMDL
