MODEL 1
REMARK VINA RESULT:    -7.058      0.000      0.000
REMARK INTER + INTRA:         -10.410
REMARK INTER:                 -10.358
REMARK INTRA:                  -0.051
REMARK UNBOUND:                -0.051
REMARK SMILES O=c1c(O[C@@H]2O[C@H](CO)[C@@H](O)[C@H](O)[C@@H]2O)c(-c2ccc(O)c(O)c2)oc2cc(O)cc(O)c12
REMARK SMILES IDX 4 1 3 2 16 3 25 4 2 5 26 6 1 7 33 8 27 9 31 10 28 11 30 12
REMARK SMILES IDX 17 13 18 14 19 15 20 16 24 17 22 18 21 19 23 21 32 23 29 25
REMARK SMILES IDX 5 27 14 28 6 29 12 30 7 31 10 32 15 33 13 35 8 37 9 38 11 40
REMARK H PARENT 21 20 23 22 32 24 29 26 15 34 13 36 9 39 11 41
REMARK Flexibility Score: inf
ROOT
ATOM      1  O   UNL     1      -1.755   6.358  12.875  1.00  0.00    -0.454 OA
ENDROOT
BRANCH   1   2
ATOM      2  C   UNL     1      -1.870   6.951  11.629  1.00  0.00     0.214 A 
ATOM      3  C   UNL     1      -3.119   7.377  11.077  1.00  0.00     0.180 A 
ATOM      4  O   UNL     1      -3.122   7.799   9.801  1.00  0.00    -0.452 OA
ATOM      5  C   UNL     1      -0.717   6.959  10.796  1.00  0.00     0.239 A 
ATOM      6  C   UNL     1      -2.102   7.742   8.987  1.00  0.00     0.146 A 
ATOM      7  O   UNL     1       0.371   6.570  11.287  1.00  0.00    -0.285 OA
ATOM      8  C   UNL     1      -0.855   7.239   9.421  1.00  0.00     0.111 A 
ATOM      9  C   UNL     1      -2.302   8.056   7.637  1.00  0.00     0.094 A 
ATOM     10  C   UNL     1       0.083   6.833   8.391  1.00  0.00     0.134 A 
ATOM     11  C   UNL     1      -1.403   7.643   6.657  1.00  0.00     0.123 A 
ATOM     12  C   UNL     1      -0.248   6.946   7.025  1.00  0.00     0.093 A 
BRANCH   3  13
ATOM     13  C   UNL     1      -4.479   7.210  11.741  1.00  0.00     0.025 A 
ATOM     14  C   UNL     1      -5.697   7.129  11.047  1.00  0.00     0.016 A 
ATOM     15  C   UNL     1      -6.921   7.142  11.718  1.00  0.00     0.051 A 
ATOM     16  C   UNL     1      -6.991   7.560  13.055  1.00  0.00     0.157 A 
ATOM     17  C   UNL     1      -4.546   7.448  13.140  1.00  0.00     0.062 A 
ATOM     18  C   UNL     1      -5.779   7.638  13.793  1.00  0.00     0.158 A 
BRANCH  16  19
ATOM     19  O   UNL     1      -8.240   7.820  13.618  1.00  0.00    -0.504 OA
ATOM     20  H   UNL     1      -9.085   7.335  13.343  1.00  0.00     0.293 HD
ENDBRANCH  16  19
BRANCH  18  21
ATOM     21  O   UNL     1      -5.736   8.053  15.134  1.00  0.00    -0.504 OA
ATOM     22  H   UNL     1      -4.921   8.469  15.523  1.00  0.00     0.293 HD
ENDBRANCH  18  21
ENDBRANCH   3  13
BRANCH  10  23
ATOM     23  O   UNL     1       1.285   6.187   8.674  1.00  0.00    -0.507 OA
ATOM     24  H   UNL     1       1.466   5.250   8.344  1.00  0.00     0.293 HD
ENDBRANCH  10  23
BRANCH  11  25
ATOM     25  O   UNL     1      -1.642   7.945   5.326  1.00  0.00    -0.508 OA
ATOM     26  H   UNL     1      -1.897   8.873   4.990  1.00  0.00     0.293 HD
ENDBRANCH  11  25
ENDBRANCH   1   2
BRANCH   1  27
ATOM     27  C   UNL     1      -1.343   4.992  13.172  1.00  0.00     0.339 C 
ATOM     28  C   UNL     1       0.161   4.632  13.189  1.00  0.00     0.214 C 
ATOM     29  O   UNL     1      -1.903   4.431  14.380  1.00  0.00    -0.332 OA
ATOM     30  C   UNL     1       0.352   3.111  13.587  1.00  0.00     0.180 C 
ATOM     31  C   UNL     1      -2.257   3.100  14.061  1.00  0.00     0.179 C 
ATOM     32  C   UNL     1      -1.002   2.304  13.534  1.00  0.00     0.177 C 
BRANCH  28  33
ATOM     33  O   UNL     1       0.875   5.486  14.061  1.00  0.00    -0.384 OA
ATOM     34  H   UNL     1       1.854   5.324  13.916  1.00  0.00     0.211 HD
ENDBRANCH  28  33
BRANCH  30  35
ATOM     35  O   UNL     1       1.009   2.946  14.861  1.00  0.00    -0.387 OA
ATOM     36  H   UNL     1       0.423   2.450  15.552  1.00  0.00     0.211 HD
ENDBRANCH  30  35
BRANCH  31  37
ATOM     37  C   UNL     1      -2.993   2.388  15.216  1.00  0.00     0.191 C 
BRANCH  37  38
ATOM     38  O   UNL     1      -3.528   1.147  14.850  1.00  0.00    -0.394 OA
ATOM     39  H   UNL     1      -2.785   0.493  15.002  1.00  0.00     0.210 HD
ENDBRANCH  37  38
ENDBRANCH  31  37
BRANCH  32  40
ATOM     40  O   UNL     1      -1.244   1.932  12.186  1.00  0.00    -0.387 OA
ATOM     41  H   UNL     1      -0.354   1.924  11.714  1.00  0.00     0.211 HD
ENDBRANCH  32  40
ENDBRANCH   1  27
TORSDOF 12
ENDMDL
MODEL 2
REMARK VINA RESULT:    -6.941      2.496      7.049
REMARK INTER + INTRA:         -10.238
REMARK INTER:                  -9.594
REMARK INTRA:                  -0.644
REMARK UNBOUND:                -0.051
REMARK SMILES O=c1c(O[C@@H]2O[C@H](CO)[C@@H](O)[C@H](O)[C@@H]2O)c(-c2ccc(O)c(O)c2)oc2cc(O)cc(O)c12
REMARK SMILES IDX 4 1 3 2 16 3 25 4 2 5 26 6 1 7 33 8 27 9 31 10 28 11 30 12
REMARK SMILES IDX 17 13 18 14 19 15 20 16 24 17 22 18 21 19 23 21 32 23 29 25
REMARK SMILES IDX 5 27 14 28 6 29 12 30 7 31 10 32 15 33 13 35 8 37 9 38 11 40
REMARK H PARENT 21 20 23 22 32 24 29 26 15 34 13 36 9 39 11 41
REMARK Flexibility Score: inf
ROOT
ATOM      1  O   UNL     1      -1.920   4.047  10.982  1.00  0.00    -0.454 OA
ENDROOT
BRANCH   1   2
ATOM      2  C   UNL     1      -0.784   4.140  11.768  1.00  0.00     0.214 A 
ATOM      3  C   UNL     1      -0.410   3.144  12.723  1.00  0.00     0.180 A 
ATOM      4  O   UNL     1       0.629   3.418  13.532  1.00  0.00    -0.452 OA
ATOM      5  C   UNL     1      -0.070   5.371  11.749  1.00  0.00     0.239 A 
ATOM      6  C   UNL     1       1.251   4.565  13.595  1.00  0.00     0.146 A 
ATOM      7  O   UNL     1      -0.417   6.243  10.915  1.00  0.00    -0.285 OA
ATOM      8  C   UNL     1       0.879   5.639  12.757  1.00  0.00     0.111 A 
ATOM      9  C   UNL     1       2.200   4.758  14.607  1.00  0.00     0.094 A 
ATOM     10  C   UNL     1       1.318   6.964  13.154  1.00  0.00     0.134 A 
ATOM     11  C   UNL     1       2.598   6.037  14.990  1.00  0.00     0.123 A 
ATOM     12  C   UNL     1       2.085   7.153  14.322  1.00  0.00     0.093 A 
BRANCH   3  13
ATOM     13  C   UNL     1      -1.204   1.885  13.041  1.00  0.00     0.025 A 
ATOM     14  C   UNL     1      -1.902   1.667  14.240  1.00  0.00     0.016 A 
ATOM     15  C   UNL     1      -2.473   0.428  14.538  1.00  0.00     0.051 A 
ATOM     16  C   UNL     1      -2.095  -0.716  13.818  1.00  0.00     0.157 A 
ATOM     17  C   UNL     1      -0.979   0.755  12.209  1.00  0.00     0.062 A 
ATOM     18  C   UNL     1      -1.401  -0.533  12.592  1.00  0.00     0.158 A 
BRANCH  16  19
ATOM     19  O   UNL     1      -2.468  -1.971  14.299  1.00  0.00    -0.504 OA
ATOM     20  H   UNL     1      -1.891  -2.797  14.200  1.00  0.00     0.293 HD
ENDBRANCH  16  19
BRANCH  18  21
ATOM     21  O   UNL     1      -0.971  -1.609  11.799  1.00  0.00    -0.504 OA
ATOM     22  H   UNL     1      -0.009  -1.744  11.584  1.00  0.00     0.293 HD
ENDBRANCH  18  21
ENDBRANCH   3  13
BRANCH  10  23
ATOM     23  O   UNL     1       0.903   8.125  12.505  1.00  0.00    -0.507 OA
ATOM     24  H   UNL     1      -0.075   8.301  12.322  1.00  0.00     0.293 HD
ENDBRANCH  10  23
BRANCH  11  25
ATOM     25  O   UNL     1       3.519   6.198  16.014  1.00  0.00    -0.508 OA
ATOM     26  H   UNL     1       3.300   6.625  16.913  1.00  0.00     0.293 HD
ENDBRANCH  11  25
ENDBRANCH   1   2
BRANCH   1  27
ATOM     27  C   UNL     1      -3.199   4.714  11.190  1.00  0.00     0.339 C 
ATOM     28  C   UNL     1      -3.841   4.722  12.596  1.00  0.00     0.214 C 
ATOM     29  O   UNL     1      -3.265   6.076  10.712  1.00  0.00    -0.332 OA
ATOM     30  C   UNL     1      -5.190   5.550  12.575  1.00  0.00     0.180 C 
ATOM     31  C   UNL     1      -4.529   6.209  10.093  1.00  0.00     0.179 C 
ATOM     32  C   UNL     1      -5.682   5.854  11.108  1.00  0.00     0.177 C 
BRANCH  28  33
ATOM     33  O   UNL     1      -2.939   5.231  13.560  1.00  0.00    -0.384 OA
ATOM     34  H   UNL     1      -3.353   5.104  14.465  1.00  0.00     0.211 HD
ENDBRANCH  28  33
BRANCH  30  35
ATOM     35  O   UNL     1      -5.117   6.757  13.362  1.00  0.00    -0.387 OA
ATOM     36  H   UNL     1      -5.851   7.441  13.116  1.00  0.00     0.211 HD
ENDBRANCH  30  35
BRANCH  31  37
ATOM     37  C   UNL     1      -4.715   7.582   9.411  1.00  0.00     0.191 C 
BRANCH  37  38
ATOM     38  O   UNL     1      -3.728   7.864   8.459  1.00  0.00    -0.394 OA
ATOM     39  H   UNL     1      -2.982   7.230   8.666  1.00  0.00     0.210 HD
ENDBRANCH  37  38
ENDBRANCH  31  37
BRANCH  32  40
ATOM     40  O   UNL     1      -6.366   4.709  10.623  1.00  0.00    -0.387 OA
ATOM     41  H   UNL     1      -7.097   4.495  11.283  1.00  0.00     0.211 HD
ENDBRANCH  32  40
ENDBRANCH   1  27
TORSDOF 12
ENDMDL
MODEL 3
REMARK VINA RESULT:    -6.932      3.443      6.214
REMARK INTER + INTRA:         -10.226
REMARK INTER:                  -8.681
REMARK INTRA:                  -1.544
REMARK UNBOUND:                -0.051
REMARK SMILES O=c1c(O[C@@H]2O[C@H](CO)[C@@H](O)[C@H](O)[C@@H]2O)c(-c2ccc(O)c(O)c2)oc2cc(O)cc(O)c12
REMARK SMILES IDX 4 1 3 2 16 3 25 4 2 5 26 6 1 7 33 8 27 9 31 10 28 11 30 12
REMARK SMILES IDX 17 13 18 14 19 15 20 16 24 17 22 18 21 19 23 21 32 23 29 25
REMARK SMILES IDX 5 27 14 28 6 29 12 30 7 31 10 32 15 33 13 35 8 37 9 38 11 40
REMARK H PARENT 21 20 23 22 32 24 29 26 15 34 13 36 9 39 11 41
REMARK Flexibility Score: inf
ROOT
ATOM      1  O   UNL     1       0.549   5.958  14.100  1.00  0.00    -0.454 OA
ENDROOT
BRANCH   1   2
ATOM      2  C   UNL     1       1.712   6.649  13.805  1.00  0.00     0.214 A 
ATOM      3  C   UNL     1       1.862   7.469  12.643  1.00  0.00     0.180 A 
ATOM      4  O   UNL     1       3.084   7.966  12.386  1.00  0.00    -0.452 OA
ATOM      5  C   UNL     1       2.861   6.372  14.597  1.00  0.00     0.239 A 
ATOM      6  C   UNL     1       4.172   7.666  13.045  1.00  0.00     0.146 A 
ATOM      7  O   UNL     1       2.721   5.638  15.606  1.00  0.00    -0.285 OA
ATOM      8  C   UNL     1       4.133   6.781  14.145  1.00  0.00     0.111 A 
ATOM      9  C   UNL     1       5.401   8.124  12.555  1.00  0.00     0.094 A 
ATOM     10  C   UNL     1       5.392   6.188  14.556  1.00  0.00     0.134 A 
ATOM     11  C   UNL     1       6.601   7.533  12.944  1.00  0.00     0.123 A 
ATOM     12  C   UNL     1       6.592   6.496  13.881  1.00  0.00     0.093 A 
BRANCH   3  13
ATOM     13  C   UNL     1       0.807   7.670  11.564  1.00  0.00     0.025 A 
ATOM     14  C   UNL     1      -0.520   8.058  11.812  1.00  0.00     0.016 A 
ATOM     15  C   UNL     1      -1.480   8.064  10.798  1.00  0.00     0.051 A 
ATOM     16  C   UNL     1      -1.242   7.385   9.594  1.00  0.00     0.157 A 
ATOM     17  C   UNL     1       1.099   7.151  10.274  1.00  0.00     0.062 A 
ATOM     18  C   UNL     1       0.092   6.993   9.303  1.00  0.00     0.158 A 
BRANCH  16  19
ATOM     19  O   UNL     1      -2.304   7.180   8.713  1.00  0.00    -0.504 OA
ATOM     20  H   UNL     1      -2.377   6.368   8.112  1.00  0.00     0.293 HD
ENDBRANCH  16  19
BRANCH  18  21
ATOM     21  O   UNL     1       0.437   6.301   8.130  1.00  0.00    -0.504 OA
ATOM     22  H   UNL     1       0.969   5.461   8.160  1.00  0.00     0.293 HD
ENDBRANCH  18  21
ENDBRANCH   3  13
BRANCH  10  23
ATOM     23  O   UNL     1       5.478   5.192  15.527  1.00  0.00    -0.507 OA
ATOM     24  H   UNL     1       4.865   4.390  15.509  1.00  0.00     0.293 HD
ENDBRANCH  10  23
BRANCH  11  25
ATOM     25  O   UNL     1       7.800   7.991  12.420  1.00  0.00    -0.508 OA
ATOM     26  H   UNL     1       8.381   7.455  11.777  1.00  0.00     0.293 HD
ENDBRANCH  11  25
ENDBRANCH   1   2
BRANCH   1  27
ATOM     27  C   UNL     1       0.061   4.736  13.475  1.00  0.00     0.339 C 
ATOM     28  C   UNL     1       0.152   3.394  14.239  1.00  0.00     0.214 C 
ATOM     29  O   UNL     1      -1.284   4.809  12.952  1.00  0.00    -0.332 OA
ATOM     30  C   UNL     1      -0.489   2.231  13.376  1.00  0.00     0.180 C 
ATOM     31  C   UNL     1      -1.252   4.144  11.706  1.00  0.00     0.179 C 
ATOM     32  C   UNL     1      -0.737   2.664  11.880  1.00  0.00     0.177 C 
BRANCH  28  33
ATOM     33  O   UNL     1      -0.465   3.494  15.508  1.00  0.00    -0.384 OA
ATOM     34  H   UNL     1       0.203   3.890  16.144  1.00  0.00     0.211 HD
ENDBRANCH  28  33
BRANCH  30  35
ATOM     35  O   UNL     1      -1.688   1.691  13.970  1.00  0.00    -0.387 OA
ATOM     36  H   UNL     1      -1.494   1.095  14.791  1.00  0.00     0.211 HD
ENDBRANCH  30  35
BRANCH  31  37
ATOM     37  C   UNL     1      -2.593   4.240  10.946  1.00  0.00     0.191 C 
BRANCH  37  38
ATOM     38  O   UNL     1      -2.814   3.166  10.076  1.00  0.00    -0.394 OA
ATOM     39  H   UNL     1      -3.166   3.584   9.237  1.00  0.00     0.210 HD
ENDBRANCH  37  38
ENDBRANCH  31  37
BRANCH  32  40
ATOM     40  O   UNL     1       0.486   2.531  11.171  1.00  0.00    -0.387 OA
ATOM     41  H   UNL     1       0.987   1.759  11.582  1.00  0.00     0.211 HD
ENDBRANCH  32  40
ENDBRANCH   1  27
TORSDOF 12
ENDMDL
MODEL 4
REMARK VINA RESULT:    -6.861     16.371     17.508
REMARK INTER + INTRA:         -10.121
REMARK INTER:                  -8.823
REMARK INTRA:                  -1.298
REMARK UNBOUND:                -0.051
REMARK SMILES O=c1c(O[C@@H]2O[C@H](CO)[C@@H](O)[C@H](O)[C@@H]2O)c(-c2ccc(O)c(O)c2)oc2cc(O)cc(O)c12
REMARK SMILES IDX 4 1 3 2 16 3 25 4 2 5 26 6 1 7 33 8 27 9 31 10 28 11 30 12
REMARK SMILES IDX 17 13 18 14 19 15 20 16 24 17 22 18 21 19 23 21 32 23 29 25
REMARK SMILES IDX 5 27 14 28 6 29 12 30 7 31 10 32 15 33 13 35 8 37 9 38 11 40
REMARK H PARENT 21 20 23 22 32 24 29 26 15 34 13 36 9 39 11 41
REMARK Flexibility Score: inf
ROOT
ATOM      1  O   UNL     1       3.895 -10.922  14.219  1.00  0.00    -0.454 OA
ENDROOT
BRANCH   1   2
ATOM      2  C   UNL     1       2.638 -10.546  13.778  1.00  0.00     0.214 A 
ATOM      3  C   UNL     1       1.531 -10.333  14.658  1.00  0.00     0.180 A 
ATOM      4  O   UNL     1       0.326 -10.119  14.102  1.00  0.00    -0.452 OA
ATOM      5  C   UNL     1       2.401 -10.560  12.375  1.00  0.00     0.239 A 
ATOM      6  C   UNL     1       0.062 -10.206  12.825  1.00  0.00     0.146 A 
ATOM      7  O   UNL     1       3.378 -10.762  11.613  1.00  0.00    -0.285 OA
ATOM      8  C   UNL     1       1.077 -10.514  11.893  1.00  0.00     0.111 A 
ATOM      9  C   UNL     1      -1.274 -10.128  12.410  1.00  0.00     0.094 A 
ATOM     10  C   UNL     1       0.650 -10.986  10.589  1.00  0.00     0.134 A 
ATOM     11  C   UNL     1      -1.672 -10.604  11.163  1.00  0.00     0.123 A 
ATOM     12  C   UNL     1      -0.720 -11.121  10.281  1.00  0.00     0.093 A 
BRANCH   3  13
ATOM     13  C   UNL     1       1.557 -10.521  16.169  1.00  0.00     0.025 A 
ATOM     14  C   UNL     1       0.921 -11.572  16.850  1.00  0.00     0.016 A 
ATOM     15  C   UNL     1       0.843 -11.597  18.243  1.00  0.00     0.051 A 
ATOM     16  C   UNL     1       1.101 -10.437  18.987  1.00  0.00     0.157 A 
ATOM     17  C   UNL     1       1.993  -9.416  16.948  1.00  0.00     0.062 A 
ATOM     18  C   UNL     1       1.758  -9.359  18.335  1.00  0.00     0.158 A 
BRANCH  16  19
ATOM     19  O   UNL     1       0.761 -10.411  20.340  1.00  0.00    -0.504 OA
ATOM     20  H   UNL     1       1.324  -9.951  21.045  1.00  0.00     0.293 HD
ENDBRANCH  16  19
BRANCH  18  21
ATOM     21  O   UNL     1       2.056  -8.150  18.985  1.00  0.00    -0.504 OA
ATOM     22  H   UNL     1       2.733  -7.518  18.623  1.00  0.00     0.293 HD
ENDBRANCH  18  21
ENDBRANCH   3  13
BRANCH  10  23
ATOM     23  O   UNL     1       1.540 -11.463   9.628  1.00  0.00    -0.507 OA
ATOM     24  H   UNL     1       2.080 -12.302   9.785  1.00  0.00     0.293 HD
ENDBRANCH  10  23
BRANCH  11  25
ATOM     25  O   UNL     1      -3.006 -10.539  10.791  1.00  0.00    -0.508 OA
ATOM     26  H   UNL     1      -3.323 -10.370   9.838  1.00  0.00     0.293 HD
ENDBRANCH  11  25
ENDBRANCH   1   2
BRANCH   1  27
ATOM     27  C   UNL     1       4.968 -10.054  14.687  1.00  0.00     0.339 C 
ATOM     28  C   UNL     1       5.758  -9.196  13.672  1.00  0.00     0.214 C 
ATOM     29  O   UNL     1       4.610  -9.166  15.770  1.00  0.00    -0.332 OA
ATOM     30  C   UNL     1       6.826  -8.304  14.427  1.00  0.00     0.180 C 
ATOM     31  C   UNL     1       5.705  -9.184  16.663  1.00  0.00     0.179 C 
ATOM     32  C   UNL     1       7.031  -8.756  15.924  1.00  0.00     0.177 C 
BRANCH  28  33
ATOM     33  O   UNL     1       4.883  -8.403  12.893  1.00  0.00    -0.384 OA
ATOM     34  H   UNL     1       4.674  -8.911  12.054  1.00  0.00     0.211 HD
ENDBRANCH  28  33
BRANCH  30  35
ATOM     35  O   UNL     1       6.537  -6.894  14.342  1.00  0.00    -0.387 OA
ATOM     36  H   UNL     1       7.371  -6.327  14.116  1.00  0.00     0.211 HD
ENDBRANCH  30  35
BRANCH  31  37
ATOM     37  C   UNL     1       5.434  -8.378  17.952  1.00  0.00     0.191 C 
BRANCH  37  38
ATOM     38  O   UNL     1       4.695  -7.211  17.729  1.00  0.00    -0.394 OA
ATOM     39  H   UNL     1       5.378  -6.481  17.671  1.00  0.00     0.210 HD
ENDBRANCH  37  38
ENDBRANCH  31  37
BRANCH  32  40
ATOM     40  O   UNL     1       7.925  -9.857  15.938  1.00  0.00    -0.387 OA
ATOM     41  H   UNL     1       7.718 -10.420  15.127  1.00  0.00     0.211 HD
ENDBRANCH  32  40
ENDBRANCH   1  27
TORSDOF 12
ENDMDL
MODEL 5
REMARK VINA RESULT:    -6.847     15.647     17.802
REMARK INTER + INTRA:         -10.100
REMARK INTER:                  -8.159
REMARK INTRA:                  -1.941
REMARK UNBOUND:                -0.051
REMARK SMILES O=c1c(O[C@@H]2O[C@H](CO)[C@@H](O)[C@H](O)[C@@H]2O)c(-c2ccc(O)c(O)c2)oc2cc(O)cc(O)c12
REMARK SMILES IDX 4 1 3 2 16 3 25 4 2 5 26 6 1 7 33 8 27 9 31 10 28 11 30 12
REMARK SMILES IDX 17 13 18 14 19 15 20 16 24 17 22 18 21 19 23 21 32 23 29 25
REMARK SMILES IDX 5 27 14 28 6 29 12 30 7 31 10 32 15 33 13 35 8 37 9 38 11 40
REMARK H PARENT 21 20 23 22 32 24 29 26 15 34 13 36 9 39 11 41
REMARK Flexibility Score: inf
ROOT
ATOM      1  O   UNL     1       2.915 -11.104  15.550  1.00  0.00    -0.454 OA
ENDROOT
BRANCH   1   2
ATOM      2  C   UNL     1       2.498 -10.903  14.245  1.00  0.00     0.214 A 
ATOM      3  C   UNL     1       3.360 -10.412  13.215  1.00  0.00     0.180 A 
ATOM      4  O   UNL     1       2.804 -10.115  12.027  1.00  0.00    -0.452 OA
ATOM      5  C   UNL     1       1.106 -11.013  13.974  1.00  0.00     0.239 A 
ATOM      6  C   UNL     1       1.522 -10.127  11.774  1.00  0.00     0.146 A 
ATOM      7  O   UNL     1       0.357 -11.432  14.891  1.00  0.00    -0.285 OA
ATOM      8  C   UNL     1       0.589 -10.502  12.766  1.00  0.00     0.111 A 
ATOM      9  C   UNL     1       1.077  -9.626  10.544  1.00  0.00     0.094 A 
ATOM     10  C   UNL     1      -0.791 -10.108  12.551  1.00  0.00     0.134 A 
ATOM     11  C   UNL     1      -0.246  -9.235  10.358  1.00  0.00     0.123 A 
ATOM     12  C   UNL     1      -1.168  -9.390  11.398  1.00  0.00     0.093 A 
BRANCH   3  13
ATOM     13  C   UNL     1       4.817 -10.008  13.401  1.00  0.00     0.025 A 
ATOM     14  C   UNL     1       5.865 -10.909  13.645  1.00  0.00     0.016 A 
ATOM     15  C   UNL     1       7.148 -10.465  13.970  1.00  0.00     0.051 A 
ATOM     16  C   UNL     1       7.355  -9.140  14.382  1.00  0.00     0.157 A 
ATOM     17  C   UNL     1       5.078  -8.632  13.638  1.00  0.00     0.062 A 
ATOM     18  C   UNL     1       6.321  -8.197  14.136  1.00  0.00     0.158 A 
BRANCH  16  19
ATOM     19  O   UNL     1       8.580  -8.792  14.952  1.00  0.00    -0.504 OA
ATOM     20  H   UNL     1       9.344  -9.446  15.066  1.00  0.00     0.293 HD
ENDBRANCH  16  19
BRANCH  18  21
ATOM     21  O   UNL     1       6.422  -6.849  14.515  1.00  0.00    -0.504 OA
ATOM     22  H   UNL     1       6.839  -6.171  13.918  1.00  0.00     0.293 HD
ENDBRANCH  18  21
ENDBRANCH   3  13
BRANCH  10  23
ATOM     23  O   UNL     1      -1.785 -10.282  13.512  1.00  0.00    -0.507 OA
ATOM     24  H   UNL     1      -2.149  -9.499  14.036  1.00  0.00     0.293 HD
ENDBRANCH  10  23
BRANCH  11  25
ATOM     25  O   UNL     1      -0.651  -8.717   9.137  1.00  0.00    -0.508 OA
ATOM     26  H   UNL     1      -1.318  -7.953   9.037  1.00  0.00     0.293 HD
ENDBRANCH  11  25
ENDBRANCH   1   2
BRANCH   1  27
ATOM     27  C   UNL     1       3.399 -10.102  16.490  1.00  0.00     0.339 C 
ATOM     28  C   UNL     1       2.410  -9.428  17.470  1.00  0.00     0.214 C 
ATOM     29  O   UNL     1       4.538 -10.504  17.283  1.00  0.00    -0.332 OA
ATOM     30  C   UNL     1       3.183  -8.422  18.418  1.00  0.00     0.180 C 
ATOM     31  C   UNL     1       5.398  -9.383  17.323  1.00  0.00     0.179 C 
ATOM     32  C   UNL     1       4.647  -8.128  17.912  1.00  0.00     0.177 C 
BRANCH  28  33
ATOM     33  O   UNL     1       1.700 -10.397  18.216  1.00  0.00    -0.384 OA
ATOM     34  H   UNL     1       0.795 -10.505  17.797  1.00  0.00     0.211 HD
ENDBRANCH  28  33
BRANCH  30  35
ATOM     35  O   UNL     1       3.182  -8.844  19.798  1.00  0.00    -0.387 OA
ATOM     36  H   UNL     1       2.649  -8.205  20.411  1.00  0.00     0.211 HD
ENDBRANCH  30  35
BRANCH  31  37
ATOM     37  C   UNL     1       6.736  -9.685  18.032  1.00  0.00     0.191 C 
BRANCH  37  38
ATOM     38  O   UNL     1       7.719  -8.718  17.794  1.00  0.00    -0.394 OA
ATOM     39  H   UNL     1       8.392  -8.851  18.523  1.00  0.00     0.210 HD
ENDBRANCH  37  38
ENDBRANCH  31  37
BRANCH  32  40
ATOM     40  O   UNL     1       4.575  -7.136  16.900  1.00  0.00    -0.387 OA
ATOM     41  H   UNL     1       5.301  -6.462  17.091  1.00  0.00     0.211 HD
ENDBRANCH  32  40
ENDBRANCH   1  27
TORSDOF 12
ENDMDL
MODEL 6
REMARK VINA RESULT:    -6.810      2.712      6.171
REMARK INTER + INTRA:         -10.047
REMARK INTER:                  -9.724
REMARK INTRA:                  -0.323
REMARK UNBOUND:                -0.051
REMARK SMILES O=c1c(O[C@@H]2O[C@H](CO)[C@@H](O)[C@H](O)[C@@H]2O)c(-c2ccc(O)c(O)c2)oc2cc(O)cc(O)c12
REMARK SMILES IDX 4 1 3 2 16 3 25 4 2 5 26 6 1 7 33 8 27 9 31 10 28 11 30 12
REMARK SMILES IDX 17 13 18 14 19 15 20 16 24 17 22 18 21 19 23 21 32 23 29 25
REMARK SMILES IDX 5 27 14 28 6 29 12 30 7 31 10 32 15 33 13 35 8 37 9 38 11 40
REMARK H PARENT 21 20 23 22 32 24 29 26 15 34 13 36 9 39 11 41
REMARK Flexibility Score: inf
ROOT
ATOM      1  O   UNL     1      -0.461   4.483  12.670  1.00  0.00    -0.454 OA
ENDROOT
BRANCH   1   2
ATOM      2  C   UNL     1       0.442   5.393  13.194  1.00  0.00     0.214 A 
ATOM      3  C   UNL     1       0.660   6.691  12.635  1.00  0.00     0.180 A 
ATOM      4  O   UNL     1       1.667   7.424  13.140  1.00  0.00    -0.452 OA
ATOM      5  C   UNL     1       1.318   4.935  14.217  1.00  0.00     0.239 A 
ATOM      6  C   UNL     1       2.537   7.003  14.018  1.00  0.00     0.146 A 
ATOM      7  O   UNL     1       1.126   3.788  14.691  1.00  0.00    -0.285 OA
ATOM      8  C   UNL     1       2.458   5.696  14.549  1.00  0.00     0.111 A 
ATOM      9  C   UNL     1       3.634   7.819  14.320  1.00  0.00     0.094 A 
ATOM     10  C   UNL     1       3.653   5.171  15.183  1.00  0.00     0.134 A 
ATOM     11  C   UNL     1       4.783   7.297  14.912  1.00  0.00     0.123 A 
ATOM     12  C   UNL     1       4.830   5.945  15.263  1.00  0.00     0.093 A 
BRANCH   3  13
ATOM     13  C   UNL     1      -0.021   7.239  11.388  1.00  0.00     0.025 A 
ATOM     14  C   UNL     1      -1.328   7.749  11.355  1.00  0.00     0.016 A 
ATOM     15  C   UNL     1      -1.952   8.083  10.151  1.00  0.00     0.051 A 
ATOM     16  C   UNL     1      -1.430   7.623   8.933  1.00  0.00     0.157 A 
ATOM     17  C   UNL     1       0.590   6.944  10.139  1.00  0.00     0.062 A 
ATOM     18  C   UNL     1      -0.103   7.116   8.926  1.00  0.00     0.158 A 
BRANCH  16  19
ATOM     19  O   UNL     1      -2.205   7.739   7.779  1.00  0.00    -0.504 OA
ATOM     20  H   UNL     1      -3.200   7.923   7.795  1.00  0.00     0.293 HD
ENDBRANCH  16  19
BRANCH  18  21
ATOM     21  O   UNL     1       0.511   6.623   7.763  1.00  0.00    -0.504 OA
ATOM     22  H   UNL     1       1.138   5.851   7.794  1.00  0.00     0.293 HD
ENDBRANCH  18  21
ENDBRANCH   3  13
BRANCH  10  23
ATOM     23  O   UNL     1       3.762   3.852  15.617  1.00  0.00    -0.507 OA
ATOM     24  H   UNL     1       4.473   3.236  15.248  1.00  0.00     0.293 HD
ENDBRANCH  10  23
BRANCH  11  25
ATOM     25  O   UNL     1       5.864   8.125  15.174  1.00  0.00    -0.508 OA
ATOM     26  H   UNL     1       6.359   8.148  16.064  1.00  0.00     0.293 HD
ENDBRANCH  11  25
ENDBRANCH   1   2
BRANCH   1  27
ATOM     27  C   UNL     1      -1.060   3.340  13.344  1.00  0.00     0.339 C 
ATOM     28  C   UNL     1      -2.215   3.560  14.349  1.00  0.00     0.214 C 
ATOM     29  O   UNL     1      -1.486   2.268  12.474  1.00  0.00    -0.332 OA
ATOM     30  C   UNL     1      -2.728   2.169  14.904  1.00  0.00     0.180 C 
ATOM     31  C   UNL     1      -1.104   1.070  13.119  1.00  0.00     0.179 C 
ATOM     32  C   UNL     1      -1.743   0.988  14.558  1.00  0.00     0.177 C 
BRANCH  28  33
ATOM     33  O   UNL     1      -3.266   4.298  13.756  1.00  0.00    -0.384 OA
ATOM     34  H   UNL     1      -3.343   4.007  12.799  1.00  0.00     0.211 HD
ENDBRANCH  28  33
BRANCH  30  35
ATOM     35  O   UNL     1      -4.075   1.865  14.486  1.00  0.00    -0.387 OA
ATOM     36  H   UNL     1      -4.427   2.514  13.763  1.00  0.00     0.211 HD
ENDBRANCH  30  35
BRANCH  31  37
ATOM     37  C   UNL     1      -1.375  -0.182  12.256  1.00  0.00     0.191 C 
BRANCH  37  38
ATOM     38  O   UNL     1      -1.013  -1.378  12.888  1.00  0.00    -0.394 OA
ATOM     39  H   UNL     1      -1.852  -1.697  13.332  1.00  0.00     0.210 HD
ENDBRANCH  37  38
ENDBRANCH  31  37
BRANCH  32  40
ATOM     40  O   UNL     1      -0.692   0.992  15.513  1.00  0.00    -0.387 OA
ATOM     41  H   UNL     1      -1.104   0.794  16.411  1.00  0.00     0.211 HD
ENDBRANCH  32  40
ENDBRANCH   1  27
TORSDOF 12
ENDMDL
MODEL 7
REMARK VINA RESULT:    -6.806     15.577     17.856
REMARK INTER + INTRA:         -10.041
REMARK INTER:                  -8.947
REMARK INTRA:                  -1.093
REMARK UNBOUND:                -0.051
REMARK SMILES O=c1c(O[C@@H]2O[C@H](CO)[C@@H](O)[C@H](O)[C@@H]2O)c(-c2ccc(O)c(O)c2)oc2cc(O)cc(O)c12
REMARK SMILES IDX 4 1 3 2 16 3 25 4 2 5 26 6 1 7 33 8 27 9 31 10 28 11 30 12
REMARK SMILES IDX 17 13 18 14 19 15 20 16 24 17 22 18 21 19 23 21 32 23 29 25
REMARK SMILES IDX 5 27 14 28 6 29 12 30 7 31 10 32 15 33 13 35 8 37 9 38 11 40
REMARK H PARENT 21 20 23 22 32 24 29 26 15 34 13 36 9 39 11 41
REMARK Flexibility Score: inf
ROOT
ATOM      1  O   UNL     1       2.182 -11.372  17.436  1.00  0.00    -0.454 OA
ENDROOT
BRANCH   1   2
ATOM      2  C   UNL     1       2.865 -10.887  16.334  1.00  0.00     0.214 A 
ATOM      3  C   UNL     1       3.893  -9.897  16.423  1.00  0.00     0.180 A 
ATOM      4  O   UNL     1       4.375  -9.396  15.273  1.00  0.00    -0.452 OA
ATOM      5  C   UNL     1       2.383 -11.256  15.047  1.00  0.00     0.239 A 
ATOM      6  C   UNL     1       3.900  -9.653  14.083  1.00  0.00     0.146 A 
ATOM      7  O   UNL     1       1.470 -12.115  14.981  1.00  0.00    -0.285 OA
ATOM      8  C   UNL     1       2.816 -10.542  13.911  1.00  0.00     0.111 A 
ATOM      9  C   UNL     1       4.391  -8.923  12.993  1.00  0.00     0.094 A 
ATOM     10  C   UNL     1       2.097 -10.464  12.653  1.00  0.00     0.134 A 
ATOM     11  C   UNL     1       3.680  -8.842  11.798  1.00  0.00     0.123 A 
ATOM     12  C   UNL     1       2.479  -9.542  11.656  1.00  0.00     0.093 A 
BRANCH   3  13
ATOM     13  C   UNL     1       4.354  -9.217  17.706  1.00  0.00     0.025 A 
ATOM     14  C   UNL     1       3.558  -8.356  18.478  1.00  0.00     0.016 A 
ATOM     15  C   UNL     1       4.090  -7.636  19.550  1.00  0.00     0.051 A 
ATOM     16  C   UNL     1       5.479  -7.496  19.688  1.00  0.00     0.157 A 
ATOM     17  C   UNL     1       5.750  -9.219  17.969  1.00  0.00     0.062 A 
ATOM     18  C   UNL     1       6.314  -8.362  18.933  1.00  0.00     0.158 A 
BRANCH  16  19
ATOM     19  O   UNL     1       5.977  -6.563  20.597  1.00  0.00    -0.504 OA
ATOM     20  H   UNL     1       6.187  -5.604  20.350  1.00  0.00     0.293 HD
ENDBRANCH  16  19
BRANCH  18  21
ATOM     21  O   UNL     1       7.716  -8.299  18.991  1.00  0.00    -0.504 OA
ATOM     22  H   UNL     1       8.286  -8.821  18.365  1.00  0.00     0.293 HD
ENDBRANCH  18  21
ENDBRANCH   3  13
BRANCH  10  23
ATOM     23  O   UNL     1       0.924 -11.175  12.407  1.00  0.00    -0.507 OA
ATOM     24  H   UNL     1       0.168 -11.186  13.077  1.00  0.00     0.293 HD
ENDBRANCH  10  23
BRANCH  11  25
ATOM     25  O   UNL     1       4.179  -8.090  10.746  1.00  0.00    -0.508 OA
ATOM     26  H   UNL     1       4.612  -8.491   9.915  1.00  0.00     0.293 HD
ENDBRANCH  11  25
ENDBRANCH   1   2
BRANCH   1  27
ATOM     27  C   UNL     1       0.804 -11.095  17.819  1.00  0.00     0.339 C 
ATOM     28  C   UNL     1       0.411 -11.083  19.315  1.00  0.00     0.214 C 
ATOM     29  O   UNL     1       0.239  -9.895  17.246  1.00  0.00    -0.332 OA
ATOM     30  C   UNL     1      -1.119 -10.706  19.473  1.00  0.00     0.180 C 
ATOM     31  C   UNL     1      -1.080 -10.232  16.864  1.00  0.00     0.179 C 
ATOM     32  C   UNL     1      -1.895 -10.770  18.102  1.00  0.00     0.177 C 
BRANCH  28  33
ATOM     33  O   UNL     1       1.237 -10.199  20.047  1.00  0.00    -0.384 OA
ATOM     34  H   UNL     1       0.687  -9.397  20.293  1.00  0.00     0.211 HD
ENDBRANCH  28  33
BRANCH  30  35
ATOM     35  O   UNL     1      -1.316  -9.434  20.126  1.00  0.00    -0.387 OA
ATOM     36  H   UNL     1      -1.028  -8.634  19.538  1.00  0.00     0.211 HD
ENDBRANCH  30  35
BRANCH  31  37
ATOM     37  C   UNL     1      -1.792  -9.087  16.112  1.00  0.00     0.191 C 
BRANCH  37  38
ATOM     38  O   UNL     1      -0.926  -8.060  15.720  1.00  0.00    -0.394 OA
ATOM     39  H   UNL     1      -0.038  -8.506  15.595  1.00  0.00     0.210 HD
ENDBRANCH  37  38
ENDBRANCH  31  37
BRANCH  32  40
ATOM     40  O   UNL     1      -2.244 -12.123  17.852  1.00  0.00    -0.387 OA
ATOM     41  H   UNL     1      -1.472 -12.544  17.358  1.00  0.00     0.211 HD
ENDBRANCH  32  40
ENDBRANCH   1  27
TORSDOF 12
ENDMDL
MODEL 8
REMARK VINA RESULT:    -6.689     15.761     17.552
REMARK INTER + INTRA:          -9.868
REMARK INTER:                  -8.299
REMARK INTRA:                  -1.570
REMARK UNBOUND:                -0.051
REMARK SMILES O=c1c(O[C@@H]2O[C@H](CO)[C@@H](O)[C@H](O)[C@@H]2O)c(-c2ccc(O)c(O)c2)oc2cc(O)cc(O)c12
REMARK SMILES IDX 4 1 3 2 16 3 25 4 2 5 26 6 1 7 33 8 27 9 31 10 28 11 30 12
REMARK SMILES IDX 17 13 18 14 19 15 20 16 24 17 22 18 21 19 23 21 32 23 29 25
REMARK SMILES IDX 5 27 14 28 6 29 12 30 7 31 10 32 15 33 13 35 8 37 9 38 11 40
REMARK H PARENT 21 20 23 22 32 24 29 26 15 34 13 36 9 39 11 41
REMARK Flexibility Score: inf
ROOT
ATOM      1  O   UNL     1       1.388 -11.049  13.690  1.00  0.00    -0.454 OA
ENDROOT
BRANCH   1   2
ATOM      2  C   UNL     1       0.245 -10.417  14.150  1.00  0.00     0.214 A 
ATOM      3  C   UNL     1       0.059 -10.030  15.514  1.00  0.00     0.180 A 
ATOM      4  O   UNL     1      -1.150  -9.563  15.868  1.00  0.00    -0.452 OA
ATOM      5  C   UNL     1      -0.859 -10.324  13.258  1.00  0.00     0.239 A 
ATOM      6  C   UNL     1      -2.204  -9.542  15.097  1.00  0.00     0.146 A 
ATOM      7  O   UNL     1      -0.688 -10.680  12.066  1.00  0.00    -0.285 OA
ATOM      8  C   UNL     1      -2.136 -10.001  13.763  1.00  0.00     0.111 A 
ATOM      9  C   UNL     1      -3.438  -9.188  15.656  1.00  0.00     0.094 A 
ATOM     10  C   UNL     1      -3.393 -10.326  13.115  1.00  0.00     0.134 A 
ATOM     11  C   UNL     1      -4.637  -9.524  15.032  1.00  0.00     0.123 A 
ATOM     12  C   UNL     1      -4.618 -10.178  13.797  1.00  0.00     0.093 A 
BRANCH   3  13
ATOM     13  C   UNL     1       1.047 -10.285  16.645  1.00  0.00     0.025 A 
ATOM     14  C   UNL     1       1.154 -11.494  17.349  1.00  0.00     0.016 A 
ATOM     15  C   UNL     1       1.962 -11.611  18.482  1.00  0.00     0.051 A 
ATOM     16  C   UNL     1       2.430 -10.462  19.137  1.00  0.00     0.157 A 
ATOM     17  C   UNL     1       1.683  -9.147  17.212  1.00  0.00     0.062 A 
ATOM     18  C   UNL     1       2.353  -9.223  18.448  1.00  0.00     0.158 A 
BRANCH  16  19
ATOM     19  O   UNL     1       3.004 -10.593  20.403  1.00  0.00    -0.504 OA
ATOM     20  H   UNL     1       3.213 -11.487  20.827  1.00  0.00     0.293 HD
ENDBRANCH  16  19
BRANCH  18  21
ATOM     21  O   UNL     1       2.785  -8.014  19.016  1.00  0.00    -0.504 OA
ATOM     22  H   UNL     1       3.107  -7.967  19.956  1.00  0.00     0.293 HD
ENDBRANCH  18  21
ENDBRANCH   3  13
BRANCH  10  23
ATOM     23  O   UNL     1      -3.464 -10.924  11.859  1.00  0.00    -0.507 OA
ATOM     24  H   UNL     1      -4.039 -10.535  11.125  1.00  0.00     0.293 HD
ENDBRANCH  10  23
BRANCH  11  25
ATOM     25  O   UNL     1      -5.844  -9.184  15.624  1.00  0.00    -0.508 OA
ATOM     26  H   UNL     1      -5.925  -8.747  16.541  1.00  0.00     0.293 HD
ENDBRANCH  11  25
ENDBRANCH   1   2
BRANCH   1  27
ATOM     27  C   UNL     1       2.642 -10.428  13.283  1.00  0.00     0.339 C 
ATOM     28  C   UNL     1       2.853 -10.022  11.806  1.00  0.00     0.214 C 
ATOM     29  O   UNL     1       3.048  -9.290  14.074  1.00  0.00    -0.332 OA
ATOM     30  C   UNL     1       4.263  -9.324  11.629  1.00  0.00     0.180 C 
ATOM     31  C   UNL     1       4.441  -9.432  14.272  1.00  0.00     0.179 C 
ATOM     32  C   UNL     1       5.191  -9.522  12.888  1.00  0.00     0.177 C 
BRANCH  28  33
ATOM     33  O   UNL     1       1.804  -9.185  11.359  1.00  0.00    -0.384 OA
ATOM     34  H   UNL     1       1.599  -9.432  10.408  1.00  0.00     0.211 HD
ENDBRANCH  28  33
BRANCH  30  35
ATOM     35  O   UNL     1       4.155  -7.930  11.273  1.00  0.00    -0.387 OA
ATOM     36  H   UNL     1       3.671  -7.370  11.994  1.00  0.00     0.211 HD
ENDBRANCH  30  35
BRANCH  31  37
ATOM     37  C   UNL     1       5.020  -8.354  15.214  1.00  0.00     0.191 C 
BRANCH  37  38
ATOM     38  O   UNL     1       5.705  -7.339  14.537  1.00  0.00    -0.394 OA
ATOM     39  H   UNL     1       5.958  -6.681  15.248  1.00  0.00     0.210 HD
ENDBRANCH  37  38
ENDBRANCH  31  37
BRANCH  32  40
ATOM     40  O   UNL     1       5.800 -10.801  12.794  1.00  0.00    -0.387 OA
ATOM     41  H   UNL     1       6.548 -10.727  12.122  1.00  0.00     0.211 HD
ENDBRANCH  32  40
ENDBRANCH   1  27
TORSDOF 12
ENDMDL
MODEL 9
REMARK VINA RESULT:    -6.543     15.981     18.425
REMARK INTER + INTRA:          -9.654
REMARK INTER:                  -8.802
REMARK INTRA:                  -0.852
REMARK UNBOUND:                -0.051
REMARK SMILES O=c1c(O[C@@H]2O[C@H](CO)[C@@H](O)[C@H](O)[C@@H]2O)c(-c2ccc(O)c(O)c2)oc2cc(O)cc(O)c12
REMARK SMILES IDX 4 1 3 2 16 3 25 4 2 5 26 6 1 7 33 8 27 9 31 10 28 11 30 12
REMARK SMILES IDX 17 13 18 14 19 15 20 16 24 17 22 18 21 19 23 21 32 23 29 25
REMARK SMILES IDX 5 27 14 28 6 29 12 30 7 31 10 32 15 33 13 35 8 37 9 38 11 40
REMARK H PARENT 21 20 23 22 32 24 29 26 15 34 13 36 9 39 11 41
REMARK Flexibility Score: inf
ROOT
ATOM      1  O   UNL     1       3.349 -10.994  16.370  1.00  0.00    -0.454 OA
ENDROOT
BRANCH   1   2
ATOM      2  C   UNL     1       2.002 -11.104  16.670  1.00  0.00     0.214 A 
ATOM      3  C   UNL     1       0.966 -10.889  15.709  1.00  0.00     0.180 A 
ATOM      4  O   UNL     1      -0.303 -10.876  16.155  1.00  0.00    -0.452 OA
ATOM      5  C   UNL     1       1.644 -11.253  18.039  1.00  0.00     0.239 A 
ATOM      6  C   UNL     1      -0.659 -10.928  17.411  1.00  0.00     0.146 A 
ATOM      7  O   UNL     1       2.563 -11.428  18.876  1.00  0.00    -0.285 OA
ATOM      8  C   UNL     1       0.307 -11.039  18.435  1.00  0.00     0.111 A 
ATOM      9  C   UNL     1      -2.007 -10.730  17.735  1.00  0.00     0.094 A 
ATOM     10  C   UNL     1      -0.115 -10.686  19.778  1.00  0.00     0.134 A 
ATOM     11  C   UNL     1      -2.396 -10.372  19.023  1.00  0.00     0.123 A 
ATOM     12  C   UNL     1      -1.435 -10.259  20.033  1.00  0.00     0.093 A 
BRANCH   3  13
ATOM     13  C   UNL     1       1.179 -10.476  14.259  1.00  0.00     0.025 A 
ATOM     14  C   UNL     1       0.279  -9.700  13.513  1.00  0.00     0.016 A 
ATOM     15  C   UNL     1       0.453  -9.495  12.143  1.00  0.00     0.051 A 
ATOM     16  C   UNL     1       1.331 -10.309  11.412  1.00  0.00     0.157 A 
ATOM     17  C   UNL     1       2.196 -11.160  13.539  1.00  0.00     0.062 A 
ATOM     18  C   UNL     1       2.267 -11.096  12.134  1.00  0.00     0.158 A 
BRANCH  16  19
ATOM     19  O   UNL     1       1.290 -10.266  10.018  1.00  0.00    -0.504 OA
ATOM     20  H   UNL     1       0.456 -10.034   9.494  1.00  0.00     0.293 HD
ENDBRANCH  16  19
BRANCH  18  21
ATOM     21  O   UNL     1       3.184 -11.951  11.501  1.00  0.00    -0.504 OA
ATOM     22  H   UNL     1       3.044 -12.262  10.566  1.00  0.00     0.293 HD
ENDBRANCH  18  21
ENDBRANCH   3  13
BRANCH  10  23
ATOM     23  O   UNL     1       0.767 -10.608  20.853  1.00  0.00    -0.507 OA
ATOM     24  H   UNL     1       0.430 -10.513  21.801  1.00  0.00     0.293 HD
ENDBRANCH  10  23
BRANCH  11  25
ATOM     25  O   UNL     1      -3.736 -10.156  19.307  1.00  0.00    -0.508 OA
ATOM     26  H   UNL     1      -4.488 -10.773  19.005  1.00  0.00     0.293 HD
ENDBRANCH  11  25
ENDBRANCH   1   2
BRANCH   1  27
ATOM     27  C   UNL     1       4.123  -9.770  16.206  1.00  0.00     0.339 C 
ATOM     28  C   UNL     1       3.522  -8.416  16.649  1.00  0.00     0.214 C 
ATOM     29  O   UNL     1       5.461  -9.813  16.751  1.00  0.00    -0.332 OA
ATOM     30  C   UNL     1       4.570  -7.252  16.419  1.00  0.00     0.180 C 
ATOM     31  C   UNL     1       6.288  -9.175  15.799  1.00  0.00     0.179 C 
ATOM     32  C   UNL     1       5.781  -7.708  15.518  1.00  0.00     0.177 C 
BRANCH  28  33
ATOM     33  O   UNL     1       3.100  -8.470  17.998  1.00  0.00    -0.384 OA
ATOM     34  H   UNL     1       3.011  -9.436  18.254  1.00  0.00     0.211 HD
ENDBRANCH  28  33
BRANCH  30  35
ATOM     35  O   UNL     1       5.030  -6.663  17.653  1.00  0.00    -0.387 OA
ATOM     36  H   UNL     1       5.837  -6.032  17.519  1.00  0.00     0.211 HD
ENDBRANCH  30  35
BRANCH  31  37
ATOM     37  C   UNL     1       7.785  -9.245  16.170  1.00  0.00     0.191 C 
BRANCH  37  38
ATOM     38  O   UNL     1       8.054  -8.804  17.471  1.00  0.00    -0.394 OA
ATOM     39  H   UNL     1       8.931  -9.223  17.709  1.00  0.00     0.210 HD
ENDBRANCH  37  38
ENDBRANCH  31  37
BRANCH  32  40
ATOM     40  O   UNL     1       5.379  -7.629  14.159  1.00  0.00    -0.387 OA
ATOM     41  H   UNL     1       6.211  -7.700  13.596  1.00  0.00     0.211 HD
ENDBRANCH  32  40
ENDBRANCH   1  27
TORSDOF 12
ENDMDL
