MODEL 1
REMARK VINA RESULT:    -5.885      0.000      0.000
REMARK INTER + INTRA:          -7.699
REMARK INTER:                  -7.262
REMARK INTRA:                  -0.438
REMARK UNBOUND:                -0.438
REMARK SMILES CC(C)=CCC[C@H](C)c1ccc(C)cc1
REMARK SMILES IDX 6 1 7 2 8 3 9 4 13 5 12 6 11 7 14 8 10 9 15 10 5 11 4 12
REMARK SMILES IDX 2 13 1 14 3 15
REMARK H PARENT
REMARK Flexibility Score: inf
ROOT
ATOM      1  C   UNL     1      -0.334 -26.308  -0.294  1.00  0.00     0.012 C 
ENDROOT
BRANCH   1   2
ATOM      2  C   UNL     1       1.021 -26.495   0.432  1.00  0.00     0.016 C 
ATOM      3  C   UNL     1       0.935 -26.163   1.930  1.00  0.00     0.013 C 
BRANCH   2   4
ATOM      4  C   UNL     1       2.093 -25.652  -0.237  1.00  0.00    -0.045 A 
ATOM      5  C   UNL     1       5.123 -23.226  -2.133  1.00  0.00     0.044 C 
ATOM      6  C   UNL     1       4.085 -24.063  -1.447  1.00  0.00    -0.051 A 
ATOM      7  C   UNL     1       2.882 -23.485  -1.016  1.00  0.00     0.004 A 
ATOM      8  C   UNL     1       4.279 -25.443  -1.290  1.00  0.00     0.004 A 
ATOM      9  C   UNL     1       1.898 -24.271  -0.409  1.00  0.00     0.004 A 
ATOM     10  C   UNL     1       3.296 -26.230  -0.683  1.00  0.00     0.004 A 
ENDBRANCH   2   4
ENDBRANCH   1   2
BRANCH   1  11
ATOM     11  C   UNL     1      -1.283 -27.515  -0.180  1.00  0.00     0.028 C 
BRANCH  11  12
ATOM     12  C   UNL     1      -1.672 -28.071  -1.530  1.00  0.00    -0.028 C 
ATOM     13  C   UNL     1      -2.790 -28.789  -1.772  1.00  0.00    -0.080 C 
ATOM     14  C   UNL     1      -3.756 -29.165  -0.674  1.00  0.00     0.039 C 
ATOM     15  C   UNL     1      -3.058 -29.244  -3.184  1.00  0.00     0.039 C 
ENDBRANCH  11  12
ENDBRANCH   1  11
TORSDOF 4
ENDMDL
MODEL 2
REMARK VINA RESULT:    -5.777      5.726      9.398
REMARK INTER + INTRA:          -7.565
REMARK INTER:                  -6.322
REMARK INTRA:                  -1.243
REMARK UNBOUND:                -0.438
REMARK SMILES CC(C)=CCC[C@H](C)c1ccc(C)cc1
REMARK SMILES IDX 6 1 7 2 8 3 9 4 13 5 12 6 11 7 14 8 10 9 15 10 5 11 4 12
REMARK SMILES IDX 2 13 1 14 3 15
REMARK H PARENT
REMARK Flexibility Score: inf
ROOT
ATOM      1  C   UNL     1      -7.356 -30.073  -6.515  1.00  0.00     0.012 C 
ENDROOT
BRANCH   1   2
ATOM      2  C   UNL     1      -6.430 -31.176  -5.945  1.00  0.00     0.016 C 
ATOM      3  C   UNL     1      -7.215 -32.297  -5.246  1.00  0.00     0.013 C 
BRANCH   2   4
ATOM      4  C   UNL     1      -5.414 -30.567  -4.995  1.00  0.00    -0.045 A 
ATOM      5  C   UNL     1      -2.547 -28.841  -2.264  1.00  0.00     0.044 C 
ATOM      6  C   UNL     1      -3.530 -29.468  -3.207  1.00  0.00    -0.051 A 
ATOM      7  C   UNL     1      -4.789 -29.880  -2.744  1.00  0.00     0.004 A 
ATOM      8  C   UNL     1      -3.226 -29.589  -4.570  1.00  0.00     0.004 A 
ATOM      9  C   UNL     1      -5.720 -30.432  -3.629  1.00  0.00     0.004 A 
ATOM     10  C   UNL     1      -4.155 -30.140  -5.456  1.00  0.00     0.004 A 
ENDBRANCH   2   4
ENDBRANCH   1   2
BRANCH   1  11
ATOM     11  C   UNL     1      -8.738 -29.997  -5.841  1.00  0.00     0.028 C 
BRANCH  11  12
ATOM     12  C   UNL     1      -8.845 -28.841  -4.875  1.00  0.00    -0.028 C 
ATOM     13  C   UNL     1      -9.118 -28.962  -3.558  1.00  0.00    -0.080 C 
ATOM     14  C   UNL     1      -9.410 -30.299  -2.918  1.00  0.00     0.039 C 
ATOM     15  C   UNL     1      -9.154 -27.713  -2.715  1.00  0.00     0.039 C 
ENDBRANCH  11  12
ENDBRANCH   1  11
TORSDOF 4
ENDMDL
MODEL 3
REMARK VINA RESULT:    -5.492      5.884      8.655
REMARK INTER + INTRA:          -7.214
REMARK INTER:                  -6.081
REMARK INTRA:                  -1.133
REMARK UNBOUND:                -0.438
REMARK SMILES CC(C)=CCC[C@H](C)c1ccc(C)cc1
REMARK SMILES IDX 6 1 7 2 8 3 9 4 13 5 12 6 11 7 14 8 10 9 15 10 5 11 4 12
REMARK SMILES IDX 2 13 1 14 3 15
REMARK H PARENT
REMARK Flexibility Score: inf
ROOT
ATOM      1  C   UNL     1      -4.940 -31.819  -5.577  1.00  0.00     0.012 C 
ENDROOT
BRANCH   1   2
ATOM      2  C   UNL     1      -4.404 -30.370  -5.471  1.00  0.00     0.016 C 
ATOM      3  C   UNL     1      -3.102 -30.167  -6.262  1.00  0.00     0.013 C 
BRANCH   2   4
ATOM      4  C   UNL     1      -4.205 -29.990  -4.015  1.00  0.00    -0.045 A 
ATOM      5  C   UNL     1      -3.607 -28.894   0.121  1.00  0.00     0.044 C 
ATOM      6  C   UNL     1      -3.830 -29.247  -1.320  1.00  0.00    -0.051 A 
ATOM      7  C   UNL     1      -2.856 -28.939  -2.281  1.00  0.00     0.004 A 
ATOM      8  C   UNL     1      -4.981 -29.947  -1.707  1.00  0.00     0.004 A 
ATOM      9  C   UNL     1      -3.045 -29.300  -3.619  1.00  0.00     0.004 A 
ATOM     10  C   UNL     1      -5.172 -30.309  -3.043  1.00  0.00     0.004 A 
ENDBRANCH   2   4
ENDBRANCH   1   2
BRANCH   1  11
ATOM     11  C   UNL     1      -6.263 -31.949  -6.352  1.00  0.00     0.028 C 
BRANCH  11  12
ATOM     12  C   UNL     1      -7.052 -30.660  -6.364  1.00  0.00    -0.028 C 
ATOM     13  C   UNL     1      -8.049 -30.361  -5.503  1.00  0.00    -0.080 C 
ATOM     14  C   UNL     1      -8.523 -31.338  -4.453  1.00  0.00     0.039 C 
ATOM     15  C   UNL     1      -8.716 -29.015  -5.619  1.00  0.00     0.039 C 
ENDBRANCH  11  12
ENDBRANCH   1  11
TORSDOF 4
ENDMDL
MODEL 4
REMARK VINA RESULT:    -5.454      5.814      9.666
REMARK INTER + INTRA:          -7.167
REMARK INTER:                  -6.589
REMARK INTRA:                  -0.578
REMARK UNBOUND:                -0.438
REMARK SMILES CC(C)=CCC[C@H](C)c1ccc(C)cc1
REMARK SMILES IDX 6 1 7 2 8 3 9 4 13 5 12 6 11 7 14 8 10 9 15 10 5 11 4 12
REMARK SMILES IDX 2 13 1 14 3 15
REMARK H PARENT
REMARK Flexibility Score: inf
ROOT
ATOM      1  C   UNL     1      -6.903 -30.939  -5.769  1.00  0.00     0.012 C 
ENDROOT
BRANCH   1   2
ATOM      2  C   UNL     1      -5.360 -30.892  -5.883  1.00  0.00     0.016 C 
ATOM      3  C   UNL     1      -4.755 -32.260  -6.235  1.00  0.00     0.013 C 
BRANCH   2   4
ATOM      4  C   UNL     1      -4.756 -30.360  -4.595  1.00  0.00    -0.045 A 
ATOM      5  C   UNL     1      -3.008 -28.837  -0.950  1.00  0.00     0.044 C 
ATOM      6  C   UNL     1      -3.628 -29.338  -2.220  1.00  0.00    -0.051 A 
ATOM      7  C   UNL     1      -2.920 -29.266  -3.429  1.00  0.00     0.004 A 
ATOM      8  C   UNL     1      -4.893 -29.942  -2.200  1.00  0.00     0.004 A 
ATOM      9  C   UNL     1      -3.481 -29.766  -4.608  1.00  0.00     0.004 A 
ATOM     10  C   UNL     1      -5.456 -30.442  -3.378  1.00  0.00     0.004 A 
ENDBRANCH   2   4
ENDBRANCH   1   2
BRANCH   1  11
ATOM     11  C   UNL     1      -7.619 -29.715  -6.367  1.00  0.00     0.028 C 
BRANCH  11  12
ATOM     12  C   UNL     1      -9.069 -29.995  -6.687  1.00  0.00    -0.028 C 
ATOM     13  C   UNL     1      -9.532 -30.351  -7.905  1.00  0.00    -0.080 C 
ATOM     14  C   UNL     1      -8.628 -30.448  -9.111  1.00  0.00     0.039 C 
ATOM     15  C   UNL     1     -11.004 -30.635  -8.058  1.00  0.00     0.039 C 
ENDBRANCH  11  12
ENDBRANCH   1  11
TORSDOF 4
ENDMDL
MODEL 5
REMARK VINA RESULT:    -5.437      1.268      6.499
REMARK INTER + INTRA:          -7.146
REMARK INTER:                  -6.374
REMARK INTRA:                  -0.772
REMARK UNBOUND:                -0.438
REMARK SMILES CC(C)=CCC[C@H](C)c1ccc(C)cc1
REMARK SMILES IDX 6 1 7 2 8 3 9 4 13 5 12 6 11 7 14 8 10 9 15 10 5 11 4 12
REMARK SMILES IDX 2 13 1 14 3 15
REMARK H PARENT
REMARK Flexibility Score: inf
ROOT
ATOM      1  C   UNL     1       0.594 -27.423   1.130  1.00  0.00     0.012 C 
ENDROOT
BRANCH   1   2
ATOM      2  C   UNL     1      -0.857 -26.883   1.090  1.00  0.00     0.016 C 
ATOM      3  C   UNL     1      -1.543 -26.941   2.464  1.00  0.00     0.013 C 
BRANCH   2   4
ATOM      4  C   UNL     1      -1.671 -27.646   0.059  1.00  0.00    -0.045 A 
ATOM      5  C   UNL     1      -4.011 -29.821  -2.849  1.00  0.00     0.044 C 
ATOM      6  C   UNL     1      -3.214 -29.039  -1.847  1.00  0.00    -0.051 A 
ATOM      7  C   UNL     1      -3.647 -28.947  -0.516  1.00  0.00     0.004 A 
ATOM      8  C   UNL     1      -1.996 -28.450  -2.216  1.00  0.00     0.004 A 
ATOM      9  C   UNL     1      -2.886 -28.250   0.427  1.00  0.00     0.004 A 
ATOM     10  C   UNL     1      -1.234 -27.753  -1.274  1.00  0.00     0.004 A 
ENDBRANCH   2   4
ENDBRANCH   1   2
BRANCH   1  11
ATOM     11  C   UNL     1       1.674 -26.345   0.929  1.00  0.00     0.028 C 
BRANCH  11  12
ATOM     12  C   UNL     1       1.100 -25.040   0.430  1.00  0.00    -0.028 C 
ATOM     13  C   UNL     1       1.759 -24.161  -0.357  1.00  0.00    -0.080 C 
ATOM     14  C   UNL     1       3.194 -24.379  -0.776  1.00  0.00     0.039 C 
ATOM     15  C   UNL     1       1.035 -22.918  -0.804  1.00  0.00     0.039 C 
ENDBRANCH  11  12
ENDBRANCH   1  11
TORSDOF 4
ENDMDL
MODEL 6
REMARK VINA RESULT:    -5.411      1.072      6.762
REMARK INTER + INTRA:          -7.113
REMARK INTER:                  -6.601
REMARK INTRA:                  -0.513
REMARK UNBOUND:                -0.438
REMARK SMILES CC(C)=CCC[C@H](C)c1ccc(C)cc1
REMARK SMILES IDX 6 1 7 2 8 3 9 4 13 5 12 6 11 7 14 8 10 9 15 10 5 11 4 12
REMARK SMILES IDX 2 13 1 14 3 15
REMARK H PARENT
REMARK Flexibility Score: inf
ROOT
ATOM      1  C   UNL     1       0.920 -26.070   0.017  1.00  0.00     0.012 C 
ENDROOT
BRANCH   1   2
ATOM      2  C   UNL     1      -0.181 -26.607   0.965  1.00  0.00     0.016 C 
ATOM      3  C   UNL     1       0.394 -27.461   2.107  1.00  0.00     0.013 C 
BRANCH   2   4
ATOM      4  C   UNL     1      -1.209 -27.399   0.177  1.00  0.00    -0.045 A 
ATOM      5  C   UNL     1      -4.112 -29.653  -2.094  1.00  0.00     0.044 C 
ATOM      6  C   UNL     1      -3.091 -28.897  -1.296  1.00  0.00    -0.051 A 
ATOM      7  C   UNL     1      -1.893 -28.480  -1.895  1.00  0.00     0.004 A 
ATOM      8  C   UNL     1      -3.353 -28.544   0.035  1.00  0.00     0.004 A 
ATOM      9  C   UNL     1      -0.956 -27.744  -1.163  1.00  0.00     0.004 A 
ATOM     10  C   UNL     1      -2.418 -27.808   0.768  1.00  0.00     0.004 A 
ENDBRANCH   2   4
ENDBRANCH   1   2
BRANCH   1  11
ATOM     11  C   UNL     1       1.598 -24.777   0.506  1.00  0.00     0.028 C 
BRANCH  11  12
ATOM     12  C   UNL     1       2.477 -24.153  -0.552  1.00  0.00    -0.028 C 
ATOM     13  C   UNL     1       3.800 -24.393  -0.693  1.00  0.00    -0.080 C 
ATOM     14  C   UNL     1       4.558 -25.288   0.259  1.00  0.00     0.039 C 
ATOM     15  C   UNL     1       4.534 -23.722  -1.824  1.00  0.00     0.039 C 
ENDBRANCH  11  12
ENDBRANCH   1  11
TORSDOF 4
ENDMDL
MODEL 7
REMARK VINA RESULT:    -5.407      1.500      7.531
REMARK INTER + INTRA:          -7.108
REMARK INTER:                  -6.608
REMARK INTRA:                  -0.500
REMARK UNBOUND:                -0.438
REMARK SMILES CC(C)=CCC[C@H](C)c1ccc(C)cc1
REMARK SMILES IDX 6 1 7 2 8 3 9 4 13 5 12 6 11 7 14 8 10 9 15 10 5 11 4 12
REMARK SMILES IDX 2 13 1 14 3 15
REMARK H PARENT
REMARK Flexibility Score: inf
ROOT
ATOM      1  C   UNL     1      -1.232 -27.320  -1.082  1.00  0.00     0.012 C 
ENDROOT
BRANCH   1   2
ATOM      2  C   UNL     1      -2.017 -28.520  -0.497  1.00  0.00     0.016 C 
ATOM      3  C   UNL     1      -1.092 -29.653  -0.028  1.00  0.00     0.013 C 
BRANCH   2   4
ATOM      4  C   UNL     1      -3.017 -29.038  -1.516  1.00  0.00    -0.045 A 
ATOM      5  C   UNL     1      -5.835 -30.509  -4.442  1.00  0.00     0.044 C 
ATOM      6  C   UNL     1      -4.846 -30.028  -3.422  1.00  0.00    -0.051 A 
ATOM      7  C   UNL     1      -3.579 -29.579  -3.823  1.00  0.00     0.004 A 
ATOM      8  C   UNL     1      -5.202 -29.959  -2.068  1.00  0.00     0.004 A 
ATOM      9  C   UNL     1      -2.669 -29.096  -2.878  1.00  0.00     0.004 A 
ATOM     10  C   UNL     1      -4.294 -29.476  -1.121  1.00  0.00     0.004 A 
ENDBRANCH   2   4
ENDBRANCH   1   2
BRANCH   1  11
ATOM     11  C   UNL     1      -0.657 -26.364  -0.022  1.00  0.00     0.028 C 
BRANCH  11  12
ATOM     12  C   UNL     1       0.854 -26.366  -0.004  1.00  0.00    -0.028 C 
ATOM     13  C   UNL     1       1.626 -25.269  -0.162  1.00  0.00    -0.080 C 
ATOM     14  C   UNL     1       1.037 -23.906  -0.438  1.00  0.00     0.039 C 
ATOM     15  C   UNL     1       3.122 -25.428  -0.080  1.00  0.00     0.039 C 
ENDBRANCH  11  12
ENDBRANCH   1  11
TORSDOF 4
ENDMDL
MODEL 8
REMARK VINA RESULT:    -5.394      3.077      5.228
REMARK INTER + INTRA:          -7.093
REMARK INTER:                  -6.436
REMARK INTRA:                  -0.657
REMARK UNBOUND:                -0.438
REMARK SMILES CC(C)=CCC[C@H](C)c1ccc(C)cc1
REMARK SMILES IDX 6 1 7 2 8 3 9 4 13 5 12 6 11 7 14 8 10 9 15 10 5 11 4 12
REMARK SMILES IDX 2 13 1 14 3 15
REMARK H PARENT
REMARK Flexibility Score: inf
ROOT
ATOM      1  C   UNL     1      -3.561 -29.493  -2.046  1.00  0.00     0.012 C 
ENDROOT
BRANCH   1   2
ATOM      2  C   UNL     1      -2.135 -30.048  -1.805  1.00  0.00     0.016 C 
ATOM      3  C   UNL     1      -2.150 -31.464  -1.210  1.00  0.00     0.013 C 
BRANCH   2   4
ATOM      4  C   UNL     1      -1.351 -29.104  -0.911  1.00  0.00    -0.045 A 
ATOM      5  C   UNL     1       0.873 -26.393   1.612  1.00  0.00     0.044 C 
ATOM      6  C   UNL     1       0.075 -27.328   0.753  1.00  0.00    -0.051 A 
ATOM      7  C   UNL     1      -0.508 -26.869  -0.438  1.00  0.00     0.004 A 
ATOM      8  C   UNL     1      -0.039 -28.682   1.097  1.00  0.00     0.004 A 
ATOM      9  C   UNL     1      -1.222 -27.748  -1.259  1.00  0.00     0.004 A 
ATOM     10  C   UNL     1      -0.752 -29.562   0.278  1.00  0.00     0.004 A 
ENDBRANCH   2   4
ENDBRANCH   1   2
BRANCH   1  11
ATOM     11  C   UNL     1      -4.176 -29.896  -3.398  1.00  0.00     0.028 C 
BRANCH  11  12
ATOM     12  C   UNL     1      -3.289 -29.532  -4.565  1.00  0.00    -0.028 C 
ATOM     13  C   UNL     1      -3.324 -30.134  -5.774  1.00  0.00    -0.080 C 
ATOM     14  C   UNL     1      -4.238 -31.301  -6.064  1.00  0.00     0.039 C 
ATOM     15  C   UNL     1      -2.399 -29.631  -6.852  1.00  0.00     0.039 C 
ENDBRANCH  11  12
ENDBRANCH   1  11
TORSDOF 4
ENDMDL
MODEL 9
REMARK VINA RESULT:    -5.256      2.805      5.680
REMARK INTER + INTRA:          -6.923
REMARK INTER:                  -6.364
REMARK INTRA:                  -0.558
REMARK UNBOUND:                -0.438
REMARK SMILES CC(C)=CCC[C@H](C)c1ccc(C)cc1
REMARK SMILES IDX 6 1 7 2 8 3 9 4 13 5 12 6 11 7 14 8 10 9 15 10 5 11 4 12
REMARK SMILES IDX 2 13 1 14 3 15
REMARK H PARENT
REMARK Flexibility Score: inf
ROOT
ATOM      1  C   UNL     1      -4.163 -29.555  -2.594  1.00  0.00     0.012 C 
ENDROOT
BRANCH   1   2
ATOM      2  C   UNL     1      -3.797 -29.722  -1.098  1.00  0.00     0.016 C 
ATOM      3  C   UNL     1      -5.022 -29.597  -0.178  1.00  0.00     0.013 C 
BRANCH   2   4
ATOM      4  C   UNL     1      -2.733 -28.713  -0.704  1.00  0.00    -0.045 A 
ATOM      5  C   UNL     1       0.315 -25.852   0.388  1.00  0.00     0.044 C 
ATOM      6  C   UNL     1      -0.759 -26.823  -0.006  1.00  0.00    -0.051 A 
ATOM      7  C   UNL     1      -0.643 -27.563  -1.192  1.00  0.00     0.004 A 
ATOM      8  C   UNL     1      -1.854 -27.047   0.840  1.00  0.00     0.004 A 
ATOM      9  C   UNL     1      -1.625 -28.495  -1.542  1.00  0.00     0.004 A 
ATOM     10  C   UNL     1      -2.837 -27.978   0.492  1.00  0.00     0.004 A 
ENDBRANCH   2   4
ENDBRANCH   1   2
BRANCH   1  11
ATOM     11  C   UNL     1      -3.583 -30.646  -3.511  1.00  0.00     0.028 C 
BRANCH  11  12
ATOM     12  C   UNL     1      -2.852 -30.069  -4.701  1.00  0.00    -0.028 C 
ATOM     13  C   UNL     1      -3.080 -30.417  -5.986  1.00  0.00    -0.080 C 
ATOM     14  C   UNL     1      -4.075 -31.490  -6.363  1.00  0.00     0.039 C 
ATOM     15  C   UNL     1      -2.294 -29.722  -7.068  1.00  0.00     0.039 C 
ENDBRANCH  11  12
ENDBRANCH   1  11
TORSDOF 4
ENDMDL
