MODEL 1
REMARK VINA RESULT:    -4.173      0.000      0.000
REMARK INTER + INTRA:         -10.173
REMARK INTER:                  -7.589
REMARK INTRA:                  -2.584
REMARK UNBOUND:                -2.584
REMARK SMILES CCCCCCCCCCCCCC[C@@H](C)C(=O)[O-]
REMARK SMILES IDX 9 1 10 2 11 3 12 4 13 5 14 6 15 7 16 8 17 9 18 10 19 11 8 12
REMARK SMILES IDX 7 13 6 14 5 15 4 16 3 17 2 18 1 19
REMARK H PARENT
REMARK Flexibility Score: inf
ROOT
ATOM      1  C   UNL     1      26.106   6.686   6.121  1.00  0.00     0.000 C 
ENDROOT
BRANCH   1   2
ATOM      2  C   UNL     1      26.448   7.905   6.991  1.00  0.00     0.000 C 
BRANCH   2   3
ATOM      3  C   UNL     1      26.187   7.663   8.489  1.00  0.00     0.000 C 
BRANCH   3   4
ATOM      4  C   UNL     1      25.364   8.761   9.191  1.00  0.00     0.000 C 
BRANCH   4   5
ATOM      5  C   UNL     1      23.939   8.347   9.605  1.00  0.00     0.001 C 
BRANCH   5   6
ATOM      6  C   UNL     1      23.820   6.938  10.224  1.00  0.00     0.009 C 
BRANCH   6   7
ATOM      7  C   UNL     1      22.715   6.060   9.598  1.00  0.00     0.032 C 
ATOM      8  C   UNL     1      22.907   4.593   9.999  1.00  0.00     0.014 C 
BRANCH   7   9
ATOM      9  C   UNL     1      21.344   6.523  10.012  1.00  0.00     0.044 C 
ATOM     10  O   UNL     1      20.569   7.037   9.164  1.00  0.00    -0.550 OA
ATOM     11  O   UNL     1      20.925   6.386  11.330  1.00  0.00    -0.550 OA
ENDBRANCH   7   9
ENDBRANCH   6   7
ENDBRANCH   5   6
ENDBRANCH   4   5
ENDBRANCH   3   4
ENDBRANCH   2   3
ENDBRANCH   1   2
BRANCH   1  12
ATOM     12  C   UNL     1      24.857   5.970   6.647  1.00  0.00     0.000 C 
BRANCH  12  13
ATOM     13  C   UNL     1      25.168   4.512   7.006  1.00  0.00    -0.000 C 
BRANCH  13  14
ATOM     14  C   UNL     1      26.650   4.192   6.778  1.00  0.00    -0.000 C 
BRANCH  14  15
ATOM     15  C   UNL     1      27.327   3.764   8.088  1.00  0.00    -0.000 C 
BRANCH  15  16
ATOM     16  C   UNL     1      26.361   3.754   9.284  1.00  0.00    -0.000 C 
BRANCH  16  17
ATOM     17  C   UNL     1      26.744   4.707  10.434  1.00  0.00    -0.000 C 
BRANCH  17  18
ATOM     18  C   UNL     1      28.215   5.169  10.395  1.00  0.00    -0.003 C 
ATOM     19  C   UNL     1      28.995   4.744  11.640  1.00  0.00     0.004 C 
ENDBRANCH  17  18
ENDBRANCH  16  17
ENDBRANCH  15  16
ENDBRANCH  14  15
ENDBRANCH  13  14
ENDBRANCH  12  13
ENDBRANCH   1  12
TORSDOF 14
ENDMDL
MODEL 2
REMARK VINA RESULT:    -4.118      3.341      4.661
REMARK INTER + INTRA:         -10.073
REMARK INTER:                  -7.847
REMARK INTRA:                  -2.226
REMARK UNBOUND:                -2.584
REMARK SMILES CCCCCCCCCCCCCC[C@@H](C)C(=O)[O-]
REMARK SMILES IDX 9 1 10 2 11 3 12 4 13 5 14 6 15 7 16 8 17 9 18 10 19 11 8 12
REMARK SMILES IDX 7 13 6 14 5 15 4 16 3 17 2 18 1 19
REMARK H PARENT
REMARK Flexibility Score: inf
ROOT
ATOM      1  C   UNL     1      27.914   2.916   7.842  1.00  0.00     0.000 C 
ENDROOT
BRANCH   1   2
ATOM      2  C   UNL     1      27.745   3.208   9.340  1.00  0.00     0.000 C 
BRANCH   2   3
ATOM      3  C   UNL     1      28.499   4.471   9.792  1.00  0.00     0.000 C 
BRANCH   3   4
ATOM      4  C   UNL     1      27.644   5.499  10.559  1.00  0.00     0.000 C 
BRANCH   4   5
ATOM      5  C   UNL     1      26.144   5.162  10.656  1.00  0.00     0.001 C 
BRANCH   5   6
ATOM      6  C   UNL     1      25.200   6.181   9.984  1.00  0.00     0.009 C 
BRANCH   6   7
ATOM      7  C   UNL     1      25.464   6.396   8.477  1.00  0.00     0.032 C 
ATOM      8  C   UNL     1      24.196   6.110   7.666  1.00  0.00     0.014 C 
BRANCH   7   9
ATOM      9  C   UNL     1      25.941   7.795   8.196  1.00  0.00     0.044 C 
ATOM     10  O   UNL     1      26.838   7.995   7.337  1.00  0.00    -0.550 OA
ATOM     11  O   UNL     1      25.396   8.874   8.882  1.00  0.00    -0.550 OA
ENDBRANCH   7   9
ENDBRANCH   6   7
ENDBRANCH   5   6
ENDBRANCH   4   5
ENDBRANCH   3   4
ENDBRANCH   2   3
ENDBRANCH   1   2
BRANCH   1  12
ATOM     12  C   UNL     1      26.615   3.194   7.078  1.00  0.00     0.000 C 
BRANCH  12  13
ATOM     13  C   UNL     1      25.412   2.564   7.790  1.00  0.00    -0.000 C 
BRANCH  13  14
ATOM     14  C   UNL     1      25.003   1.247   7.122  1.00  0.00    -0.000 C 
BRANCH  14  15
ATOM     15  C   UNL     1      25.285   0.052   8.045  1.00  0.00    -0.000 C 
BRANCH  15  16
ATOM     16  C   UNL     1      26.221  -0.987   7.406  1.00  0.00    -0.000 C 
BRANCH  16  17
ATOM     17  C   UNL     1      27.718  -0.784   7.711  1.00  0.00    -0.000 C 
BRANCH  17  18
ATOM     18  C   UNL     1      28.021  -0.527   9.202  1.00  0.00    -0.003 C 
ATOM     19  C   UNL     1      27.649  -1.716  10.088  1.00  0.00     0.004 C 
ENDBRANCH  17  18
ENDBRANCH  16  17
ENDBRANCH  15  16
ENDBRANCH  14  15
ENDBRANCH  13  14
ENDBRANCH  12  13
ENDBRANCH   1  12
TORSDOF 14
ENDMDL
MODEL 3
REMARK VINA RESULT:    -4.117      1.329      3.789
REMARK INTER + INTRA:         -10.071
REMARK INTER:                  -7.119
REMARK INTRA:                  -2.952
REMARK UNBOUND:                -2.584
REMARK SMILES CCCCCCCCCCCCCC[C@@H](C)C(=O)[O-]
REMARK SMILES IDX 9 1 10 2 11 3 12 4 13 5 14 6 15 7 16 8 17 9 18 10 19 11 8 12
REMARK SMILES IDX 7 13 6 14 5 15 4 16 3 17 2 18 1 19
REMARK H PARENT
REMARK Flexibility Score: inf
ROOT
ATOM      1  C   UNL     1      28.017   3.537   8.518  1.00  0.00     0.000 C 
ENDROOT
BRANCH   1   2
ATOM      2  C   UNL     1      28.010   2.982   9.951  1.00  0.00     0.000 C 
BRANCH   2   3
ATOM      3  C   UNL     1      27.773   4.070  11.013  1.00  0.00     0.000 C 
BRANCH   3   4
ATOM      4  C   UNL     1      27.124   5.365  10.484  1.00  0.00     0.000 C 
BRANCH   4   5
ATOM      5  C   UNL     1      25.680   5.615  10.960  1.00  0.00     0.001 C 
BRANCH   5   6
ATOM      6  C   UNL     1      24.731   4.404  10.837  1.00  0.00     0.009 C 
BRANCH   6   7
ATOM      7  C   UNL     1      23.995   4.308   9.482  1.00  0.00     0.032 C 
ATOM      8  C   UNL     1      23.701   2.844   9.137  1.00  0.00     0.014 C 
BRANCH   7   9
ATOM      9  C   UNL     1      22.712   5.093   9.497  1.00  0.00     0.044 C 
ATOM     10  O   UNL     1      22.301   5.612  10.567  1.00  0.00    -0.550 OA
ATOM     11  O   UNL     1      21.972   5.252   8.330  1.00  0.00    -0.550 OA
ENDBRANCH   7   9
ENDBRANCH   6   7
ENDBRANCH   5   6
ENDBRANCH   4   5
ENDBRANCH   3   4
ENDBRANCH   2   3
ENDBRANCH   1   2
BRANCH   1  12
ATOM     12  C   UNL     1      27.078   2.732   7.613  1.00  0.00     0.000 C 
BRANCH  12  13
ATOM     13  C   UNL     1      26.527   3.602   6.477  1.00  0.00    -0.000 C 
BRANCH  13  14
ATOM     14  C   UNL     1      26.437   5.072   6.903  1.00  0.00    -0.000 C 
BRANCH  14  15
ATOM     15  C   UNL     1      25.084   5.678   6.501  1.00  0.00    -0.000 C 
BRANCH  15  16
ATOM     16  C   UNL     1      24.832   7.053   7.142  1.00  0.00    -0.000 C 
BRANCH  16  17
ATOM     17  C   UNL     1      26.053   7.670   7.852  1.00  0.00    -0.000 C 
BRANCH  17  18
ATOM     18  C   UNL     1      25.684   8.630   9.003  1.00  0.00    -0.003 C 
ATOM     19  C   UNL     1      24.199   8.570   9.362  1.00  0.00     0.004 C 
ENDBRANCH  17  18
ENDBRANCH  16  17
ENDBRANCH  15  16
ENDBRANCH  14  15
ENDBRANCH  13  14
ENDBRANCH  12  13
ENDBRANCH   1  12
TORSDOF 14
ENDMDL
MODEL 4
REMARK VINA RESULT:    -4.114      1.518      3.570
REMARK INTER + INTRA:         -10.065
REMARK INTER:                  -7.258
REMARK INTRA:                  -2.806
REMARK UNBOUND:                -2.584
REMARK SMILES CCCCCCCCCCCCCC[C@@H](C)C(=O)[O-]
REMARK SMILES IDX 9 1 10 2 11 3 12 4 13 5 14 6 15 7 16 8 17 9 18 10 19 11 8 12
REMARK SMILES IDX 7 13 6 14 5 15 4 16 3 17 2 18 1 19
REMARK H PARENT
REMARK Flexibility Score: inf
ROOT
ATOM      1  C   UNL     1      26.002   7.405   9.570  1.00  0.00     0.000 C 
ENDROOT
BRANCH   1   2
ATOM      2  C   UNL     1      25.878   8.225   8.277  1.00  0.00     0.000 C 
BRANCH   2   3
ATOM      3  C   UNL     1      26.637   7.597   7.094  1.00  0.00     0.000 C 
BRANCH   3   4
ATOM      4  C   UNL     1      25.743   6.943   6.022  1.00  0.00     0.000 C 
BRANCH   4   5
ATOM      5  C   UNL     1      25.007   5.666   6.472  1.00  0.00     0.001 C 
BRANCH   5   6
ATOM      6  C   UNL     1      23.487   5.828   6.684  1.00  0.00     0.009 C 
BRANCH   6   7
ATOM      7  C   UNL     1      22.964   5.239   8.013  1.00  0.00     0.032 C 
ATOM      8  C   UNL     1      24.026   4.337   8.652  1.00  0.00     0.014 C 
BRANCH   7   9
ATOM      9  C   UNL     1      22.573   6.324   8.979  1.00  0.00     0.044 C 
ATOM     10  O   UNL     1      22.314   7.481   8.558  1.00  0.00    -0.550 OA
ATOM     11  O   UNL     1      22.495   6.057  10.341  1.00  0.00    -0.550 OA
ENDBRANCH   7   9
ENDBRANCH   6   7
ENDBRANCH   5   6
ENDBRANCH   4   5
ENDBRANCH   3   4
ENDBRANCH   2   3
ENDBRANCH   1   2
BRANCH   1  12
ATOM     12  C   UNL     1      27.179   6.426   9.487  1.00  0.00     0.000 C 
BRANCH  12  13
ATOM     13  C   UNL     1      27.096   5.370  10.596  1.00  0.00    -0.000 C 
BRANCH  13  14
ATOM     14  C   UNL     1      27.514   3.990  10.074  1.00  0.00    -0.000 C 
BRANCH  14  15
ATOM     15  C   UNL     1      27.737   4.022   8.555  1.00  0.00    -0.000 C 
BRANCH  15  16
ATOM     16  C   UNL     1      27.660   2.627   7.912  1.00  0.00    -0.000 C 
BRANCH  16  17
ATOM     17  C   UNL     1      26.931   2.579   6.555  1.00  0.00    -0.000 C 
BRANCH  17  18
ATOM     18  C   UNL     1      25.752   1.585   6.516  1.00  0.00    -0.003 C 
ATOM     19  C   UNL     1      24.593   2.085   5.654  1.00  0.00     0.004 C 
ENDBRANCH  17  18
ENDBRANCH  16  17
ENDBRANCH  15  16
ENDBRANCH  14  15
ENDBRANCH  13  14
ENDBRANCH  12  13
ENDBRANCH   1  12
TORSDOF 14
ENDMDL
MODEL 5
REMARK VINA RESULT:    -4.103      2.714      4.969
REMARK INTER + INTRA:         -10.046
REMARK INTER:                  -7.504
REMARK INTRA:                  -2.542
REMARK UNBOUND:                -2.584
REMARK SMILES CCCCCCCCCCCCCC[C@@H](C)C(=O)[O-]
REMARK SMILES IDX 9 1 10 2 11 3 12 4 13 5 14 6 15 7 16 8 17 9 18 10 19 11 8 12
REMARK SMILES IDX 7 13 6 14 5 15 4 16 3 17 2 18 1 19
REMARK H PARENT
REMARK Flexibility Score: inf
ROOT
ATOM      1  C   UNL     1      26.648   5.635  10.161  1.00  0.00     0.000 C 
ENDROOT
BRANCH   1   2
ATOM      2  C   UNL     1      25.295   5.730  10.882  1.00  0.00     0.000 C 
BRANCH   2   3
ATOM      3  C   UNL     1      24.458   4.444  10.755  1.00  0.00     0.000 C 
BRANCH   3   4
ATOM      4  C   UNL     1      24.585   3.717   9.402  1.00  0.00     0.000 C 
BRANCH   4   5
ATOM      5  C   UNL     1      23.807   4.359   8.237  1.00  0.00     0.001 C 
BRANCH   5   6
ATOM      6  C   UNL     1      24.683   4.964   7.120  1.00  0.00     0.009 C 
BRANCH   6   7
ATOM      7  C   UNL     1      24.462   6.475   6.887  1.00  0.00     0.032 C 
ATOM      8  C   UNL     1      23.595   7.066   8.004  1.00  0.00     0.014 C 
BRANCH   7   9
ATOM      9  C   UNL     1      25.769   7.217   6.813  1.00  0.00     0.044 C 
ATOM     10  O   UNL     1      26.603   6.937   5.914  1.00  0.00    -0.550 OA
ATOM     11  O   UNL     1      26.063   8.216   7.734  1.00  0.00    -0.550 OA
ENDBRANCH   7   9
ENDBRANCH   6   7
ENDBRANCH   5   6
ENDBRANCH   4   5
ENDBRANCH   3   4
ENDBRANCH   2   3
ENDBRANCH   1   2
BRANCH   1  12
ATOM     12  C   UNL     1      27.720   5.044  11.083  1.00  0.00     0.000 C 
BRANCH  12  13
ATOM     13  C   UNL     1      28.339   3.782  10.471  1.00  0.00    -0.000 C 
BRANCH  13  14
ATOM     14  C   UNL     1      28.124   3.743   8.953  1.00  0.00    -0.000 C 
BRANCH  14  15
ATOM     15  C   UNL     1      27.776   2.322   8.484  1.00  0.00    -0.000 C 
BRANCH  15  16
ATOM     16  C   UNL     1      27.299   2.277   7.023  1.00  0.00    -0.000 C 
BRANCH  16  17
ATOM     17  C   UNL     1      26.013   1.462   6.786  1.00  0.00    -0.000 C 
BRANCH  17  18
ATOM     18  C   UNL     1      25.386   1.678   5.393  1.00  0.00    -0.003 C 
ATOM     19  C   UNL     1      23.859   1.742   5.442  1.00  0.00     0.004 C 
ENDBRANCH  17  18
ENDBRANCH  16  17
ENDBRANCH  15  16
ENDBRANCH  14  15
ENDBRANCH  13  14
ENDBRANCH  12  13
ENDBRANCH   1  12
TORSDOF 14
ENDMDL
MODEL 6
REMARK VINA RESULT:    -4.098      3.219      4.654
REMARK INTER + INTRA:         -10.035
REMARK INTER:                  -7.697
REMARK INTRA:                  -2.339
REMARK UNBOUND:                -2.584
REMARK SMILES CCCCCCCCCCCCCC[C@@H](C)C(=O)[O-]
REMARK SMILES IDX 9 1 10 2 11 3 12 4 13 5 14 6 15 7 16 8 17 9 18 10 19 11 8 12
REMARK SMILES IDX 7 13 6 14 5 15 4 16 3 17 2 18 1 19
REMARK H PARENT
REMARK Flexibility Score: inf
ROOT
ATOM      1  C   UNL     1      27.994   2.349   9.688  1.00  0.00     0.000 C 
ENDROOT
BRANCH   1   2
ATOM      2  C   UNL     1      28.409   3.332  10.794  1.00  0.00     0.000 C 
BRANCH   2   3
ATOM      3  C   UNL     1      28.795   4.718  10.248  1.00  0.00     0.000 C 
BRANCH   3   4
ATOM      4  C   UNL     1      27.887   5.875  10.711  1.00  0.00     0.000 C 
BRANCH   4   5
ATOM      5  C   UNL     1      26.892   6.390   9.653  1.00  0.00     0.001 C 
BRANCH   5   6
ATOM      6  C   UNL     1      25.419   6.003   9.898  1.00  0.00     0.009 C 
BRANCH   6   7
ATOM      7  C   UNL     1      24.934   4.792   9.070  1.00  0.00     0.032 C 
ATOM      8  C   UNL     1      23.963   3.938   9.892  1.00  0.00     0.014 C 
BRANCH   7   9
ATOM      9  C   UNL     1      24.268   5.230   7.794  1.00  0.00     0.044 C 
ATOM     10  O   UNL     1      23.720   6.361   7.723  1.00  0.00    -0.550 OA
ATOM     11  O   UNL     1      24.252   4.391   6.685  1.00  0.00    -0.550 OA
ENDBRANCH   7   9
ENDBRANCH   6   7
ENDBRANCH   5   6
ENDBRANCH   4   5
ENDBRANCH   3   4
ENDBRANCH   2   3
ENDBRANCH   1   2
BRANCH   1  12
ATOM     12  C   UNL     1      27.895   3.058   8.333  1.00  0.00     0.000 C 
BRANCH  12  13
ATOM     13  C   UNL     1      27.212   2.163   7.292  1.00  0.00    -0.000 C 
BRANCH  13  14
ATOM     14  C   UNL     1      25.988   1.458   7.889  1.00  0.00    -0.000 C 
BRANCH  14  15
ATOM     15  C   UNL     1      25.989  -0.036   7.535  1.00  0.00    -0.000 C 
BRANCH  15  16
ATOM     16  C   UNL     1      27.364  -0.538   7.064  1.00  0.00    -0.000 C 
BRANCH  16  17
ATOM     17  C   UNL     1      28.134  -1.383   8.097  1.00  0.00    -0.000 C 
BRANCH  17  18
ATOM     18  C   UNL     1      27.294  -1.776   9.331  1.00  0.00    -0.003 C 
ATOM     19  C   UNL     1      27.879  -1.231  10.634  1.00  0.00     0.004 C 
ENDBRANCH  17  18
ENDBRANCH  16  17
ENDBRANCH  15  16
ENDBRANCH  14  15
ENDBRANCH  13  14
ENDBRANCH  12  13
ENDBRANCH   1  12
TORSDOF 14
ENDMDL
MODEL 7
REMARK VINA RESULT:    -4.089      4.606      7.037
REMARK INTER + INTRA:         -10.020
REMARK INTER:                  -7.811
REMARK INTRA:                  -2.209
REMARK UNBOUND:                -2.584
REMARK SMILES CCCCCCCCCCCCCC[C@@H](C)C(=O)[O-]
REMARK SMILES IDX 9 1 10 2 11 3 12 4 13 5 14 6 15 7 16 8 17 9 18 10 19 11 8 12
REMARK SMILES IDX 7 13 6 14 5 15 4 16 3 17 2 18 1 19
REMARK H PARENT
REMARK Flexibility Score: inf
ROOT
ATOM      1  C   UNL     1      26.798   5.263  10.490  1.00  0.00     0.000 C 
ENDROOT
BRANCH   1   2
ATOM      2  C   UNL     1      27.227   3.872  10.000  1.00  0.00     0.000 C 
BRANCH   2   3
ATOM      3  C   UNL     1      27.923   3.909   8.628  1.00  0.00     0.000 C 
BRANCH   3   4
ATOM      4  C   UNL     1      27.705   2.658   7.754  1.00  0.00     0.000 C 
BRANCH   4   5
ATOM      5  C   UNL     1      27.540   1.338   8.531  1.00  0.00     0.001 C 
BRANCH   5   6
ATOM      6  C   UNL     1      28.640   0.286   8.275  1.00  0.00     0.009 C 
BRANCH   6   7
ATOM      7  C   UNL     1      28.128  -1.169   8.216  1.00  0.00     0.032 C 
ATOM      8  C   UNL     1      26.777  -1.289   8.931  1.00  0.00     0.014 C 
BRANCH   7   9
ATOM      9  C   UNL     1      27.994  -1.648   6.796  1.00  0.00     0.044 C 
ATOM     10  O   UNL     1      27.272  -1.017   5.982  1.00  0.00    -0.550 OA
ATOM     11  O   UNL     1      28.666  -2.790   6.373  1.00  0.00    -0.550 OA
ENDBRANCH   7   9
ENDBRANCH   6   7
ENDBRANCH   5   6
ENDBRANCH   4   5
ENDBRANCH   3   4
ENDBRANCH   2   3
ENDBRANCH   1   2
BRANCH   1  12
ATOM     12  C   UNL     1      27.292   6.357   9.537  1.00  0.00     0.000 C 
BRANCH  12  13
ATOM     13  C   UNL     1      26.141   7.274   9.107  1.00  0.00    -0.000 C 
BRANCH  13  14
ATOM     14  C   UNL     1      26.390   7.852   7.709  1.00  0.00    -0.000 C 
BRANCH  14  15
ATOM     15  C   UNL     1      26.174   6.784   6.626  1.00  0.00    -0.000 C 
BRANCH  15  16
ATOM     16  C   UNL     1      24.754   6.195   6.645  1.00  0.00    -0.000 C 
BRANCH  16  17
ATOM     17  C   UNL     1      24.690   4.655   6.646  1.00  0.00    -0.000 C 
BRANCH  17  18
ATOM     18  C   UNL     1      24.203   4.053   7.981  1.00  0.00    -0.003 C 
ATOM     19  C   UNL     1      23.266   4.993   8.739  1.00  0.00     0.004 C 
ENDBRANCH  17  18
ENDBRANCH  16  17
ENDBRANCH  15  16
ENDBRANCH  14  15
ENDBRANCH  13  14
ENDBRANCH  12  13
ENDBRANCH   1  12
TORSDOF 14
ENDMDL
MODEL 8
REMARK VINA RESULT:    -4.086      2.631      4.393
REMARK INTER + INTRA:         -10.014
REMARK INTER:                  -7.977
REMARK INTRA:                  -2.037
REMARK UNBOUND:                -2.584
REMARK SMILES CCCCCCCCCCCCCC[C@@H](C)C(=O)[O-]
REMARK SMILES IDX 9 1 10 2 11 3 12 4 13 5 14 6 15 7 16 8 17 9 18 10 19 11 8 12
REMARK SMILES IDX 7 13 6 14 5 15 4 16 3 17 2 18 1 19
REMARK H PARENT
REMARK Flexibility Score: inf
ROOT
ATOM      1  C   UNL     1      28.019   3.343   9.926  1.00  0.00     0.000 C 
ENDROOT
BRANCH   1   2
ATOM      2  C   UNL     1      28.816   4.579  10.371  1.00  0.00     0.000 C 
BRANCH   2   3
ATOM      3  C   UNL     1      27.940   5.637  11.066  1.00  0.00     0.000 C 
BRANCH   3   4
ATOM      4  C   UNL     1      26.656   6.020  10.305  1.00  0.00     0.000 C 
BRANCH   4   5
ATOM      5  C   UNL     1      26.880   6.768   8.977  1.00  0.00     0.001 C 
BRANCH   5   6
ATOM      6  C   UNL     1      25.664   7.567   8.462  1.00  0.00     0.009 C 
BRANCH   6   7
ATOM      7  C   UNL     1      25.253   7.235   7.011  1.00  0.00     0.032 C 
ATOM      8  C   UNL     1      26.399   6.528   6.280  1.00  0.00     0.014 C 
BRANCH   7   9
ATOM      9  C   UNL     1      24.020   6.374   6.972  1.00  0.00     0.044 C 
ATOM     10  O   UNL     1      23.887   5.424   7.787  1.00  0.00    -0.550 OA
ATOM     11  O   UNL     1      23.019   6.620   6.039  1.00  0.00    -0.550 OA
ENDBRANCH   7   9
ENDBRANCH   6   7
ENDBRANCH   5   6
ENDBRANCH   4   5
ENDBRANCH   3   4
ENDBRANCH   2   3
ENDBRANCH   1   2
BRANCH   1  12
ATOM     12  C   UNL     1      27.977   3.238   8.397  1.00  0.00     0.000 C 
BRANCH  12  13
ATOM     13  C   UNL     1      26.533   3.135   7.891  1.00  0.00    -0.000 C 
BRANCH  13  14
ATOM     14  C   UNL     1      26.492   2.642   6.440  1.00  0.00    -0.000 C 
BRANCH  14  15
ATOM     15  C   UNL     1      26.293   1.120   6.383  1.00  0.00    -0.000 C 
BRANCH  15  16
ATOM     16  C   UNL     1      25.470   0.581   7.565  1.00  0.00    -0.000 C 
BRANCH  16  17
ATOM     17  C   UNL     1      26.046  -0.682   8.234  1.00  0.00    -0.000 C 
BRANCH  17  18
ATOM     18  C   UNL     1      27.584  -0.775   8.166  1.00  0.00    -0.003 C 
ATOM     19  C   UNL     1      28.257  -0.303   9.456  1.00  0.00     0.004 C 
ENDBRANCH  17  18
ENDBRANCH  16  17
ENDBRANCH  15  16
ENDBRANCH  14  15
ENDBRANCH  13  14
ENDBRANCH  12  13
ENDBRANCH   1  12
TORSDOF 14
ENDMDL
MODEL 9
REMARK VINA RESULT:    -4.060      3.672      5.923
REMARK INTER + INTRA:          -9.966
REMARK INTER:                  -7.297
REMARK INTRA:                  -2.669
REMARK UNBOUND:                -2.584
REMARK SMILES CCCCCCCCCCCCCC[C@@H](C)C(=O)[O-]
REMARK SMILES IDX 9 1 10 2 11 3 12 4 13 5 14 6 15 7 16 8 17 9 18 10 19 11 8 12
REMARK SMILES IDX 7 13 6 14 5 15 4 16 3 17 2 18 1 19
REMARK H PARENT
REMARK Flexibility Score: inf
ROOT
ATOM      1  C   UNL     1      25.383   6.779   9.860  1.00  0.00     0.000 C 
ENDROOT
BRANCH   1   2
ATOM      2  C   UNL     1      26.158   5.592  10.450  1.00  0.00     0.000 C 
BRANCH   2   3
ATOM      3  C   UNL     1      27.684   5.745  10.312  1.00  0.00     0.000 C 
BRANCH   3   4
ATOM      4  C   UNL     1      28.388   4.597   9.562  1.00  0.00     0.000 C 
BRANCH   4   5
ATOM      5  C   UNL     1      27.517   3.352   9.305  1.00  0.00     0.001 C 
BRANCH   5   6
ATOM      6  C   UNL     1      27.862   2.566   8.023  1.00  0.00     0.009 C 
BRANCH   6   7
ATOM      7  C   UNL     1      26.891   1.407   7.707  1.00  0.00     0.032 C 
ATOM      8  C   UNL     1      26.531   1.404   6.218  1.00  0.00     0.014 C 
BRANCH   7   9
ATOM      9  C   UNL     1      27.480   0.076   8.089  1.00  0.00     0.044 C 
ATOM     10  O   UNL     1      28.720  -0.038   8.268  1.00  0.00    -0.550 OA
ATOM     11  O   UNL     1      26.660  -1.036   8.247  1.00  0.00    -0.550 OA
ENDBRANCH   7   9
ENDBRANCH   6   7
ENDBRANCH   5   6
ENDBRANCH   4   5
ENDBRANCH   3   4
ENDBRANCH   2   3
ENDBRANCH   1   2
BRANCH   1  12
ATOM     12  C   UNL     1      26.264   7.587   8.900  1.00  0.00     0.000 C 
BRANCH  12  13
ATOM     13  C   UNL     1      25.617   7.691   7.514  1.00  0.00    -0.000 C 
BRANCH  13  14
ATOM     14  C   UNL     1      26.458   6.965   6.457  1.00  0.00    -0.000 C 
BRANCH  14  15
ATOM     15  C   UNL     1      26.187   5.454   6.484  1.00  0.00    -0.000 C 
BRANCH  15  16
ATOM     16  C   UNL     1      24.690   5.117   6.575  1.00  0.00    -0.000 C 
BRANCH  16  17
ATOM     17  C   UNL     1      24.335   4.005   7.581  1.00  0.00    -0.000 C 
BRANCH  17  18
ATOM     18  C   UNL     1      23.056   4.288   8.397  1.00  0.00    -0.003 C 
ATOM     19  C   UNL     1      22.573   3.062   9.171  1.00  0.00     0.004 C 
ENDBRANCH  17  18
ENDBRANCH  16  17
ENDBRANCH  15  16
ENDBRANCH  14  15
ENDBRANCH  13  14
ENDBRANCH  12  13
ENDBRANCH   1  12
TORSDOF 14
ENDMDL
