MODEL 1
REMARK VINA RESULT:    -3.190      0.000      0.000
REMARK INTER + INTRA:          -7.830
REMARK INTER:                  -5.801
REMARK INTRA:                  -2.029
REMARK UNBOUND:                -2.029
REMARK SMILES CCCCCCCCCCCCCCCC(=O)[O-]
REMARK SMILES IDX 9 1 10 2 11 3 12 4 13 5 14 6 15 7 16 8 17 9 18 10 8 11 7 12
REMARK SMILES IDX 6 13 5 14 4 15 3 16 2 17 1 18
REMARK H PARENT
REMARK Flexibility Score: inf
ROOT
ATOM      1  C   UNL     1      31.423  57.097  82.821  1.00  0.00     0.000 C 
ENDROOT
BRANCH   1   2
ATOM      2  C   UNL     1      32.359  57.230  84.037  1.00  0.00     0.000 C 
BRANCH   2   3
ATOM      3  C   UNL     1      31.610  57.167  85.378  1.00  0.00     0.000 C 
BRANCH   3   4
ATOM      4  C   UNL     1      30.516  58.242  85.503  1.00  0.00     0.000 C 
BRANCH   4   5
ATOM      5  C   UNL     1      29.119  57.720  85.897  1.00  0.00     0.000 C 
BRANCH   5   6
ATOM      6  C   UNL     1      28.106  58.807  86.301  1.00  0.00     0.006 C 
BRANCH   6   7
ATOM      7  C   UNL     1      28.737  59.928  87.136  1.00  0.00     0.053 C 
BRANCH   7   8
ATOM      8  C   UNL     1      27.921  61.177  87.034  1.00  0.00     0.041 C 
ATOM      9  O   UNL     1      28.009  62.066  87.921  1.00  0.00    -0.550 OA
ATOM     10  O   UNL     1      27.099  61.381  85.933  1.00  0.00    -0.550 OA
ENDBRANCH   7   8
ENDBRANCH   6   7
ENDBRANCH   5   6
ENDBRANCH   4   5
ENDBRANCH   3   4
ENDBRANCH   2   3
ENDBRANCH   1   2
BRANCH   1  11
ATOM     11  C   UNL     1      31.493  58.261  81.811  1.00  0.00     0.000 C 
BRANCH  11  12
ATOM     12  C   UNL     1      30.132  58.742  81.268  1.00  0.00    -0.000 C 
BRANCH  12  13
ATOM     13  C   UNL     1      28.926  57.885  81.693  1.00  0.00    -0.000 C 
BRANCH  13  14
ATOM     14  C   UNL     1      27.938  58.646  82.589  1.00  0.00    -0.000 C 
BRANCH  14  15
ATOM     15  C   UNL     1      28.369  60.110  82.758  1.00  0.00    -0.000 C 
BRANCH  15  16
ATOM     16  C   UNL     1      27.255  61.101  82.387  1.00  0.00    -0.000 C 
BRANCH  16  17
ATOM     17  C   UNL     1      26.708  60.872  80.970  1.00  0.00    -0.003 C 
ATOM     18  C   UNL     1      27.601  61.531  79.924  1.00  0.00     0.004 C 
ENDBRANCH  16  17
ENDBRANCH  15  16
ENDBRANCH  14  15
ENDBRANCH  13  14
ENDBRANCH  12  13
ENDBRANCH  11  12
ENDBRANCH   1  11
TORSDOF 14
ENDMDL
MODEL 2
REMARK VINA RESULT:    -3.169      3.404      6.344
REMARK INTER + INTRA:          -7.791
REMARK INTER:                  -5.367
REMARK INTRA:                  -2.424
REMARK UNBOUND:                -2.029
REMARK SMILES CCCCCCCCCCCCCCCC(=O)[O-]
REMARK SMILES IDX 9 1 10 2 11 3 12 4 13 5 14 6 15 7 16 8 17 9 18 10 8 11 7 12
REMARK SMILES IDX 6 13 5 14 4 15 3 16 2 17 1 18
REMARK H PARENT
REMARK Flexibility Score: inf
ROOT
ATOM      1  C   UNL     1      25.382  59.463  84.574  1.00  0.00     0.000 C 
ENDROOT
BRANCH   1   2
ATOM      2  C   UNL     1      25.552  60.917  84.095  1.00  0.00     0.000 C 
BRANCH   2   3
ATOM      3  C   UNL     1      27.007  61.407  84.176  1.00  0.00     0.000 C 
BRANCH   3   4
ATOM      4  C   UNL     1      27.627  61.672  82.792  1.00  0.00     0.000 C 
BRANCH   4   5
ATOM      5  C   UNL     1      26.644  61.605  81.605  1.00  0.00     0.000 C 
BRANCH   5   6
ATOM      6  C   UNL     1      27.209  60.962  80.326  1.00  0.00     0.006 C 
BRANCH   6   7
ATOM      7  C   UNL     1      28.028  59.696  80.608  1.00  0.00     0.053 C 
BRANCH   7   8
ATOM      8  C   UNL     1      29.074  59.506  79.556  1.00  0.00     0.041 C 
ATOM      9  O   UNL     1      29.965  58.629  79.699  1.00  0.00    -0.550 OA
ATOM     10  O   UNL     1      29.037  60.266  78.395  1.00  0.00    -0.550 OA
ENDBRANCH   7   8
ENDBRANCH   6   7
ENDBRANCH   5   6
ENDBRANCH   4   5
ENDBRANCH   3   4
ENDBRANCH   2   3
ENDBRANCH   1   2
BRANCH   1  11
ATOM     11  C   UNL     1      25.606  58.387  83.492  1.00  0.00     0.000 C 
BRANCH  11  12
ATOM     12  C   UNL     1      26.966  57.663  83.557  1.00  0.00    -0.000 C 
BRANCH  12  13
ATOM     13  C   UNL     1      27.628  57.652  84.946  1.00  0.00    -0.000 C 
BRANCH  13  14
ATOM     14  C   UNL     1      29.000  58.342  84.960  1.00  0.00    -0.000 C 
BRANCH  14  15
ATOM     15  C   UNL     1      29.192  59.153  86.249  1.00  0.00    -0.000 C 
BRANCH  15  16
ATOM     16  C   UNL     1      28.140  58.822  87.319  1.00  0.00    -0.000 C 
BRANCH  16  17
ATOM     17  C   UNL     1      27.329  60.053  87.752  1.00  0.00    -0.003 C 
ATOM     18  C   UNL     1      28.116  61.338  87.517  1.00  0.00     0.004 C 
ENDBRANCH  16  17
ENDBRANCH  15  16
ENDBRANCH  14  15
ENDBRANCH  13  14
ENDBRANCH  12  13
ENDBRANCH  11  12
ENDBRANCH   1  11
TORSDOF 14
ENDMDL
MODEL 3
REMARK VINA RESULT:    -3.149      6.580      9.551
REMARK INTER + INTRA:          -7.755
REMARK INTER:                  -6.415
REMARK INTRA:                  -1.339
REMARK UNBOUND:                -2.029
REMARK SMILES CCCCCCCCCCCCCCCC(=O)[O-]
REMARK SMILES IDX 9 1 10 2 11 3 12 4 13 5 14 6 15 7 16 8 17 9 18 10 8 11 7 12
REMARK SMILES IDX 6 13 5 14 4 15 3 16 2 17 1 18
REMARK H PARENT
REMARK Flexibility Score: inf
ROOT
ATOM      1  C   UNL     1      24.610  62.807  79.214  1.00  0.00     0.000 C 
ENDROOT
BRANCH   1   2
ATOM      2  C   UNL     1      25.315  61.458  78.973  1.00  0.00     0.000 C 
BRANCH   2   3
ATOM      3  C   UNL     1      26.506  61.229  79.917  1.00  0.00     0.000 C 
BRANCH   3   4
ATOM      4  C   UNL     1      27.851  61.647  79.295  1.00  0.00     0.000 C 
BRANCH   4   5
ATOM      5  C   UNL     1      28.187  60.985  77.942  1.00  0.00     0.000 C 
BRANCH   5   6
ATOM      6  C   UNL     1      29.119  59.764  78.028  1.00  0.00     0.006 C 
BRANCH   6   7
ATOM      7  C   UNL     1      29.636  59.311  76.656  1.00  0.00     0.053 C 
BRANCH   7   8
ATOM      8  C   UNL     1      28.500  58.858  75.795  1.00  0.00     0.041 C 
ATOM      9  O   UNL     1      28.296  59.402  74.678  1.00  0.00    -0.550 OA
ATOM     10  O   UNL     1      27.697  57.802  76.203  1.00  0.00    -0.550 OA
ENDBRANCH   7   8
ENDBRANCH   6   7
ENDBRANCH   5   6
ENDBRANCH   4   5
ENDBRANCH   3   4
ENDBRANCH   2   3
ENDBRANCH   1   2
BRANCH   1  11
ATOM     11  C   UNL     1      24.499  63.718  77.974  1.00  0.00     0.000 C 
BRANCH  11  12
ATOM     12  C   UNL     1      24.889  63.058  76.637  1.00  0.00    -0.000 C 
BRANCH  12  13
ATOM     13  C   UNL     1      26.059  63.732  75.898  1.00  0.00    -0.000 C 
BRANCH  13  14
ATOM     14  C   UNL     1      25.621  64.950  75.071  1.00  0.00    -0.000 C 
BRANCH  14  15
ATOM     15  C   UNL     1      26.678  66.062  75.133  1.00  0.00    -0.000 C 
BRANCH  15  16
ATOM     16  C   UNL     1      26.180  67.312  75.876  1.00  0.00    -0.000 C 
BRANCH  16  17
ATOM     17  C   UNL     1      24.737  67.163  76.381  1.00  0.00    -0.003 C 
ATOM     18  C   UNL     1      24.269  68.432  77.087  1.00  0.00     0.004 C 
ENDBRANCH  16  17
ENDBRANCH  15  16
ENDBRANCH  14  15
ENDBRANCH  13  14
ENDBRANCH  12  13
ENDBRANCH  11  12
ENDBRANCH   1  11
TORSDOF 14
ENDMDL
MODEL 4
REMARK VINA RESULT:    -3.118      5.450      9.551
REMARK INTER + INTRA:          -7.699
REMARK INTER:                  -5.958
REMARK INTRA:                  -1.741
REMARK UNBOUND:                -2.029
REMARK SMILES CCCCCCCCCCCCCCCC(=O)[O-]
REMARK SMILES IDX 9 1 10 2 11 3 12 4 13 5 14 6 15 7 16 8 17 9 18 10 8 11 7 12
REMARK SMILES IDX 6 13 5 14 4 15 3 16 2 17 1 18
REMARK H PARENT
REMARK Flexibility Score: inf
ROOT
ATOM      1  C   UNL     1      23.944  64.759  78.129  1.00  0.00     0.000 C 
ENDROOT
BRANCH   1   2
ATOM      2  C   UNL     1      24.322  63.267  78.168  1.00  0.00     0.000 C 
BRANCH   2   3
ATOM      3  C   UNL     1      25.020  62.793  76.883  1.00  0.00     0.000 C 
BRANCH   3   4
ATOM      4  C   UNL     1      26.460  62.308  77.128  1.00  0.00     0.000 C 
BRANCH   4   5
ATOM      5  C   UNL     1      26.625  61.279  78.266  1.00  0.00     0.000 C 
BRANCH   5   6
ATOM      6  C   UNL     1      27.660  61.655  79.341  1.00  0.00     0.006 C 
BRANCH   6   7
ATOM      7  C   UNL     1      27.015  62.065  80.671  1.00  0.00     0.053 C 
BRANCH   7   8
ATOM      8  C   UNL     1      26.980  60.904  81.613  1.00  0.00     0.041 C 
ATOM      9  O   UNL     1      25.960  60.169  81.676  1.00  0.00    -0.550 OA
ATOM     10  O   UNL     1      28.092  60.605  82.389  1.00  0.00    -0.550 OA
ENDBRANCH   7   8
ENDBRANCH   6   7
ENDBRANCH   5   6
ENDBRANCH   4   5
ENDBRANCH   3   4
ENDBRANCH   2   3
ENDBRANCH   1   2
BRANCH   1  11
ATOM     11  C   UNL     1      23.968  65.405  76.729  1.00  0.00     0.000 C 
BRANCH  11  12
ATOM     12  C   UNL     1      24.598  66.811  76.665  1.00  0.00    -0.000 C 
BRANCH  12  13
ATOM     13  C   UNL     1      25.585  67.027  75.504  1.00  0.00    -0.000 C 
BRANCH  13  14
ATOM     14  C   UNL     1      26.626  65.904  75.389  1.00  0.00    -0.000 C 
BRANCH  14  15
ATOM     15  C   UNL     1      26.456  65.132  74.072  1.00  0.00    -0.000 C 
BRANCH  15  16
ATOM     16  C   UNL     1      25.252  65.622  73.251  1.00  0.00    -0.000 C 
BRANCH  16  17
ATOM     17  C   UNL     1      24.497  64.473  72.567  1.00  0.00    -0.003 C 
ATOM     18  C   UNL     1      24.612  63.183  73.374  1.00  0.00     0.004 C 
ENDBRANCH  16  17
ENDBRANCH  15  16
ENDBRANCH  14  15
ENDBRANCH  13  14
ENDBRANCH  12  13
ENDBRANCH  11  12
ENDBRANCH   1  11
TORSDOF 14
ENDMDL
MODEL 5
REMARK VINA RESULT:    -3.111      2.870      5.865
REMARK INTER + INTRA:          -7.686
REMARK INTER:                  -5.714
REMARK INTRA:                  -1.972
REMARK UNBOUND:                -2.029
REMARK SMILES CCCCCCCCCCCCCCCC(=O)[O-]
REMARK SMILES IDX 9 1 10 2 11 3 12 4 13 5 14 6 15 7 16 8 17 9 18 10 8 11 7 12
REMARK SMILES IDX 6 13 5 14 4 15 3 16 2 17 1 18
REMARK H PARENT
REMARK Flexibility Score: inf
ROOT
ATOM      1  C   UNL     1      25.993  61.406  84.470  1.00  0.00     0.000 C 
ENDROOT
BRANCH   1   2
ATOM      2  C   UNL     1      27.299  61.372  83.654  1.00  0.00     0.000 C 
BRANCH   2   3
ATOM      3  C   UNL     1      27.161  60.589  82.338  1.00  0.00     0.000 C 
BRANCH   3   4
ATOM      4  C   UNL     1      27.759  59.173  82.418  1.00  0.00     0.000 C 
BRANCH   4   5
ATOM      5  C   UNL     1      29.274  59.111  82.699  1.00  0.00     0.000 C 
BRANCH   5   6
ATOM      6  C   UNL     1      29.657  58.637  84.112  1.00  0.00     0.006 C 
BRANCH   6   7
ATOM      7  C   UNL     1      30.385  57.287  84.111  1.00  0.00     0.053 C 
BRANCH   7   8
ATOM      8  C   UNL     1      31.625  57.362  84.943  1.00  0.00     0.041 C 
ATOM      9  O   UNL     1      32.758  57.273  84.402  1.00  0.00    -0.550 OA
ATOM     10  O   UNL     1      31.531  57.579  86.311  1.00  0.00    -0.550 OA
ENDBRANCH   7   8
ENDBRANCH   6   7
ENDBRANCH   5   6
ENDBRANCH   4   5
ENDBRANCH   3   4
ENDBRANCH   2   3
ENDBRANCH   1   2
BRANCH   1  11
ATOM     11  C   UNL     1      24.784  60.722  83.800  1.00  0.00     0.000 C 
BRANCH  11  12
ATOM     12  C   UNL     1      24.195  59.525  84.573  1.00  0.00    -0.000 C 
BRANCH  12  13
ATOM     13  C   UNL     1      25.225  58.474  85.022  1.00  0.00    -0.000 C 
BRANCH  13  14
ATOM     14  C   UNL     1      25.513  58.525  86.530  1.00  0.00    -0.000 C 
BRANCH  14  15
ATOM     15  C   UNL     1      26.993  58.226  86.815  1.00  0.00    -0.000 C 
BRANCH  15  16
ATOM     16  C   UNL     1      27.618  59.222  87.804  1.00  0.00    -0.000 C 
BRANCH  16  17
ATOM     17  C   UNL     1      28.404  60.338  87.101  1.00  0.00    -0.003 C 
ATOM     18  C   UNL     1      28.006  61.710  87.638  1.00  0.00     0.004 C 
ENDBRANCH  16  17
ENDBRANCH  15  16
ENDBRANCH  14  15
ENDBRANCH  13  14
ENDBRANCH  12  13
ENDBRANCH  11  12
ENDBRANCH   1  11
TORSDOF 14
ENDMDL
MODEL 6
REMARK VINA RESULT:    -3.105      4.449      7.652
REMARK INTER + INTRA:          -7.675
REMARK INTER:                  -6.729
REMARK INTRA:                  -0.946
REMARK UNBOUND:                -2.029
REMARK SMILES CCCCCCCCCCCCCCCC(=O)[O-]
REMARK SMILES IDX 9 1 10 2 11 3 12 4 13 5 14 6 15 7 16 8 17 9 18 10 8 11 7 12
REMARK SMILES IDX 6 13 5 14 4 15 3 16 2 17 1 18
REMARK H PARENT
REMARK Flexibility Score: inf
ROOT
ATOM      1  C   UNL     1      26.645  61.829  80.820  1.00  0.00     0.000 C 
ENDROOT
BRANCH   1   2
ATOM      2  C   UNL     1      26.947  60.905  79.625  1.00  0.00     0.000 C 
BRANCH   2   3
ATOM      3  C   UNL     1      28.182  61.349  78.824  1.00  0.00     0.000 C 
BRANCH   3   4
ATOM      4  C   UNL     1      29.128  60.182  78.487  1.00  0.00     0.000 C 
BRANCH   4   5
ATOM      5  C   UNL     1      28.561  58.773  78.759  1.00  0.00     0.000 C 
BRANCH   5   6
ATOM      6  C   UNL     1      29.376  57.921  79.747  1.00  0.00     0.006 C 
BRANCH   6   7
ATOM      7  C   UNL     1      29.709  58.669  81.045  1.00  0.00     0.053 C 
BRANCH   7   8
ATOM      8  C   UNL     1      31.117  58.389  81.462  1.00  0.00     0.041 C 
ATOM      9  O   UNL     1      32.047  59.166  81.119  1.00  0.00    -0.550 OA
ATOM     10  O   UNL     1      31.398  57.295  82.270  1.00  0.00    -0.550 OA
ENDBRANCH   7   8
ENDBRANCH   6   7
ENDBRANCH   5   6
ENDBRANCH   4   5
ENDBRANCH   3   4
ENDBRANCH   2   3
ENDBRANCH   1   2
BRANCH   1  11
ATOM     11  C   UNL     1      25.429  62.760  80.637  1.00  0.00     0.000 C 
BRANCH  11  12
ATOM     12  C   UNL     1      24.626  62.544  79.339  1.00  0.00    -0.000 C 
BRANCH  12  13
ATOM     13  C   UNL     1      24.116  63.833  78.670  1.00  0.00    -0.000 C 
BRANCH  13  14
ATOM     14  C   UNL     1      24.356  63.855  77.154  1.00  0.00    -0.000 C 
BRANCH  14  15
ATOM     15  C   UNL     1      24.681  65.276  76.671  1.00  0.00    -0.000 C 
BRANCH  15  16
ATOM     16  C   UNL     1      25.718  65.294  75.536  1.00  0.00    -0.000 C 
BRANCH  16  17
ATOM     17  C   UNL     1      26.501  66.613  75.472  1.00  0.00    -0.003 C 
ATOM     18  C   UNL     1      25.669  67.772  76.011  1.00  0.00     0.004 C 
ENDBRANCH  16  17
ENDBRANCH  15  16
ENDBRANCH  14  15
ENDBRANCH  13  14
ENDBRANCH  12  13
ENDBRANCH  11  12
ENDBRANCH   1  11
TORSDOF 14
ENDMDL
MODEL 7
REMARK VINA RESULT:    -3.095      2.942      4.864
REMARK INTER + INTRA:          -7.656
REMARK INTER:                  -5.664
REMARK INTRA:                  -1.993
REMARK UNBOUND:                -2.029
REMARK SMILES CCCCCCCCCCCCCCCC(=O)[O-]
REMARK SMILES IDX 9 1 10 2 11 3 12 4 13 5 14 6 15 7 16 8 17 9 18 10 8 11 7 12
REMARK SMILES IDX 6 13 5 14 4 15 3 16 2 17 1 18
REMARK H PARENT
REMARK Flexibility Score: inf
ROOT
ATOM      1  C   UNL     1      28.351  60.362  87.123  1.00  0.00     0.000 C 
ENDROOT
BRANCH   1   2
ATOM      2  C   UNL     1      27.976  58.940  87.583  1.00  0.00     0.000 C 
BRANCH   2   3
ATOM      3  C   UNL     1      28.794  57.848  86.876  1.00  0.00     0.000 C 
BRANCH   3   4
ATOM      4  C   UNL     1      29.774  58.414  85.833  1.00  0.00     0.000 C 
BRANCH   4   5
ATOM      5  C   UNL     1      29.446  58.075  84.365  1.00  0.00     0.000 C 
BRANCH   5   6
ATOM      6  C   UNL     1      29.903  59.122  83.335  1.00  0.00     0.006 C 
BRANCH   6   7
ATOM      7  C   UNL     1      29.261  58.922  81.956  1.00  0.00     0.053 C 
BRANCH   7   8
ATOM      8  C   UNL     1      30.287  58.478  80.962  1.00  0.00     0.041 C 
ATOM      9  O   UNL     1      31.498  58.781  81.124  1.00  0.00    -0.550 OA
ATOM     10  O   UNL     1      29.913  57.688  79.883  1.00  0.00    -0.550 OA
ENDBRANCH   7   8
ENDBRANCH   6   7
ENDBRANCH   5   6
ENDBRANCH   4   5
ENDBRANCH   3   4
ENDBRANCH   2   3
ENDBRANCH   1   2
BRANCH   1  11
ATOM     11  C   UNL     1      27.283  61.078  86.272  1.00  0.00     0.000 C 
BRANCH  11  12
ATOM     12  C   UNL     1      26.236  60.154  85.619  1.00  0.00    -0.000 C 
BRANCH  12  13
ATOM     13  C   UNL     1      26.338  60.038  84.088  1.00  0.00    -0.000 C 
BRANCH  13  14
ATOM     14  C   UNL     1      26.895  61.309  83.429  1.00  0.00    -0.000 C 
BRANCH  14  15
ATOM     15  C   UNL     1      26.043  61.716  82.218  1.00  0.00    -0.000 C 
BRANCH  15  16
ATOM     16  C   UNL     1      26.895  62.127  81.006  1.00  0.00    -0.000 C 
BRANCH  16  17
ATOM     17  C   UNL     1      26.964  61.031  79.933  1.00  0.00    -0.003 C 
ATOM     18  C   UNL     1      28.199  61.200  79.054  1.00  0.00     0.004 C 
ENDBRANCH  16  17
ENDBRANCH  15  16
ENDBRANCH  14  15
ENDBRANCH  13  14
ENDBRANCH  12  13
ENDBRANCH  11  12
ENDBRANCH   1  11
TORSDOF 14
ENDMDL
MODEL 8
REMARK VINA RESULT:    -3.064      2.415      5.767
REMARK INTER + INTRA:          -7.600
REMARK INTER:                  -5.373
REMARK INTRA:                  -2.227
REMARK UNBOUND:                -2.029
REMARK SMILES CCCCCCCCCCCCCCCC(=O)[O-]
REMARK SMILES IDX 9 1 10 2 11 3 12 4 13 5 14 6 15 7 16 8 17 9 18 10 8 11 7 12
REMARK SMILES IDX 6 13 5 14 4 15 3 16 2 17 1 18
REMARK H PARENT
REMARK Flexibility Score: inf
ROOT
ATOM      1  C   UNL     1      27.588  58.767  82.349  1.00  0.00     0.000 C 
ENDROOT
BRANCH   1   2
ATOM      2  C   UNL     1      26.495  59.182  83.352  1.00  0.00     0.000 C 
BRANCH   2   3
ATOM      3  C   UNL     1      26.829  60.487  84.094  1.00  0.00     0.000 C 
BRANCH   3   4
ATOM      4  C   UNL     1      25.676  61.505  84.063  1.00  0.00     0.000 C 
BRANCH   4   5
ATOM      5  C   UNL     1      24.664  61.322  82.913  1.00  0.00     0.000 C 
BRANCH   5   6
ATOM      6  C   UNL     1      24.910  62.207  81.680  1.00  0.00     0.006 C 
BRANCH   6   7
ATOM      7  C   UNL     1      25.545  61.440  80.512  1.00  0.00     0.053 C 
BRANCH   7   8
ATOM      8  C   UNL     1      26.979  61.832  80.350  1.00  0.00     0.041 C 
ATOM      9  O   UNL     1      27.611  61.507  79.311  1.00  0.00    -0.550 OA
ATOM     10  O   UNL     1      27.605  62.599  81.324  1.00  0.00    -0.550 OA
ENDBRANCH   7   8
ENDBRANCH   6   7
ENDBRANCH   5   6
ENDBRANCH   4   5
ENDBRANCH   3   4
ENDBRANCH   2   3
ENDBRANCH   1   2
BRANCH   1  11
ATOM     11  C   UNL     1      28.983  59.370  82.613  1.00  0.00     0.000 C 
BRANCH  11  12
ATOM     12  C   UNL     1      30.082  58.350  82.971  1.00  0.00    -0.000 C 
BRANCH  12  13
ATOM     13  C   UNL     1      30.532  58.372  84.443  1.00  0.00    -0.000 C 
BRANCH  13  14
ATOM     14  C   UNL     1      29.428  57.923  85.412  1.00  0.00    -0.000 C 
BRANCH  14  15
ATOM     15  C   UNL     1      29.227  58.956  86.530  1.00  0.00    -0.000 C 
BRANCH  15  16
ATOM     16  C   UNL     1      27.942  58.712  87.338  1.00  0.00    -0.000 C 
BRANCH  16  17
ATOM     17  C   UNL     1      27.360  60.005  87.926  1.00  0.00    -0.003 C 
ATOM     18  C   UNL     1      28.136  61.226  87.442  1.00  0.00     0.004 C 
ENDBRANCH  16  17
ENDBRANCH  15  16
ENDBRANCH  14  15
ENDBRANCH  13  14
ENDBRANCH  12  13
ENDBRANCH  11  12
ENDBRANCH   1  11
TORSDOF 14
ENDMDL
MODEL 9
REMARK VINA RESULT:    -3.061      1.432      3.212
REMARK INTER + INTRA:          -7.595
REMARK INTER:                  -5.519
REMARK INTRA:                  -2.076
REMARK UNBOUND:                -2.029
REMARK SMILES CCCCCCCCCCCCCCCC(=O)[O-]
REMARK SMILES IDX 9 1 10 2 11 3 12 4 13 5 14 6 15 7 16 8 17 9 18 10 8 11 7 12
REMARK SMILES IDX 6 13 5 14 4 15 3 16 2 17 1 18
REMARK H PARENT
REMARK Flexibility Score: inf
ROOT
ATOM      1  C   UNL     1      27.908  58.644  82.298  1.00  0.00     0.000 C 
ENDROOT
BRANCH   1   2
ATOM      2  C   UNL     1      29.334  59.061  81.894  1.00  0.00     0.000 C 
BRANCH   2   3
ATOM      3  C   UNL     1      30.416  58.449  82.799  1.00  0.00     0.000 C 
BRANCH   3   4
ATOM      4  C   UNL     1      29.834  57.775  84.055  1.00  0.00     0.000 C 
BRANCH   4   5
ATOM      5  C   UNL     1      30.286  58.381  85.399  1.00  0.00     0.000 C 
BRANCH   5   6
ATOM      6  C   UNL     1      29.181  58.505  86.463  1.00  0.00     0.006 C 
BRANCH   6   7
ATOM      7  C   UNL     1      28.180  59.625  86.154  1.00  0.00     0.053 C 
BRANCH   7   8
ATOM      8  C   UNL     1      27.848  60.386  87.399  1.00  0.00     0.041 C 
ATOM      9  O   UNL     1      28.213  61.583  87.526  1.00  0.00    -0.550 OA
ATOM     10  O   UNL     1      27.092  59.786  88.398  1.00  0.00    -0.550 OA
ENDBRANCH   7   8
ENDBRANCH   6   7
ENDBRANCH   5   6
ENDBRANCH   4   5
ENDBRANCH   3   4
ENDBRANCH   2   3
ENDBRANCH   1   2
BRANCH   1  11
ATOM     11  C   UNL     1      26.892  59.800  82.402  1.00  0.00     0.000 C 
BRANCH  11  12
ATOM     12  C   UNL     1      27.506  61.194  82.636  1.00  0.00    -0.000 C 
BRANCH  12  13
ATOM     13  C   UNL     1      27.361  62.172  81.456  1.00  0.00    -0.000 C 
BRANCH  13  14
ATOM     14  C   UNL     1      26.113  61.900  80.604  1.00  0.00    -0.000 C 
BRANCH  14  15
ATOM     15  C   UNL     1      26.504  61.460  79.185  1.00  0.00    -0.000 C 
BRANCH  15  16
ATOM     16  C   UNL     1      28.024  61.482  78.957  1.00  0.00    -0.000 C 
BRANCH  16  17
ATOM     17  C   UNL     1      28.558  60.150  78.409  1.00  0.00    -0.003 C 
ATOM     18  C   UNL     1      27.527  59.037  78.572  1.00  0.00     0.004 C 
ENDBRANCH  16  17
ENDBRANCH  15  16
ENDBRANCH  14  15
ENDBRANCH  13  14
ENDBRANCH  12  13
ENDBRANCH  11  12
ENDBRANCH   1  11
TORSDOF 14
ENDMDL
