MODEL 1
REMARK VINA RESULT:    -6.880      0.000      0.000
REMARK INTER + INTRA:          -7.483
REMARK INTER:                  -7.483
REMARK INTRA:                   0.000
REMARK UNBOUND:                 0.000
REMARK SMILES Cc1cc(O)c2c(c1)C(=O)c1cc(O)cc(O)c1C2=O
REMARK SMILES IDX 1 1 2 2 8 3 7 4 6 5 4 6 3 7 19 8 20 9 18 10 11 11 9 12 10 13
REMARK SMILES IDX 12 14 13 15 15 16 16 17 5 18 17 20 14 22
REMARK H PARENT 5 19 17 21 14 23
REMARK Flexibility Score: inf
ROOT
ATOM      1  C   UNL     1       9.248 -35.086  -4.480  1.00  0.00     0.044 C 
ATOM      2  C   UNL     1      10.661 -35.030  -3.979  1.00  0.00    -0.047 A 
ATOM      3  C   UNL     1      11.488 -36.155  -4.079  1.00  0.00     0.016 A 
ATOM      4  C   UNL     1      12.804 -36.123  -3.588  1.00  0.00     0.038 A 
ATOM      5  C   UNL     1      13.301 -34.945  -2.986  1.00  0.00     0.076 A 
ATOM      6  C   UNL     1      12.432 -33.837  -2.813  1.00  0.00     0.127 A 
ATOM      7  C   UNL     1      11.132 -33.886  -3.328  1.00  0.00     0.050 A 
ATOM      8  C   UNL     1      14.739 -34.899  -2.614  1.00  0.00     0.201 C 
ATOM      9  O   UNL     1      15.354 -33.800  -2.628  1.00  0.00    -0.288 OA
ATOM     10  C   UNL     1      15.489 -36.165  -2.411  1.00  0.00     0.076 A 
ATOM     11  C   UNL     1      14.987 -37.342  -3.012  1.00  0.00     0.041 A 
ATOM     12  C   UNL     1      13.670 -37.321  -3.691  1.00  0.00     0.194 C 
ATOM     13  O   UNL     1      13.276 -38.332  -4.335  1.00  0.00    -0.289 OA
ATOM     14  C   UNL     1      15.738 -38.529  -2.958  1.00  0.00     0.059 A 
ATOM     15  C   UNL     1      16.972 -38.559  -2.302  1.00  0.00     0.120 A 
ATOM     16  C   UNL     1      17.450 -37.411  -1.673  1.00  0.00     0.093 A 
ATOM     17  C   UNL     1      16.713 -36.222  -1.694  1.00  0.00     0.131 A 
ENDROOT
BRANCH   6  18
ATOM     18  O   UNL     1      12.802 -32.690  -2.107  1.00  0.00    -0.507 OA
ATOM     19  H   UNL     1      12.216 -31.870  -2.027  1.00  0.00     0.293 HD
ENDBRANCH   6  18
BRANCH  17  20
ATOM     20  O   UNL     1      17.213 -35.140  -0.967  1.00  0.00    -0.507 OA
ATOM     21  H   UNL     1      17.106 -34.177  -1.253  1.00  0.00     0.293 HD
ENDBRANCH  17  20
BRANCH  15  22
ATOM     22  O   UNL     1      17.724 -39.730  -2.257  1.00  0.00    -0.508 OA
ATOM     23  H   UNL     1      18.714 -39.717  -2.040  1.00  0.00     0.293 HD
ENDBRANCH  15  22
TORSDOF 3
ENDMDL
MODEL 2
REMARK VINA RESULT:    -6.737      2.687      3.627
REMARK INTER + INTRA:          -7.328
REMARK INTER:                  -7.328
REMARK INTRA:                   0.000
REMARK UNBOUND:                 0.000
REMARK SMILES Cc1cc(O)c2c(c1)C(=O)c1cc(O)cc(O)c1C2=O
REMARK SMILES IDX 1 1 2 2 8 3 7 4 6 5 4 6 3 7 19 8 20 9 18 10 11 11 9 12 10 13
REMARK SMILES IDX 12 14 13 15 15 16 16 17 5 18 17 20 14 22
REMARK H PARENT 5 19 17 21 14 23
REMARK Flexibility Score: inf
ROOT
ATOM      1  C   UNL     1      12.282 -32.493  -2.443  1.00  0.00     0.044 C 
ATOM      2  C   UNL     1      13.260 -33.160  -1.522  1.00  0.00    -0.047 A 
ATOM      3  C   UNL     1      13.956 -34.300  -1.941  1.00  0.00     0.016 A 
ATOM      4  C   UNL     1      14.853 -34.950  -1.076  1.00  0.00     0.038 A 
ATOM      5  C   UNL     1      15.057 -34.450   0.230  1.00  0.00     0.076 A 
ATOM      6  C   UNL     1      14.287 -33.345   0.676  1.00  0.00     0.127 A 
ATOM      7  C   UNL     1      13.415 -32.703  -0.210  1.00  0.00     0.050 A 
ATOM      8  C   UNL     1      16.120 -35.071   1.061  1.00  0.00     0.201 C 
ATOM      9  O   UNL     1      16.728 -34.379   1.921  1.00  0.00    -0.288 OA
ATOM     10  C   UNL     1      16.591 -36.446   0.751  1.00  0.00     0.076 A 
ATOM     11  C   UNL     1      16.382 -36.944  -0.555  1.00  0.00     0.041 A 
ATOM     12  C   UNL     1      15.580 -36.160  -1.525  1.00  0.00     0.194 C 
ATOM     13  O   UNL     1      15.496 -36.539  -2.726  1.00  0.00    -0.289 OA
ATOM     14  C   UNL     1      16.932 -38.182  -0.927  1.00  0.00     0.059 A 
ATOM     15  C   UNL     1      17.672 -38.934  -0.010  1.00  0.00     0.120 A 
ATOM     16  C   UNL     1      17.845 -38.465   1.291  1.00  0.00     0.093 A 
ATOM     17  C   UNL     1      17.291 -37.244   1.693  1.00  0.00     0.131 A 
ENDROOT
BRANCH   6  18
ATOM     18  O   UNL     1      14.328 -32.878   1.991  1.00  0.00    -0.507 OA
ATOM     19  H   UNL     1      14.788 -33.371   2.745  1.00  0.00     0.293 HD
ENDBRANCH   6  18
BRANCH  17  20
ATOM     20  O   UNL     1      17.429 -36.884   3.034  1.00  0.00    -0.507 OA
ATOM     21  H   UNL     1      17.021 -37.405   3.798  1.00  0.00     0.293 HD
ENDBRANCH  17  20
BRANCH  15  22
ATOM     22  O   UNL     1      18.229 -40.156  -0.378  1.00  0.00    -0.508 OA
ATOM     23  H   UNL     1      17.907 -40.661  -1.196  1.00  0.00     0.293 HD
ENDBRANCH  15  22
TORSDOF 3
ENDMDL
MODEL 3
REMARK VINA RESULT:    -6.437      2.432      6.456
REMARK INTER + INTRA:          -7.002
REMARK INTER:                  -7.002
REMARK INTRA:                   0.000
REMARK UNBOUND:                 0.000
REMARK SMILES Cc1cc(O)c2c(c1)C(=O)c1cc(O)cc(O)c1C2=O
REMARK SMILES IDX 1 1 2 2 8 3 7 4 6 5 4 6 3 7 19 8 20 9 18 10 11 11 9 12 10 13
REMARK SMILES IDX 12 14 13 15 15 16 16 17 5 18 17 20 14 22
REMARK H PARENT 5 19 17 21 14 23
REMARK Flexibility Score: inf
ROOT
ATOM      1  C   UNL     1      17.601 -35.215   3.125  1.00  0.00     0.044 C 
ATOM      2  C   UNL     1      16.924 -35.361   1.794  1.00  0.00    -0.047 A 
ATOM      3  C   UNL     1      15.925 -34.458   1.410  1.00  0.00     0.016 A 
ATOM      4  C   UNL     1      15.265 -34.602   0.178  1.00  0.00     0.038 A 
ATOM      5  C   UNL     1      15.610 -35.667  -0.684  1.00  0.00     0.076 A 
ATOM      6  C   UNL     1      16.563 -36.626  -0.252  1.00  0.00     0.127 A 
ATOM      7  C   UNL     1      17.221 -36.450   0.969  1.00  0.00     0.050 A 
ATOM      8  C   UNL     1      14.998 -35.701  -2.038  1.00  0.00     0.201 C 
ATOM      9  O   UNL     1      15.632 -36.213  -2.999  1.00  0.00    -0.288 OA
ATOM     10  C   UNL     1      13.731 -34.969  -2.294  1.00  0.00     0.076 A 
ATOM     11  C   UNL     1      13.388 -33.906  -1.427  1.00  0.00     0.041 A 
ATOM     12  C   UNL     1      14.204 -33.646  -0.218  1.00  0.00     0.194 C 
ATOM     13  O   UNL     1      13.977 -32.625   0.489  1.00  0.00    -0.289 OA
ATOM     14  C   UNL     1      12.271 -33.102  -1.714  1.00  0.00     0.059 A 
ATOM     15  C   UNL     1      11.487 -33.356  -2.844  1.00  0.00     0.120 A 
ATOM     16  C   UNL     1      11.799 -34.429  -3.678  1.00  0.00     0.093 A 
ATOM     17  C   UNL     1      12.893 -35.255  -3.402  1.00  0.00     0.131 A 
ENDROOT
BRANCH   6  18
ATOM     18  O   UNL     1      16.857 -37.779  -0.982  1.00  0.00    -0.507 OA
ATOM     19  H   UNL     1      17.795 -38.047  -1.248  1.00  0.00     0.293 HD
ENDBRANCH   6  18
BRANCH  17  20
ATOM     20  O   UNL     1      13.089 -36.362  -4.231  1.00  0.00    -0.507 OA
ATOM     21  H   UNL     1      12.380 -37.061  -4.408  1.00  0.00     0.293 HD
ENDBRANCH  17  20
BRANCH  15  22
ATOM     22  O   UNL     1      10.387 -32.555  -3.139  1.00  0.00    -0.508 OA
ATOM     23  H   UNL     1       9.733 -32.801  -3.873  1.00  0.00     0.293 HD
ENDBRANCH  15  22
TORSDOF 3
ENDMDL
MODEL 4
REMARK VINA RESULT:    -6.324      2.669      3.949
REMARK INTER + INTRA:          -6.879
REMARK INTER:                  -6.879
REMARK INTRA:                   0.000
REMARK UNBOUND:                 0.000
REMARK SMILES Cc1cc(O)c2c(c1)C(=O)c1cc(O)cc(O)c1C2=O
REMARK SMILES IDX 1 1 2 2 8 3 7 4 6 5 4 6 3 7 19 8 20 9 18 10 11 11 9 12 10 13
REMARK SMILES IDX 12 14 13 15 15 16 16 17 5 18 17 20 14 22
REMARK H PARENT 5 19 17 21 14 23
REMARK Flexibility Score: inf
ROOT
ATOM      1  C   UNL     1      13.137 -32.126   1.775  1.00  0.00     0.044 C 
ATOM      2  C   UNL     1      13.638 -33.119   0.768  1.00  0.00    -0.047 A 
ATOM      3  C   UNL     1      14.275 -34.291   1.191  1.00  0.00     0.016 A 
ATOM      4  C   UNL     1      14.774 -35.214   0.256  1.00  0.00     0.038 A 
ATOM      5  C   UNL     1      14.633 -34.959  -1.127  1.00  0.00     0.076 A 
ATOM      6  C   UNL     1      14.062 -33.731  -1.549  1.00  0.00     0.127 A 
ATOM      7  C   UNL     1      13.555 -32.837  -0.600  1.00  0.00     0.050 A 
ATOM      8  C   UNL     1      15.036 -36.023  -2.082  1.00  0.00     0.201 C 
ATOM      9  O   UNL     1      14.450 -36.124  -3.192  1.00  0.00    -0.288 OA
ATOM     10  C   UNL     1      15.995 -37.075  -1.653  1.00  0.00     0.076 A 
ATOM     11  C   UNL     1      16.135 -37.324  -0.268  1.00  0.00     0.041 A 
ATOM     12  C   UNL     1      15.453 -36.449   0.713  1.00  0.00     0.194 C 
ATOM     13  O   UNL     1      15.473 -36.742   1.941  1.00  0.00    -0.289 OA
ATOM     14  C   UNL     1      16.926 -38.400   0.171  1.00  0.00     0.059 A 
ATOM     15  C   UNL     1      17.587 -39.217  -0.752  1.00  0.00     0.120 A 
ATOM     16  C   UNL     1      17.483 -38.949  -2.115  1.00  0.00     0.093 A 
ATOM     17  C   UNL     1      16.719 -37.871  -2.577  1.00  0.00     0.131 A 
ENDROOT
BRANCH   6  18
ATOM     18  O   UNL     1      14.012 -33.343  -2.889  1.00  0.00    -0.507 OA
ATOM     19  H   UNL     1      14.638 -32.662  -3.298  1.00  0.00     0.293 HD
ENDBRANCH   6  18
BRANCH  17  20
ATOM     20  O   UNL     1      16.736 -37.611  -3.949  1.00  0.00    -0.507 OA
ATOM     21  H   UNL     1      15.910 -37.383  -4.485  1.00  0.00     0.293 HD
ENDBRANCH  17  20
BRANCH  15  22
ATOM     22  O   UNL     1      18.361 -40.292  -0.321  1.00  0.00    -0.508 OA
ATOM     23  H   UNL     1      18.004 -41.241  -0.330  1.00  0.00     0.293 HD
ENDBRANCH  15  22
TORSDOF 3
ENDMDL
MODEL 5
REMARK VINA RESULT:    -6.303      1.426      6.333
REMARK INTER + INTRA:          -6.855
REMARK INTER:                  -6.855
REMARK INTRA:                   0.000
REMARK UNBOUND:                 0.000
REMARK SMILES Cc1cc(O)c2c(c1)C(=O)c1cc(O)cc(O)c1C2=O
REMARK SMILES IDX 1 1 2 2 8 3 7 4 6 5 4 6 3 7 19 8 20 9 18 10 11 11 9 12 10 13
REMARK SMILES IDX 12 14 13 15 15 16 16 17 5 18 17 20 14 22
REMARK H PARENT 5 19 17 21 14 23
REMARK Flexibility Score: inf
ROOT
ATOM      1  C   UNL     1      18.240 -37.902  -1.951  1.00  0.00     0.044 C 
ATOM      2  C   UNL     1      16.837 -37.739  -2.454  1.00  0.00    -0.047 A 
ATOM      3  C   UNL     1      16.214 -36.486  -2.409  1.00  0.00     0.016 A 
ATOM      4  C   UNL     1      14.889 -36.328  -2.851  1.00  0.00     0.038 A 
ATOM      5  C   UNL     1      14.176 -37.442  -3.347  1.00  0.00     0.076 A 
ATOM      6  C   UNL     1      14.784 -38.724  -3.312  1.00  0.00     0.127 A 
ATOM      7  C   UNL     1      16.110 -38.853  -2.886  1.00  0.00     0.050 A 
ATOM      8  C   UNL     1      12.835 -37.209  -3.942  1.00  0.00     0.201 C 
ATOM      9  O   UNL     1      12.419 -37.962  -4.862  1.00  0.00    -0.288 OA
ATOM     10  C   UNL     1      12.072 -35.985  -3.585  1.00  0.00     0.076 A 
ATOM     11  C   UNL     1      12.789 -34.874  -3.086  1.00  0.00     0.041 A 
ATOM     12  C   UNL     1      14.236 -34.999  -2.793  1.00  0.00     0.194 C 
ATOM     13  O   UNL     1      14.905 -33.979  -2.468  1.00  0.00    -0.289 OA
ATOM     14  C   UNL     1      12.124 -33.655  -2.867  1.00  0.00     0.059 A 
ATOM     15  C   UNL     1      10.755 -33.537  -3.125  1.00  0.00     0.120 A 
ATOM     16  C   UNL     1      10.037 -34.643  -3.578  1.00  0.00     0.093 A 
ATOM     17  C   UNL     1      10.671 -35.873  -3.784  1.00  0.00     0.131 A 
ENDROOT
BRANCH   6  18
ATOM     18  O   UNL     1      14.100 -39.893  -3.653  1.00  0.00    -0.507 OA
ATOM     19  H   UNL     1      13.158 -39.902  -4.022  1.00  0.00     0.293 HD
ENDBRANCH   6  18
BRANCH  17  20
ATOM     20  O   UNL     1       9.871 -36.957  -4.151  1.00  0.00    -0.507 OA
ATOM     21  H   UNL     1       9.780 -37.288  -5.102  1.00  0.00     0.293 HD
ENDBRANCH  17  20
BRANCH  15  22
ATOM     22  O   UNL     1      10.095 -32.328  -2.921  1.00  0.00    -0.508 OA
ATOM     23  H   UNL     1       9.088 -32.283  -2.818  1.00  0.00     0.293 HD
ENDBRANCH  15  22
TORSDOF 3
ENDMDL
MODEL 6
REMARK VINA RESULT:    -6.254      1.853      6.384
REMARK INTER + INTRA:          -6.803
REMARK INTER:                  -6.803
REMARK INTRA:                   0.000
REMARK UNBOUND:                 0.000
REMARK SMILES Cc1cc(O)c2c(c1)C(=O)c1cc(O)cc(O)c1C2=O
REMARK SMILES IDX 1 1 2 2 8 3 7 4 6 5 4 6 3 7 19 8 20 9 18 10 11 11 9 12 10 13
REMARK SMILES IDX 12 14 13 15 15 16 16 17 5 18 17 20 14 22
REMARK H PARENT 5 19 17 21 14 23
REMARK Flexibility Score: inf
ROOT
ATOM      1  C   UNL     1      18.251 -38.126   2.003  1.00  0.00     0.044 C 
ATOM      2  C   UNL     1      17.427 -37.805   0.791  1.00  0.00    -0.047 A 
ATOM      3  C   UNL     1      16.691 -36.615   0.736  1.00  0.00     0.016 A 
ATOM      4  C   UNL     1      15.893 -36.318  -0.382  1.00  0.00     0.038 A 
ATOM      5  C   UNL     1      15.831 -37.226  -1.463  1.00  0.00     0.076 A 
ATOM      6  C   UNL     1      16.513 -38.466  -1.364  1.00  0.00     0.127 A 
ATOM      7  C   UNL     1      17.316 -38.731  -0.250  1.00  0.00     0.050 A 
ATOM      8  C   UNL     1      15.099 -36.811  -2.687  1.00  0.00     0.201 C 
ATOM      9  O   UNL     1      15.458 -37.251  -3.811  1.00  0.00    -0.288 OA
ATOM     10  C   UNL     1      14.071 -35.741  -2.605  1.00  0.00     0.076 A 
ATOM     11  C   UNL     1      14.135 -34.837  -1.521  1.00  0.00     0.041 A 
ATOM     12  C   UNL     1      15.111 -35.060  -0.429  1.00  0.00     0.194 C 
ATOM     13  O   UNL     1      15.258 -34.191   0.475  1.00  0.00    -0.289 OA
ATOM     14  C   UNL     1      13.268 -33.731  -1.481  1.00  0.00     0.059 A 
ATOM     15  C   UNL     1      12.332 -33.527  -2.500  1.00  0.00     0.120 A 
ATOM     16  C   UNL     1      12.239 -34.439  -3.549  1.00  0.00     0.093 A 
ATOM     17  C   UNL     1      13.077 -35.559  -3.601  1.00  0.00     0.131 A 
ENDROOT
BRANCH   6  18
ATOM     18  O   UNL     1      16.391 -39.473  -2.324  1.00  0.00    -0.507 OA
ATOM     19  H   UNL     1      16.916 -40.337  -2.297  1.00  0.00     0.293 HD
ENDBRANCH   6  18
BRANCH  17  20
ATOM     20  O   UNL     1      12.864 -36.475  -4.633  1.00  0.00    -0.507 OA
ATOM     21  H   UNL     1      12.353 -36.258  -5.477  1.00  0.00     0.293 HD
ENDBRANCH  17  20
BRANCH  15  22
ATOM     22  O   UNL     1      11.480 -32.426  -2.470  1.00  0.00    -0.508 OA
ATOM     23  H   UNL     1      10.474 -32.531  -2.543  1.00  0.00     0.293 HD
ENDBRANCH  15  22
TORSDOF 3
ENDMDL
MODEL 7
REMARK VINA RESULT:    -6.216      2.485      4.640
REMARK INTER + INTRA:          -6.761
REMARK INTER:                  -6.761
REMARK INTRA:                   0.000
REMARK UNBOUND:                 0.000
REMARK SMILES Cc1cc(O)c2c(c1)C(=O)c1cc(O)cc(O)c1C2=O
REMARK SMILES IDX 1 1 2 2 8 3 7 4 6 5 4 6 3 7 19 8 20 9 18 10 11 11 9 12 10 13
REMARK SMILES IDX 12 14 13 15 15 16 16 17 5 18 17 20 14 22
REMARK H PARENT 5 19 17 21 14 23
REMARK Flexibility Score: inf
ROOT
ATOM      1  C   UNL     1       9.519 -39.263  -6.845  1.00  0.00     0.044 C 
ATOM      2  C   UNL     1      10.756 -39.358  -6.001  1.00  0.00    -0.047 A 
ATOM      3  C   UNL     1      11.291 -38.209  -5.405  1.00  0.00     0.016 A 
ATOM      4  C   UNL     1      12.465 -38.282  -4.637  1.00  0.00     0.038 A 
ATOM      5  C   UNL     1      13.115 -39.524  -4.461  1.00  0.00     0.076 A 
ATOM      6  C   UNL     1      12.614 -40.668  -5.136  1.00  0.00     0.127 A 
ATOM      7  C   UNL     1      11.433 -40.575  -5.879  1.00  0.00     0.050 A 
ATOM      8  C   UNL     1      14.265 -39.589  -3.523  1.00  0.00     0.201 C 
ATOM      9  O   UNL     1      14.505 -40.656  -2.899  1.00  0.00    -0.288 OA
ATOM     10  C   UNL     1      15.010 -38.349  -3.183  1.00  0.00     0.076 A 
ATOM     11  C   UNL     1      14.358 -37.108  -3.364  1.00  0.00     0.041 A 
ATOM     12  C   UNL     1      13.029 -37.060  -4.016  1.00  0.00     0.194 C 
ATOM     13  O   UNL     1      12.389 -35.973  -4.066  1.00  0.00    -0.289 OA
ATOM     14  C   UNL     1      14.976 -35.924  -2.926  1.00  0.00     0.059 A 
ATOM     15  C   UNL     1      16.239 -35.962  -2.327  1.00  0.00     0.120 A 
ATOM     16  C   UNL     1      16.902 -37.180  -2.185  1.00  0.00     0.093 A 
ATOM     17  C   UNL     1      16.317 -38.370  -2.631  1.00  0.00     0.131 A 
ENDROOT
BRANCH   6  18
ATOM     18  O   UNL     1      13.274 -41.899  -5.126  1.00  0.00    -0.507 OA
ATOM     19  H   UNL     1      12.802 -42.785  -5.001  1.00  0.00     0.293 HD
ENDBRANCH   6  18
BRANCH  17  20
ATOM     20  O   UNL     1      17.079 -39.537  -2.537  1.00  0.00    -0.507 OA
ATOM     21  H   UNL     1      16.921 -40.254  -1.843  1.00  0.00     0.293 HD
ENDBRANCH  17  20
BRANCH  15  22
ATOM     22  O   UNL     1      16.849 -34.793  -1.881  1.00  0.00    -0.508 OA
ATOM     23  H   UNL     1      17.131 -34.676  -0.915  1.00  0.00     0.293 HD
ENDBRANCH  15  22
TORSDOF 3
ENDMDL
MODEL 8
REMARK VINA RESULT:    -6.200      2.729      3.550
REMARK INTER + INTRA:          -6.744
REMARK INTER:                  -6.744
REMARK INTRA:                   0.000
REMARK UNBOUND:                 0.000
REMARK SMILES Cc1cc(O)c2c(c1)C(=O)c1cc(O)cc(O)c1C2=O
REMARK SMILES IDX 1 1 2 2 8 3 7 4 6 5 4 6 3 7 19 8 20 9 18 10 11 11 9 12 10 13
REMARK SMILES IDX 12 14 13 15 15 16 16 17 5 18 17 20 14 22
REMARK H PARENT 5 19 17 21 14 23
REMARK Flexibility Score: inf
ROOT
ATOM      1  C   UNL     1       9.589 -36.812  -4.875  1.00  0.00     0.044 C 
ATOM      2  C   UNL     1      10.388 -35.898  -3.995  1.00  0.00    -0.047 A 
ATOM      3  C   UNL     1      11.387 -36.417  -3.163  1.00  0.00     0.016 A 
ATOM      4  C   UNL     1      12.121 -35.573  -2.313  1.00  0.00     0.038 A 
ATOM      5  C   UNL     1      11.852 -34.186  -2.295  1.00  0.00     0.076 A 
ATOM      6  C   UNL     1      10.783 -33.679  -3.078  1.00  0.00     0.127 A 
ATOM      7  C   UNL     1      10.079 -34.535  -3.931  1.00  0.00     0.050 A 
ATOM      8  C   UNL     1      12.746 -33.307  -1.498  1.00  0.00     0.201 C 
ATOM      9  O   UNL     1      12.941 -32.117  -1.861  1.00  0.00    -0.288 OA
ATOM     10  C   UNL     1      13.550 -33.884  -0.389  1.00  0.00     0.076 A 
ATOM     11  C   UNL     1      13.814 -35.272  -0.409  1.00  0.00     0.041 A 
ATOM     12  C   UNL     1      13.172 -36.132  -1.430  1.00  0.00     0.194 C 
ATOM     13  O   UNL     1      13.501 -37.347  -1.530  1.00  0.00    -0.289 OA
ATOM     14  C   UNL     1      14.683 -35.832   0.544  1.00  0.00     0.059 A 
ATOM     15  C   UNL     1      15.277 -35.027   1.522  1.00  0.00     0.120 A 
ATOM     16  C   UNL     1      14.986 -33.665   1.569  1.00  0.00     0.093 A 
ATOM     17  C   UNL     1      14.108 -33.087   0.644  1.00  0.00     0.131 A 
ENDROOT
BRANCH   6  18
ATOM     18  O   UNL     1      10.365 -32.348  -3.013  1.00  0.00    -0.507 OA
ATOM     19  H   UNL     1      10.971 -31.584  -2.745  1.00  0.00     0.293 HD
ENDBRANCH   6  18
BRANCH  17  20
ATOM     20  O   UNL     1      13.796 -31.737   0.810  1.00  0.00    -0.507 OA
ATOM     21  H   UNL     1      13.991 -31.217   1.654  1.00  0.00     0.293 HD
ENDBRANCH  17  20
BRANCH  15  22
ATOM     22  O   UNL     1      16.147 -35.575   2.460  1.00  0.00    -0.508 OA
ATOM     23  H   UNL     1      16.367 -35.095   3.325  1.00  0.00     0.293 HD
ENDBRANCH  15  22
TORSDOF 3
ENDMDL
MODEL 9
REMARK VINA RESULT:    -6.052      1.789      3.509
REMARK INTER + INTRA:          -6.583
REMARK INTER:                  -6.583
REMARK INTRA:                   0.000
REMARK UNBOUND:                 0.000
REMARK SMILES Cc1cc(O)c2c(c1)C(=O)c1cc(O)cc(O)c1C2=O
REMARK SMILES IDX 1 1 2 2 8 3 7 4 6 5 4 6 3 7 19 8 20 9 18 10 11 11 9 12 10 13
REMARK SMILES IDX 12 14 13 15 15 16 16 17 5 18 17 20 14 22
REMARK H PARENT 5 19 17 21 14 23
REMARK Flexibility Score: inf
ROOT
ATOM      1  C   UNL     1      11.033 -33.622  -3.249  1.00  0.00     0.044 C 
ATOM      2  C   UNL     1      12.024 -34.737  -3.093  1.00  0.00    -0.047 A 
ATOM      3  C   UNL     1      12.828 -34.809  -1.949  1.00  0.00     0.016 A 
ATOM      4  C   UNL     1      13.779 -35.833  -1.806  1.00  0.00     0.038 A 
ATOM      5  C   UNL     1      13.927 -36.803  -2.823  1.00  0.00     0.076 A 
ATOM      6  C   UNL     1      13.168 -36.676  -4.014  1.00  0.00     0.127 A 
ATOM      7  C   UNL     1      12.214 -35.660  -4.126  1.00  0.00     0.050 A 
ATOM      8  C   UNL     1      14.834 -37.952  -2.570  1.00  0.00     0.201 C 
ATOM      9  O   UNL     1      14.597 -39.067  -3.108  1.00  0.00    -0.288 OA
ATOM     10  C   UNL     1      15.903 -37.838  -1.544  1.00  0.00     0.076 A 
ATOM     11  C   UNL     1      15.752 -36.864  -0.530  1.00  0.00     0.041 A 
ATOM     12  C   UNL     1      14.632 -35.897  -0.595  1.00  0.00     0.194 C 
ATOM     13  O   UNL     1      14.421 -35.109   0.369  1.00  0.00    -0.289 OA
ATOM     14  C   UNL     1      16.669 -36.816   0.534  1.00  0.00     0.059 A 
ATOM     15  C   UNL     1      17.739 -37.715   0.589  1.00  0.00     0.120 A 
ATOM     16  C   UNL     1      17.913 -38.649  -0.430  1.00  0.00     0.093 A 
ATOM     17  C   UNL     1      17.026 -38.704  -1.511  1.00  0.00     0.131 A 
ENDROOT
BRANCH   6  18
ATOM     18  O   UNL     1      13.354 -37.510  -5.119  1.00  0.00    -0.507 OA
ATOM     19  H   UNL     1      14.167 -38.099  -5.245  1.00  0.00     0.293 HD
ENDBRANCH   6  18
BRANCH  17  20
ATOM     20  O   UNL     1      17.316 -39.605  -2.537  1.00  0.00    -0.507 OA
ATOM     21  H   UNL     1      17.240 -39.377  -3.519  1.00  0.00     0.293 HD
ENDBRANCH  17  20
BRANCH  15  22
ATOM     22  O   UNL     1      18.643 -37.679   1.648  1.00  0.00    -0.508 OA
ATOM     23  H   UNL     1      19.631 -37.513   1.497  1.00  0.00     0.293 HD
ENDBRANCH  15  22
TORSDOF 3
ENDMDL
