MODEL 1
REMARK VINA RESULT:    -3.563      0.000      0.000
REMARK INTER + INTRA:          -5.075
REMARK INTER:                  -5.022
REMARK INTRA:                  -0.054
REMARK UNBOUND:                -0.054
REMARK SMILES CC1=CCC(=C(C)C)C(=O)CC(C)=CCC1
REMARK SMILES IDX 12 1 14 2 13 3 15 4 16 5 2 6 1 7 3 8 11 10 9 11 10 12 5 13
REMARK SMILES IDX 6 14 7 15 8 16 4 17
REMARK H PARENT
REMARK Flexibility Score: 60.00
ROOT
ATOM      1  C   UNL     1      17.765  46.822  20.377  1.00  0.00    -0.070 C 
ATOM      2  C   UNL     1      16.642  47.054  19.645  1.00  0.00    -0.027 C 
ATOM      3  C   UNL     1      18.883  47.830  20.257  1.00  0.00     0.039 C 
ENDROOT
BRANCH   2   4
ATOM      4  C   UNL     1      15.462  46.126  19.488  1.00  0.00     0.032 C 
BRANCH   4   5
ATOM      5  C   UNL     1      15.788  44.848  18.703  1.00  0.00     0.034 C 
BRANCH   5   6
ATOM      6  C   UNL     1      15.179  43.605  19.325  1.00  0.00    -0.077 C 
ATOM      7  C   UNL     1      13.675  43.482  19.359  1.00  0.00     0.039 C 
ATOM      8  C   UNL     1      15.901  42.636  19.946  1.00  0.00    -0.023 CG0
ATOM      9  G   UNL     1      17.408  42.463  19.951  1.00  0.00     0.000 G0
ENDBRANCH   5   6
ENDBRANCH   4   5
ENDBRANCH   2   4
BRANCH   1  10
ATOM     10  C   UNL     1      17.923  45.698  21.394  1.00  0.00     0.111 C 
BRANCH  10  11
ATOM     11  C   UNL     1      18.663  44.492  20.880  1.00  0.00     0.163 C 
ATOM     12  O   UNL     1      19.724  44.665  20.222  1.00  0.00    -0.294 OA
BRANCH  11  13
ATOM     13  C   UNL     1      18.161  43.105  21.096  1.00  0.00    -0.002 C 
ATOM     14  C   UNL     1      18.462  42.396  22.222  1.00  0.00    -0.069 C 
ATOM     15  C   UNL     1      17.923  41.000  22.435  1.00  0.00     0.039 C 
ATOM     16  C   UNL     1      19.400  42.941  23.276  1.00  0.00     0.039 C 
BRANCH  13  17
ATOM     17  C   UNL     1      17.411  42.468  19.937  1.00  0.00     0.066 CG0
ATOM     18  G   UNL     1      15.905  42.649  19.952  1.00  0.00     0.000 G0
ENDBRANCH  13  17
ENDBRANCH  11  13
ENDBRANCH  10  11
ENDBRANCH   1  10
TORSDOF 0
ENDMDL
MODEL 2
REMARK VINA RESULT:    -3.534      2.116      5.286
REMARK INTER + INTRA:          -5.034
REMARK INTER:                  -5.107
REMARK INTRA:                   0.073
REMARK UNBOUND:                -0.054
REMARK SMILES CC1=CCC(=C(C)C)C(=O)CC(C)=CCC1
REMARK SMILES IDX 12 1 14 2 13 3 15 4 16 5 2 6 1 7 3 8 11 10 9 11 10 12 5 13
REMARK SMILES IDX 6 14 7 15 8 16 4 17
REMARK H PARENT
REMARK Flexibility Score: 60.00
ROOT
ATOM      1  C   UNL     1      16.704  41.395  20.674  1.00  0.00    -0.070 C 
ATOM      2  C   UNL     1      17.756  40.683  21.159  1.00  0.00    -0.027 C 
ATOM      3  C   UNL     1      15.635  40.624  19.937  1.00  0.00     0.039 C 
ENDROOT
BRANCH   2   4
ATOM      4  C   UNL     1      19.005  41.242  21.796  1.00  0.00     0.032 C 
BRANCH   4   5
ATOM      5  C   UNL     1      19.871  42.064  20.829  1.00  0.00     0.034 C 
BRANCH   5   6
ATOM      6  C   UNL     1      20.496  43.279  21.488  1.00  0.00    -0.077 C 
ATOM      7  C   UNL     1      21.489  43.060  22.604  1.00  0.00     0.039 C 
ATOM      8  C   UNL     1      20.144  44.560  21.205  1.00  0.00    -0.023 CG0
ATOM      9  G   UNL     1      19.271  45.051  20.066  1.00  0.00     0.000 G0
ENDBRANCH   5   6
ENDBRANCH   4   5
ENDBRANCH   2   4
BRANCH   1  10
ATOM     10  C   UNL     1      16.465  42.878  20.931  1.00  0.00     0.111 C 
BRANCH  10  11
ATOM     11  C   UNL     1      17.070  43.794  19.900  1.00  0.00     0.163 C 
ATOM     12  O   UNL     1      16.985  43.477  18.682  1.00  0.00    -0.294 OA
BRANCH  11  13
ATOM     13  C   UNL     1      17.793  45.041  20.276  1.00  0.00    -0.002 C 
ATOM     14  C   UNL     1      17.133  46.161  20.688  1.00  0.00    -0.069 C 
ATOM     15  C   UNL     1      17.885  47.410  21.091  1.00  0.00     0.039 C 
ATOM     16  C   UNL     1      15.623  46.234  20.699  1.00  0.00     0.039 C 
BRANCH  13  17
ATOM     17  C   UNL     1      19.297  45.048  20.047  1.00  0.00     0.066 CG0
ATOM     18  G   UNL     1      20.141  44.581  21.216  1.00  0.00     0.000 G0
ENDBRANCH  13  17
ENDBRANCH  11  13
ENDBRANCH  10  11
ENDBRANCH   1  10
TORSDOF 0
ENDMDL
MODEL 3
REMARK VINA RESULT:    -3.511      1.885      3.825
REMARK INTER + INTRA:          -5.001
REMARK INTER:                  -5.146
REMARK INTRA:                   0.145
REMARK UNBOUND:                -0.054
REMARK SMILES CC1=CCC(=C(C)C)C(=O)CC(C)=CCC1
REMARK SMILES IDX 12 1 14 2 13 3 15 4 16 5 2 6 1 7 3 8 11 10 9 11 10 12 5 13
REMARK SMILES IDX 6 14 7 15 8 16 4 17
REMARK H PARENT
REMARK Flexibility Score: 60.00
ROOT
ATOM      1  C   UNL     1      15.653  44.812  18.825  1.00  0.00    -0.070 C 
ATOM      2  C   UNL     1      15.820  46.123  19.146  1.00  0.00    -0.027 C 
ATOM      3  C   UNL     1      14.258  44.368  18.456  1.00  0.00     0.039 C 
ENDROOT
BRANCH   2   4
ATOM      4  C   UNL     1      17.076  46.765  19.683  1.00  0.00     0.032 C 
BRANCH   4   5
ATOM      5  C   UNL     1      17.552  46.164  21.014  1.00  0.00     0.034 C 
BRANCH   5   6
ATOM      6  C   UNL     1      19.009  45.745  20.982  1.00  0.00    -0.077 C 
ATOM      7  C   UNL     1      20.051  46.789  20.666  1.00  0.00     0.039 C 
ATOM      8  C   UNL     1      19.432  44.461  21.123  1.00  0.00    -0.023 CG0
ATOM      9  G   UNL     1      18.615  43.259  21.556  1.00  0.00     0.000 G0
ENDBRANCH   5   6
ENDBRANCH   4   5
ENDBRANCH   2   4
BRANCH   1  10
ATOM     10  C   UNL     1      16.783  43.798  18.688  1.00  0.00     0.111 C 
BRANCH  10  11
ATOM     11  C   UNL     1      16.830  42.766  19.782  1.00  0.00     0.163 C 
ATOM     12  O   UNL     1      15.748  42.257  20.185  1.00  0.00    -0.294 OA
BRANCH  11  13
ATOM     13  C   UNL     1      18.110  42.353  20.426  1.00  0.00    -0.002 C 
ATOM     14  C   UNL     1      18.733  41.182  20.106  1.00  0.00    -0.069 C 
ATOM     15  C   UNL     1      20.044  40.792  20.750  1.00  0.00     0.039 C 
ATOM     16  C   UNL     1      18.115  40.190  19.147  1.00  0.00     0.039 C 
BRANCH  13  17
ATOM     17  C   UNL     1      18.615  43.235  21.557  1.00  0.00     0.066 CG0
ATOM     18  G   UNL     1      19.417  44.450  21.133  1.00  0.00     0.000 G0
ENDBRANCH  13  17
ENDBRANCH  11  13
ENDBRANCH  10  11
ENDBRANCH   1  10
TORSDOF 0
ENDMDL
MODEL 4
REMARK VINA RESULT:    -3.510      1.740      4.104
REMARK INTER + INTRA:          -5.000
REMARK INTER:                  -4.933
REMARK INTRA:                  -0.067
REMARK UNBOUND:                -0.054
REMARK SMILES CC1=CCC(=C(C)C)C(=O)CC(C)=CCC1
REMARK SMILES IDX 12 1 14 2 13 3 15 4 16 5 2 6 1 7 3 8 11 10 9 11 10 12 5 13
REMARK SMILES IDX 6 14 7 15 8 16 4 17
REMARK H PARENT
REMARK Flexibility Score: 60.00
ROOT
ATOM      1  C   UNL     1      19.953  44.050  20.614  1.00  0.00    -0.070 C 
ATOM      2  C   UNL     1      20.355  42.754  20.703  1.00  0.00    -0.027 C 
ATOM      3  C   UNL     1      20.747  45.070  21.394  1.00  0.00     0.039 C 
ENDROOT
BRANCH   2   4
ATOM      4  C   UNL     1      19.641  41.550  20.139  1.00  0.00     0.032 C 
BRANCH   4   5
ATOM      5  C   UNL     1      18.422  41.115  20.965  1.00  0.00     0.034 C 
BRANCH   5   6
ATOM      6  C   UNL     1      17.211  40.805  20.107  1.00  0.00    -0.077 C 
ATOM      7  C   UNL     1      17.195  39.515  19.325  1.00  0.00     0.039 C 
ATOM      8  C   UNL     1      16.175  41.665  19.918  1.00  0.00    -0.023 CG0
ATOM      9  G   UNL     1      15.895  42.955  20.664  1.00  0.00     0.000 G0
ENDBRANCH   5   6
ENDBRANCH   4   5
ENDBRANCH   2   4
BRANCH   1  10
ATOM     10  C   UNL     1      18.850  44.558  19.692  1.00  0.00     0.111 C 
BRANCH  10  11
ATOM     11  C   UNL     1      17.547  44.856  20.385  1.00  0.00     0.163 C 
ATOM     12  O   UNL     1      17.551  45.632  21.379  1.00  0.00    -0.294 OA
BRANCH  11  13
ATOM     13  C   UNL     1      16.262  44.236  19.954  1.00  0.00    -0.002 C 
ATOM     14  C   UNL     1      15.429  44.848  19.064  1.00  0.00    -0.069 C 
ATOM     15  C   UNL     1      14.142  44.192  18.618  1.00  0.00     0.039 C 
ATOM     16  C   UNL     1      15.716  46.234  18.531  1.00  0.00     0.039 C 
BRANCH  13  17
ATOM     17  C   UNL     1      15.859  42.952  20.661  1.00  0.00     0.066 CG0
ATOM     18  G   UNL     1      16.185  41.667  19.925  1.00  0.00     0.000 G0
ENDBRANCH  13  17
ENDBRANCH  11  13
ENDBRANCH  10  11
ENDBRANCH   1  10
TORSDOF 0
ENDMDL
MODEL 5
REMARK VINA RESULT:    -3.481      1.702      4.109
REMARK INTER + INTRA:          -4.959
REMARK INTER:                  -4.900
REMARK INTRA:                  -0.059
REMARK UNBOUND:                -0.054
REMARK SMILES CC1=CCC(=C(C)C)C(=O)CC(C)=CCC1
REMARK SMILES IDX 12 1 14 2 13 3 15 4 16 5 2 6 1 7 3 8 11 10 9 11 10 12 5 13
REMARK SMILES IDX 6 14 7 15 8 16 4 17
REMARK H PARENT
REMARK Flexibility Score: 60.00
ROOT
ATOM      1  C   UNL     1      19.252  47.098  20.635  1.00  0.00    -0.070 C 
ATOM      2  C   UNL     1      20.141  46.109  20.920  1.00  0.00    -0.027 C 
ATOM      3  C   UNL     1      19.492  48.442  21.280  1.00  0.00     0.039 C 
ENDROOT
BRANCH   2   4
ATOM      4  C   UNL     1      20.032  44.658  20.517  1.00  0.00     0.032 C 
BRANCH   4   5
ATOM      5  C   UNL     1      18.932  43.894  21.267  1.00  0.00     0.034 C 
BRANCH   5   6
ATOM      6  C   UNL     1      18.219  42.881  20.392  1.00  0.00    -0.077 C 
ATOM      7  C   UNL     1      18.988  41.672  19.917  1.00  0.00     0.039 C 
ATOM      8  C   UNL     1      16.953  43.043  19.922  1.00  0.00    -0.023 CG0
ATOM      9  G   UNL     1      15.940  44.092  20.334  1.00  0.00     0.000 G0
ENDBRANCH   5   6
ENDBRANCH   4   5
ENDBRANCH   2   4
BRANCH   1  10
ATOM     10  C   UNL     1      18.118  46.984  19.623  1.00  0.00     0.111 C 
BRANCH  10  11
ATOM     11  C   UNL     1      16.812  46.508  20.202  1.00  0.00     0.163 C 
ATOM     12  O   UNL     1      16.403  47.019  21.280  1.00  0.00    -0.294 OA
BRANCH  11  13
ATOM     13  C   UNL     1      16.009  45.428  19.560  1.00  0.00    -0.002 C 
ATOM     14  C   UNL     1      15.282  45.648  18.428  1.00  0.00    -0.069 C 
ATOM     15  C   UNL     1      14.494  44.534  17.776  1.00  0.00     0.039 C 
ATOM     16  C   UNL     1      15.172  47.023  17.808  1.00  0.00     0.039 C 
BRANCH  13  17
ATOM     17  C   UNL     1      15.931  44.106  20.307  1.00  0.00     0.066 CG0
ATOM     18  G   UNL     1      16.957  43.064  19.906  1.00  0.00     0.000 G0
ENDBRANCH  13  17
ENDBRANCH  11  13
ENDBRANCH  10  11
ENDBRANCH   1  10
TORSDOF 0
ENDMDL
MODEL 6
REMARK VINA RESULT:    -3.414      1.926      4.159
REMARK INTER + INTRA:          -4.864
REMARK INTER:                  -4.732
REMARK INTRA:                  -0.132
REMARK UNBOUND:                -0.054
REMARK SMILES CC1=CCC(=C(C)C)C(=O)CC(C)=CCC1
REMARK SMILES IDX 12 1 14 2 13 3 15 4 16 5 2 6 1 7 3 8 11 10 9 11 10 12 5 13
REMARK SMILES IDX 6 14 7 15 8 16 4 17
REMARK H PARENT
REMARK Flexibility Score: 60.00
ROOT
ATOM      1  C   UNL     1      17.565  42.347  20.135  1.00  0.00    -0.070 C 
ATOM      2  C   UNL     1      16.233  42.211  19.895  1.00  0.00    -0.027 C 
ATOM      3  C   UNL     1      18.290  41.144  20.686  1.00  0.00     0.039 C 
ENDROOT
BRANCH   2   4
ATOM      4  C   UNL     1      15.276  43.303  19.486  1.00  0.00     0.032 C 
BRANCH   4   5
ATOM      5  C   UNL     1      14.978  44.310  20.606  1.00  0.00     0.034 C 
BRANCH   5   6
ATOM      6  C   UNL     1      14.963  45.746  20.118  1.00  0.00    -0.077 C 
ATOM      7  C   UNL     1      13.851  46.179  19.194  1.00  0.00     0.039 C 
ATOM      8  C   UNL     1      15.946  46.646  20.380  1.00  0.00    -0.023 CG0
ATOM      9  G   UNL     1      17.096  46.503  21.358  1.00  0.00     0.000 G0
ENDBRANCH   5   6
ENDBRANCH   4   5
ENDBRANCH   2   4
BRANCH   1  10
ATOM     10  C   UNL     1      18.393  43.574  19.770  1.00  0.00     0.111 C 
BRANCH  10  11
ATOM     11  C   UNL     1      18.653  44.514  20.917  1.00  0.00     0.163 C 
ATOM     12  O   UNL     1      19.048  44.037  22.016  1.00  0.00    -0.294 OA
BRANCH  11  13
ATOM     13  C   UNL     1      18.425  45.982  20.804  1.00  0.00    -0.002 C 
ATOM     14  C   UNL     1      19.389  46.828  20.341  1.00  0.00    -0.069 C 
ATOM     15  C   UNL     1      19.130  48.312  20.209  1.00  0.00     0.039 C 
ATOM     16  C   UNL     1      20.779  46.339  20.002  1.00  0.00     0.039 C 
BRANCH  13  17
ATOM     17  C   UNL     1      17.111  46.508  21.360  1.00  0.00     0.066 CG0
ATOM     18  G   UNL     1      15.977  46.631  20.360  1.00  0.00     0.000 G0
ENDBRANCH  13  17
ENDBRANCH  11  13
ENDBRANCH  10  11
ENDBRANCH   1  10
TORSDOF 0
ENDMDL
MODEL 7
REMARK VINA RESULT:    -3.345      8.950      9.680
REMARK INTER + INTRA:          -4.767
REMARK INTER:                  -4.893
REMARK INTRA:                   0.125
REMARK UNBOUND:                -0.054
REMARK SMILES CC1=CCC(=C(C)C)C(=O)CC(C)=CCC1
REMARK SMILES IDX 12 1 14 2 13 3 15 4 16 5 2 6 1 7 3 8 11 10 9 11 10 12 5 13
REMARK SMILES IDX 6 14 7 15 8 16 4 17
REMARK H PARENT
REMARK Flexibility Score: 60.00
ROOT
ATOM      1  C   UNL     1      14.224  40.614  28.620  1.00  0.00    -0.070 C 
ATOM      2  C   UNL     1      13.163  40.235  27.859  1.00  0.00    -0.027 C 
ATOM      3  C   UNL     1      14.387  42.092  28.882  1.00  0.00     0.039 C 
ENDROOT
BRANCH   2   4
ATOM      4  C   UNL     1      12.875  38.845  27.345  1.00  0.00     0.032 C 
BRANCH   4   5
ATOM      5  C   UNL     1      13.890  38.354  26.303  1.00  0.00     0.034 C 
BRANCH   5   6
ATOM      6  C   UNL     1      14.464  36.990  26.639  1.00  0.00    -0.077 C 
ATOM      7  C   UNL     1      13.540  35.797  26.623  1.00  0.00     0.039 C 
ATOM      8  C   UNL     1      15.743  36.786  27.052  1.00  0.00    -0.023 CG0
ATOM      9  G   UNL     1      16.888  37.780  27.043  1.00  0.00     0.000 G0
ENDBRANCH   5   6
ENDBRANCH   4   5
ENDBRANCH   2   4
BRANCH   1  10
ATOM     10  C   UNL     1      15.176  39.655  29.326  1.00  0.00     0.111 C 
BRANCH  10  11
ATOM     11  C   UNL     1      16.577  39.650  28.775  1.00  0.00     0.163 C 
ATOM     12  O   UNL     1      17.167  40.751  28.605  1.00  0.00    -0.294 OA
BRANCH  11  13
ATOM     13  C   UNL     1      17.272  38.388  28.393  1.00  0.00    -0.002 C 
ATOM     14  C   UNL     1      18.277  37.861  29.149  1.00  0.00    -0.069 C 
ATOM     15  C   UNL     1      18.953  36.566  28.759  1.00  0.00     0.039 C 
ATOM     16  C   UNL     1      18.810  38.576  30.371  1.00  0.00     0.039 C 
BRANCH  13  17
ATOM     17  C   UNL     1      16.898  37.790  27.046  1.00  0.00     0.066 CG0
ATOM     18  G   UNL     1      15.756  36.792  27.065  1.00  0.00     0.000 G0
ENDBRANCH  13  17
ENDBRANCH  11  13
ENDBRANCH  10  11
ENDBRANCH   1  10
TORSDOF 0
ENDMDL
MODEL 8
REMARK VINA RESULT:    -3.252      2.164      3.001
REMARK INTER + INTRA:          -4.636
REMARK INTER:                  -4.586
REMARK INTRA:                  -0.050
REMARK UNBOUND:                -0.054
REMARK SMILES CC1=CCC(=C(C)C)C(=O)CC(C)=CCC1
REMARK SMILES IDX 12 1 14 2 13 3 15 4 16 5 2 6 1 7 3 8 11 10 9 11 10 12 5 13
REMARK SMILES IDX 6 14 7 15 8 16 4 17
REMARK H PARENT
REMARK Flexibility Score: 60.00
ROOT
ATOM      1  C   UNL     1      17.943  44.806  20.891  1.00  0.00    -0.070 C 
ATOM      2  C   UNL     1      16.747  44.380  20.401  1.00  0.00    -0.027 C 
ATOM      3  C   UNL     1      18.321  46.243  20.624  1.00  0.00     0.039 C 
ENDROOT
BRANCH   2   4
ATOM      4  C   UNL     1      16.222  42.965  20.413  1.00  0.00     0.032 C 
BRANCH   4   5
ATOM      5  C   UNL     1      17.003  42.013  19.495  1.00  0.00     0.034 C 
BRANCH   5   6
ATOM      6  C   UNL     1      17.349  40.699  20.170  1.00  0.00    -0.077 C 
ATOM      7  C   UNL     1      16.223  39.768  20.549  1.00  0.00     0.039 C 
ATOM      8  C   UNL     1      18.606  40.348  20.546  1.00  0.00    -0.023 CG0
ATOM      9  G   UNL     1      19.907  41.039  20.188  1.00  0.00     0.000 G0
ENDBRANCH   5   6
ENDBRANCH   4   5
ENDBRANCH   2   4
BRANCH   1  10
ATOM     10  C   UNL     1      18.858  43.982  21.788  1.00  0.00     0.111 C 
BRANCH  10  11
ATOM     11  C   UNL     1      20.072  43.423  21.094  1.00  0.00     0.163 C 
ATOM     12  O   UNL     1      20.751  44.183  20.351  1.00  0.00    -0.294 OA
BRANCH  11  13
ATOM     13  C   UNL     1      20.475  41.994  21.232  1.00  0.00    -0.002 C 
ATOM     14  C   UNL     1      21.390  41.589  22.158  1.00  0.00    -0.069 C 
ATOM     15  C   UNL     1      21.767  40.132  22.301  1.00  0.00     0.039 C 
ATOM     16  C   UNL     1      22.120  42.579  23.039  1.00  0.00     0.039 C 
BRANCH  13  17
ATOM     17  C   UNL     1      19.917  41.031  20.197  1.00  0.00     0.066 CG0
ATOM     18  G   UNL     1      18.605  40.364  20.561  1.00  0.00     0.000 G0
ENDBRANCH  13  17
ENDBRANCH  11  13
ENDBRANCH  10  11
ENDBRANCH   1  10
TORSDOF 0
ENDMDL
MODEL 9
REMARK VINA RESULT:    -3.132      1.375      4.318
REMARK INTER + INTRA:          -4.468
REMARK INTER:                  -4.825
REMARK INTRA:                   0.358
REMARK UNBOUND:                -0.054
REMARK SMILES CC1=CCC(=C(C)C)C(=O)CC(C)=CCC1
REMARK SMILES IDX 12 1 14 2 13 3 15 4 16 5 2 6 1 7 3 8 11 10 9 11 10 12 5 13
REMARK SMILES IDX 6 14 7 15 8 16 4 17
REMARK H PARENT
REMARK Flexibility Score: 60.00
ROOT
ATOM      1  C   UNL     1      19.558  42.370  22.444  1.00  0.00    -0.070 C 
ATOM      2  C   UNL     1      18.962  41.170  22.214  1.00  0.00    -0.027 C 
ATOM      3  C   UNL     1      21.036  42.354  22.749  1.00  0.00     0.039 C 
ENDROOT
BRANCH   2   4
ATOM      4  C   UNL     1      17.484  40.919  22.034  1.00  0.00     0.032 C 
BRANCH   4   5
ATOM      5  C   UNL     1      17.138  40.216  20.714  1.00  0.00     0.034 C 
BRANCH   5   6
ATOM      6  C   UNL     1      17.909  40.773  19.532  1.00  0.00    -0.077 C 
ATOM      7  C   UNL     1      18.886  39.869  18.821  1.00  0.00     0.039 C 
ATOM      8  C   UNL     1      17.851  42.070  19.131  1.00  0.00    -0.023 CG0
ATOM      9  G   UNL     1      16.880  43.139  19.593  1.00  0.00     0.000 G0
ENDBRANCH   5   6
ENDBRANCH   4   5
ENDBRANCH   2   4
BRANCH   1  10
ATOM     10  C   UNL     1      18.875  43.725  22.291  1.00  0.00     0.111 C 
BRANCH  10  11
ATOM     11  C   UNL     1      18.809  44.232  20.876  1.00  0.00     0.163 C 
ATOM     12  O   UNL     1      19.881  44.544  20.291  1.00  0.00    -0.294 OA
BRANCH  11  13
ATOM     13  C   UNL     1      17.514  44.409  20.159  1.00  0.00    -0.002 C 
ATOM     14  C   UNL     1      16.865  45.609  20.127  1.00  0.00    -0.069 C 
ATOM     15  C   UNL     1      15.565  45.776  19.373  1.00  0.00     0.039 C 
ATOM     16  C   UNL     1      17.375  46.808  20.895  1.00  0.00     0.039 C 
BRANCH  13  17
ATOM     17  C   UNL     1      16.882  43.153  19.582  1.00  0.00     0.066 CG0
ATOM     18  G   UNL     1      17.852  42.082  19.121  1.00  0.00     0.000 G0
ENDBRANCH  13  17
ENDBRANCH  11  13
ENDBRANCH  10  11
ENDBRANCH   1  10
TORSDOF 0
ENDMDL
