MODEL 1
REMARK VINA RESULT:    -4.559      0.000      0.000
REMARK INTER + INTRA:          -9.488
REMARK INTER:                  -8.024
REMARK INTRA:                  -1.464
REMARK UNBOUND:                -1.464
REMARK SMILES CCCCCCCCCCCCCCC(=O)[O-]
REMARK SMILES IDX 9 1 10 2 11 3 12 4 13 5 14 6 15 7 16 8 17 9 8 10 7 11 6 12
REMARK SMILES IDX 5 13 4 14 3 15 2 16 1 17
REMARK H PARENT
REMARK Flexibility Score: inf
ROOT
ATOM      1  C   UNL     1      39.790 118.707  12.777  1.00  0.00     0.000 C 
ENDROOT
BRANCH   1   2
ATOM      2  C   UNL     1      39.970 117.465  11.890  1.00  0.00     0.000 C 
BRANCH   2   3
ATOM      3  C   UNL     1      41.384 117.361  11.297  1.00  0.00     0.000 C 
BRANCH   3   4
ATOM      4  C   UNL     1      42.274 116.369  12.060  1.00  0.00     0.000 C 
BRANCH   4   5
ATOM      5  C   UNL     1      43.334 115.759  11.134  1.00  0.00     0.006 C 
BRANCH   5   6
ATOM      6  C   UNL     1      43.860 116.799  10.140  1.00  0.00     0.053 C 
BRANCH   6   7
ATOM      7  C   UNL     1      43.708 116.306   8.736  1.00  0.00     0.041 C 
ATOM      8  O   UNL     1      44.589 115.565   8.226  1.00  0.00    -0.550 OA
ATOM      9  O   UNL     1      42.617 116.703   7.975  1.00  0.00    -0.550 OA
ENDBRANCH   6   7
ENDBRANCH   5   6
ENDBRANCH   4   5
ENDBRANCH   3   4
ENDBRANCH   2   3
ENDBRANCH   1   2
BRANCH   1  10
ATOM     10  C   UNL     1      39.852 118.334  14.263  1.00  0.00     0.000 C 
BRANCH  10  11
ATOM     11  C   UNL     1      39.284 116.926  14.501  1.00  0.00    -0.000 C 
BRANCH  11  12
ATOM     12  C   UNL     1      37.823 116.941  14.983  1.00  0.00    -0.000 C 
BRANCH  12  13
ATOM     13  C   UNL     1      36.758 117.063  13.872  1.00  0.00    -0.000 C 
BRANCH  13  14
ATOM     14  C   UNL     1      36.108 118.454  13.738  1.00  0.00    -0.000 C 
BRANCH  14  15
ATOM     15  C   UNL     1      35.733 119.099  15.092  1.00  0.00    -0.000 C 
BRANCH  15  16
ATOM     16  C   UNL     1      36.546 120.362  15.414  1.00  0.00    -0.003 C 
ATOM     17  C   UNL     1      37.174 120.995  14.173  1.00  0.00     0.004 C 
ENDBRANCH  15  16
ENDBRANCH  14  15
ENDBRANCH  13  14
ENDBRANCH  12  13
ENDBRANCH  11  12
ENDBRANCH  10  11
ENDBRANCH   1  10
TORSDOF 13
ENDMDL
MODEL 2
REMARK VINA RESULT:    -4.487      3.489      7.167
REMARK INTER + INTRA:          -9.361
REMARK INTER:                  -7.578
REMARK INTRA:                  -1.783
REMARK UNBOUND:                -1.464
REMARK SMILES CCCCCCCCCCCCCCC(=O)[O-]
REMARK SMILES IDX 9 1 10 2 11 3 12 4 13 5 14 6 15 7 16 8 17 9 8 10 7 11 6 12
REMARK SMILES IDX 5 13 4 14 3 15 2 16 1 17
REMARK H PARENT
REMARK Flexibility Score: inf
ROOT
ATOM      1  C   UNL     1      43.704 114.928   9.348  1.00  0.00     0.000 C 
ENDROOT
BRANCH   1   2
ATOM      2  C   UNL     1      43.760 116.244   8.556  1.00  0.00     0.000 C 
BRANCH   2   3
ATOM      3  C   UNL     1      42.581 117.177   8.876  1.00  0.00     0.000 C 
BRANCH   3   4
ATOM      4  C   UNL     1      42.458 117.481  10.377  1.00  0.00     0.000 C 
BRANCH   4   5
ATOM      5  C   UNL     1      41.032 117.924  10.731  1.00  0.00     0.006 C 
BRANCH   5   6
ATOM      6  C   UNL     1      40.507 117.163  11.952  1.00  0.00     0.053 C 
BRANCH   6   7
ATOM      7  C   UNL     1      39.653 118.054  12.797  1.00  0.00     0.041 C 
ATOM      8  O   UNL     1      39.767 119.305  12.714  1.00  0.00    -0.550 OA
ATOM      9  O   UNL     1      38.766 117.502  13.712  1.00  0.00    -0.550 OA
ENDBRANCH   6   7
ENDBRANCH   5   6
ENDBRANCH   4   5
ENDBRANCH   3   4
ENDBRANCH   2   3
ENDBRANCH   1   2
BRANCH   1  10
ATOM     10  C   UNL     1      44.923 114.050   9.038  1.00  0.00     0.000 C 
BRANCH  10  11
ATOM     11  C   UNL     1      45.393 113.300  10.293  1.00  0.00    -0.000 C 
BRANCH  11  12
ATOM     12  C   UNL     1      44.275 113.105  11.333  1.00  0.00    -0.000 C 
BRANCH  12  13
ATOM     13  C   UNL     1      44.730 113.116  12.808  1.00  0.00    -0.000 C 
BRANCH  13  14
ATOM     14  C   UNL     1      43.914 114.035  13.738  1.00  0.00    -0.000 C 
BRANCH  14  15
ATOM     15  C   UNL     1      43.609 115.423  13.130  1.00  0.00    -0.000 C 
BRANCH  15  16
ATOM     16  C   UNL     1      44.715 116.459  13.388  1.00  0.00    -0.003 C 
ATOM     17  C   UNL     1      45.521 116.789  12.133  1.00  0.00     0.004 C 
ENDBRANCH  15  16
ENDBRANCH  14  15
ENDBRANCH  13  14
ENDBRANCH  12  13
ENDBRANCH  11  12
ENDBRANCH  10  11
ENDBRANCH   1  10
TORSDOF 13
ENDMDL
MODEL 3
REMARK VINA RESULT:    -4.480      3.681      8.621
REMARK INTER + INTRA:          -9.349
REMARK INTER:                  -8.491
REMARK INTRA:                  -0.858
REMARK UNBOUND:                -1.464
REMARK SMILES CCCCCCCCCCCCCCC(=O)[O-]
REMARK SMILES IDX 9 1 10 2 11 3 12 4 13 5 14 6 15 7 16 8 17 9 8 10 7 11 6 12
REMARK SMILES IDX 5 13 4 14 3 15 2 16 1 17
REMARK H PARENT
REMARK Flexibility Score: inf
ROOT
ATOM      1  C   UNL     1      41.905 117.009  11.617  1.00  0.00     0.000 C 
ENDROOT
BRANCH   1   2
ATOM      2  C   UNL     1      40.787 116.733  12.634  1.00  0.00     0.000 C 
BRANCH   2   3
ATOM      3  C   UNL     1      39.510 117.537  12.342  1.00  0.00     0.000 C 
BRANCH   3   4
ATOM      4  C   UNL     1      39.268 118.655  13.368  1.00  0.00     0.000 C 
BRANCH   4   5
ATOM      5  C   UNL     1      38.387 118.159  14.522  1.00  0.00     0.006 C 
BRANCH   5   6
ATOM      6  C   UNL     1      37.208 117.334  13.998  1.00  0.00     0.053 C 
BRANCH   6   7
ATOM      7  C   UNL     1      36.103 118.232  13.539  1.00  0.00     0.041 C 
ATOM      8  O   UNL     1      35.639 118.122  12.374  1.00  0.00    -0.550 OA
ATOM      9  O   UNL     1      35.619 119.224  14.383  1.00  0.00    -0.550 OA
ENDBRANCH   6   7
ENDBRANCH   5   6
ENDBRANCH   4   5
ENDBRANCH   3   4
ENDBRANCH   2   3
ENDBRANCH   1   2
BRANCH   1  10
ATOM     10  C   UNL     1      41.352 117.711  10.371  1.00  0.00     0.000 C 
BRANCH  10  11
ATOM     11  C   UNL     1      42.266 117.479   9.158  1.00  0.00    -0.000 C 
BRANCH  11  12
ATOM     12  C   UNL     1      43.572 116.750   9.519  1.00  0.00    -0.000 C 
BRANCH  12  13
ATOM     13  C   UNL     1      43.823 115.425   8.768  1.00  0.00    -0.000 C 
BRANCH  13  14
ATOM     14  C   UNL     1      44.233 114.235   9.658  1.00  0.00    -0.000 C 
BRANCH  14  15
ATOM     15  C   UNL     1      45.403 113.403   9.085  1.00  0.00    -0.000 C 
BRANCH  15  16
ATOM     16  C   UNL     1      45.546 113.519   7.559  1.00  0.00    -0.003 C 
ATOM     17  C   UNL     1      45.300 112.195   6.838  1.00  0.00     0.004 C 
ENDBRANCH  15  16
ENDBRANCH  14  15
ENDBRANCH  13  14
ENDBRANCH  12  13
ENDBRANCH  11  12
ENDBRANCH  10  11
ENDBRANCH   1  10
TORSDOF 13
ENDMDL
MODEL 4
REMARK VINA RESULT:    -4.465      1.166      1.811
REMARK INTER + INTRA:          -9.322
REMARK INTER:                  -8.001
REMARK INTRA:                  -1.321
REMARK UNBOUND:                -1.464
REMARK SMILES CCCCCCCCCCCCCCC(=O)[O-]
REMARK SMILES IDX 9 1 10 2 11 3 12 4 13 5 14 6 15 7 16 8 17 9 8 10 7 11 6 12
REMARK SMILES IDX 5 13 4 14 3 15 2 16 1 17
REMARK H PARENT
REMARK Flexibility Score: inf
ROOT
ATOM      1  C   UNL     1      39.886 118.518  14.157  1.00  0.00     0.000 C 
ENDROOT
BRANCH   1   2
ATOM      2  C   UNL     1      39.827 118.773  12.644  1.00  0.00     0.000 C 
BRANCH   2   3
ATOM      3  C   UNL     1      40.224 117.539  11.819  1.00  0.00     0.000 C 
BRANCH   3   4
ATOM      4  C   UNL     1      41.081 117.896  10.595  1.00  0.00     0.000 C 
BRANCH   4   5
ATOM      5  C   UNL     1      42.408 117.127  10.611  1.00  0.00     0.006 C 
BRANCH   5   6
ATOM      6  C   UNL     1      42.967 116.965   9.195  1.00  0.00     0.053 C 
BRANCH   6   7
ATOM      7  C   UNL     1      44.328 116.343   9.237  1.00  0.00     0.041 C 
ATOM      8  O   UNL     1      44.945 116.241  10.329  1.00  0.00    -0.550 OA
ATOM      9  O   UNL     1      44.934 115.919   8.061  1.00  0.00    -0.550 OA
ENDBRANCH   6   7
ENDBRANCH   5   6
ENDBRANCH   4   5
ENDBRANCH   3   4
ENDBRANCH   2   3
ENDBRANCH   1   2
BRANCH   1  10
ATOM     10  C   UNL     1      40.118 117.031  14.454  1.00  0.00     0.000 C 
BRANCH  10  11
ATOM     11  C   UNL     1      39.025 116.478  15.381  1.00  0.00    -0.000 C 
BRANCH  11  12
ATOM     12  C   UNL     1      37.602 116.815  14.902  1.00  0.00    -0.000 C 
BRANCH  12  13
ATOM     13  C   UNL     1      36.690 117.489  15.950  1.00  0.00    -0.000 C 
BRANCH  13  14
ATOM     14  C   UNL     1      35.708 118.535  15.387  1.00  0.00    -0.000 C 
BRANCH  14  15
ATOM     15  C   UNL     1      36.403 119.750  14.729  1.00  0.00    -0.000 C 
BRANCH  15  16
ATOM     16  C   UNL     1      36.273 119.773  13.198  1.00  0.00    -0.003 C 
ATOM     17  C   UNL     1      35.276 118.742  12.672  1.00  0.00     0.004 C 
ENDBRANCH  15  16
ENDBRANCH  14  15
ENDBRANCH  13  14
ENDBRANCH  12  13
ENDBRANCH  11  12
ENDBRANCH  10  11
ENDBRANCH   1  10
TORSDOF 13
ENDMDL
MODEL 5
REMARK VINA RESULT:    -4.429      1.780      2.486
REMARK INTER + INTRA:          -9.259
REMARK INTER:                  -8.542
REMARK INTRA:                  -0.717
REMARK UNBOUND:                -1.464
REMARK SMILES CCCCCCCCCCCCCCC(=O)[O-]
REMARK SMILES IDX 9 1 10 2 11 3 12 4 13 5 14 6 15 7 16 8 17 9 8 10 7 11 6 12
REMARK SMILES IDX 5 13 4 14 3 15 2 16 1 17
REMARK H PARENT
REMARK Flexibility Score: inf
ROOT
ATOM      1  C   UNL     1      40.942 117.851  11.366  1.00  0.00     0.000 C 
ENDROOT
BRANCH   1   2
ATOM      2  C   UNL     1      42.180 117.133  10.807  1.00  0.00     0.000 C 
BRANCH   2   3
ATOM      3  C   UNL     1      42.453 117.482   9.336  1.00  0.00     0.000 C 
BRANCH   3   4
ATOM      4  C   UNL     1      42.904 116.265   8.513  1.00  0.00     0.000 C 
BRANCH   4   5
ATOM      5  C   UNL     1      44.410 116.022   8.677  1.00  0.00     0.006 C 
BRANCH   5   6
ATOM      6  C   UNL     1      44.694 114.564   9.053  1.00  0.00     0.053 C 
BRANCH   6   7
ATOM      7  C   UNL     1      44.593 114.377  10.534  1.00  0.00     0.041 C 
ATOM      8  O   UNL     1      43.909 113.431  11.008  1.00  0.00    -0.550 OA
ATOM      9  O   UNL     1      45.215 115.275  11.391  1.00  0.00    -0.550 OA
ENDBRANCH   6   7
ENDBRANCH   5   6
ENDBRANCH   4   5
ENDBRANCH   3   4
ENDBRANCH   2   3
ENDBRANCH   1   2
BRANCH   1  10
ATOM     10  C   UNL     1      40.357 117.086  12.560  1.00  0.00     0.000 C 
BRANCH  10  11
ATOM     11  C   UNL     1      39.200 117.868  13.200  1.00  0.00    -0.000 C 
BRANCH  11  12
ATOM     12  C   UNL     1      37.825 117.490  12.622  1.00  0.00    -0.000 C 
BRANCH  12  13
ATOM     13  C   UNL     1      36.680 117.372  13.651  1.00  0.00    -0.000 C 
BRANCH  13  14
ATOM     14  C   UNL     1      36.485 118.603  14.558  1.00  0.00    -0.000 C 
BRANCH  14  15
ATOM     15  C   UNL     1      36.282 119.923  13.780  1.00  0.00    -0.000 C 
BRANCH  15  16
ATOM     16  C   UNL     1      37.148 121.081  14.303  1.00  0.00    -0.003 C 
ATOM     17  C   UNL     1      36.673 121.611  15.655  1.00  0.00     0.004 C 
ENDBRANCH  15  16
ENDBRANCH  14  15
ENDBRANCH  13  14
ENDBRANCH  12  13
ENDBRANCH  11  12
ENDBRANCH  10  11
ENDBRANCH   1  10
TORSDOF 13
ENDMDL
MODEL 6
REMARK VINA RESULT:    -4.414      3.579      7.943
REMARK INTER + INTRA:          -9.232
REMARK INTER:                  -8.007
REMARK INTRA:                  -1.225
REMARK UNBOUND:                -1.464
REMARK SMILES CCCCCCCCCCCCCCC(=O)[O-]
REMARK SMILES IDX 9 1 10 2 11 3 12 4 13 5 14 6 15 7 16 8 17 9 8 10 7 11 6 12
REMARK SMILES IDX 5 13 4 14 3 15 2 16 1 17
REMARK H PARENT
REMARK Flexibility Score: inf
ROOT
ATOM      1  C   UNL     1      41.944 116.861  11.638  1.00  0.00     0.000 C 
ENDROOT
BRANCH   1   2
ATOM      2  C   UNL     1      40.810 116.734  12.667  1.00  0.00     0.000 C 
BRANCH   2   3
ATOM      3  C   UNL     1      39.541 117.492  12.246  1.00  0.00     0.000 C 
BRANCH   3   4
ATOM      4  C   UNL     1      39.190 118.637  13.209  1.00  0.00     0.000 C 
BRANCH   4   5
ATOM      5  C   UNL     1      38.342 118.127  14.381  1.00  0.00     0.006 C 
BRANCH   5   6
ATOM      6  C   UNL     1      37.134 117.331  13.879  1.00  0.00     0.053 C 
BRANCH   6   7
ATOM      7  C   UNL     1      35.944 118.225  13.726  1.00  0.00     0.041 C 
ATOM      8  O   UNL     1      35.380 118.709  14.742  1.00  0.00    -0.550 OA
ATOM      9  O   UNL     1      35.429 118.486  12.463  1.00  0.00    -0.550 OA
ENDBRANCH   6   7
ENDBRANCH   5   6
ENDBRANCH   4   5
ENDBRANCH   3   4
ENDBRANCH   2   3
ENDBRANCH   1   2
BRANCH   1  10
ATOM     10  C   UNL     1      41.486 117.664  10.414  1.00  0.00     0.000 C 
BRANCH  10  11
ATOM     11  C   UNL     1      42.464 117.487   9.243  1.00  0.00    -0.000 C 
BRANCH  11  12
ATOM     12  C   UNL     1      43.756 116.752   9.644  1.00  0.00    -0.000 C 
BRANCH  12  13
ATOM     13  C   UNL     1      44.209 115.632   8.682  1.00  0.00    -0.000 C 
BRANCH  13  14
ATOM     14  C   UNL     1      44.207 114.213   9.284  1.00  0.00    -0.000 C 
BRANCH  14  15
ATOM     15  C   UNL     1      44.701 114.156  10.747  1.00  0.00    -0.000 C 
BRANCH  15  16
ATOM     16  C   UNL     1      43.765 113.369  11.679  1.00  0.00    -0.003 C 
ATOM     17  C   UNL     1      43.695 113.960  13.085  1.00  0.00     0.004 C 
ENDBRANCH  15  16
ENDBRANCH  14  15
ENDBRANCH  13  14
ENDBRANCH  12  13
ENDBRANCH  11  12
ENDBRANCH  10  11
ENDBRANCH   1  10
TORSDOF 13
ENDMDL
MODEL 7
REMARK VINA RESULT:    -4.396      3.481      7.922
REMARK INTER + INTRA:          -9.201
REMARK INTER:                  -7.892
REMARK INTRA:                  -1.309
REMARK UNBOUND:                -1.464
REMARK SMILES CCCCCCCCCCCCCCC(=O)[O-]
REMARK SMILES IDX 9 1 10 2 11 3 12 4 13 5 14 6 15 7 16 8 17 9 8 10 7 11 6 12
REMARK SMILES IDX 5 13 4 14 3 15 2 16 1 17
REMARK H PARENT
REMARK Flexibility Score: inf
ROOT
ATOM      1  C   UNL     1      42.466 117.369   9.539  1.00  0.00     0.000 C 
ENDROOT
BRANCH   1   2
ATOM      2  C   UNL     1      42.922 116.915  10.934  1.00  0.00     0.000 C 
BRANCH   2   3
ATOM      3  C   UNL     1      41.761 116.833  11.938  1.00  0.00     0.000 C 
BRANCH   3   4
ATOM      4  C   UNL     1      40.514 117.596  11.465  1.00  0.00     0.000 C 
BRANCH   4   5
ATOM      5  C   UNL     1      39.419 117.575  12.539  1.00  0.00     0.006 C 
BRANCH   5   6
ATOM      6  C   UNL     1      39.349 118.914  13.279  1.00  0.00     0.053 C 
BRANCH   6   7
ATOM      7  C   UNL     1      37.924 119.317  13.497  1.00  0.00     0.041 C 
ATOM      8  O   UNL     1      37.008 118.455  13.459  1.00  0.00    -0.550 OA
ATOM      9  O   UNL     1      37.604 120.654  13.694  1.00  0.00    -0.550 OA
ENDBRANCH   6   7
ENDBRANCH   5   6
ENDBRANCH   4   5
ENDBRANCH   3   4
ENDBRANCH   2   3
ENDBRANCH   1   2
BRANCH   1  10
ATOM     10  C   UNL     1      43.030 116.447   8.451  1.00  0.00     0.000 C 
BRANCH  10  11
ATOM     11  C   UNL     1      44.456 115.995   8.797  1.00  0.00    -0.000 C 
BRANCH  11  12
ATOM     12  C   UNL     1      44.628 114.466   8.766  1.00  0.00    -0.000 C 
BRANCH  12  13
ATOM     13  C   UNL     1      45.039 113.816  10.104  1.00  0.00    -0.000 C 
BRANCH  13  14
ATOM     14  C   UNL     1      43.868 113.407  11.021  1.00  0.00    -0.000 C 
BRANCH  14  15
ATOM     15  C   UNL     1      44.085 113.772  12.507  1.00  0.00    -0.000 C 
BRANCH  15  16
ATOM     16  C   UNL     1      45.367 114.583  12.757  1.00  0.00    -0.003 C 
ATOM     17  C   UNL     1      46.384 113.832  13.615  1.00  0.00     0.004 C 
ENDBRANCH  15  16
ENDBRANCH  14  15
ENDBRANCH  13  14
ENDBRANCH  12  13
ENDBRANCH  11  12
ENDBRANCH  10  11
ENDBRANCH   1  10
TORSDOF 13
ENDMDL
MODEL 8
REMARK VINA RESULT:    -4.386      1.034      2.432
REMARK INTER + INTRA:          -9.184
REMARK INTER:                  -8.138
REMARK INTRA:                  -1.046
REMARK UNBOUND:                -1.464
REMARK SMILES CCCCCCCCCCCCCCC(=O)[O-]
REMARK SMILES IDX 9 1 10 2 11 3 12 4 13 5 14 6 15 7 16 8 17 9 8 10 7 11 6 12
REMARK SMILES IDX 5 13 4 14 3 15 2 16 1 17
REMARK H PARENT
REMARK Flexibility Score: inf
ROOT
ATOM      1  C   UNL     1      39.981 119.223  12.609  1.00  0.00     0.000 C 
ENDROOT
BRANCH   1   2
ATOM      2  C   UNL     1      39.971 117.791  12.054  1.00  0.00     0.000 C 
BRANCH   2   3
ATOM      3  C   UNL     1      41.179 117.497  11.151  1.00  0.00     0.000 C 
BRANCH   3   4
ATOM      4  C   UNL     1      42.184 116.535  11.802  1.00  0.00     0.000 C 
BRANCH   4   5
ATOM      5  C   UNL     1      43.559 116.641  11.128  1.00  0.00     0.006 C 
BRANCH   5   6
ATOM      6  C   UNL     1      43.416 116.829   9.615  1.00  0.00     0.053 C 
BRANCH   6   7
ATOM      7  C   UNL     1      44.152 115.752   8.882  1.00  0.00     0.041 C 
ATOM      8  O   UNL     1      44.059 114.553   9.256  1.00  0.00    -0.550 OA
ATOM      9  O   UNL     1      44.979 116.078   7.815  1.00  0.00    -0.550 OA
ENDBRANCH   6   7
ENDBRANCH   5   6
ENDBRANCH   4   5
ENDBRANCH   3   4
ENDBRANCH   2   3
ENDBRANCH   1   2
BRANCH   1  10
ATOM     10  C   UNL     1      39.002 119.364  13.782  1.00  0.00     0.000 C 
BRANCH  10  11
ATOM     11  C   UNL     1      37.678 119.991  13.321  1.00  0.00    -0.000 C 
BRANCH  11  12
ATOM     12  C   UNL     1      37.022 120.872  14.399  1.00  0.00    -0.000 C 
BRANCH  12  13
ATOM     13  C   UNL     1      36.352 120.111  15.563  1.00  0.00    -0.000 C 
BRANCH  13  14
ATOM     14  C   UNL     1      35.639 118.803  15.165  1.00  0.00    -0.000 C 
BRANCH  14  15
ATOM     15  C   UNL     1      36.196 117.549  15.876  1.00  0.00    -0.000 C 
BRANCH  15  16
ATOM     16  C   UNL     1      36.929 116.584  14.930  1.00  0.00    -0.003 C 
ATOM     17  C   UNL     1      38.347 116.261  15.395  1.00  0.00     0.004 C 
ENDBRANCH  15  16
ENDBRANCH  14  15
ENDBRANCH  13  14
ENDBRANCH  12  13
ENDBRANCH  11  12
ENDBRANCH  10  11
ENDBRANCH   1  10
TORSDOF 13
ENDMDL
MODEL 9
REMARK VINA RESULT:    -4.339      3.989      8.277
REMARK INTER + INTRA:          -9.101
REMARK INTER:                  -8.201
REMARK INTRA:                  -0.900
REMARK UNBOUND:                -1.464
REMARK SMILES CCCCCCCCCCCCCCC(=O)[O-]
REMARK SMILES IDX 9 1 10 2 11 3 12 4 13 5 14 6 15 7 16 8 17 9 8 10 7 11 6 12
REMARK SMILES IDX 5 13 4 14 3 15 2 16 1 17
REMARK H PARENT
REMARK Flexibility Score: inf
ROOT
ATOM      1  C   UNL     1      40.041 118.743  12.251  1.00  0.00     0.000 C 
ENDROOT
BRANCH   1   2
ATOM      2  C   UNL     1      39.071 118.962  13.422  1.00  0.00     0.000 C 
BRANCH   2   3
ATOM      3  C   UNL     1      38.079 117.801  13.594  1.00  0.00     0.000 C 
BRANCH   3   4
ATOM      4  C   UNL     1      36.634 118.204  13.263  1.00  0.00     0.000 C 
BRANCH   4   5
ATOM      5  C   UNL     1      36.362 119.657  13.675  1.00  0.00     0.006 C 
BRANCH   5   6
ATOM      6  C   UNL     1      36.225 119.780  15.196  1.00  0.00     0.053 C 
BRANCH   6   7
ATOM      7  C   UNL     1      36.584 121.163  15.643  1.00  0.00     0.041 C 
ATOM      8  O   UNL     1      37.212 121.935  14.872  1.00  0.00    -0.550 OA
ATOM      9  O   UNL     1      36.265 121.580  16.928  1.00  0.00    -0.550 OA
ENDBRANCH   6   7
ENDBRANCH   5   6
ENDBRANCH   4   5
ENDBRANCH   3   4
ENDBRANCH   2   3
ENDBRANCH   1   2
BRANCH   1  10
ATOM     10  C   UNL     1      40.388 117.257  12.096  1.00  0.00     0.000 C 
BRANCH  10  11
ATOM     11  C   UNL     1      41.696 117.076  11.312  1.00  0.00    -0.000 C 
BRANCH  11  12
ATOM     12  C   UNL     1      41.689 117.803   9.955  1.00  0.00    -0.000 C 
BRANCH  12  13
ATOM     13  C   UNL     1      42.552 117.155   8.850  1.00  0.00    -0.000 C 
BRANCH  13  14
ATOM     14  C   UNL     1      43.243 115.835   9.249  1.00  0.00    -0.000 C 
BRANCH  14  15
ATOM     15  C   UNL     1      44.784 115.931   9.299  1.00  0.00    -0.000 C 
BRANCH  15  16
ATOM     16  C   UNL     1      45.369 115.649  10.693  1.00  0.00    -0.003 C 
ATOM     17  C   UNL     1      45.297 116.860  11.621  1.00  0.00     0.004 C 
ENDBRANCH  15  16
ENDBRANCH  14  15
ENDBRANCH  13  14
ENDBRANCH  12  13
ENDBRANCH  11  12
ENDBRANCH  10  11
ENDBRANCH   1  10
TORSDOF 13
ENDMDL
