MODEL 1
REMARK VINA RESULT:    -4.229      0.000      0.000
REMARK INTER + INTRA:          -6.111
REMARK INTER:                  -5.959
REMARK INTRA:                  -0.152
REMARK UNBOUND:                -0.152
REMARK SMILES CC1=CCC(=C(C)C)C(=O)CC(C)=CCC1
REMARK SMILES IDX 12 1 14 2 13 3 15 4 16 5 2 6 1 7 3 8 11 10 9 11 10 12 5 13
REMARK SMILES IDX 6 14 7 15 8 16 4 17
REMARK H PARENT
REMARK Flexibility Score: 60.00
ROOT
ATOM      1  C   UNL     1       7.299  -1.515  47.148  1.00  0.00    -0.070 C 
ATOM      2  C   UNL     1       8.580  -1.649  47.563  1.00  0.00    -0.027 C 
ATOM      3  C   UNL     1       6.777  -0.108  46.975  1.00  0.00     0.039 C 
ENDROOT
BRANCH   2   4
ATOM      4  C   UNL     1       9.324  -2.945  47.762  1.00  0.00     0.032 C 
BRANCH   4   5
ATOM      5  C   UNL     1       8.722  -3.894  48.826  1.00  0.00     0.034 C 
BRANCH   5   6
ATOM      6  C   UNL     1       8.322  -5.274  48.324  1.00  0.00    -0.077 C 
ATOM      7  C   UNL     1       9.393  -6.120  47.680  1.00  0.00     0.039 C 
ATOM      8  C   UNL     1       7.061  -5.788  48.358  1.00  0.00    -0.023 CG0
ATOM      9  G   UNL     1       5.812  -5.265  49.051  1.00  0.00     0.000 G0
ENDBRANCH   5   6
ENDBRANCH   4   5
ENDBRANCH   2   4
BRANCH   1  10
ATOM     10  C   UNL     1       6.366  -2.669  46.797  1.00  0.00     0.111 C 
BRANCH  10  11
ATOM     11  C   UNL     1       5.313  -3.024  47.820  1.00  0.00     0.163 C 
ATOM     12  O   UNL     1       4.130  -2.687  47.547  1.00  0.00    -0.294 OA
BRANCH  11  13
ATOM     13  C   UNL     1       5.606  -3.757  49.106  1.00  0.00    -0.002 C 
ATOM     14  C   UNL     1       5.651  -3.113  50.316  1.00  0.00    -0.069 C 
ATOM     15  C   UNL     1       5.823  -3.879  51.610  1.00  0.00     0.039 C 
ATOM     16  C   UNL     1       5.568  -1.607  50.431  1.00  0.00     0.039 C 
BRANCH  13  17
ATOM     17  C   UNL     1       5.793  -5.265  49.048  1.00  0.00     0.066 CG0
ATOM     18  G   UNL     1       7.051  -5.775  48.360  1.00  0.00     0.000 G0
ENDBRANCH  13  17
ENDBRANCH  11  13
ENDBRANCH  10  11
ENDBRANCH   1  10
TORSDOF 0
ENDMDL
MODEL 2
REMARK VINA RESULT:    -3.955      2.215      4.634
REMARK INTER + INTRA:          -5.726
REMARK INTER:                  -6.529
REMARK INTRA:                   0.804
REMARK UNBOUND:                -0.152
REMARK SMILES CC1=CCC(=C(C)C)C(=O)CC(C)=CCC1
REMARK SMILES IDX 12 1 14 2 13 3 15 4 16 5 2 6 1 7 3 8 11 10 9 11 10 12 5 13
REMARK SMILES IDX 6 14 7 15 8 16 4 17
REMARK H PARENT
REMARK Flexibility Score: 60.00
ROOT
ATOM      1  C   UNL     1       4.224  -4.879  49.110  1.00  0.00    -0.070 C 
ATOM      2  C   UNL     1       4.385  -4.575  47.801  1.00  0.00    -0.027 C 
ATOM      3  C   UNL     1       3.201  -5.937  49.448  1.00  0.00     0.039 C 
ENDROOT
BRANCH   2   4
ATOM      4  C   UNL     1       5.371  -3.590  47.226  1.00  0.00     0.032 C 
BRANCH   4   5
ATOM      5  C   UNL     1       5.284  -2.157  47.804  1.00  0.00     0.034 C 
BRANCH   5   6
ATOM      6  C   UNL     1       6.587  -1.370  47.811  1.00  0.00    -0.077 C 
ATOM      7  C   UNL     1       6.774  -0.321  46.742  1.00  0.00     0.039 C 
ATOM      8  C   UNL     1       7.625  -1.575  48.669  1.00  0.00    -0.023 CG0
ATOM      9  G   UNL     1       7.701  -2.436  49.921  1.00  0.00     0.000 G0
ENDBRANCH   5   6
ENDBRANCH   4   5
ENDBRANCH   2   4
BRANCH   1  10
ATOM     10  C   UNL     1       5.027  -4.271  50.255  1.00  0.00     0.111 C 
BRANCH  10  11
ATOM     11  C   UNL     1       6.471  -4.700  50.371  1.00  0.00     0.163 C 
ATOM     12  O   UNL     1       6.694  -5.744  51.043  1.00  0.00    -0.294 OA
BRANCH  11  13
ATOM     13  C   UNL     1       7.620  -3.964  49.726  1.00  0.00    -0.002 C 
ATOM     14  C   UNL     1       8.536  -4.601  48.929  1.00  0.00    -0.069 C 
ATOM     15  C   UNL     1       9.609  -3.829  48.191  1.00  0.00     0.039 C 
ATOM     16  C   UNL     1       8.556  -6.104  48.768  1.00  0.00     0.039 C 
BRANCH  13  17
ATOM     17  C   UNL     1       7.711  -2.458  49.926  1.00  0.00     0.066 CG0
ATOM     18  G   UNL     1       7.616  -1.593  48.678  1.00  0.00     0.000 G0
ENDBRANCH  13  17
ENDBRANCH  11  13
ENDBRANCH  10  11
ENDBRANCH   1  10
TORSDOF 0
ENDMDL
MODEL 3
REMARK VINA RESULT:    -3.719      9.069     10.685
REMARK INTER + INTRA:          -5.393
REMARK INTER:                  -5.298
REMARK INTRA:                  -0.095
REMARK UNBOUND:                -0.152
REMARK SMILES CC1=CCC(=C(C)C)C(=O)CC(C)=CCC1
REMARK SMILES IDX 12 1 14 2 13 3 15 4 16 5 2 6 1 7 3 8 11 10 9 11 10 12 5 13
REMARK SMILES IDX 6 14 7 15 8 16 4 17
REMARK H PARENT
REMARK Flexibility Score: 60.00
ROOT
ATOM      1  C   UNL     1       7.979   5.805  52.922  1.00  0.00    -0.070 C 
ATOM      2  C   UNL     1       7.171   4.885  53.497  1.00  0.00    -0.027 C 
ATOM      3  C   UNL     1       7.647   7.259  53.164  1.00  0.00     0.039 C 
ENDROOT
BRANCH   2   4
ATOM      4  C   UNL     1       7.330   3.388  53.431  1.00  0.00     0.032 C 
BRANCH   4   5
ATOM      5  C   UNL     1       7.568   2.690  54.792  1.00  0.00     0.034 C 
BRANCH   5   6
ATOM      6  C   UNL     1       8.965   2.126  55.007  1.00  0.00    -0.077 C 
ATOM      7  C   UNL     1       9.135   0.629  54.920  1.00  0.00     0.039 C 
ATOM      8  C   UNL     1      10.067   2.859  55.330  1.00  0.00    -0.023 CG0
ATOM      9  G   UNL     1      10.263   4.367  55.355  1.00  0.00     0.000 G0
ENDBRANCH   5   6
ENDBRANCH   4   5
ENDBRANCH   2   4
BRANCH   1  10
ATOM     10  C   UNL     1       9.220   5.486  52.095  1.00  0.00     0.111 C 
BRANCH  10  11
ATOM     11  C   UNL     1      10.298   4.676  52.776  1.00  0.00     0.163 C 
ATOM     12  O   UNL     1      10.717   3.664  52.151  1.00  0.00    -0.294 OA
BRANCH  11  13
ATOM     13  C   UNL     1      10.886   5.023  54.121  1.00  0.00    -0.002 C 
ATOM     14  C   UNL     1      11.905   5.931  54.257  1.00  0.00    -0.069 C 
ATOM     15  C   UNL     1      12.400   6.360  55.621  1.00  0.00     0.039 C 
ATOM     16  C   UNL     1      12.617   6.527  53.064  1.00  0.00     0.039 C 
BRANCH  13  17
ATOM     17  C   UNL     1      10.275   4.384  55.359  1.00  0.00     0.066 CG0
ATOM     18  G   UNL     1      10.064   2.878  55.320  1.00  0.00     0.000 G0
ENDBRANCH  13  17
ENDBRANCH  11  13
ENDBRANCH  10  11
ENDBRANCH   1  10
TORSDOF 0
ENDMDL
MODEL 4
REMARK VINA RESULT:    -3.671      1.995      2.979
REMARK INTER + INTRA:          -5.325
REMARK INTER:                  -5.470
REMARK INTRA:                   0.145
REMARK UNBOUND:                -0.152
REMARK SMILES CC1=CCC(=C(C)C)C(=O)CC(C)=CCC1
REMARK SMILES IDX 12 1 14 2 13 3 15 4 16 5 2 6 1 7 3 8 11 10 9 11 10 12 5 13
REMARK SMILES IDX 6 14 7 15 8 16 4 17
REMARK H PARENT
REMARK Flexibility Score: 60.00
ROOT
ATOM      1  C   UNL     1       6.238  -0.870  47.088  1.00  0.00    -0.070 C 
ATOM      2  C   UNL     1       5.525  -1.441  46.090  1.00  0.00    -0.027 C 
ATOM      3  C   UNL     1       7.048   0.357  46.739  1.00  0.00     0.039 C 
ENDROOT
BRANCH   2   4
ATOM      4  C   UNL     1       4.616  -2.637  46.211  1.00  0.00     0.032 C 
BRANCH   4   5
ATOM      5  C   UNL     1       5.177  -3.954  45.622  1.00  0.00     0.034 C 
BRANCH   5   6
ATOM      6  C   UNL     1       4.941  -5.203  46.460  1.00  0.00    -0.077 C 
ATOM      7  C   UNL     1       3.799  -6.105  46.061  1.00  0.00     0.039 C 
ATOM      8  C   UNL     1       5.642  -5.544  47.577  1.00  0.00    -0.023 CG0
ATOM      9  G   UNL     1       6.914  -4.941  48.153  1.00  0.00     0.000 G0
ENDBRANCH   5   6
ENDBRANCH   4   5
ENDBRANCH   2   4
BRANCH   1  10
ATOM     10  C   UNL     1       6.246  -1.340  48.539  1.00  0.00     0.111 C 
BRANCH  10  11
ATOM     11  C   UNL     1       7.196  -2.462  48.882  1.00  0.00     0.163 C 
ATOM     12  O   UNL     1       8.424  -2.176  48.883  1.00  0.00    -0.294 OA
BRANCH  11  13
ATOM     13  C   UNL     1       6.752  -3.862  49.229  1.00  0.00    -0.002 C 
ATOM     14  C   UNL     1       6.157  -4.161  50.427  1.00  0.00    -0.069 C 
ATOM     15  C   UNL     1       5.606  -5.542  50.710  1.00  0.00     0.039 C 
ATOM     16  C   UNL     1       6.046  -3.150  51.546  1.00  0.00     0.039 C 
BRANCH  13  17
ATOM     17  C   UNL     1       6.921  -4.950  48.179  1.00  0.00     0.066 CG0
ATOM     18  G   UNL     1       5.649  -5.538  47.588  1.00  0.00     0.000 G0
ENDBRANCH  13  17
ENDBRANCH  11  13
ENDBRANCH  10  11
ENDBRANCH   1  10
TORSDOF 0
ENDMDL
MODEL 5
REMARK VINA RESULT:    -3.641      2.249      4.677
REMARK INTER + INTRA:          -5.283
REMARK INTER:                  -6.113
REMARK INTRA:                   0.829
REMARK UNBOUND:                -0.152
REMARK SMILES CC1=CCC(=C(C)C)C(=O)CC(C)=CCC1
REMARK SMILES IDX 12 1 14 2 13 3 15 4 16 5 2 6 1 7 3 8 11 10 9 11 10 12 5 13
REMARK SMILES IDX 6 14 7 15 8 16 4 17
REMARK H PARENT
REMARK Flexibility Score: 60.00
ROOT
ATOM      1  C   UNL     1       5.438  -4.754  49.648  1.00  0.00    -0.070 C 
ATOM      2  C   UNL     1       5.252  -5.332  48.439  1.00  0.00    -0.027 C 
ATOM      3  C   UNL     1       5.890  -5.652  50.776  1.00  0.00     0.039 C 
ENDROOT
BRANCH   2   4
ATOM      4  C   UNL     1       4.848  -4.633  47.166  1.00  0.00     0.032 C 
BRANCH   4   5
ATOM      5  C   UNL     1       4.610  -3.109  47.298  1.00  0.00     0.034 C 
BRANCH   5   6
ATOM      6  C   UNL     1       5.296  -2.243  46.251  1.00  0.00    -0.077 C 
ATOM      7  C   UNL     1       4.749  -2.283  44.845  1.00  0.00     0.039 C 
ATOM      8  C   UNL     1       6.401  -1.476  46.467  1.00  0.00    -0.023 CG0
ATOM      9  G   UNL     1       7.098  -1.113  47.769  1.00  0.00     0.000 G0
ENDBRANCH   5   6
ENDBRANCH   4   5
ENDBRANCH   2   4
BRANCH   1  10
ATOM     10  C   UNL     1       5.276  -3.267  49.943  1.00  0.00     0.111 C 
BRANCH  10  11
ATOM     11  C   UNL     1       6.537  -2.434  49.941  1.00  0.00     0.163 C 
ATOM     12  O   UNL     1       6.845  -1.882  51.032  1.00  0.00    -0.294 OA
BRANCH  11  13
ATOM     13  C   UNL     1       7.422  -2.254  48.733  1.00  0.00    -0.002 C 
ATOM     14  C   UNL     1       8.451  -3.115  48.450  1.00  0.00    -0.069 C 
ATOM     15  C   UNL     1       9.251  -2.993  47.171  1.00  0.00     0.039 C 
ATOM     16  C   UNL     1       8.872  -4.208  49.405  1.00  0.00     0.039 C 
BRANCH  13  17
ATOM     17  C   UNL     1       7.109  -1.113  47.777  1.00  0.00     0.066 CG0
ATOM     18  G   UNL     1       6.387  -1.475  46.488  1.00  0.00     0.000 G0
ENDBRANCH  13  17
ENDBRANCH  11  13
ENDBRANCH  10  11
ENDBRANCH   1  10
TORSDOF 0
ENDMDL
MODEL 6
REMARK VINA RESULT:    -3.598      9.269     10.609
REMARK INTER + INTRA:          -5.222
REMARK INTER:                  -5.129
REMARK INTRA:                  -0.093
REMARK UNBOUND:                -0.152
REMARK SMILES CC1=CCC(=C(C)C)C(=O)CC(C)=CCC1
REMARK SMILES IDX 12 1 14 2 13 3 15 4 16 5 2 6 1 7 3 8 11 10 9 11 10 12 5 13
REMARK SMILES IDX 6 14 7 15 8 16 4 17
REMARK H PARENT
REMARK Flexibility Score: 60.00
ROOT
ATOM      1  C   UNL     1       7.737   4.688  53.483  1.00  0.00    -0.070 C 
ATOM      2  C   UNL     1       7.658   3.348  53.651  1.00  0.00    -0.027 C 
ATOM      3  C   UNL     1       6.584   5.361  52.777  1.00  0.00     0.039 C 
ENDROOT
BRANCH   2   4
ATOM      4  C   UNL     1       8.662   2.474  54.360  1.00  0.00     0.032 C 
BRANCH   4   5
ATOM      5  C   UNL     1      10.087   2.485  53.757  1.00  0.00     0.034 C 
BRANCH   5   6
ATOM      6  C   UNL     1      11.182   3.022  54.667  1.00  0.00    -0.077 C 
ATOM      7  C   UNL     1      11.360   2.359  56.012  1.00  0.00     0.039 C 
ATOM      8  C   UNL     1      11.980   4.090  54.391  1.00  0.00    -0.023 CG0
ATOM      9  G   UNL     1      12.151   4.872  53.098  1.00  0.00     0.000 G0
ENDBRANCH   5   6
ENDBRANCH   4   5
ENDBRANCH   2   4
BRANCH   1  10
ATOM     10  C   UNL     1       8.872   5.569  53.992  1.00  0.00     0.111 C 
BRANCH  10  11
ATOM     11  C   UNL     1       9.850   6.080  52.960  1.00  0.00     0.163 C 
ATOM     12  O   UNL     1       9.762   7.302  52.662  1.00  0.00    -0.294 OA
BRANCH  11  13
ATOM     13  C   UNL     1      10.902   5.222  52.302  1.00  0.00    -0.002 C 
ATOM     14  C   UNL     1      10.786   4.794  51.005  1.00  0.00    -0.069 C 
ATOM     15  C   UNL     1      11.906   4.039  50.321  1.00  0.00     0.039 C 
ATOM     16  C   UNL     1       9.531   5.017  50.192  1.00  0.00     0.039 C 
BRANCH  13  17
ATOM     17  C   UNL     1      12.153   4.882  53.099  1.00  0.00     0.066 CG0
ATOM     18  G   UNL     1      11.953   4.110  54.395  1.00  0.00     0.000 G0
ENDBRANCH  13  17
ENDBRANCH  11  13
ENDBRANCH  10  11
ENDBRANCH   1  10
TORSDOF 0
ENDMDL
MODEL 7
REMARK VINA RESULT:    -3.544      9.271     10.880
REMARK INTER + INTRA:          -5.146
REMARK INTER:                  -4.723
REMARK INTRA:                  -0.423
REMARK UNBOUND:                -0.152
REMARK SMILES CC1=CCC(=C(C)C)C(=O)CC(C)=CCC1
REMARK SMILES IDX 12 1 14 2 13 3 15 4 16 5 2 6 1 7 3 8 11 10 9 11 10 12 5 13
REMARK SMILES IDX 6 14 7 15 8 16 4 17
REMARK H PARENT
REMARK Flexibility Score: 60.00
ROOT
ATOM      1  C   UNL     1      10.302   5.031  54.987  1.00  0.00    -0.070 C 
ATOM      2  C   UNL     1       9.589   5.690  54.044  1.00  0.00    -0.027 C 
ATOM      3  C   UNL     1      11.237   5.854  55.841  1.00  0.00     0.039 C 
ENDROOT
BRANCH   2   4
ATOM      4  C   UNL     1       8.569   5.089  53.111  1.00  0.00     0.032 C 
BRANCH   4   5
ATOM      5  C   UNL     1       9.097   4.725  51.703  1.00  0.00     0.034 C 
BRANCH   5   6
ATOM      6  C   UNL     1      10.482   5.257  51.362  1.00  0.00    -0.077 C 
ATOM      7  C   UNL     1      10.581   6.679  50.867  1.00  0.00     0.039 C 
ATOM      8  C   UNL     1      11.636   4.535  51.413  1.00  0.00    -0.023 CG0
ATOM      9  G   UNL     1      11.897   3.152  51.990  1.00  0.00     0.000 G0
ENDBRANCH   5   6
ENDBRANCH   4   5
ENDBRANCH   2   4
BRANCH   1  10
ATOM     10  C   UNL     1      10.194   3.539  55.283  1.00  0.00     0.111 C 
BRANCH  10  11
ATOM     11  C   UNL     1      10.933   2.609  54.349  1.00  0.00     0.163 C 
ATOM     12  O   UNL     1      10.512   1.421  54.293  1.00  0.00    -0.294 OA
BRANCH  11  13
ATOM     13  C   UNL     1      12.105   3.030  53.498  1.00  0.00    -0.002 C 
ATOM     14  C   UNL     1      13.348   3.254  54.031  1.00  0.00    -0.069 C 
ATOM     15  C   UNL     1      14.541   3.555  53.149  1.00  0.00     0.039 C 
ATOM     16  C   UNL     1      13.598   3.252  55.522  1.00  0.00     0.039 C 
BRANCH  13  17
ATOM     17  C   UNL     1      11.898   3.143  51.995  1.00  0.00     0.066 CG0
ATOM     18  G   UNL     1      11.654   4.537  51.439  1.00  0.00     0.000 G0
ENDBRANCH  13  17
ENDBRANCH  11  13
ENDBRANCH  10  11
ENDBRANCH   1  10
TORSDOF 0
ENDMDL
MODEL 8
REMARK VINA RESULT:    -3.513      1.834      3.441
REMARK INTER + INTRA:          -5.103
REMARK INTER:                  -5.743
REMARK INTRA:                   0.640
REMARK UNBOUND:                -0.152
REMARK SMILES CC1=CCC(=C(C)C)C(=O)CC(C)=CCC1
REMARK SMILES IDX 12 1 14 2 13 3 15 4 16 5 2 6 1 7 3 8 11 10 9 11 10 12 5 13
REMARK SMILES IDX 6 14 7 15 8 16 4 17
REMARK H PARENT
REMARK Flexibility Score: 60.00
ROOT
ATOM      1  C   UNL     1       6.455  -1.649  47.195  1.00  0.00    -0.070 C 
ATOM      2  C   UNL     1       6.030  -2.662  46.405  1.00  0.00    -0.027 C 
ATOM      3  C   UNL     1       7.149  -0.492  46.515  1.00  0.00     0.039 C 
ENDROOT
BRANCH   2   4
ATOM      4  C   UNL     1       5.279  -3.890  46.852  1.00  0.00     0.032 C 
BRANCH   4   5
ATOM      5  C   UNL     1       4.443  -3.719  48.143  1.00  0.00     0.034 C 
BRANCH   5   6
ATOM      6  C   UNL     1       4.312  -4.961  49.012  1.00  0.00    -0.077 C 
ATOM      7  C   UNL     1       3.254  -5.969  48.635  1.00  0.00     0.039 C 
ATOM      8  C   UNL     1       5.036  -5.212  50.138  1.00  0.00    -0.023 CG0
ATOM      9  G   UNL     1       6.249  -4.487  50.700  1.00  0.00     0.000 G0
ENDBRANCH   5   6
ENDBRANCH   4   5
ENDBRANCH   2   4
BRANCH   1  10
ATOM     10  C   UNL     1       6.243  -1.566  48.703  1.00  0.00     0.111 C 
BRANCH  10  11
ATOM     11  C   UNL     1       7.216  -2.335  49.567  1.00  0.00     0.163 C 
ATOM     12  O   UNL     1       8.055  -1.650  50.213  1.00  0.00    -0.294 OA
BRANCH  11  13
ATOM     13  C   UNL     1       7.216  -3.838  49.698  1.00  0.00    -0.002 C 
ATOM     14  C   UNL     1       8.080  -4.631  48.987  1.00  0.00    -0.069 C 
ATOM     15  C   UNL     1       8.152  -6.124  49.220  1.00  0.00     0.039 C 
ATOM     16  C   UNL     1       8.982  -4.074  47.909  1.00  0.00     0.039 C 
BRANCH  13  17
ATOM     17  C   UNL     1       6.264  -4.472  50.701  1.00  0.00     0.066 CG0
ATOM     18  G   UNL     1       5.063  -5.214  50.133  1.00  0.00     0.000 G0
ENDBRANCH  13  17
ENDBRANCH  11  13
ENDBRANCH  10  11
ENDBRANCH   1  10
TORSDOF 0
ENDMDL
MODEL 9
REMARK VINA RESULT:    -3.495      1.782      3.684
REMARK INTER + INTRA:          -5.077
REMARK INTER:                  -4.968
REMARK INTRA:                  -0.109
REMARK UNBOUND:                -0.152
REMARK SMILES CC1=CCC(=C(C)C)C(=O)CC(C)=CCC1
REMARK SMILES IDX 12 1 14 2 13 3 15 4 16 5 2 6 1 7 3 8 11 10 9 11 10 12 5 13
REMARK SMILES IDX 6 14 7 15 8 16 4 17
REMARK H PARENT
REMARK Flexibility Score: 60.00
ROOT
ATOM      1  C   UNL     1       6.278  -1.969  50.676  1.00  0.00    -0.070 C 
ATOM      2  C   UNL     1       5.549  -3.047  51.044  1.00  0.00    -0.027 C 
ATOM      3  C   UNL     1       7.192  -1.369  51.718  1.00  0.00     0.039 C 
ENDROOT
BRANCH   2   4
ATOM      4  C   UNL     1       4.608  -3.834  50.167  1.00  0.00     0.032 C 
BRANCH   4   5
ATOM      5  C   UNL     1       5.088  -5.258  49.797  1.00  0.00     0.034 C 
BRANCH   5   6
ATOM      6  C   UNL     1       6.593  -5.478  49.843  1.00  0.00    -0.077 C 
ATOM      7  C   UNL     1       7.167  -6.124  51.081  1.00  0.00     0.039 C 
ATOM      8  C   UNL     1       7.474  -5.088  48.880  1.00  0.00    -0.023 CG0
ATOM      9  G   UNL     1       7.216  -4.552  47.480  1.00  0.00     0.000 G0
ENDBRANCH   5   6
ENDBRANCH   4   5
ENDBRANCH   2   4
BRANCH   1  10
ATOM     10  C   UNL     1       6.282  -1.350  49.282  1.00  0.00     0.111 C 
BRANCH  10  11
ATOM     11  C   UNL     1       7.094  -2.063  48.226  1.00  0.00     0.163 C 
ATOM     12  O   UNL     1       8.291  -1.689  48.092  1.00  0.00    -0.294 OA
BRANCH  11  13
ATOM     13  C   UNL     1       6.556  -3.178  47.365  1.00  0.00    -0.002 C 
ATOM     14  C   UNL     1       5.541  -2.978  46.465  1.00  0.00    -0.069 C 
ATOM     15  C   UNL     1       5.096  -4.075  45.522  1.00  0.00     0.039 C 
ATOM     16  C   UNL     1       4.784  -1.672  46.382  1.00  0.00     0.039 C 
BRANCH  13  17
ATOM     17  C   UNL     1       7.214  -4.546  47.467  1.00  0.00     0.066 CG0
ATOM     18  G   UNL     1       7.463  -5.085  48.867  1.00  0.00     0.000 G0
ENDBRANCH  13  17
ENDBRANCH  11  13
ENDBRANCH  10  11
ENDBRANCH   1  10
TORSDOF 0
ENDMDL
