MODEL 1
REMARK VINA RESULT:    -3.362      0.000      0.000
REMARK INTER + INTRA:          -4.255
REMARK INTER:                  -4.148
REMARK INTRA:                  -0.107
REMARK UNBOUND:                -0.107
REMARK SMILES CCCCCC(=O)[O-]
REMARK SMILES IDX 4 1 5 2 6 3 7 4 8 5 3 6 2 7 1 8
REMARK H PARENT
REMARK Flexibility Score: inf
ROOT
ATOM      1  C   UNL     1      98.969   4.037 -26.544  1.00  0.00     0.006 C 
ENDROOT
BRANCH   1   2
ATOM      2  C   UNL     1      98.358   3.585 -25.211  1.00  0.00     0.053 C 
BRANCH   2   3
ATOM      3  C   UNL     1      98.648   2.144 -24.925  1.00  0.00     0.041 C 
ATOM      4  O   UNL     1      98.172   1.243 -25.665  1.00  0.00    -0.550 OA
ATOM      5  O   UNL     1      99.472   1.796 -23.862  1.00  0.00    -0.550 OA
ENDBRANCH   2   3
ENDBRANCH   1   2
BRANCH   1   6
ATOM      6  C   UNL     1      97.918   4.625 -27.496  1.00  0.00     0.000 C 
BRANCH   6   7
ATOM      7  C   UNL     1      98.583   5.445 -28.608  1.00  0.00    -0.003 C 
ATOM      8  C   UNL     1     100.087   5.189 -28.659  1.00  0.00     0.004 C 
ENDBRANCH   6   7
ENDBRANCH   1   6
TORSDOF 4
ENDMDL
MODEL 2
REMARK VINA RESULT:    -3.323      2.920      4.382
REMARK INTER + INTRA:          -4.207
REMARK INTER:                  -4.104
REMARK INTRA:                  -0.103
REMARK UNBOUND:                -0.107
REMARK SMILES CCCCCC(=O)[O-]
REMARK SMILES IDX 4 1 5 2 6 3 7 4 8 5 3 6 2 7 1 8
REMARK H PARENT
REMARK Flexibility Score: inf
ROOT
ATOM      1  C   UNL     1      99.072   4.841 -27.197  1.00  0.00     0.006 C 
ENDROOT
BRANCH   1   2
ATOM      2  C   UNL     1      98.593   5.246 -28.596  1.00  0.00     0.053 C 
BRANCH   2   3
ATOM      3  C   UNL     1      98.490   4.066 -29.513  1.00  0.00     0.041 C 
ATOM      4  O   UNL     1      99.530   3.459 -29.884  1.00  0.00    -0.550 OA
ATOM      5  O   UNL     1      97.245   3.614 -29.932  1.00  0.00    -0.550 OA
ENDBRANCH   2   3
ENDBRANCH   1   2
BRANCH   1   6
ATOM      6  C   UNL     1      98.124   3.838 -26.524  1.00  0.00     0.000 C 
BRANCH   6   7
ATOM      7  C   UNL     1      98.464   3.672 -25.038  1.00  0.00    -0.003 C 
ATOM      8  C   UNL     1      98.759   2.214 -24.699  1.00  0.00     0.004 C 
ENDBRANCH   6   7
ENDBRANCH   1   6
TORSDOF 4
ENDMDL
MODEL 3
REMARK VINA RESULT:    -3.260      2.803      4.068
REMARK INTER + INTRA:          -4.130
REMARK INTER:                  -3.908
REMARK INTRA:                  -0.222
REMARK UNBOUND:                -0.107
REMARK SMILES CCCCCC(=O)[O-]
REMARK SMILES IDX 4 1 5 2 6 3 7 4 8 5 3 6 2 7 1 8
REMARK H PARENT
REMARK Flexibility Score: inf
ROOT
ATOM      1  C   UNL     1      98.421   4.059 -29.548  1.00  0.00     0.006 C 
ENDROOT
BRANCH   1   2
ATOM      2  C   UNL     1      99.787   3.463 -29.908  1.00  0.00     0.053 C 
BRANCH   2   3
ATOM      3  C   UNL     1      99.795   1.970 -29.777  1.00  0.00     0.041 C 
ATOM      4  O   UNL     1      99.648   1.433 -28.648  1.00  0.00    -0.550 OA
ATOM      5  O   UNL     1      99.931   1.172 -30.906  1.00  0.00    -0.550 OA
ENDBRANCH   2   3
ENDBRANCH   1   2
BRANCH   1   6
ATOM      6  C   UNL     1      98.545   5.294 -28.644  1.00  0.00     0.000 C 
BRANCH   6   7
ATOM      7  C   UNL     1      99.413   4.992 -27.417  1.00  0.00    -0.003 C 
ATOM      8  C   UNL     1      98.657   4.137 -26.403  1.00  0.00     0.004 C 
ENDBRANCH   6   7
ENDBRANCH   1   6
TORSDOF 4
ENDMDL
MODEL 4
REMARK VINA RESULT:    -3.228      2.209      2.855
REMARK INTER + INTRA:          -4.090
REMARK INTER:                  -3.984
REMARK INTRA:                  -0.106
REMARK UNBOUND:                -0.107
REMARK SMILES CCCCCC(=O)[O-]
REMARK SMILES IDX 4 1 5 2 6 3 7 4 8 5 3 6 2 7 1 8
REMARK H PARENT
REMARK Flexibility Score: inf
ROOT
ATOM      1  C   UNL     1      98.308   2.766 -26.884  1.00  0.00     0.006 C 
ENDROOT
BRANCH   1   2
ATOM      2  C   UNL     1      99.445   1.997 -27.567  1.00  0.00     0.053 C 
BRANCH   2   3
ATOM      3  C   UNL     1      99.051   0.588 -27.889  1.00  0.00     0.041 C 
ATOM      4  O   UNL     1      98.931  -0.263 -26.968  1.00  0.00    -0.550 OA
ATOM      5  O   UNL     1      98.781   0.222 -29.202  1.00  0.00    -0.550 OA
ENDBRANCH   2   3
ENDBRANCH   1   2
BRANCH   1   6
ATOM      6  C   UNL     1      98.721   4.192 -26.494  1.00  0.00     0.000 C 
BRANCH   6   7
ATOM      7  C   UNL     1      99.509   4.864 -27.625  1.00  0.00    -0.003 C 
ATOM      8  C   UNL     1      98.573   5.498 -28.650  1.00  0.00     0.004 C 
ENDBRANCH   6   7
ENDBRANCH   1   6
TORSDOF 4
ENDMDL
MODEL 5
REMARK VINA RESULT:    -3.220      1.693      2.108
REMARK INTER + INTRA:          -4.080
REMARK INTER:                  -3.845
REMARK INTRA:                  -0.236
REMARK UNBOUND:                -0.107
REMARK SMILES CCCCCC(=O)[O-]
REMARK SMILES IDX 4 1 5 2 6 3 7 4 8 5 3 6 2 7 1 8
REMARK H PARENT
REMARK Flexibility Score: inf
ROOT
ATOM      1  C   UNL     1      99.011   3.539 -27.008  1.00  0.00     0.006 C 
ENDROOT
BRANCH   1   2
ATOM      2  C   UNL     1      98.279   3.656 -25.666  1.00  0.00     0.053 C 
BRANCH   2   3
ATOM      3  C   UNL     1      96.869   3.156 -25.754  1.00  0.00     0.041 C 
ATOM      4  O   UNL     1      96.056   3.691 -26.554  1.00  0.00    -0.550 OA
ATOM      5  O   UNL     1      96.462   2.077 -24.980  1.00  0.00    -0.550 OA
ENDBRANCH   2   3
ENDBRANCH   1   2
BRANCH   1   6
ATOM      6  C   UNL     1      99.508   4.898 -27.520  1.00  0.00     0.000 C 
BRANCH   6   7
ATOM      7  C   UNL     1      98.635   5.404 -28.675  1.00  0.00    -0.003 C 
ATOM      8  C   UNL     1      98.047   4.242 -29.472  1.00  0.00     0.004 C 
ENDBRANCH   6   7
ENDBRANCH   1   6
TORSDOF 4
ENDMDL
MODEL 6
REMARK VINA RESULT:    -3.120      2.859      3.475
REMARK INTER + INTRA:          -3.957
REMARK INTER:                  -3.727
REMARK INTRA:                  -0.231
REMARK UNBOUND:                -0.107
REMARK SMILES CCCCCC(=O)[O-]
REMARK SMILES IDX 4 1 5 2 6 3 7 4 8 5 3 6 2 7 1 8
REMARK H PARENT
REMARK Flexibility Score: inf
ROOT
ATOM      1  C   UNL     1      97.914   2.862 -27.578  1.00  0.00     0.006 C 
ENDROOT
BRANCH   1   2
ATOM      2  C   UNL     1      98.642   1.518 -27.698  1.00  0.00     0.053 C 
BRANCH   2   3
ATOM      3  C   UNL     1      99.017   1.211 -29.115  1.00  0.00     0.041 C 
ATOM      4  O   UNL     1      99.653   2.057 -29.799  1.00  0.00    -0.550 OA
ATOM      5  O   UNL     1      98.696  -0.020 -29.672  1.00  0.00    -0.550 OA
ENDBRANCH   2   3
ENDBRANCH   1   2
BRANCH   1   6
ATOM      6  C   UNL     1      98.654   3.846 -26.662  1.00  0.00     0.000 C 
BRANCH   6   7
ATOM      7  C   UNL     1      99.420   4.891 -27.483  1.00  0.00    -0.003 C 
ATOM      8  C   UNL     1      98.598   5.364 -28.679  1.00  0.00     0.004 C 
ENDBRANCH   6   7
ENDBRANCH   1   6
TORSDOF 4
ENDMDL
MODEL 7
REMARK VINA RESULT:    -3.061      1.806      2.688
REMARK INTER + INTRA:          -3.885
REMARK INTER:                  -3.718
REMARK INTRA:                  -0.167
REMARK UNBOUND:                -0.107
REMARK SMILES CCCCCC(=O)[O-]
REMARK SMILES IDX 4 1 5 2 6 3 7 4 8 5 3 6 2 7 1 8
REMARK H PARENT
REMARK Flexibility Score: inf
ROOT
ATOM      1  C   UNL     1      98.562   1.972 -24.715  1.00  0.00     0.006 C 
ENDROOT
BRANCH   1   2
ATOM      2  C   UNL     1      99.662   1.260 -25.511  1.00  0.00     0.053 C 
BRANCH   2   3
ATOM      3  C   UNL     1      99.122   0.107 -26.300  1.00  0.00     0.041 C 
ATOM      4  O   UNL     1      98.935   0.220 -27.541  1.00  0.00    -0.550 OA
ATOM      5  O   UNL     1      98.856  -1.104 -25.673  1.00  0.00    -0.550 OA
ENDBRANCH   2   3
ENDBRANCH   1   2
BRANCH   1   6
ATOM      6  C   UNL     1      98.529   3.482 -24.991  1.00  0.00     0.000 C 
BRANCH   6   7
ATOM      7  C   UNL     1      98.057   3.769 -26.421  1.00  0.00    -0.003 C 
ATOM      8  C   UNL     1      99.075   4.618 -27.178  1.00  0.00     0.004 C 
ENDBRANCH   6   7
ENDBRANCH   1   6
TORSDOF 4
ENDMDL
MODEL 8
REMARK VINA RESULT:    -3.031     21.616     22.755
REMARK INTER + INTRA:          -3.847
REMARK INTER:                  -3.607
REMARK INTRA:                  -0.240
REMARK UNBOUND:                -0.107
REMARK SMILES CCCCCC(=O)[O-]
REMARK SMILES IDX 4 1 5 2 6 3 7 4 8 5 3 6 2 7 1 8
REMARK H PARENT
REMARK Flexibility Score: inf
ROOT
ATOM      1  C   UNL     1      81.534  -5.635 -13.216  1.00  0.00     0.006 C 
ENDROOT
BRANCH   1   2
ATOM      2  C   UNL     1      80.346  -5.061 -13.998  1.00  0.00     0.053 C 
BRANCH   2   3
ATOM      3  C   UNL     1      80.616  -5.021 -15.471  1.00  0.00     0.041 C 
ATOM      4  O   UNL     1      80.495  -6.065 -16.166  1.00  0.00    -0.550 OA
ATOM      5  O   UNL     1      80.968  -3.825 -16.084  1.00  0.00    -0.550 OA
ENDBRANCH   2   3
ENDBRANCH   1   2
BRANCH   1   6
ATOM      6  C   UNL     1      82.675  -4.620 -13.061  1.00  0.00     0.000 C 
BRANCH   6   7
ATOM      7  C   UNL     1      83.938  -5.098 -13.787  1.00  0.00    -0.003 C 
ATOM      8  C   UNL     1      83.867  -6.592 -14.092  1.00  0.00     0.004 C 
ENDBRANCH   6   7
ENDBRANCH   1   6
TORSDOF 4
ENDMDL
