MODEL 1
REMARK VINA RESULT:    -2.889      0.000      0.000
REMARK INTER + INTRA:          -3.494
REMARK INTER:                  -3.396
REMARK INTRA:                  -0.098
REMARK UNBOUND:                -0.098
REMARK SMILES O=c1c(O)c(-c2ccc(O)cc2)oc2cc(O)cc(O)c12
REMARK SMILES IDX 5 1 3 2 2 3 1 4 21 5 19 6 18 7 16 8 15 9 14 10 13 11 6 12
REMARK SMILES IDX 7 13 8 14 9 15 12 16 11 17 10 18 4 20 20 22 17 24
REMARK H PARENT 10 19 4 21 20 23 17 25
REMARK Flexibility Score: inf
ROOT
ATOM      1  C   UNL     1       3.028  11.878  11.505  1.00  0.00     0.180 A 
ATOM      2  C   UNL     1       1.673  12.197  11.307  1.00  0.00     0.208 A 
ATOM      3  C   UNL     1       1.312  13.539  11.107  1.00  0.00     0.238 A 
ATOM      4  O   UNL     1       0.105  13.812  10.877  1.00  0.00    -0.285 OA
ATOM      5  C   UNL     1       2.306  14.547  11.124  1.00  0.00     0.111 A 
ATOM      6  C   UNL     1       2.048  15.942  10.973  1.00  0.00     0.134 A 
ATOM      7  C   UNL     1       3.121  16.837  10.875  1.00  0.00     0.093 A 
ATOM      8  C   UNL     1       4.441  16.393  10.989  1.00  0.00     0.123 A 
ATOM      9  C   UNL     1       4.701  15.041  11.196  1.00  0.00     0.094 A 
ATOM     10  C   UNL     1       3.652  14.120  11.262  1.00  0.00     0.146 A 
ATOM     11  O   UNL     1       3.944  12.838  11.450  1.00  0.00    -0.452 OA
ENDROOT
BRANCH   1  12
ATOM     12  C   UNL     1       3.484  10.491  11.747  1.00  0.00     0.021 A 
ATOM     13  C   UNL     1       3.005   9.741  12.838  1.00  0.00     0.016 A 
ATOM     14  C   UNL     1       3.469   8.441  13.059  1.00  0.00     0.047 A 
ATOM     15  C   UNL     1       4.425   7.878  12.204  1.00  0.00     0.115 A 
ATOM     16  C   UNL     1       4.457   9.926  10.906  1.00  0.00     0.016 A 
ATOM     17  C   UNL     1       4.919   8.625  11.130  1.00  0.00     0.047 A 
BRANCH  15  18
ATOM     18  O   UNL     1       4.892   6.584  12.414  1.00  0.00    -0.508 OA
ATOM     19  H   UNL     1       4.310   5.874  12.845  1.00  0.00     0.293 HD
ENDBRANCH  15  18
ENDBRANCH   1  12
BRANCH   2  20
ATOM     20  O   UNL     1       0.711  11.184  11.272  1.00  0.00    -0.502 OA
ATOM     21  H   UNL     1      -0.031  11.115  11.958  1.00  0.00     0.293 HD
ENDBRANCH   2  20
BRANCH   6  22
ATOM     22  O   UNL     1       0.766  16.501  10.941  1.00  0.00    -0.507 OA
ATOM     23  H   UNL     1       0.012  16.175  10.356  1.00  0.00     0.293 HD
ENDBRANCH   6  22
BRANCH   8  24
ATOM     24  O   UNL     1       5.502  17.291  10.907  1.00  0.00    -0.508 OA
ATOM     25  H   UNL     1       5.835  17.795  11.721  1.00  0.00     0.293 HD
ENDBRANCH   8  24
TORSDOF 5
ENDMDL
MODEL 2
REMARK VINA RESULT:    -2.856      0.098      1.061
REMARK INTER + INTRA:          -3.455
REMARK INTER:                  -3.411
REMARK INTRA:                  -0.045
REMARK UNBOUND:                -0.098
REMARK SMILES O=c1c(O)c(-c2ccc(O)cc2)oc2cc(O)cc(O)c12
REMARK SMILES IDX 5 1 3 2 2 3 1 4 21 5 19 6 18 7 16 8 15 9 14 10 13 11 6 12
REMARK SMILES IDX 7 13 8 14 9 15 12 16 11 17 10 18 4 20 20 22 17 24
REMARK H PARENT 10 19 4 21 20 23 17 25
REMARK Flexibility Score: inf
ROOT
ATOM      1  C   UNL     1       3.090  11.963  11.510  1.00  0.00     0.180 A 
ATOM      2  C   UNL     1       1.734  12.275  11.310  1.00  0.00     0.208 A 
ATOM      3  C   UNL     1       1.367  13.615  11.108  1.00  0.00     0.238 A 
ATOM      4  O   UNL     1       0.159  13.882  10.875  1.00  0.00    -0.285 OA
ATOM      5  C   UNL     1       2.356  14.629  11.125  1.00  0.00     0.111 A 
ATOM      6  C   UNL     1       2.092  16.022  10.972  1.00  0.00     0.134 A 
ATOM      7  C   UNL     1       3.161  16.921  10.875  1.00  0.00     0.093 A 
ATOM      8  C   UNL     1       4.482  16.484  10.992  1.00  0.00     0.123 A 
ATOM      9  C   UNL     1       4.748  15.133  11.201  1.00  0.00     0.094 A 
ATOM     10  C   UNL     1       3.704  14.207  11.266  1.00  0.00     0.146 A 
ATOM     11  O   UNL     1       4.002  12.927  11.456  1.00  0.00    -0.452 OA
ENDROOT
BRANCH   1  12
ATOM     12  C   UNL     1       3.552  10.578  11.755  1.00  0.00     0.021 A 
ATOM     13  C   UNL     1       4.476   9.951  10.898  1.00  0.00     0.016 A 
ATOM     14  C   UNL     1       4.878   8.633  11.136  1.00  0.00     0.047 A 
ATOM     15  C   UNL     1       4.355   7.922  12.223  1.00  0.00     0.115 A 
ATOM     16  C   UNL     1       3.017   9.850  12.830  1.00  0.00     0.016 A 
ATOM     17  C   UNL     1       3.422   8.533  13.065  1.00  0.00     0.047 A 
BRANCH  15  18
ATOM     18  O   UNL     1       4.750   6.610  12.470  1.00  0.00    -0.508 OA
ATOM     19  H   UNL     1       4.901   6.271  13.413  1.00  0.00     0.293 HD
ENDBRANCH  15  18
ENDBRANCH   1  12
BRANCH   2  20
ATOM     20  O   UNL     1       0.776  11.258  11.274  1.00  0.00    -0.502 OA
ATOM     21  H   UNL     1       0.159  11.065  12.054  1.00  0.00     0.293 HD
ENDBRANCH   2  20
BRANCH   6  22
ATOM     22  O   UNL     1       0.807  16.574  10.938  1.00  0.00    -0.507 OA
ATOM     23  H   UNL     1       0.095  16.331  10.266  1.00  0.00     0.293 HD
ENDBRANCH   6  22
BRANCH   8  24
ATOM     24  O   UNL     1       5.540  17.387  10.910  1.00  0.00    -0.508 OA
ATOM     25  H   UNL     1       6.373  17.281  11.478  1.00  0.00     0.293 HD
ENDBRANCH   8  24
TORSDOF 5
ENDMDL
MODEL 3
REMARK VINA RESULT:    -2.279      2.109      7.230
REMARK INTER + INTRA:          -2.777
REMARK INTER:                  -2.669
REMARK INTRA:                  -0.107
REMARK UNBOUND:                -0.098
REMARK SMILES O=c1c(O)c(-c2ccc(O)cc2)oc2cc(O)cc(O)c12
REMARK SMILES IDX 5 1 3 2 2 3 1 4 21 5 19 6 18 7 16 8 15 9 14 10 13 11 6 12
REMARK SMILES IDX 7 13 8 14 9 15 12 16 11 17 10 18 4 20 20 22 17 24
REMARK H PARENT 10 19 4 21 20 23 17 25
REMARK Flexibility Score: inf
ROOT
ATOM      1  C   UNL     1       4.091  10.495  12.431  1.00  0.00     0.180 A 
ATOM      2  C   UNL     1       3.045   9.687  12.911  1.00  0.00     0.208 A 
ATOM      3  C   UNL     1       3.250   8.302  13.019  1.00  0.00     0.238 A 
ATOM      4  O   UNL     1       2.330   7.591  13.500  1.00  0.00    -0.285 OA
ATOM      5  C   UNL     1       4.491   7.740  12.630  1.00  0.00     0.111 A 
ATOM      6  C   UNL     1       4.793   6.346  12.659  1.00  0.00     0.134 A 
ATOM      7  C   UNL     1       6.096   5.916  12.375  1.00  0.00     0.093 A 
ATOM      8  C   UNL     1       7.088   6.825  12.001  1.00  0.00     0.123 A 
ATOM      9  C   UNL     1       6.787   8.181  11.913  1.00  0.00     0.094 A 
ATOM     10  C   UNL     1       5.506   8.644  12.224  1.00  0.00     0.146 A 
ATOM     11  O   UNL     1       5.264   9.947  12.137  1.00  0.00    -0.452 OA
ENDROOT
BRANCH   1  12
ATOM     12  C   UNL     1       3.943  11.959  12.266  1.00  0.00     0.021 A 
ATOM     13  C   UNL     1       4.046  12.568  11.002  1.00  0.00     0.016 A 
ATOM     14  C   UNL     1       3.927  13.956  10.875  1.00  0.00     0.047 A 
ATOM     15  C   UNL     1       3.715  14.752  12.008  1.00  0.00     0.115 A 
ATOM     16  C   UNL     1       3.751  12.767  13.399  1.00  0.00     0.016 A 
ATOM     17  C   UNL     1       3.631  14.154  13.269  1.00  0.00     0.047 A 
BRANCH  15  18
ATOM     18  O   UNL     1       3.593  16.134  11.893  1.00  0.00    -0.508 OA
ATOM     19  H   UNL     1       4.382  16.715  11.631  1.00  0.00     0.293 HD
ENDBRANCH  15  18
ENDBRANCH   1  12
BRANCH   2  20
ATOM     20  O   UNL     1       1.837  10.264  13.311  1.00  0.00    -0.502 OA
ATOM     21  H   UNL     1       1.355  10.959  12.752  1.00  0.00     0.293 HD
ENDBRANCH   2  20
BRANCH   6  22
ATOM     22  O   UNL     1       3.852   5.348  12.930  1.00  0.00    -0.507 OA
ATOM     23  H   UNL     1       2.936   5.512  13.317  1.00  0.00     0.293 HD
ENDBRANCH   6  22
BRANCH   8  24
ATOM     24  O   UNL     1       8.378   6.387  11.705  1.00  0.00    -0.508 OA
ATOM     25  H   UNL     1       8.940   5.895  12.389  1.00  0.00     0.293 HD
ENDBRANCH   8  24
TORSDOF 5
ENDMDL
MODEL 4
REMARK VINA RESULT:    -1.217      2.055      3.438
REMARK INTER + INTRA:          -1.528
REMARK INTER:                  -2.032
REMARK INTRA:                   0.504
REMARK UNBOUND:                -0.098
REMARK SMILES O=c1c(O)c(-c2ccc(O)cc2)oc2cc(O)cc(O)c12
REMARK SMILES IDX 5 1 3 2 2 3 1 4 21 5 19 6 18 7 16 8 15 9 14 10 13 11 6 12
REMARK SMILES IDX 7 13 8 14 9 15 12 16 11 17 10 18 4 20 20 22 17 24
REMARK H PARENT 10 19 4 21 20 23 17 25
REMARK Flexibility Score: inf
ROOT
ATOM      1  C   UNL     1       4.333   9.150  12.382  1.00  0.00     0.180 A 
ATOM      2  C   UNL     1       2.997   8.989  12.790  1.00  0.00     0.208 A 
ATOM      3  C   UNL     1       2.146  10.106  12.788  1.00  0.00     0.238 A 
ATOM      4  O   UNL     1       0.938   9.945  13.103  1.00  0.00    -0.285 OA
ATOM      5  C   UNL     1       2.644  11.372  12.395  1.00  0.00     0.111 A 
ATOM      6  C   UNL     1       1.882  12.578  12.394  1.00  0.00     0.134 A 
ATOM      7  C   UNL     1       2.439  13.747  11.861  1.00  0.00     0.093 A 
ATOM      8  C   UNL     1       3.754  13.767  11.389  1.00  0.00     0.123 A 
ATOM      9  C   UNL     1       4.526  12.610  11.441  1.00  0.00     0.094 A 
ATOM     10  C   UNL     1       3.985  11.419  11.934  1.00  0.00     0.146 A 
ATOM     11  O   UNL     1       4.753  10.335  11.956  1.00  0.00    -0.452 OA
ENDROOT
BRANCH   1  12
ATOM     12  C   UNL     1       5.297   8.026  12.380  1.00  0.00     0.021 A 
ATOM     13  C   UNL     1       4.909   6.727  12.756  1.00  0.00     0.016 A 
ATOM     14  C   UNL     1       5.843   5.686  12.770  1.00  0.00     0.047 A 
ATOM     15  C   UNL     1       7.177   5.933  12.422  1.00  0.00     0.115 A 
ATOM     16  C   UNL     1       6.641   8.268  12.053  1.00  0.00     0.016 A 
ATOM     17  C   UNL     1       7.573   7.226  12.067  1.00  0.00     0.047 A 
BRANCH  15  18
ATOM     18  O   UNL     1       8.116   4.904  12.431  1.00  0.00    -0.508 OA
ATOM     19  H   UNL     1       7.920   4.013  12.873  1.00  0.00     0.293 HD
ENDBRANCH  15  18
ENDBRANCH   1  12
BRANCH   2  20
ATOM     20  O   UNL     1       2.520   7.727  13.154  1.00  0.00    -0.502 OA
ATOM     21  H   UNL     1       3.053   6.879  12.999  1.00  0.00     0.293 HD
ENDBRANCH   2  20
BRANCH   6  22
ATOM     22  O   UNL     1       0.593  12.688  12.925  1.00  0.00    -0.507 OA
ATOM     23  H   UNL     1       0.214  13.523  13.344  1.00  0.00     0.293 HD
ENDBRANCH   6  22
BRANCH   8  24
ATOM     24  O   UNL     1       4.306  14.938  10.875  1.00  0.00    -0.508 OA
ATOM     25  H   UNL     1       4.223  15.177   9.894  1.00  0.00     0.293 HD
ENDBRANCH   8  24
TORSDOF 5
ENDMDL
MODEL 5
REMARK VINA RESULT:    -0.868      2.315      7.317
REMARK INTER + INTRA:          -1.118
REMARK INTER:                  -1.374
REMARK INTRA:                   0.256
REMARK UNBOUND:                -0.098
REMARK SMILES O=c1c(O)c(-c2ccc(O)cc2)oc2cc(O)cc(O)c12
REMARK SMILES IDX 5 1 3 2 2 3 1 4 21 5 19 6 18 7 16 8 15 9 14 10 13 11 6 12
REMARK SMILES IDX 7 13 8 14 9 15 12 16 11 17 10 18 4 20 20 22 17 24
REMARK H PARENT 10 19 4 21 20 23 17 25
REMARK Flexibility Score: inf
ROOT
ATOM      1  C   UNL     1       4.135   9.793  12.291  1.00  0.00     0.180 A 
ATOM      2  C   UNL     1       3.364   8.663  12.613  1.00  0.00     0.208 A 
ATOM      3  C   UNL     1       4.017   7.458  12.919  1.00  0.00     0.238 A 
ATOM      4  O   UNL     1       3.323   6.464  13.259  1.00  0.00    -0.285 OA
ATOM      5  C   UNL     1       5.432   7.393  12.882  1.00  0.00     0.111 A 
ATOM      6  C   UNL     1       6.195   6.215  13.134  1.00  0.00     0.134 A 
ATOM      7  C   UNL     1       7.591   6.297  13.198  1.00  0.00     0.093 A 
ATOM      8  C   UNL     1       8.253   7.504  12.955  1.00  0.00     0.123 A 
ATOM      9  C   UNL     1       7.519   8.647  12.650  1.00  0.00     0.094 A 
ATOM     10  C   UNL     1       6.122   8.603  12.614  1.00  0.00     0.146 A 
ATOM     11  O   UNL     1       5.460   9.718  12.329  1.00  0.00    -0.452 OA
ENDROOT
BRANCH   1  12
ATOM     12  C   UNL     1       3.519  11.091  11.933  1.00  0.00     0.021 A 
ATOM     13  C   UNL     1       2.276  11.157  11.278  1.00  0.00     0.016 A 
ATOM     14  C   UNL     1       1.726  12.394  10.929  1.00  0.00     0.047 A 
ATOM     15  C   UNL     1       2.415  13.579  11.218  1.00  0.00     0.115 A 
ATOM     16  C   UNL     1       4.213  12.283  12.201  1.00  0.00     0.016 A 
ATOM     17  C   UNL     1       3.660  13.519  11.851  1.00  0.00     0.047 A 
BRANCH  15  18
ATOM     18  O   UNL     1       1.876  14.816  10.877  1.00  0.00    -0.508 OA
ATOM     19  H   UNL     1       1.622  15.037   9.920  1.00  0.00     0.293 HD
ENDBRANCH  15  18
ENDBRANCH   1  12
BRANCH   2  20
ATOM     20  O   UNL     1       1.970   8.754  12.665  1.00  0.00    -0.502 OA
ATOM     21  H   UNL     1       1.376   8.437  11.908  1.00  0.00     0.293 HD
ENDBRANCH   2  20
BRANCH   6  22
ATOM     22  O   UNL     1       5.638   4.943  13.298  1.00  0.00    -0.507 OA
ATOM     23  H   UNL     1       4.678   4.706  13.098  1.00  0.00     0.293 HD
ENDBRANCH   6  22
BRANCH   8  24
ATOM     24  O   UNL     1       9.644   7.574  13.005  1.00  0.00    -0.508 OA
ATOM     25  H   UNL     1      10.183   6.980  13.625  1.00  0.00     0.293 HD
ENDBRANCH   8  24
TORSDOF 5
ENDMDL
