MODEL 1
REMARK VINA RESULT:    -5.494      0.000      0.000
REMARK INTER + INTRA:         -11.708
REMARK INTER:                 -10.311
REMARK INTRA:                  -1.397
REMARK UNBOUND:                -1.397
REMARK SMILES O=C([O-])CCCCCCCCCCCCCCC(=O)[O-]
REMARK SMILES IDX 10 1 9 2 8 3 7 4 6 5 5 6 4 7 2 8 1 9 3 10 11 11 12 12 13 13
REMARK SMILES IDX 14 14 15 15 16 16 17 17 18 18 19 19 20 20
REMARK H PARENT
REMARK Flexibility Score: inf
ROOT
ATOM      1  C   UNL     1       6.788  -2.178 -36.089  1.00  0.00     0.000 C 
ENDROOT
BRANCH   1   2
ATOM      2  C   UNL     1       7.507  -0.821 -36.191  1.00  0.00     0.000 C 
BRANCH   2   3
ATOM      3  C   UNL     1       8.177  -0.586 -37.565  1.00  0.00     0.000 C 
BRANCH   3   4
ATOM      4  C   UNL     1       8.952   0.740 -37.648  1.00  0.00     0.000 C 
BRANCH   4   5
ATOM      5  C   UNL     1       8.864   1.561 -36.351  1.00  0.00     0.000 C 
BRANCH   5   6
ATOM      6  C   UNL     1      10.228   1.752 -35.664  1.00  0.00     0.006 C 
BRANCH   6   7
ATOM      7  C   UNL     1      10.215   1.452 -34.155  1.00  0.00     0.053 C 
BRANCH   7   8
ATOM      8  C   UNL     1      11.533   1.733 -33.501  1.00  0.00     0.041 C 
ATOM      9  O   UNL     1      11.578   2.341 -32.399  1.00  0.00    -0.550 OA
ATOM     10  O   UNL     1      12.713   1.293 -34.089  1.00  0.00    -0.550 OA
ENDBRANCH   7   8
ENDBRANCH   6   7
ENDBRANCH   5   6
ENDBRANCH   4   5
ENDBRANCH   3   4
ENDBRANCH   2   3
ENDBRANCH   1   2
BRANCH   1  11
ATOM     11  C   UNL     1       5.639  -2.153 -35.070  1.00  0.00     0.000 C 
BRANCH  11  12
ATOM     12  C   UNL     1       5.138  -0.722 -34.844  1.00  0.00     0.000 C 
BRANCH  12  13
ATOM     13  C   UNL     1       5.218  -0.338 -33.361  1.00  0.00     0.000 C 
BRANCH  13  14
ATOM     14  C   UNL     1       5.492   1.162 -33.194  1.00  0.00     0.000 C 
BRANCH  14  15
ATOM     15  C   UNL     1       6.871   1.403 -32.563  1.00  0.00     0.000 C 
BRANCH  15  16
ATOM     16  C   UNL     1       6.780   1.939 -31.126  1.00  0.00     0.006 C 
BRANCH  16  17
ATOM     17  C   UNL     1       7.717   1.202 -30.160  1.00  0.00     0.053 C 
BRANCH  17  18
ATOM     18  C   UNL     1       6.928   0.341 -29.225  1.00  0.00     0.041 C 
ATOM     19  O   UNL     1       7.108   0.427 -27.981  1.00  0.00    -0.550 OA
ATOM     20  O   UNL     1       5.959  -0.521 -29.722  1.00  0.00    -0.550 OA
ENDBRANCH  17  18
ENDBRANCH  16  17
ENDBRANCH  15  16
ENDBRANCH  14  15
ENDBRANCH  13  14
ENDBRANCH  12  13
ENDBRANCH  11  12
ENDBRANCH   1  11
TORSDOF 15
ENDMDL
MODEL 2
REMARK VINA RESULT:    -5.441      2.846      7.082
REMARK INTER + INTRA:         -11.609
REMARK INTER:                 -10.069
REMARK INTRA:                  -1.541
REMARK UNBOUND:                -1.397
REMARK SMILES O=C([O-])CCCCCCCCCCCCCCC(=O)[O-]
REMARK SMILES IDX 10 1 9 2 8 3 7 4 6 5 5 6 4 7 2 8 1 9 3 10 11 11 12 12 13 13
REMARK SMILES IDX 14 14 15 15 16 16 17 17 18 18 19 19 20 20
REMARK H PARENT
REMARK Flexibility Score: inf
ROOT
ATOM      1  C   UNL     1      12.877   2.296 -32.686  1.00  0.00     0.000 C 
ENDROOT
BRANCH   1   2
ATOM      2  C   UNL     1      11.674   3.054 -32.099  1.00  0.00     0.000 C 
BRANCH   2   3
ATOM      3  C   UNL     1      11.392   2.703 -30.620  1.00  0.00     0.000 C 
BRANCH   3   4
ATOM      4  C   UNL     1      10.437   1.510 -30.446  1.00  0.00     0.000 C 
BRANCH   4   5
ATOM      5  C   UNL     1       9.209   1.594 -31.367  1.00  0.00     0.000 C 
BRANCH   5   6
ATOM      6  C   UNL     1       7.912   1.936 -30.613  1.00  0.00     0.006 C 
BRANCH   6   7
ATOM      7  C   UNL     1       7.032   0.713 -30.298  1.00  0.00     0.053 C 
BRANCH   7   8
ATOM      8  C   UNL     1       7.345   0.109 -28.964  1.00  0.00     0.041 C 
ATOM      9  O   UNL     1       7.544   0.848 -27.963  1.00  0.00    -0.550 OA
ATOM     10  O   UNL     1       7.383  -1.272 -28.813  1.00  0.00    -0.550 OA
ENDBRANCH   7   8
ENDBRANCH   6   7
ENDBRANCH   5   6
ENDBRANCH   4   5
ENDBRANCH   3   4
ENDBRANCH   2   3
ENDBRANCH   1   2
BRANCH   1  11
ATOM     11  C   UNL     1      12.506   1.505 -33.950  1.00  0.00     0.000 C 
BRANCH  11  12
ATOM     12  C   UNL     1      12.270   2.447 -35.137  1.00  0.00     0.000 C 
BRANCH  12  13
ATOM     13  C   UNL     1      10.871   2.242 -35.733  1.00  0.00     0.000 C 
BRANCH  13  14
ATOM     14  C   UNL     1      10.014   1.344 -34.833  1.00  0.00     0.000 C 
BRANCH  14  15
ATOM     15  C   UNL     1       8.519   1.626 -35.038  1.00  0.00     0.000 C 
BRANCH  15  16
ATOM     16  C   UNL     1       8.215   2.243 -36.413  1.00  0.00     0.006 C 
BRANCH  16  17
ATOM     17  C   UNL     1       7.457   1.281 -37.337  1.00  0.00     0.053 C 
BRANCH  17  18
ATOM     18  C   UNL     1       8.343   0.149 -37.751  1.00  0.00     0.041 C 
ATOM     19  O   UNL     1       8.130  -1.014 -37.314  1.00  0.00    -0.550 OA
ATOM     20  O   UNL     1       9.373   0.366 -38.657  1.00  0.00    -0.550 OA
ENDBRANCH  17  18
ENDBRANCH  16  17
ENDBRANCH  15  16
ENDBRANCH  14  15
ENDBRANCH  13  14
ENDBRANCH  12  13
ENDBRANCH  11  12
ENDBRANCH   1  11
TORSDOF 15
ENDMDL
MODEL 3
REMARK VINA RESULT:    -5.349      1.909      3.063
REMARK INTER + INTRA:         -11.437
REMARK INTER:                 -10.234
REMARK INTRA:                  -1.203
REMARK UNBOUND:                -1.397
REMARK SMILES O=C([O-])CCCCCCCCCCCCCCC(=O)[O-]
REMARK SMILES IDX 10 1 9 2 8 3 7 4 6 5 5 6 4 7 2 8 1 9 3 10 11 11 12 12 13 13
REMARK SMILES IDX 14 14 15 15 16 16 17 17 18 18 19 19 20 20
REMARK H PARENT
REMARK Flexibility Score: inf
ROOT
ATOM      1  C   UNL     1       6.722   0.540 -34.286  1.00  0.00     0.000 C 
ENDROOT
BRANCH   1   2
ATOM      2  C   UNL     1       6.677   0.980 -35.760  1.00  0.00     0.000 C 
BRANCH   2   3
ATOM      3  C   UNL     1       7.877   1.863 -36.172  1.00  0.00     0.000 C 
BRANCH   3   4
ATOM      4  C   UNL     1       9.220   1.115 -36.159  1.00  0.00     0.000 C 
BRANCH   4   5
ATOM      5  C   UNL     1      10.332   1.903 -35.447  1.00  0.00     0.000 C 
BRANCH   5   6
ATOM      6  C   UNL     1      10.673   1.342 -34.056  1.00  0.00     0.006 C 
BRANCH   6   7
ATOM      7  C   UNL     1      11.532   2.286 -33.195  1.00  0.00     0.053 C 
BRANCH   7   8
ATOM      8  C   UNL     1      13.001   2.060 -33.384  1.00  0.00     0.041 C 
ATOM      9  O   UNL     1      13.834   2.670 -32.664  1.00  0.00    -0.550 OA
ATOM     10  O   UNL     1      13.452   1.149 -34.332  1.00  0.00    -0.550 OA
ENDBRANCH   7   8
ENDBRANCH   6   7
ENDBRANCH   5   6
ENDBRANCH   4   5
ENDBRANCH   3   4
ENDBRANCH   2   3
ENDBRANCH   1   2
BRANCH   1  11
ATOM     11  C   UNL     1       6.655   1.733 -33.320  1.00  0.00     0.000 C 
BRANCH  11  12
ATOM     12  C   UNL     1       7.447   1.446 -32.039  1.00  0.00     0.000 C 
BRANCH  12  13
ATOM     13  C   UNL     1       6.699   1.958 -30.802  1.00  0.00     0.000 C 
BRANCH  13  14
ATOM     14  C   UNL     1       7.041   1.119 -29.565  1.00  0.00     0.000 C 
BRANCH  14  15
ATOM     15  C   UNL     1       6.276  -0.212 -29.574  1.00  0.00     0.000 C 
BRANCH  15  16
ATOM     16  C   UNL     1       5.665  -0.554 -28.206  1.00  0.00     0.006 C 
BRANCH  16  17
ATOM     17  C   UNL     1       6.668  -0.398 -27.055  1.00  0.00     0.053 C 
BRANCH  17  18
ATOM     18  C   UNL     1       7.569  -1.590 -26.985  1.00  0.00     0.041 C 
ATOM     19  O   UNL     1       7.084  -2.745 -26.853  1.00  0.00    -0.550 OA
ATOM     20  O   UNL     1       8.943  -1.431 -27.114  1.00  0.00    -0.550 OA
ENDBRANCH  17  18
ENDBRANCH  16  17
ENDBRANCH  15  16
ENDBRANCH  14  15
ENDBRANCH  13  14
ENDBRANCH  12  13
ENDBRANCH  11  12
ENDBRANCH   1  11
TORSDOF 15
ENDMDL
MODEL 4
REMARK VINA RESULT:    -5.347      1.984      3.666
REMARK INTER + INTRA:         -11.432
REMARK INTER:                 -10.156
REMARK INTRA:                  -1.276
REMARK UNBOUND:                -1.397
REMARK SMILES O=C([O-])CCCCCCCCCCCCCCC(=O)[O-]
REMARK SMILES IDX 10 1 9 2 8 3 7 4 6 5 5 6 4 7 2 8 1 9 3 10 11 11 12 12 13 13
REMARK SMILES IDX 14 14 15 15 16 16 17 17 18 18 19 19 20 20
REMARK H PARENT
REMARK Flexibility Score: inf
ROOT
ATOM      1  C   UNL     1       8.923   0.200 -38.157  1.00  0.00     0.000 C 
ENDROOT
BRANCH   1   2
ATOM      2  C   UNL     1       7.917   1.246 -37.646  1.00  0.00     0.000 C 
BRANCH   2   3
ATOM      3  C   UNL     1       8.459   2.094 -36.473  1.00  0.00     0.000 C 
BRANCH   3   4
ATOM      4  C   UNL     1       9.281   1.281 -35.459  1.00  0.00     0.000 C 
BRANCH   4   5
ATOM      5  C   UNL     1      10.705   1.831 -35.273  1.00  0.00     0.000 C 
BRANCH   5   6
ATOM      6  C   UNL     1      11.239   1.653 -33.841  1.00  0.00     0.006 C 
BRANCH   6   7
ATOM      7  C   UNL     1      12.454   2.539 -33.513  1.00  0.00     0.053 C 
BRANCH   7   8
ATOM      8  C   UNL     1      12.532   2.892 -32.059  1.00  0.00     0.041 C 
ATOM      9  O   UNL     1      13.613   2.750 -31.429  1.00  0.00    -0.550 OA
ATOM     10  O   UNL     1      11.421   3.412 -31.405  1.00  0.00    -0.550 OA
ENDBRANCH   7   8
ENDBRANCH   6   7
ENDBRANCH   5   6
ENDBRANCH   4   5
ENDBRANCH   3   4
ENDBRANCH   2   3
ENDBRANCH   1   2
BRANCH   1  11
ATOM     11  C   UNL     1       8.332  -1.218 -38.175  1.00  0.00     0.000 C 
BRANCH  11  12
ATOM     12  C   UNL     1       7.829  -1.620 -36.784  1.00  0.00     0.000 C 
BRANCH  12  13
ATOM     13  C   UNL     1       7.035  -2.932 -36.842  1.00  0.00     0.000 C 
BRANCH  13  14
ATOM     14  C   UNL     1       6.251  -3.160 -35.544  1.00  0.00     0.000 C 
BRANCH  14  15
ATOM     15  C   UNL     1       5.190  -2.068 -35.344  1.00  0.00     0.000 C 
BRANCH  15  16
ATOM     16  C   UNL     1       5.431  -1.233 -34.076  1.00  0.00     0.006 C 
BRANCH  16  17
ATOM     17  C   UNL     1       5.955   0.175 -34.387  1.00  0.00     0.053 C 
BRANCH  17  18
ATOM     18  C   UNL     1       6.159   0.946 -33.121  1.00  0.00     0.041 C 
ATOM     19  O   UNL     1       5.899   0.417 -32.008  1.00  0.00    -0.550 OA
ATOM     20  O   UNL     1       6.684   2.232 -33.166  1.00  0.00    -0.550 OA
ENDBRANCH  17  18
ENDBRANCH  16  17
ENDBRANCH  15  16
ENDBRANCH  14  15
ENDBRANCH  13  14
ENDBRANCH  12  13
ENDBRANCH  11  12
ENDBRANCH   1  11
TORSDOF 15
ENDMDL
MODEL 5
REMARK VINA RESULT:    -5.294      2.791      4.513
REMARK INTER + INTRA:         -11.333
REMARK INTER:                  -9.883
REMARK INTRA:                  -1.450
REMARK UNBOUND:                -1.397
REMARK SMILES O=C([O-])CCCCCCCCCCCCCCC(=O)[O-]
REMARK SMILES IDX 10 1 9 2 8 3 7 4 6 5 5 6 4 7 2 8 1 9 3 10 11 11 12 12 13 13
REMARK SMILES IDX 14 14 15 15 16 16 17 17 18 18 19 19 20 20
REMARK H PARENT
REMARK Flexibility Score: inf
ROOT
ATOM      1  C   UNL     1      10.204   1.463 -33.306  1.00  0.00     0.000 C 
ENDROOT
BRANCH   1   2
ATOM      2  C   UNL     1      11.354   1.803 -34.270  1.00  0.00     0.000 C 
BRANCH   2   3
ATOM      3  C   UNL     1      10.877   2.116 -35.706  1.00  0.00     0.000 C 
BRANCH   3   4
ATOM      4  C   UNL     1       9.643   1.302 -36.131  1.00  0.00     0.000 C 
BRANCH   4   5
ATOM      5  C   UNL     1       8.388   2.173 -36.305  1.00  0.00     0.000 C 
BRANCH   5   6
ATOM      6  C   UNL     1       7.220   1.737 -35.403  1.00  0.00     0.006 C 
BRANCH   6   7
ATOM      7  C   UNL     1       7.076   0.211 -35.264  1.00  0.00     0.053 C 
BRANCH   7   8
ATOM      8  C   UNL     1       5.822  -0.184 -34.546  1.00  0.00     0.041 C 
ATOM      9  O   UNL     1       5.259   0.623 -33.761  1.00  0.00    -0.550 OA
ATOM     10  O   UNL     1       5.253  -1.432 -34.769  1.00  0.00    -0.550 OA
ENDBRANCH   7   8
ENDBRANCH   6   7
ENDBRANCH   5   6
ENDBRANCH   4   5
ENDBRANCH   3   4
ENDBRANCH   2   3
ENDBRANCH   1   2
BRANCH   1  11
ATOM     11  C   UNL     1      10.521   1.861 -31.856  1.00  0.00     0.000 C 
BRANCH  11  12
ATOM     12  C   UNL     1       9.330   1.572 -30.935  1.00  0.00     0.000 C 
BRANCH  12  13
ATOM     13  C   UNL     1       8.002   1.721 -31.688  1.00  0.00     0.000 C 
BRANCH  13  14
ATOM     14  C   UNL     1       6.822   1.806 -30.713  1.00  0.00     0.000 C 
BRANCH  14  15
ATOM     15  C   UNL     1       6.296   0.407 -30.362  1.00  0.00     0.000 C 
BRANCH  15  16
ATOM     16  C   UNL     1       6.374   0.104 -28.858  1.00  0.00     0.006 C 
BRANCH  16  17
ATOM     17  C   UNL     1       7.579  -0.773 -28.493  1.00  0.00     0.053 C 
BRANCH  17  18
ATOM     18  C   UNL     1       7.727  -0.864 -27.008  1.00  0.00     0.041 C 
ATOM     19  O   UNL     1       7.783   0.185 -26.311  1.00  0.00    -0.550 OA
ATOM     20  O   UNL     1       7.753  -2.105 -26.385  1.00  0.00    -0.550 OA
ENDBRANCH  17  18
ENDBRANCH  16  17
ENDBRANCH  15  16
ENDBRANCH  14  15
ENDBRANCH  13  14
ENDBRANCH  12  13
ENDBRANCH  11  12
ENDBRANCH   1  11
TORSDOF 15
ENDMDL
MODEL 6
REMARK VINA RESULT:    -5.293      2.722      4.668
REMARK INTER + INTRA:         -11.331
REMARK INTER:                 -10.174
REMARK INTRA:                  -1.157
REMARK UNBOUND:                -1.397
REMARK SMILES O=C([O-])CCCCCCCCCCCCCCC(=O)[O-]
REMARK SMILES IDX 10 1 9 2 8 3 7 4 6 5 5 6 4 7 2 8 1 9 3 10 11 11 12 12 13 13
REMARK SMILES IDX 14 14 15 15 16 16 17 17 18 18 19 19 20 20
REMARK H PARENT
REMARK Flexibility Score: inf
ROOT
ATOM      1  C   UNL     1       8.032   2.222 -36.391  1.00  0.00     0.000 C 
ENDROOT
BRANCH   1   2
ATOM      2  C   UNL     1       7.818   1.426 -37.691  1.00  0.00     0.000 C 
BRANCH   2   3
ATOM      3  C   UNL     1       8.967   0.440 -38.001  1.00  0.00     0.000 C 
BRANCH   3   4
ATOM      4  C   UNL     1       8.496  -1.014 -38.176  1.00  0.00     0.000 C 
BRANCH   4   5
ATOM      5  C   UNL     1       7.794  -1.564 -36.923  1.00  0.00     0.000 C 
BRANCH   5   6
ATOM      6  C   UNL     1       7.652  -3.096 -36.935  1.00  0.00     0.006 C 
BRANCH   6   7
ATOM      7  C   UNL     1       6.381  -3.610 -36.237  1.00  0.00     0.053 C 
BRANCH   7   8
ATOM      8  C   UNL     1       6.593  -4.926 -35.552  1.00  0.00     0.041 C 
ATOM      9  O   UNL     1       5.787  -5.876 -35.739  1.00  0.00    -0.550 OA
ATOM     10  O   UNL     1       7.699  -5.117 -34.733  1.00  0.00    -0.550 OA
ENDBRANCH   7   8
ENDBRANCH   6   7
ENDBRANCH   5   6
ENDBRANCH   4   5
ENDBRANCH   3   4
ENDBRANCH   2   3
ENDBRANCH   1   2
BRANCH   1  11
ATOM     11  C   UNL     1       9.078   1.568 -35.474  1.00  0.00     0.000 C 
BRANCH  11  12
ATOM     12  C   UNL     1       8.491   1.288 -34.086  1.00  0.00     0.000 C 
BRANCH  12  13
ATOM     13  C   UNL     1       6.958   1.339 -34.115  1.00  0.00     0.000 C 
BRANCH  13  14
ATOM     14  C   UNL     1       6.384   1.491 -32.702  1.00  0.00     0.000 C 
BRANCH  14  15
ATOM     15  C   UNL     1       7.508   1.596 -31.660  1.00  0.00     0.000 C 
BRANCH  15  16
ATOM     16  C   UNL     1       6.977   1.839 -30.239  1.00  0.00     0.006 C 
BRANCH  16  17
ATOM     17  C   UNL     1       6.560   0.541 -29.534  1.00  0.00     0.053 C 
BRANCH  17  18
ATOM     18  C   UNL     1       7.738  -0.087 -28.859  1.00  0.00     0.041 C 
ATOM     19  O   UNL     1       8.702   0.626 -28.473  1.00  0.00    -0.550 OA
ATOM     20  O   UNL     1       7.751  -1.454 -28.612  1.00  0.00    -0.550 OA
ENDBRANCH  17  18
ENDBRANCH  16  17
ENDBRANCH  15  16
ENDBRANCH  14  15
ENDBRANCH  13  14
ENDBRANCH  12  13
ENDBRANCH  11  12
ENDBRANCH   1  11
TORSDOF 15
ENDMDL
MODEL 7
REMARK VINA RESULT:    -5.270      2.042      6.114
REMARK INTER + INTRA:         -11.288
REMARK INTER:                 -10.357
REMARK INTRA:                  -0.931
REMARK UNBOUND:                -1.397
REMARK SMILES O=C([O-])CCCCCCCCCCCCCCC(=O)[O-]
REMARK SMILES IDX 10 1 9 2 8 3 7 4 6 5 5 6 4 7 2 8 1 9 3 10 11 11 12 12 13 13
REMARK SMILES IDX 14 14 15 15 16 16 17 17 18 18 19 19 20 20
REMARK H PARENT
REMARK Flexibility Score: inf
ROOT
ATOM      1  C   UNL     1       8.143   1.126 -35.483  1.00  0.00     0.000 C 
ENDROOT
BRANCH   1   2
ATOM      2  C   UNL     1       7.856   1.451 -34.006  1.00  0.00     0.000 C 
BRANCH   2   3
ATOM      3  C   UNL     1       6.414   1.102 -33.572  1.00  0.00     0.000 C 
BRANCH   3   4
ATOM      4  C   UNL     1       6.285   0.788 -32.072  1.00  0.00     0.000 C 
BRANCH   4   5
ATOM      5  C   UNL     1       6.685   1.977 -31.182  1.00  0.00     0.000 C 
BRANCH   5   6
ATOM      6  C   UNL     1       7.002   1.566 -29.733  1.00  0.00     0.006 C 
BRANCH   6   7
ATOM      7  C   UNL     1       6.810   0.065 -29.454  1.00  0.00     0.053 C 
BRANCH   7   8
ATOM      8  C   UNL     1       6.354  -0.205 -28.052  1.00  0.00     0.041 C 
ATOM      9  O   UNL     1       5.188  -0.628 -27.835  1.00  0.00    -0.550 OA
ATOM     10  O   UNL     1       7.227  -0.025 -26.986  1.00  0.00    -0.550 OA
ENDBRANCH   7   8
ENDBRANCH   6   7
ENDBRANCH   5   6
ENDBRANCH   4   5
ENDBRANCH   3   4
ENDBRANCH   2   3
ENDBRANCH   1   2
BRANCH   1  11
ATOM     11  C   UNL     1       9.586   1.469 -35.885  1.00  0.00     0.000 C 
BRANCH  11  12
ATOM     12  C   UNL     1      10.505   1.499 -34.657  1.00  0.00     0.000 C 
BRANCH  12  13
ATOM     13  C   UNL     1      11.808   2.248 -34.963  1.00  0.00     0.000 C 
BRANCH  13  14
ATOM     14  C   UNL     1      12.997   1.601 -34.243  1.00  0.00     0.000 C 
BRANCH  14  15
ATOM     15  C   UNL     1      13.420   2.432 -33.022  1.00  0.00     0.000 C 
BRANCH  15  16
ATOM     16  C   UNL     1      12.226   3.084 -32.307  1.00  0.00     0.006 C 
BRANCH  16  17
ATOM     17  C   UNL     1      12.278   2.903 -30.785  1.00  0.00     0.053 C 
BRANCH  17  18
ATOM     18  C   UNL     1      11.102   2.109 -30.314  1.00  0.00     0.041 C 
ATOM     19  O   UNL     1      10.892   1.958 -29.081  1.00  0.00    -0.550 OA
ATOM     20  O   UNL     1      10.208   1.575 -31.234  1.00  0.00    -0.550 OA
ENDBRANCH  17  18
ENDBRANCH  16  17
ENDBRANCH  15  16
ENDBRANCH  14  15
ENDBRANCH  13  14
ENDBRANCH  12  13
ENDBRANCH  11  12
ENDBRANCH   1  11
TORSDOF 15
ENDMDL
MODEL 8
REMARK VINA RESULT:    -5.243      2.893      6.889
REMARK INTER + INTRA:         -11.237
REMARK INTER:                 -10.164
REMARK INTRA:                  -1.074
REMARK UNBOUND:                -1.397
REMARK SMILES O=C([O-])CCCCCCCCCCCCCCC(=O)[O-]
REMARK SMILES IDX 10 1 9 2 8 3 7 4 6 5 5 6 4 7 2 8 1 9 3 10 11 11 12 12 13 13
REMARK SMILES IDX 14 14 15 15 16 16 17 17 18 18 19 19 20 20
REMARK H PARENT
REMARK Flexibility Score: inf
ROOT
ATOM      1  C   UNL     1       7.255   1.098 -34.670  1.00  0.00     0.000 C 
ENDROOT
BRANCH   1   2
ATOM      2  C   UNL     1       6.617   1.872 -33.503  1.00  0.00     0.000 C 
BRANCH   2   3
ATOM      3  C   UNL     1       6.603   1.077 -32.177  1.00  0.00     0.000 C 
BRANCH   3   4
ATOM      4  C   UNL     1       7.122   1.883 -30.975  1.00  0.00     0.000 C 
BRANCH   4   5
ATOM      5  C   UNL     1       6.752   1.243 -29.627  1.00  0.00     0.000 C 
BRANCH   5   6
ATOM      6  C   UNL     1       6.240  -0.202 -29.765  1.00  0.00     0.006 C 
BRANCH   6   7
ATOM      7  C   UNL     1       5.738  -0.815 -28.446  1.00  0.00     0.053 C 
BRANCH   7   8
ATOM      8  C   UNL     1       6.531  -2.018 -28.033  1.00  0.00     0.041 C 
ATOM      9  O   UNL     1       7.637  -2.267 -28.581  1.00  0.00    -0.550 OA
ATOM     10  O   UNL     1       6.066  -2.847 -27.019  1.00  0.00    -0.550 OA
ENDBRANCH   7   8
ENDBRANCH   6   7
ENDBRANCH   5   6
ENDBRANCH   4   5
ENDBRANCH   3   4
ENDBRANCH   2   3
ENDBRANCH   1   2
BRANCH   1  11
ATOM     11  C   UNL     1       8.771   1.329 -34.762  1.00  0.00     0.000 C 
BRANCH  11  12
ATOM     12  C   UNL     1       9.175   1.762 -36.176  1.00  0.00     0.000 C 
BRANCH  12  13
ATOM     13  C   UNL     1       8.190   1.224 -37.220  1.00  0.00     0.000 C 
BRANCH  13  14
ATOM     14  C   UNL     1       8.912   0.373 -38.272  1.00  0.00     0.000 C 
BRANCH  14  15
ATOM     15  C   UNL     1       8.850  -1.118 -37.911  1.00  0.00     0.000 C 
BRANCH  15  16
ATOM     16  C   UNL     1       7.562  -1.494 -37.162  1.00  0.00     0.006 C 
BRANCH  16  17
ATOM     17  C   UNL     1       7.487  -2.990 -36.830  1.00  0.00     0.053 C 
BRANCH  17  18
ATOM     18  C   UNL     1       6.221  -3.297 -36.095  1.00  0.00     0.041 C 
ATOM     19  O   UNL     1       5.880  -2.601 -35.102  1.00  0.00    -0.550 OA
ATOM     20  O   UNL     1       5.391  -4.321 -36.536  1.00  0.00    -0.550 OA
ENDBRANCH  17  18
ENDBRANCH  16  17
ENDBRANCH  15  16
ENDBRANCH  14  15
ENDBRANCH  13  14
ENDBRANCH  12  13
ENDBRANCH  11  12
ENDBRANCH   1  11
TORSDOF 15
ENDMDL
MODEL 9
REMARK VINA RESULT:    -5.212      2.937      5.041
REMARK INTER + INTRA:         -11.178
REMARK INTER:                  -9.745
REMARK INTRA:                  -1.433
REMARK UNBOUND:                -1.397
REMARK SMILES O=C([O-])CCCCCCCCCCCCCCC(=O)[O-]
REMARK SMILES IDX 10 1 9 2 8 3 7 4 6 5 5 6 4 7 2 8 1 9 3 10 11 11 12 12 13 13
REMARK SMILES IDX 14 14 15 15 16 16 17 17 18 18 19 19 20 20
REMARK H PARENT
REMARK Flexibility Score: inf
ROOT
ATOM      1  C   UNL     1      13.365   2.726 -31.786  1.00  0.00     0.000 C 
ENDROOT
BRANCH   1   2
ATOM      2  C   UNL     1      13.969   2.432 -33.170  1.00  0.00     0.000 C 
BRANCH   2   3
ATOM      3  C   UNL     1      13.005   1.671 -34.109  1.00  0.00     0.000 C 
BRANCH   3   4
ATOM      4  C   UNL     1      12.622   2.465 -35.369  1.00  0.00     0.000 C 
BRANCH   4   5
ATOM      5  C   UNL     1      11.150   2.272 -35.766  1.00  0.00     0.000 C 
BRANCH   5   6
ATOM      6  C   UNL     1      10.358   1.422 -34.758  1.00  0.00     0.006 C 
BRANCH   6   7
ATOM      7  C   UNL     1       8.835   1.450 -34.977  1.00  0.00     0.053 C 
BRANCH   7   8
ATOM      8  C   UNL     1       8.457   1.239 -36.412  1.00  0.00     0.041 C 
ATOM      9  O   UNL     1       7.947   2.178 -37.078  1.00  0.00    -0.550 OA
ATOM     10  O   UNL     1       8.699   0.016 -37.026  1.00  0.00    -0.550 OA
ENDBRANCH   7   8
ENDBRANCH   6   7
ENDBRANCH   5   6
ENDBRANCH   4   5
ENDBRANCH   3   4
ENDBRANCH   2   3
ENDBRANCH   1   2
BRANCH   1  11
ATOM     11  C   UNL     1      11.872   3.082 -31.865  1.00  0.00     0.000 C 
BRANCH  11  12
ATOM     12  C   UNL     1      11.087   2.410 -30.732  1.00  0.00     0.000 C 
BRANCH  12  13
ATOM     13  C   UNL     1      10.084   1.390 -31.286  1.00  0.00     0.000 C 
BRANCH  13  14
ATOM     14  C   UNL     1       8.687   2.008 -31.419  1.00  0.00     0.000 C 
BRANCH  14  15
ATOM     15  C   UNL     1       7.614   1.068 -30.851  1.00  0.00     0.000 C 
BRANCH  15  16
ATOM     16  C   UNL     1       7.172   1.461 -29.433  1.00  0.00     0.006 C 
BRANCH  16  17
ATOM     17  C   UNL     1       6.535   0.293 -28.668  1.00  0.00     0.053 C 
BRANCH  17  18
ATOM     18  C   UNL     1       7.516  -0.297 -27.706  1.00  0.00     0.041 C 
ATOM     19  O   UNL     1       7.476   0.018 -26.487  1.00  0.00    -0.550 OA
ATOM     20  O   UNL     1       8.444  -1.234 -28.144  1.00  0.00    -0.550 OA
ENDBRANCH  17  18
ENDBRANCH  16  17
ENDBRANCH  15  16
ENDBRANCH  14  15
ENDBRANCH  13  14
ENDBRANCH  12  13
ENDBRANCH  11  12
ENDBRANCH   1  11
TORSDOF 15
ENDMDL
