MODEL 1
REMARK VINA RESULT:    -4.445      0.000      0.000
REMARK INTER + INTRA:          -5.023
REMARK INTER:                  -4.965
REMARK INTRA:                  -0.058
REMARK UNBOUND:                -0.058
REMARK SMILES COc1ccc(C(=O)[O-])cc1
REMARK SMILES IDX 6 1 5 2 10 3 4 4 11 5 3 6 7 7 8 8 9 9 2 10 1 11
REMARK H PARENT
REMARK Flexibility Score: inf
ROOT
ATOM      1  C   UNL     1      14.810 -21.198  23.371  1.00  0.00    -0.003 A 
ATOM      2  C   UNL     1      13.973 -20.096  23.611  1.00  0.00     0.014 A 
ATOM      3  C   UNL     1      14.354 -22.229  22.531  1.00  0.00     0.014 A 
ATOM      4  C   UNL     1      12.705 -20.025  23.024  1.00  0.00     0.047 A 
ATOM      5  C   UNL     1      13.087 -22.158  21.945  1.00  0.00     0.047 A 
ATOM      6  C   UNL     1      12.253 -21.060  22.184  1.00  0.00     0.118 A 
ENDROOT
BRANCH   1   7
ATOM      7  C   UNL     1      16.150 -21.268  23.993  1.00  0.00     0.071 C 
ATOM      8  O   UNL     1      16.272 -21.468  25.232  1.00  0.00    -0.545 OA
ATOM      9  O   UNL     1      17.295 -21.116  23.220  1.00  0.00    -0.545 OA
ENDBRANCH   1   7
BRANCH   6  10
ATOM     10  O   UNL     1      10.991 -21.036  21.573  1.00  0.00    -0.497 OA
ATOM     11  C   UNL     1      10.111 -19.917  21.589  1.00  0.00     0.278 C 
ENDBRANCH   6  10
TORSDOF 2
ENDMDL
MODEL 2
REMARK VINA RESULT:    -4.174      0.982      4.988
REMARK INTER + INTRA:          -4.720
REMARK INTER:                  -4.664
REMARK INTRA:                  -0.056
REMARK UNBOUND:                -0.058
REMARK SMILES COc1ccc(C(=O)[O-])cc1
REMARK SMILES IDX 6 1 5 2 10 3 4 4 11 5 3 6 7 7 8 8 9 9 2 10 1 11
REMARK H PARENT
REMARK Flexibility Score: inf
ROOT
ATOM      1  C   UNL     1      12.153 -20.806  22.157  1.00  0.00    -0.003 A 
ATOM      2  C   UNL     1      12.819 -21.992  21.804  1.00  0.00     0.014 A 
ATOM      3  C   UNL     1      12.816 -19.868  22.967  1.00  0.00     0.014 A 
ATOM      4  C   UNL     1      14.121 -22.235  22.251  1.00  0.00     0.047 A 
ATOM      5  C   UNL     1      14.118 -20.112  23.414  1.00  0.00     0.047 A 
ATOM      6  C   UNL     1      14.781 -21.292  23.063  1.00  0.00     0.118 A 
ENDROOT
BRANCH   1   7
ATOM      7  C   UNL     1      10.775 -20.553  21.682  1.00  0.00     0.071 C 
ATOM      8  O   UNL     1       9.906 -21.465  21.720  1.00  0.00    -0.545 OA
ATOM      9  O   UNL     1      10.419 -19.303  21.187  1.00  0.00    -0.545 OA
ENDBRANCH   1   7
BRANCH   6  10
ATOM     10  O   UNL     1      16.087 -21.490  23.536  1.00  0.00    -0.497 OA
ATOM     11  C   UNL     1      17.265 -21.160  22.809  1.00  0.00     0.278 C 
ENDBRANCH   6  10
TORSDOF 2
ENDMDL
MODEL 3
REMARK VINA RESULT:    -3.942      2.217      4.676
REMARK INTER + INTRA:          -4.461
REMARK INTER:                  -4.408
REMARK INTRA:                  -0.053
REMARK UNBOUND:                -0.058
REMARK SMILES COc1ccc(C(=O)[O-])cc1
REMARK SMILES IDX 6 1 5 2 10 3 4 4 11 5 3 6 7 7 8 8 9 9 2 10 1 11
REMARK H PARENT
REMARK Flexibility Score: inf
ROOT
ATOM      1  C   UNL     1      14.560 -21.319  21.084  1.00  0.00    -0.003 A 
ATOM      2  C   UNL     1      13.701 -21.218  22.191  1.00  0.00     0.014 A 
ATOM      3  C   UNL     1      15.949 -21.322  21.297  1.00  0.00     0.014 A 
ATOM      4  C   UNL     1      14.221 -21.121  23.486  1.00  0.00     0.047 A 
ATOM      5  C   UNL     1      16.467 -21.225  22.592  1.00  0.00     0.047 A 
ATOM      6  C   UNL     1      15.613 -21.124  23.695  1.00  0.00     0.118 A 
ENDROOT
BRANCH   1   7
ATOM      7  C   UNL     1      14.006 -21.421  19.716  1.00  0.00     0.071 C 
ATOM      8  O   UNL     1      13.322 -20.481  19.229  1.00  0.00    -0.545 OA
ATOM      9  O   UNL     1      14.233 -22.557  18.947  1.00  0.00    -0.545 OA
ENDBRANCH   1   7
BRANCH   6  10
ATOM     10  O   UNL     1      16.182 -21.030  24.973  1.00  0.00    -0.497 OA
ATOM     11  C   UNL     1      16.150 -22.067  25.947  1.00  0.00     0.278 C 
ENDBRANCH   6  10
TORSDOF 2
ENDMDL
MODEL 4
REMARK VINA RESULT:    -3.935     13.813     15.140
REMARK INTER + INTRA:          -4.453
REMARK INTER:                  -4.396
REMARK INTRA:                  -0.057
REMARK UNBOUND:                -0.058
REMARK SMILES COc1ccc(C(=O)[O-])cc1
REMARK SMILES IDX 6 1 5 2 10 3 4 4 11 5 3 6 7 7 8 8 9 9 2 10 1 11
REMARK H PARENT
REMARK Flexibility Score: inf
ROOT
ATOM      1  C   UNL     1      20.664 -10.860  30.547  1.00  0.00    -0.003 A 
ATOM      2  C   UNL     1      20.576  -9.562  31.078  1.00  0.00     0.014 A 
ATOM      3  C   UNL     1      20.789 -11.018  29.156  1.00  0.00     0.014 A 
ATOM      4  C   UNL     1      20.613  -8.446  30.237  1.00  0.00     0.047 A 
ATOM      5  C   UNL     1      20.826  -9.902  28.315  1.00  0.00     0.047 A 
ATOM      6  C   UNL     1      20.739  -8.610  28.844  1.00  0.00     0.118 A 
ENDROOT
BRANCH   1   7
ATOM      7  C   UNL     1      20.624 -12.038  31.441  1.00  0.00     0.071 C 
ATOM      8  O   UNL     1      21.647 -12.385  32.089  1.00  0.00    -0.545 OA
ATOM      9  O   UNL     1      19.455 -12.778  31.579  1.00  0.00    -0.545 OA
ENDBRANCH   1   7
BRANCH   6  10
ATOM     10  O   UNL     1      20.781  -7.522  27.959  1.00  0.00    -0.497 OA
ATOM     11  C   UNL     1      21.081  -6.185  28.342  1.00  0.00     0.278 C 
ENDBRANCH   6  10
TORSDOF 2
ENDMDL
MODEL 5
REMARK VINA RESULT:    -3.894     14.002     15.294
REMARK INTER + INTRA:          -4.408
REMARK INTER:                  -4.343
REMARK INTRA:                  -0.065
REMARK UNBOUND:                -0.058
REMARK SMILES COc1ccc(C(=O)[O-])cc1
REMARK SMILES IDX 6 1 5 2 10 3 4 4 11 5 3 6 7 7 8 8 9 9 2 10 1 11
REMARK H PARENT
REMARK Flexibility Score: inf
ROOT
ATOM      1  C   UNL     1      20.725 -10.709  30.490  1.00  0.00    -0.003 A 
ATOM      2  C   UNL     1      20.800 -10.886  29.098  1.00  0.00     0.014 A 
ATOM      3  C   UNL     1      20.659  -9.404  31.007  1.00  0.00     0.014 A 
ATOM      4  C   UNL     1      20.809  -9.781  28.241  1.00  0.00     0.047 A 
ATOM      5  C   UNL     1      20.668  -8.300  30.149  1.00  0.00     0.047 A 
ATOM      6  C   UNL     1      20.743  -8.476  28.764  1.00  0.00     0.118 A 
ENDROOT
BRANCH   1   7
ATOM      7  C   UNL     1      20.716 -11.881  31.393  1.00  0.00     0.071 C 
ATOM      8  O   UNL     1      19.951 -11.913  32.394  1.00  0.00    -0.545 OA
ATOM      9  O   UNL     1      21.552 -12.965  31.148  1.00  0.00    -0.545 OA
ENDBRANCH   1   7
BRANCH   6  10
ATOM     10  O   UNL     1      20.748  -7.337  27.945  1.00  0.00    -0.497 OA
ATOM     11  C   UNL     1      21.148  -6.040  28.375  1.00  0.00     0.278 C 
ENDBRANCH   6  10
TORSDOF 2
ENDMDL
MODEL 6
REMARK VINA RESULT:    -3.887     14.341     15.912
REMARK INTER + INTRA:          -4.399
REMARK INTER:                  -4.340
REMARK INTRA:                  -0.059
REMARK UNBOUND:                -0.058
REMARK SMILES COc1ccc(C(=O)[O-])cc1
REMARK SMILES IDX 6 1 5 2 10 3 4 4 11 5 3 6 7 7 8 8 9 9 2 10 1 11
REMARK H PARENT
REMARK Flexibility Score: inf
ROOT
ATOM      1  C   UNL     1      20.710  -8.187  29.007  1.00  0.00    -0.003 A 
ATOM      2  C   UNL     1      20.735  -9.482  28.461  1.00  0.00     0.014 A 
ATOM      3  C   UNL     1      20.657  -8.039  30.403  1.00  0.00     0.014 A 
ATOM      4  C   UNL     1      20.707 -10.605  29.293  1.00  0.00     0.047 A 
ATOM      5  C   UNL     1      20.628  -9.163  31.235  1.00  0.00     0.047 A 
ATOM      6  C   UNL     1      20.654 -10.451  30.691  1.00  0.00     0.118 A 
ENDROOT
BRANCH   1   7
ATOM      7  C   UNL     1      20.740  -7.002  28.122  1.00  0.00     0.071 C 
ATOM      8  O   UNL     1      20.029  -6.960  27.082  1.00  0.00    -0.545 OA
ATOM      9  O   UNL     1      21.552  -5.916  28.427  1.00  0.00    -0.545 OA
ENDBRANCH   1   7
BRANCH   6  10
ATOM     10  O   UNL     1      20.624 -11.545  31.568  1.00  0.00    -0.497 OA
ATOM     11  C   UNL     1      21.406 -12.724  31.410  1.00  0.00     0.278 C 
ENDBRANCH   6  10
TORSDOF 2
ENDMDL
MODEL 7
REMARK VINA RESULT:    -3.872     14.360     15.856
REMARK INTER + INTRA:          -4.382
REMARK INTER:                  -4.320
REMARK INTRA:                  -0.062
REMARK UNBOUND:                -0.058
REMARK SMILES COc1ccc(C(=O)[O-])cc1
REMARK SMILES IDX 6 1 5 2 10 3 4 4 11 5 3 6 7 7 8 8 9 9 2 10 1 11
REMARK H PARENT
REMARK Flexibility Score: inf
ROOT
ATOM      1  C   UNL     1      20.697  -8.200  29.028  1.00  0.00    -0.003 A 
ATOM      2  C   UNL     1      20.654  -8.005  30.418  1.00  0.00     0.014 A 
ATOM      3  C   UNL     1      20.707  -9.512  28.524  1.00  0.00     0.014 A 
ATOM      4  C   UNL     1      20.622  -9.100  31.288  1.00  0.00     0.047 A 
ATOM      5  C   UNL     1      20.676 -10.606  29.395  1.00  0.00     0.047 A 
ATOM      6  C   UNL     1      20.633 -10.412  30.779  1.00  0.00     0.118 A 
ENDROOT
BRANCH   1   7
ATOM      7  C   UNL     1      20.732  -7.039  28.111  1.00  0.00     0.071 C 
ATOM      8  O   UNL     1      20.018  -7.021  27.073  1.00  0.00    -0.545 OA
ATOM      9  O   UNL     1      21.552  -5.950  28.384  1.00  0.00    -0.545 OA
ENDBRANCH   1   7
BRANCH   6  10
ATOM     10  O   UNL     1      20.601 -11.542  31.610  1.00  0.00    -0.497 OA
ATOM     11  C   UNL     1      21.391 -12.709  31.411  1.00  0.00     0.278 C 
ENDBRANCH   6  10
TORSDOF 2
ENDMDL
MODEL 8
REMARK VINA RESULT:    -3.836      2.100      2.650
REMARK INTER + INTRA:          -4.342
REMARK INTER:                  -4.276
REMARK INTRA:                  -0.066
REMARK UNBOUND:                -0.058
REMARK SMILES COc1ccc(C(=O)[O-])cc1
REMARK SMILES IDX 6 1 5 2 10 3 4 4 11 5 3 6 7 7 8 8 9 9 2 10 1 11
REMARK H PARENT
REMARK Flexibility Score: inf
ROOT
ATOM      1  C   UNL     1      15.295 -20.784  22.595  1.00  0.00    -0.003 A 
ATOM      2  C   UNL     1      15.682 -21.227  21.318  1.00  0.00     0.014 A 
ATOM      3  C   UNL     1      14.161 -19.964  22.716  1.00  0.00     0.014 A 
ATOM      4  C   UNL     1      14.950 -20.856  20.186  1.00  0.00     0.047 A 
ATOM      5  C   UNL     1      13.430 -19.593  21.583  1.00  0.00     0.047 A 
ATOM      6  C   UNL     1      13.815 -20.033  20.313  1.00  0.00     0.118 A 
ENDROOT
BRANCH   1   7
ATOM      7  C   UNL     1      16.073 -21.179  23.790  1.00  0.00     0.071 C 
ATOM      8  O   UNL     1      17.328 -21.279  23.734  1.00  0.00    -0.545 OA
ATOM      9  O   UNL     1      15.429 -21.444  24.993  1.00  0.00    -0.545 OA
ENDBRANCH   1   7
BRANCH   6  10
ATOM     10  O   UNL     1      13.048 -19.635  19.208  1.00  0.00    -0.497 OA
ATOM     11  C   UNL     1      12.181 -18.505  19.195  1.00  0.00     0.278 C 
ENDBRANCH   6  10
TORSDOF 2
ENDMDL
MODEL 9
REMARK VINA RESULT:    -3.611      3.159      4.594
REMARK INTER + INTRA:          -4.091
REMARK INTER:                  -4.029
REMARK INTRA:                  -0.062
REMARK UNBOUND:                -0.058
REMARK SMILES COc1ccc(C(=O)[O-])cc1
REMARK SMILES IDX 6 1 5 2 10 3 4 4 11 5 3 6 7 7 8 8 9 9 2 10 1 11
REMARK H PARENT
REMARK Flexibility Score: inf
ROOT
ATOM      1  C   UNL     1      14.030 -21.307  21.394  1.00  0.00    -0.003 A 
ATOM      2  C   UNL     1      13.500 -20.205  20.702  1.00  0.00     0.014 A 
ATOM      3  C   UNL     1      15.417 -21.371  21.612  1.00  0.00     0.014 A 
ATOM      4  C   UNL     1      14.340 -19.188  20.236  1.00  0.00     0.047 A 
ATOM      5  C   UNL     1      16.256 -20.353  21.146  1.00  0.00     0.047 A 
ATOM      6  C   UNL     1      15.728 -19.257  20.457  1.00  0.00     0.118 A 
ENDROOT
BRANCH   1   7
ATOM      7  C   UNL     1      13.139 -22.380  21.885  1.00  0.00     0.071 C 
ATOM      8  O   UNL     1      11.925 -22.144  22.131  1.00  0.00    -0.545 OA
ATOM      9  O   UNL     1      13.627 -23.668  22.079  1.00  0.00    -0.545 OA
ENDBRANCH   1   7
BRANCH   6  10
ATOM     10  O   UNL     1      16.611 -18.262  20.010  1.00  0.00    -0.497 OA
ATOM     11  C   UNL     1      17.756 -18.507  19.200  1.00  0.00     0.278 C 
ENDBRANCH   6  10
TORSDOF 2
ENDMDL
