MODEL 1
REMARK VINA RESULT:    -5.466      0.000      0.000
REMARK INTER + INTRA:          -8.168
REMARK INTER:                  -7.703
REMARK INTRA:                  -0.465
REMARK UNBOUND:                -0.465
REMARK SMILES CCCCCCCCC(=O)[O-]
REMARK SMILES IDX 6 1 7 2 8 3 9 4 10 5 11 6 5 7 4 8 3 9 2 10 1 11
REMARK H PARENT
REMARK Flexibility Score: inf
ROOT
ATOM      1  C   UNL     1      54.430  50.661   4.245  1.00  0.00     0.000 C 
ENDROOT
BRANCH   1   2
ATOM      2  C   UNL     1      54.246  51.944   5.071  1.00  0.00     0.006 C 
BRANCH   2   3
ATOM      3  C   UNL     1      55.107  51.957   6.341  1.00  0.00     0.053 C 
BRANCH   3   4
ATOM      4  C   UNL     1      54.265  51.676   7.545  1.00  0.00     0.041 C 
ATOM      5  O   UNL     1      54.098  50.492   7.940  1.00  0.00    -0.550 OA
ATOM      6  O   UNL     1      53.621  52.717   8.201  1.00  0.00    -0.550 OA
ENDBRANCH   3   4
ENDBRANCH   2   3
ENDBRANCH   1   2
BRANCH   1   7
ATOM      7  C   UNL     1      53.195  49.749   4.282  1.00  0.00     0.000 C 
BRANCH   7   8
ATOM      8  C   UNL     1      52.005  50.464   4.941  1.00  0.00    -0.000 C 
BRANCH   8   9
ATOM      9  C   UNL     1      50.672  49.733   4.711  1.00  0.00    -0.000 C 
BRANCH   9  10
ATOM     10  C   UNL     1      50.674  48.888   3.429  1.00  0.00    -0.003 C 
ATOM     11  C   UNL     1      49.554  49.319   2.486  1.00  0.00     0.004 C 
ENDBRANCH   9  10
ENDBRANCH   8   9
ENDBRANCH   7   8
ENDBRANCH   1   7
TORSDOF 7
ENDMDL
MODEL 2
REMARK VINA RESULT:    -5.250      2.124      2.998
REMARK INTER + INTRA:          -7.864
REMARK INTER:                  -7.412
REMARK INTRA:                  -0.452
REMARK UNBOUND:                -0.465
REMARK SMILES CCCCCCCCC(=O)[O-]
REMARK SMILES IDX 6 1 7 2 8 3 9 4 10 5 11 6 5 7 4 8 3 9 2 10 1 11
REMARK H PARENT
REMARK Flexibility Score: inf
ROOT
ATOM      1  C   UNL     1      51.567  50.163   4.969  1.00  0.00     0.000 C 
ENDROOT
BRANCH   1   2
ATOM      2  C   UNL     1      52.745  51.150   4.950  1.00  0.00     0.006 C 
BRANCH   2   3
ATOM      3  C   UNL     1      54.031  50.525   4.395  1.00  0.00     0.053 C 
BRANCH   3   4
ATOM      4  C   UNL     1      55.116  51.551   4.311  1.00  0.00     0.041 C 
ATOM      5  O   UNL     1      56.243  51.247   3.838  1.00  0.00    -0.550 OA
ATOM      6  O   UNL     1      54.900  52.832   4.803  1.00  0.00    -0.550 OA
ENDBRANCH   3   4
ENDBRANCH   2   3
ENDBRANCH   1   2
BRANCH   1   7
ATOM      7  C   UNL     1      51.620  49.155   3.811  1.00  0.00     0.000 C 
BRANCH   7   8
ATOM      8  C   UNL     1      50.210  48.668   3.444  1.00  0.00    -0.000 C 
BRANCH   8   9
ATOM      9  C   UNL     1      49.527  49.562   2.396  1.00  0.00    -0.000 C 
BRANCH   9  10
ATOM     10  C   UNL     1      48.372  50.386   2.983  1.00  0.00    -0.003 C 
ATOM     11  C   UNL     1      48.792  51.834   3.217  1.00  0.00     0.004 C 
ENDBRANCH   9  10
ENDBRANCH   8   9
ENDBRANCH   7   8
ENDBRANCH   1   7
TORSDOF 7
ENDMDL
MODEL 3
REMARK VINA RESULT:    -5.248      1.084      1.549
REMARK INTER + INTRA:          -7.860
REMARK INTER:                  -7.631
REMARK INTRA:                  -0.228
REMARK UNBOUND:                -0.465
REMARK SMILES CCCCCCCCC(=O)[O-]
REMARK SMILES IDX 6 1 7 2 8 3 9 4 10 5 11 6 5 7 4 8 3 9 2 10 1 11
REMARK H PARENT
REMARK Flexibility Score: inf
ROOT
ATOM      1  C   UNL     1      53.797  49.761   4.287  1.00  0.00     0.000 C 
ENDROOT
BRANCH   1   2
ATOM      2  C   UNL     1      54.643  51.042   4.334  1.00  0.00     0.006 C 
BRANCH   2   3
ATOM      3  C   UNL     1      53.887  52.227   4.950  1.00  0.00     0.053 C 
BRANCH   3   4
ATOM      4  C   UNL     1      54.303  52.429   6.372  1.00  0.00     0.041 C 
ATOM      5  O   UNL     1      55.399  51.965   6.784  1.00  0.00    -0.550 OA
ATOM      6  O   UNL     1      53.458  53.085   7.258  1.00  0.00    -0.550 OA
ENDBRANCH   3   4
ENDBRANCH   2   3
ENDBRANCH   1   2
BRANCH   1   7
ATOM      7  C   UNL     1      52.317  50.014   4.614  1.00  0.00     0.000 C 
BRANCH   7   8
ATOM      8  C   UNL     1      51.409  49.075   3.807  1.00  0.00    -0.000 C 
BRANCH   8   9
ATOM      9  C   UNL     1      49.959  49.580   3.722  1.00  0.00    -0.000 C 
BRANCH   9  10
ATOM     10  C   UNL     1      49.333  49.355   2.338  1.00  0.00    -0.003 C 
ATOM     11  C   UNL     1      48.363  48.177   2.359  1.00  0.00     0.004 C 
ENDBRANCH   9  10
ENDBRANCH   8   9
ENDBRANCH   7   8
ENDBRANCH   1   7
TORSDOF 7
ENDMDL
MODEL 4
REMARK VINA RESULT:    -5.244      3.602      5.907
REMARK INTER + INTRA:          -7.855
REMARK INTER:                  -7.456
REMARK INTRA:                  -0.399
REMARK UNBOUND:                -0.465
REMARK SMILES CCCCCCCCC(=O)[O-]
REMARK SMILES IDX 6 1 7 2 8 3 9 4 10 5 11 6 5 7 4 8 3 9 2 10 1 11
REMARK H PARENT
REMARK Flexibility Score: inf
ROOT
ATOM      1  C   UNL     1      51.395  48.996   3.759  1.00  0.00     0.000 C 
ENDROOT
BRANCH   1   2
ATOM      2  C   UNL     1      49.984  48.541   3.354  1.00  0.00     0.006 C 
BRANCH   2   3
ATOM      3  C   UNL     1      49.274  49.553   2.446  1.00  0.00     0.053 C 
BRANCH   3   4
ATOM      4  C   UNL     1      47.951  49.937   3.027  1.00  0.00     0.041 C 
ATOM      5  O   UNL     1      47.113  50.571   2.334  1.00  0.00    -0.550 OA
ATOM      6  O   UNL     1      47.661  49.638   4.353  1.00  0.00    -0.550 OA
ENDBRANCH   3   4
ENDBRANCH   2   3
ENDBRANCH   1   2
BRANCH   1   7
ATOM      7  C   UNL     1      51.381  50.248   4.649  1.00  0.00     0.000 C 
BRANCH   7   8
ATOM      8  C   UNL     1      52.790  50.563   5.174  1.00  0.00    -0.000 C 
BRANCH   8   9
ATOM      9  C   UNL     1      53.899  49.974   4.287  1.00  0.00    -0.000 C 
BRANCH   9  10
ATOM     10  C   UNL     1      55.107  50.911   4.148  1.00  0.00    -0.003 C 
ATOM     11  C   UNL     1      54.797  52.295   4.713  1.00  0.00     0.004 C 
ENDBRANCH   9  10
ENDBRANCH   8   9
ENDBRANCH   7   8
ENDBRANCH   1   7
TORSDOF 7
ENDMDL
MODEL 5
REMARK VINA RESULT:    -5.214      1.837      4.319
REMARK INTER + INTRA:          -7.812
REMARK INTER:                  -7.300
REMARK INTRA:                  -0.512
REMARK UNBOUND:                -0.465
REMARK SMILES CCCCCCCCC(=O)[O-]
REMARK SMILES IDX 6 1 7 2 8 3 9 4 10 5 11 6 5 7 4 8 3 9 2 10 1 11
REMARK H PARENT
REMARK Flexibility Score: inf
ROOT
ATOM      1  C   UNL     1      52.328  49.466   3.954  1.00  0.00     0.000 C 
ENDROOT
BRANCH   1   2
ATOM      2  C   UNL     1      50.965  49.911   4.506  1.00  0.00     0.006 C 
BRANCH   2   3
ATOM      3  C   UNL     1      50.953  51.387   4.927  1.00  0.00     0.053 C 
BRANCH   3   4
ATOM      4  C   UNL     1      50.810  51.505   6.411  1.00  0.00     0.041 C 
ATOM      5  O   UNL     1      51.035  52.603   6.986  1.00  0.00    -0.550 OA
ATOM      6  O   UNL     1      50.477  50.389   7.169  1.00  0.00    -0.550 OA
ENDBRANCH   3   4
ENDBRANCH   2   3
ENDBRANCH   1   2
BRANCH   1   7
ATOM      7  C   UNL     1      53.503  49.933   4.825  1.00  0.00     0.000 C 
BRANCH   7   8
ATOM      8  C   UNL     1      54.736  50.242   3.962  1.00  0.00    -0.000 C 
BRANCH   8   9
ATOM      9  C   UNL     1      55.398  51.580   4.329  1.00  0.00    -0.000 C 
BRANCH   9  10
ATOM     10  C   UNL     1      54.420  52.562   4.992  1.00  0.00    -0.003 C 
ATOM     11  C   UNL     1      54.794  52.807   6.452  1.00  0.00     0.004 C 
ENDBRANCH   9  10
ENDBRANCH   8   9
ENDBRANCH   7   8
ENDBRANCH   1   7
TORSDOF 7
ENDMDL
MODEL 6
REMARK VINA RESULT:    -5.146      2.136      3.012
REMARK INTER + INTRA:          -7.716
REMARK INTER:                  -7.059
REMARK INTRA:                  -0.657
REMARK UNBOUND:                -0.465
REMARK SMILES CCCCCCCCC(=O)[O-]
REMARK SMILES IDX 6 1 7 2 8 3 9 4 10 5 11 6 5 7 4 8 3 9 2 10 1 11
REMARK H PARENT
REMARK Flexibility Score: inf
ROOT
ATOM      1  C   UNL     1      51.893  50.876   6.333  1.00  0.00     0.000 C 
ENDROOT
BRANCH   1   2
ATOM      2  C   UNL     1      53.350  50.449   6.097  1.00  0.00     0.006 C 
BRANCH   2   3
ATOM      3  C   UNL     1      53.632  50.100   4.629  1.00  0.00     0.053 C 
BRANCH   3   4
ATOM      4  C   UNL     1      54.876  50.786   4.161  1.00  0.00     0.041 C 
ATOM      5  O   UNL     1      55.049  52.012   4.391  1.00  0.00    -0.550 OA
ATOM      6  O   UNL     1      55.822  50.085   3.424  1.00  0.00    -0.550 OA
ENDBRANCH   3   4
ENDBRANCH   2   3
ENDBRANCH   1   2
BRANCH   1   7
ATOM      7  C   UNL     1      51.295  51.632   5.137  1.00  0.00     0.000 C 
BRANCH   7   8
ATOM      8  C   UNL     1      49.951  51.017   4.716  1.00  0.00    -0.000 C 
BRANCH   8   9
ATOM      9  C   UNL     1      49.925  49.487   4.867  1.00  0.00    -0.000 C 
BRANCH   9  10
ATOM     10  C   UNL     1      50.274  48.758   3.561  1.00  0.00    -0.003 C 
ATOM     11  C   UNL     1      49.557  49.390   2.371  1.00  0.00     0.004 C 
ENDBRANCH   9  10
ENDBRANCH   8   9
ENDBRANCH   7   8
ENDBRANCH   1   7
TORSDOF 7
ENDMDL
MODEL 7
REMARK VINA RESULT:    -5.096      3.731      6.002
REMARK INTER + INTRA:          -7.646
REMARK INTER:                  -7.238
REMARK INTRA:                  -0.408
REMARK UNBOUND:                -0.465
REMARK SMILES CCCCCCCCC(=O)[O-]
REMARK SMILES IDX 6 1 7 2 8 3 9 4 10 5 11 6 5 7 4 8 3 9 2 10 1 11
REMARK H PARENT
REMARK Flexibility Score: inf
ROOT
ATOM      1  C   UNL     1      51.017  50.467   4.609  1.00  0.00     0.000 C 
ENDROOT
BRANCH   1   2
ATOM      2  C   UNL     1      49.581  50.248   4.109  1.00  0.00     0.006 C 
BRANCH   2   3
ATOM      3  C   UNL     1      49.520  49.917   2.612  1.00  0.00     0.053 C 
BRANCH   3   4
ATOM      4  C   UNL     1      48.786  48.634   2.391  1.00  0.00     0.041 C 
ATOM      5  O   UNL     1      49.127  47.592   3.011  1.00  0.00    -0.550 OA
ATOM      6  O   UNL     1      47.755  48.573   1.462  1.00  0.00    -0.550 OA
ENDBRANCH   3   4
ENDBRANCH   2   3
ENDBRANCH   1   2
BRANCH   1   7
ATOM      7  C   UNL     1      51.999  49.415   4.072  1.00  0.00     0.000 C 
BRANCH   7   8
ATOM      8  C   UNL     1      53.452  49.832   4.344  1.00  0.00    -0.000 C 
BRANCH   8   9
ATOM      9  C   UNL     1      53.587  51.325   4.684  1.00  0.00    -0.000 C 
BRANCH   9  10
ATOM     10  C   UNL     1      55.044  51.811   4.650  1.00  0.00    -0.003 C 
ATOM     11  C   UNL     1      55.921  50.859   3.842  1.00  0.00     0.004 C 
ENDBRANCH   9  10
ENDBRANCH   8   9
ENDBRANCH   7   8
ENDBRANCH   1   7
TORSDOF 7
ENDMDL
MODEL 8
REMARK VINA RESULT:    -5.047      3.311      5.374
REMARK INTER + INTRA:          -7.577
REMARK INTER:                  -7.152
REMARK INTRA:                  -0.425
REMARK UNBOUND:                -0.465
REMARK SMILES CCCCCCCCC(=O)[O-]
REMARK SMILES IDX 6 1 7 2 8 3 9 4 10 5 11 6 5 7 4 8 3 9 2 10 1 11
REMARK H PARENT
REMARK Flexibility Score: inf
ROOT
ATOM      1  C   UNL     1      50.609  51.532   4.869  1.00  0.00     0.000 C 
ENDROOT
BRANCH   1   2
ATOM      2  C   UNL     1      51.123  50.113   5.155  1.00  0.00     0.006 C 
BRANCH   2   3
ATOM      3  C   UNL     1      51.507  49.356   3.876  1.00  0.00     0.053 C 
BRANCH   3   4
ATOM      4  C   UNL     1      50.294  48.756   3.240  1.00  0.00     0.041 C 
ATOM      5  O   UNL     1      49.625  49.417   2.402  1.00  0.00    -0.550 OA
ATOM      6  O   UNL     1      49.871  47.486   3.610  1.00  0.00    -0.550 OA
ENDBRANCH   3   4
ENDBRANCH   2   3
ENDBRANCH   1   2
BRANCH   1   7
ATOM      7  C   UNL     1      51.583  52.622   5.343  1.00  0.00     0.000 C 
BRANCH   7   8
ATOM      8  C   UNL     1      52.881  52.001   5.880  1.00  0.00    -0.000 C 
BRANCH   8   9
ATOM      9  C   UNL     1      54.104  52.337   5.010  1.00  0.00    -0.000 C 
BRANCH   9  10
ATOM     10  C   UNL     1      54.671  51.107   4.286  1.00  0.00    -0.003 C 
ATOM     11  C   UNL     1      56.151  51.295   3.963  1.00  0.00     0.004 C 
ENDBRANCH   9  10
ENDBRANCH   8   9
ENDBRANCH   7   8
ENDBRANCH   1   7
TORSDOF 7
ENDMDL
MODEL 9
REMARK VINA RESULT:    -4.984      2.905      5.371
REMARK INTER + INTRA:          -7.488
REMARK INTER:                  -7.074
REMARK INTRA:                  -0.414
REMARK UNBOUND:                -0.465
REMARK SMILES CCCCCCCCC(=O)[O-]
REMARK SMILES IDX 6 1 7 2 8 3 9 4 10 5 11 6 5 7 4 8 3 9 2 10 1 11
REMARK H PARENT
REMARK Flexibility Score: inf
ROOT
ATOM      1  C   UNL     1      52.144  50.050   4.434  1.00  0.00     0.000 C 
ENDROOT
BRANCH   1   2
ATOM      2  C   UNL     1      51.241  48.975   3.811  1.00  0.00     0.006 C 
BRANCH   2   3
ATOM      3  C   UNL     1      49.981  49.565   3.163  1.00  0.00     0.053 C 
BRANCH   3   4
ATOM      4  C   UNL     1      48.940  49.839   4.201  1.00  0.00     0.041 C 
ATOM      5  O   UNL     1      48.152  50.813   4.068  1.00  0.00    -0.550 OA
ATOM      6  O   UNL     1      48.872  49.051   5.343  1.00  0.00    -0.550 OA
ENDBRANCH   3   4
ENDBRANCH   2   3
ENDBRANCH   1   2
BRANCH   1   7
ATOM      7  C   UNL     1      53.638  49.729   4.285  1.00  0.00     0.000 C 
BRANCH   7   8
ATOM      8  C   UNL     1      54.481  51.013   4.313  1.00  0.00    -0.000 C 
BRANCH   8   9
ATOM      9  C   UNL     1      53.781  52.166   5.049  1.00  0.00    -0.000 C 
BRANCH   9  10
ATOM     10  C   UNL     1      54.542  52.615   6.305  1.00  0.00    -0.003 C 
ATOM     11  C   UNL     1      54.301  51.654   7.466  1.00  0.00     0.004 C 
ENDBRANCH   9  10
ENDBRANCH   8   9
ENDBRANCH   7   8
ENDBRANCH   1   7
TORSDOF 7
ENDMDL
