MODEL 1
REMARK VINA RESULT:    -2.988      0.000      0.000
REMARK INTER + INTRA:          -3.344
REMARK INTER:                  -3.337
REMARK INTRA:                  -0.007
REMARK UNBOUND:                -0.007
REMARK SMILES CCCC(=O)[O-]
REMARK SMILES IDX 3 1 4 2 5 3 6 4 2 5 1 6
REMARK H PARENT
REMARK Flexibility Score: inf
ROOT
ATOM      1  C   UNL     1       0.109  48.232  23.022  1.00  0.00     0.052 C 
ENDROOT
BRANCH   1   2
ATOM      2  C   UNL     1      -0.337  46.887  23.504  1.00  0.00     0.041 C 
ATOM      3  O   UNL     1      -0.850  46.064  22.700  1.00  0.00    -0.550 OA
ATOM      4  O   UNL     1      -0.216  46.552  24.847  1.00  0.00    -0.550 OA
ENDBRANCH   1   2
BRANCH   1   5
ATOM      5  C   UNL     1       1.012  48.125  21.786  1.00  0.00     0.003 C 
ATOM      6  C   UNL     1       2.076  49.221  21.747  1.00  0.00     0.004 C 
ENDBRANCH   1   5
TORSDOF 2
ENDMDL
MODEL 2
REMARK VINA RESULT:    -2.979      1.139      1.861
REMARK INTER + INTRA:          -3.333
REMARK INTER:                  -3.302
REMARK INTRA:                  -0.031
REMARK UNBOUND:                -0.007
REMARK SMILES CCCC(=O)[O-]
REMARK SMILES IDX 3 1 4 2 5 3 6 4 2 5 1 6
REMARK H PARENT
REMARK Flexibility Score: inf
ROOT
ATOM      1  C   UNL     1       1.024  48.029  21.612  1.00  0.00     0.052 C 
ENDROOT
BRANCH   1   2
ATOM      2  C   UNL     1       0.163  47.743  22.803  1.00  0.00     0.041 C 
ATOM      3  O   UNL     1       0.156  48.532  23.785  1.00  0.00    -0.550 OA
ATOM      4  O   UNL     1      -0.608  46.588  22.845  1.00  0.00    -0.550 OA
ENDBRANCH   1   2
BRANCH   1   5
ATOM      5  C   UNL     1       2.068  49.112  21.912  1.00  0.00     0.003 C 
ATOM      6  C   UNL     1       1.706  50.458  21.283  1.00  0.00     0.004 C 
ENDBRANCH   1   5
TORSDOF 2
ENDMDL
MODEL 3
REMARK VINA RESULT:    -2.857      2.247      3.382
REMARK INTER + INTRA:          -3.198
REMARK INTER:                  -3.174
REMARK INTRA:                  -0.023
REMARK UNBOUND:                -0.007
REMARK SMILES CCCC(=O)[O-]
REMARK SMILES IDX 3 1 4 2 5 3 6 4 2 5 1 6
REMARK H PARENT
REMARK Flexibility Score: inf
ROOT
ATOM      1  C   UNL     1       0.001  48.308  23.232  1.00  0.00     0.052 C 
ENDROOT
BRANCH   1   2
ATOM      2  C   UNL     1       0.757  48.588  21.970  1.00  0.00     0.041 C 
ATOM      3  O   UNL     1       1.275  47.643  21.319  1.00  0.00    -0.550 OA
ATOM      4  O   UNL     1       0.918  49.896  21.530  1.00  0.00    -0.550 OA
ENDBRANCH   1   2
BRANCH   1   5
ATOM      5  C   UNL     1      -0.563  46.882  23.254  1.00  0.00     0.003 C 
ATOM      6  C   UNL     1      -0.431  46.226  24.628  1.00  0.00     0.004 C 
ENDBRANCH   1   5
TORSDOF 2
ENDMDL
MODEL 4
REMARK VINA RESULT:    -2.797     18.564     19.502
REMARK INTER + INTRA:          -3.130
REMARK INTER:                  -3.112
REMARK INTRA:                  -0.018
REMARK UNBOUND:                -0.007
REMARK SMILES CCCC(=O)[O-]
REMARK SMILES IDX 3 1 4 2 5 3 6 4 2 5 1 6
REMARK H PARENT
REMARK Flexibility Score: inf
ROOT
ATOM      1  C   UNL     1      -8.108  49.367  40.053  1.00  0.00     0.052 C 
ENDROOT
BRANCH   1   2
ATOM      2  C   UNL     1      -8.414  48.023  39.467  1.00  0.00     0.041 C 
ATOM      3  O   UNL     1      -8.003  46.976  40.034  1.00  0.00    -0.550 OA
ATOM      4  O   UNL     1      -9.125  47.927  38.278  1.00  0.00    -0.550 OA
ENDBRANCH   1   2
BRANCH   1   5
ATOM      5  C   UNL     1      -9.130  49.767  41.125  1.00  0.00     0.003 C 
ATOM      6  C   UNL     1      -9.851  51.070  40.782  1.00  0.00     0.004 C 
ENDBRANCH   1   5
TORSDOF 2
ENDMDL
MODEL 5
REMARK VINA RESULT:    -2.775      3.796      4.486
REMARK INTER + INTRA:          -3.106
REMARK INTER:                  -3.070
REMARK INTRA:                  -0.036
REMARK UNBOUND:                -0.007
REMARK SMILES CCCC(=O)[O-]
REMARK SMILES IDX 3 1 4 2 5 3 6 4 2 5 1 6
REMARK H PARENT
REMARK Flexibility Score: inf
ROOT
ATOM      1  C   UNL     1       2.028  50.408  21.327  1.00  0.00     0.052 C 
ENDROOT
BRANCH   1   2
ATOM      2  C   UNL     1       1.141  51.544  21.732  1.00  0.00     0.041 C 
ATOM      3  O   UNL     1       1.247  52.664  21.165  1.00  0.00    -0.550 OA
ATOM      4  O   UNL     1       0.220  51.377  22.758  1.00  0.00    -0.550 OA
ENDBRANCH   1   2
BRANCH   1   5
ATOM      5  C   UNL     1       1.837  49.185  22.233  1.00  0.00     0.003 C 
ATOM      6  C   UNL     1       1.198  48.009  21.494  1.00  0.00     0.004 C 
ENDBRANCH   1   5
TORSDOF 2
ENDMDL
MODEL 6
REMARK VINA RESULT:    -2.647     16.501     17.286
REMARK INTER + INTRA:          -2.963
REMARK INTER:                  -2.932
REMARK INTRA:                  -0.031
REMARK UNBOUND:                -0.007
REMARK SMILES CCCC(=O)[O-]
REMARK SMILES IDX 3 1 4 2 5 3 6 4 2 5 1 6
REMARK H PARENT
REMARK Flexibility Score: inf
ROOT
ATOM      1  C   UNL     1      -5.773  43.040  38.519  1.00  0.00     0.052 C 
ENDROOT
BRANCH   1   2
ATOM      2  C   UNL     1      -4.292  43.001  38.298  1.00  0.00     0.041 C 
ATOM      3  O   UNL     1      -3.710  43.967  37.737  1.00  0.00    -0.550 OA
ATOM      4  O   UNL     1      -3.559  41.885  38.681  1.00  0.00    -0.550 OA
ENDBRANCH   1   2
BRANCH   1   5
ATOM      5  C   UNL     1      -6.157  44.018  39.637  1.00  0.00     0.003 C 
ATOM      6  C   UNL     1      -6.631  45.365  39.093  1.00  0.00     0.004 C 
ENDBRANCH   1   5
TORSDOF 2
ENDMDL
MODEL 7
REMARK VINA RESULT:    -2.646      2.701      3.364
REMARK INTER + INTRA:          -2.962
REMARK INTER:                  -2.947
REMARK INTRA:                  -0.015
REMARK UNBOUND:                -0.007
REMARK SMILES CCCC(=O)[O-]
REMARK SMILES IDX 3 1 4 2 5 3 6 4 2 5 1 6
REMARK H PARENT
REMARK Flexibility Score: inf
ROOT
ATOM      1  C   UNL     1       1.716  50.344  21.242  1.00  0.00     0.052 C 
ENDROOT
BRANCH   1   2
ATOM      2  C   UNL     1       1.026  49.117  21.752  1.00  0.00     0.041 C 
ATOM      3  O   UNL     1       1.248  47.998  21.218  1.00  0.00    -0.550 OA
ATOM      4  O   UNL     1       0.113  49.213  22.794  1.00  0.00    -0.550 OA
ENDBRANCH   1   2
BRANCH   1   5
ATOM      5  C   UNL     1       1.446  51.562  22.134  1.00  0.00     0.003 C 
ATOM      6  C   UNL     1       1.375  52.863  21.335  1.00  0.00     0.004 C 
ENDBRANCH   1   5
TORSDOF 2
ENDMDL
MODEL 8
REMARK VINA RESULT:    -2.595     17.449     17.963
REMARK INTER + INTRA:          -2.905
REMARK INTER:                  -2.864
REMARK INTRA:                  -0.041
REMARK UNBOUND:                -0.007
REMARK SMILES CCCC(=O)[O-]
REMARK SMILES IDX 3 1 4 2 5 3 6 4 2 5 1 6
REMARK H PARENT
REMARK Flexibility Score: inf
ROOT
ATOM      1  C   UNL     1      -4.624  44.669  39.313  1.00  0.00     0.052 C 
ENDROOT
BRANCH   1   2
ATOM      2  C   UNL     1      -5.871  43.848  39.419  1.00  0.00     0.041 C 
ATOM      3  O   UNL     1      -6.074  42.897  38.617  1.00  0.00    -0.550 OA
ATOM      4  O   UNL     1      -6.827  44.152  40.380  1.00  0.00    -0.550 OA
ENDBRANCH   1   2
BRANCH   1   5
ATOM      5  C   UNL     1      -3.543  44.193  40.292  1.00  0.00     0.003 C 
ATOM      6  C   UNL     1      -2.664  43.094  39.697  1.00  0.00     0.004 C 
ENDBRANCH   1   5
TORSDOF 2
ENDMDL
MODEL 9
REMARK VINA RESULT:    -2.521      2.196      2.573
REMARK INTER + INTRA:          -2.822
REMARK INTER:                  -2.775
REMARK INTRA:                  -0.047
REMARK UNBOUND:                -0.007
REMARK SMILES CCCC(=O)[O-]
REMARK SMILES IDX 3 1 4 2 5 3 6 4 2 5 1 6
REMARK H PARENT
REMARK Flexibility Score: inf
ROOT
ATOM      1  C   UNL     1       0.445  49.625  22.979  1.00  0.00     0.052 C 
ENDROOT
BRANCH   1   2
ATOM      2  C   UNL     1       0.584  48.292  22.310  1.00  0.00     0.041 C 
ATOM      3  O   UNL     1       1.325  48.165  21.300  1.00  0.00    -0.550 OA
ATOM      4  O   UNL     1      -0.131  47.198  22.781  1.00  0.00    -0.550 OA
ENDBRANCH   1   2
BRANCH   1   5
ATOM      5  C   UNL     1       1.793  50.150  23.489  1.00  0.00     0.003 C 
ATOM      6  C   UNL     1       2.131  49.624  24.883  1.00  0.00     0.004 C 
ENDBRANCH   1   5
TORSDOF 2
ENDMDL
