MODEL 1
REMARK VINA RESULT:    -2.065      0.000      0.000
REMARK INTER + INTRA:          -2.065
REMARK INTER:                  -2.065
REMARK INTRA:                   0.000
REMARK UNBOUND:                 0.000
REMARK SMILES CC(=O)[O-]
REMARK SMILES IDX 1 1 2 2 3 3 4 4
REMARK H PARENT
REMARK Flexibility Score: inf
ROOT
ATOM      1  C   UNL     1     130.277 132.603 133.842  1.00  0.00     0.063 C 
ATOM      2  C   UNL     1     131.656 132.447 133.298  1.00  0.00     0.038 C 
ATOM      3  O   UNL     1     132.653 132.599 134.051  1.00  0.00    -0.550 OA
ATOM      4  O   UNL     1     131.846 132.185 131.948  1.00  0.00    -0.550 OA
ENDROOT
TORSDOF 0
ENDMDL
MODEL 2
REMARK VINA RESULT:    -2.032      1.414      2.107
REMARK INTER + INTRA:          -2.032
REMARK INTER:                  -2.032
REMARK INTRA:                   0.000
REMARK UNBOUND:                 0.000
REMARK SMILES CC(=O)[O-]
REMARK SMILES IDX 1 1 2 2 3 3 4 4
REMARK H PARENT
REMARK Flexibility Score: inf
ROOT
ATOM      1  C   UNL     1     132.701 132.844 134.125  1.00  0.00     0.063 C 
ATOM      2  C   UNL     1     131.481 132.494 133.342  1.00  0.00     0.038 C 
ATOM      3  O   UNL     1     131.584 132.124 132.144  1.00  0.00    -0.550 OA
ATOM      4  O   UNL     1     130.224 132.628 133.916  1.00  0.00    -0.550 OA
ENDROOT
TORSDOF 0
ENDMDL
MODEL 3
REMARK VINA RESULT:    -1.915     20.168     20.632
REMARK INTER + INTRA:          -1.915
REMARK INTER:                  -1.915
REMARK INTRA:                   0.000
REMARK UNBOUND:                 0.000
REMARK SMILES CC(=O)[O-]
REMARK SMILES IDX 1 1 2 2 3 3 4 4
REMARK H PARENT
REMARK Flexibility Score: inf
ROOT
ATOM      1  C   UNL     1     144.093 131.706 118.288  1.00  0.00     0.063 C 
ATOM      2  C   UNL     1     145.443 131.119 118.050  1.00  0.00     0.038 C 
ATOM      3  O   UNL     1     145.623 129.879 118.169  1.00  0.00    -0.550 OA
ATOM      4  O   UNL     1     146.518 131.945 117.749  1.00  0.00    -0.550 OA
ENDROOT
TORSDOF 0
ENDMDL
MODEL 4
REMARK VINA RESULT:    -1.903      7.984      8.619
REMARK INTER + INTRA:          -1.903
REMARK INTER:                  -1.903
REMARK INTRA:                   0.000
REMARK UNBOUND:                 0.000
REMARK SMILES CC(=O)[O-]
REMARK SMILES IDX 1 1 2 2 3 3 4 4
REMARK H PARENT
REMARK Flexibility Score: inf
ROOT
ATOM      1  C   UNL     1     127.102 133.256 126.848  1.00  0.00     0.063 C 
ATOM      2  C   UNL     1     127.880 133.991 125.810  1.00  0.00     0.038 C 
ATOM      3  O   UNL     1     127.560 133.898 124.596  1.00  0.00    -0.550 OA
ATOM      4  O   UNL     1     128.993 134.738 126.173  1.00  0.00    -0.550 OA
ENDROOT
TORSDOF 0
ENDMDL
MODEL 5
REMARK VINA RESULT:    -1.875     20.050     20.608
REMARK INTER + INTRA:          -1.875
REMARK INTER:                  -1.875
REMARK INTRA:                   0.000
REMARK UNBOUND:                 0.000
REMARK SMILES CC(=O)[O-]
REMARK SMILES IDX 1 1 2 2 3 3 4 4
REMARK H PARENT
REMARK Flexibility Score: inf
ROOT
ATOM      1  C   UNL     1     145.571 129.875 118.014  1.00  0.00     0.063 C 
ATOM      2  C   UNL     1     145.284 131.337 118.074  1.00  0.00     0.038 C 
ATOM      3  O   UNL     1     144.131 131.743 118.370  1.00  0.00    -0.550 OA
ATOM      4  O   UNL     1     146.275 132.254 117.750  1.00  0.00    -0.550 OA
ENDROOT
TORSDOF 0
ENDMDL
MODEL 6
REMARK VINA RESULT:    -1.829      6.706      6.906
REMARK INTER + INTRA:          -1.829
REMARK INTER:                  -1.829
REMARK INTRA:                   0.000
REMARK UNBOUND:                 0.000
REMARK SMILES CC(=O)[O-]
REMARK SMILES IDX 1 1 2 2 3 3 4 4
REMARK H PARENT
REMARK Flexibility Score: inf
ROOT
ATOM      1  C   UNL     1     132.238 137.596 130.456  1.00  0.00     0.063 C 
ATOM      2  C   UNL     1     131.100 138.114 129.644  1.00  0.00     0.038 C 
ATOM      3  O   UNL     1     130.276 138.917 130.151  1.00  0.00    -0.550 OA
ATOM      4  O   UNL     1     130.917 137.669 128.341  1.00  0.00    -0.550 OA
ENDROOT
TORSDOF 0
ENDMDL
MODEL 7
REMARK VINA RESULT:    -1.829      8.267      8.904
REMARK INTER + INTRA:          -1.829
REMARK INTER:                  -1.829
REMARK INTRA:                   0.000
REMARK UNBOUND:                 0.000
REMARK SMILES CC(=O)[O-]
REMARK SMILES IDX 1 1 2 2 3 3 4 4
REMARK H PARENT
REMARK Flexibility Score: inf
ROOT
ATOM      1  C   UNL     1     128.741 134.620 125.618  1.00  0.00     0.063 C 
ATOM      2  C   UNL     1     127.558 133.725 125.763  1.00  0.00     0.038 C 
ATOM      3  O   UNL     1     126.876 133.410 124.753  1.00  0.00    -0.550 OA
ATOM      4  O   UNL     1     127.172 133.278 127.020  1.00  0.00    -0.550 OA
ENDROOT
TORSDOF 0
ENDMDL
MODEL 8
REMARK VINA RESULT:    -1.814      9.859      9.973
REMARK INTER + INTRA:          -1.814
REMARK INTER:                  -1.814
REMARK INTRA:                   0.000
REMARK UNBOUND:                 0.000
REMARK SMILES CC(=O)[O-]
REMARK SMILES IDX 1 1 2 2 3 3 4 4
REMARK H PARENT
REMARK Flexibility Score: inf
ROOT
ATOM      1  C   UNL     1     132.336 141.175 131.197  1.00  0.00     0.063 C 
ATOM      2  C   UNL     1     133.623 141.927 131.149  1.00  0.00     0.038 C 
ATOM      3  O   UNL     1     133.652 143.103 130.704  1.00  0.00    -0.550 OA
ATOM      4  O   UNL     1     134.803 141.311 131.547  1.00  0.00    -0.550 OA
ENDROOT
TORSDOF 0
ENDMDL
MODEL 9
REMARK VINA RESULT:    -1.803      8.933      9.104
REMARK INTER + INTRA:          -1.803
REMARK INTER:                  -1.803
REMARK INTRA:                   0.000
REMARK UNBOUND:                 0.000
REMARK SMILES CC(=O)[O-]
REMARK SMILES IDX 1 1 2 2 3 3 4 4
REMARK H PARENT
REMARK Flexibility Score: inf
ROOT
ATOM      1  C   UNL     1     133.059 139.689 130.589  1.00  0.00     0.063 C 
ATOM      2  C   UNL     1     132.674 141.014 131.153  1.00  0.00     0.038 C 
ATOM      3  O   UNL     1     131.463 141.351 131.205  1.00  0.00    -0.550 OA
ATOM      4  O   UNL     1     133.655 141.903 131.573  1.00  0.00    -0.550 OA
ENDROOT
TORSDOF 0
ENDMDL
