MODEL 1
REMARK VINA RESULT:    -4.464      0.000      0.000
REMARK INTER + INTRA:          -5.169
REMARK INTER:                  -5.117
REMARK INTRA:                  -0.052
REMARK UNBOUND:                -0.052
REMARK SMILES COc1cc(C=O)ccc1O
REMARK SMILES IDX 3 1 10 2 9 3 8 4 5 5 4 6 2 7 1 8 11 9 6 11 7 12
REMARK H PARENT 11 10
REMARK Flexibility Score: inf
ROOT
ATOM      1  C   UNL     1       0.445  -9.509  11.710  1.00  0.00     0.161 A 
ATOM      2  C   UNL     1       1.571  -9.259  10.906  1.00  0.00     0.157 A 
ATOM      3  C   UNL     1       2.389  -8.157  11.169  1.00  0.00     0.051 A 
ATOM      4  C   UNL     1       2.098  -7.297  12.229  1.00  0.00     0.015 A 
ATOM      5  C   UNL     1       0.978  -7.531  13.043  1.00  0.00     0.018 A 
ATOM      6  C   UNL     1       0.157  -8.637  12.780  1.00  0.00     0.062 A 
ENDROOT
BRANCH   1   7
ATOM      7  O   UNL     1      -0.358 -10.625  11.422  1.00  0.00    -0.493 OA
ATOM      8  C   UNL     1      -1.512 -11.004  12.166  1.00  0.00     0.278 C 
ENDBRANCH   1   7
BRANCH   2   9
ATOM      9  O   UNL     1       1.895 -10.096   9.837  1.00  0.00    -0.504 OA
ATOM     10  H   UNL     1       2.186 -11.057   9.974  1.00  0.00     0.293 HD
ENDBRANCH   2   9
BRANCH   5  11
ATOM     11  C   UNL     1       0.654  -6.633  14.167  1.00  0.00     0.260 C 
ATOM     12  O   UNL     1       0.435  -5.407  13.979  1.00  0.00    -0.298 OA
ENDBRANCH   5  11
TORSDOF 3
ENDMDL
MODEL 2
REMARK VINA RESULT:    -4.454      1.235      3.063
REMARK INTER + INTRA:          -5.158
REMARK INTER:                  -5.100
REMARK INTRA:                  -0.058
REMARK UNBOUND:                -0.052
REMARK SMILES COc1cc(C=O)ccc1O
REMARK SMILES IDX 3 1 10 2 9 3 8 4 5 5 4 6 2 7 1 8 11 9 6 11 7 12
REMARK H PARENT 11 10
REMARK Flexibility Score: inf
ROOT
ATOM      1  C   UNL     1       2.509  -8.235  11.425  1.00  0.00     0.161 A 
ATOM      2  C   UNL     1       1.750  -9.319  10.949  1.00  0.00     0.157 A 
ATOM      3  C   UNL     1       0.463  -9.544  11.444  1.00  0.00     0.051 A 
ATOM      4  C   UNL     1      -0.081  -8.698  12.412  1.00  0.00     0.015 A 
ATOM      5  C   UNL     1       0.661  -7.610  12.898  1.00  0.00     0.018 A 
ATOM      6  C   UNL     1       1.954  -7.383  12.402  1.00  0.00     0.062 A 
ENDROOT
BRANCH   1   7
ATOM      7  O   UNL     1       3.799  -8.033  10.909  1.00  0.00    -0.493 OA
ATOM      8  C   UNL     1       4.346  -6.761  10.573  1.00  0.00     0.278 C 
ENDBRANCH   1   7
BRANCH   2   9
ATOM      9  O   UNL     1       2.260 -10.187   9.982  1.00  0.00    -0.504 OA
ATOM     10  H   UNL     1       1.788 -11.046   9.726  1.00  0.00     0.293 HD
ENDBRANCH   2   9
BRANCH   5  11
ATOM     11  C   UNL     1       0.103  -6.706  13.921  1.00  0.00     0.260 C 
ATOM     12  O   UNL     1       0.429  -5.490  13.963  1.00  0.00    -0.298 OA
ENDBRANCH   5  11
TORSDOF 3
ENDMDL
MODEL 3
REMARK VINA RESULT:    -4.418      2.354      3.444
REMARK INTER + INTRA:          -5.116
REMARK INTER:                  -5.043
REMARK INTRA:                  -0.073
REMARK UNBOUND:                -0.052
REMARK SMILES COc1cc(C=O)ccc1O
REMARK SMILES IDX 3 1 10 2 9 3 8 4 5 5 4 6 2 7 1 8 11 9 6 11 7 12
REMARK H PARENT 11 10
REMARK Flexibility Score: inf
ROOT
ATOM      1  C   UNL     1      -0.172  -6.663  13.704  1.00  0.00     0.161 A 
ATOM      2  C   UNL     1       0.083  -7.376  12.519  1.00  0.00     0.157 A 
ATOM      3  C   UNL     1       1.308  -8.026  12.342  1.00  0.00     0.051 A 
ATOM      4  C   UNL     1       2.286  -7.974  13.336  1.00  0.00     0.015 A 
ATOM      5  C   UNL     1       2.049  -7.268  14.526  1.00  0.00     0.018 A 
ATOM      6  C   UNL     1       0.820  -6.616  14.705  1.00  0.00     0.062 A 
ENDROOT
BRANCH   1   7
ATOM      7  O   UNL     1      -1.412  -6.021  13.854  1.00  0.00    -0.493 OA
ATOM      8  C   UNL     1      -2.545  -6.592  14.502  1.00  0.00     0.278 C 
ENDBRANCH   1   7
BRANCH   2   9
ATOM      9  O   UNL     1      -0.870  -7.450  11.503  1.00  0.00    -0.504 OA
ATOM     10  H   UNL     1      -0.616  -7.620  10.536  1.00  0.00     0.293 HD
ENDBRANCH   2   9
BRANCH   5  11
ATOM     11  C   UNL     1       3.071  -7.202  15.588  1.00  0.00     0.260 C 
ATOM     12  O   UNL     1       2.982  -6.367  16.527  1.00  0.00    -0.298 OA
ENDBRANCH   5  11
TORSDOF 3
ENDMDL
MODEL 4
REMARK VINA RESULT:    -4.391      2.275      3.111
REMARK INTER + INTRA:          -5.086
REMARK INTER:                  -5.013
REMARK INTRA:                  -0.073
REMARK UNBOUND:                -0.052
REMARK SMILES COc1cc(C=O)ccc1O
REMARK SMILES IDX 3 1 10 2 9 3 8 4 5 5 4 6 2 7 1 8 11 9 6 11 7 12
REMARK H PARENT 11 10
REMARK Flexibility Score: inf
ROOT
ATOM      1  C   UNL     1      -2.488  -8.612  12.638  1.00  0.00     0.161 A 
ATOM      2  C   UNL     1      -1.656  -9.721  12.401  1.00  0.00     0.157 A 
ATOM      3  C   UNL     1      -0.341  -9.723  12.874  1.00  0.00     0.051 A 
ATOM      4  C   UNL     1       0.157  -8.630  13.584  1.00  0.00     0.015 A 
ATOM      5  C   UNL     1      -0.659  -7.515  13.831  1.00  0.00     0.018 A 
ATOM      6  C   UNL     1      -1.979  -7.511  13.357  1.00  0.00     0.062 A 
ENDROOT
BRANCH   1   7
ATOM      7  O   UNL     1      -3.805  -8.637  12.151  1.00  0.00    -0.493 OA
ATOM      8  C   UNL     1      -4.945  -9.009  12.920  1.00  0.00     0.278 C 
ENDBRANCH   1   7
BRANCH   2   9
ATOM      9  O   UNL     1      -2.119 -10.831  11.695  1.00  0.00    -0.504 OA
ATOM     10  H   UNL     1      -2.017 -10.913  10.689  1.00  0.00     0.293 HD
ENDBRANCH   2   9
BRANCH   5  11
ATOM     11  C   UNL     1      -0.149  -6.351  14.580  1.00  0.00     0.260 C 
ATOM     12  O   UNL     1       0.430  -5.400  13.991  1.00  0.00    -0.298 OA
ENDBRANCH   5  11
TORSDOF 3
ENDMDL
MODEL 5
REMARK VINA RESULT:    -4.365      5.873      7.476
REMARK INTER + INTRA:          -5.055
REMARK INTER:                  -4.986
REMARK INTRA:                  -0.070
REMARK UNBOUND:                -0.052
REMARK SMILES COc1cc(C=O)ccc1O
REMARK SMILES IDX 3 1 10 2 9 3 8 4 5 5 4 6 2 7 1 8 11 9 6 11 7 12
REMARK H PARENT 11 10
REMARK Flexibility Score: inf
ROOT
ATOM      1  C   UNL     1      -4.815  -8.236  12.885  1.00  0.00     0.161 A 
ATOM      2  C   UNL     1      -4.820  -6.865  13.201  1.00  0.00     0.157 A 
ATOM      3  C   UNL     1      -5.858  -6.327  13.967  1.00  0.00     0.051 A 
ATOM      4  C   UNL     1      -6.895  -7.140  14.425  1.00  0.00     0.015 A 
ATOM      5  C   UNL     1      -6.907  -8.510  14.120  1.00  0.00     0.018 A 
ATOM      6  C   UNL     1      -5.866  -9.052  13.351  1.00  0.00     0.062 A 
ENDROOT
BRANCH   1   7
ATOM      7  O   UNL     1      -3.760  -8.749  12.115  1.00  0.00    -0.493 OA
ATOM      8  C   UNL     1      -2.798  -9.689  12.585  1.00  0.00     0.278 C 
ENDBRANCH   1   7
BRANCH   2   9
ATOM      9  O   UNL     1      -3.800  -6.020  12.762  1.00  0.00    -0.504 OA
ATOM     10  H   UNL     1      -3.066  -6.338  12.140  1.00  0.00     0.293 HD
ENDBRANCH   2   9
BRANCH   5  11
ATOM     11  C   UNL     1      -7.996  -9.385  14.594  1.00  0.00     0.260 C 
ATOM     12  O   UNL     1      -9.187  -9.197  14.232  1.00  0.00    -0.298 OA
ENDBRANCH   5  11
TORSDOF 3
ENDMDL
MODEL 6
REMARK VINA RESULT:    -4.354      3.414      4.746
REMARK INTER + INTRA:          -5.043
REMARK INTER:                  -4.972
REMARK INTRA:                  -0.071
REMARK UNBOUND:                -0.052
REMARK SMILES COc1cc(C=O)ccc1O
REMARK SMILES IDX 3 1 10 2 9 3 8 4 5 5 4 6 2 7 1 8 11 9 6 11 7 12
REMARK H PARENT 11 10
REMARK Flexibility Score: inf
ROOT
ATOM      1  C   UNL     1      -2.134  -7.469  12.918  1.00  0.00     0.161 A 
ATOM      2  C   UNL     1      -3.329  -8.209  12.858  1.00  0.00     0.157 A 
ATOM      3  C   UNL     1      -4.244  -8.149  13.913  1.00  0.00     0.051 A 
ATOM      4  C   UNL     1      -3.982  -7.358  15.033  1.00  0.00     0.015 A 
ATOM      5  C   UNL     1      -2.795  -6.613  15.110  1.00  0.00     0.018 A 
ATOM      6  C   UNL     1      -1.876  -6.672  14.052  1.00  0.00     0.062 A 
ENDROOT
BRANCH   1   7
ATOM      7  O   UNL     1      -1.234  -7.548  11.844  1.00  0.00    -0.493 OA
ATOM      8  C   UNL     1       0.075  -8.104  11.924  1.00  0.00     0.278 C 
ENDBRANCH   1   7
BRANCH   2   9
ATOM      9  O   UNL     1      -3.626  -9.011  11.756  1.00  0.00    -0.504 OA
ATOM     10  H   UNL     1      -3.347  -9.984  11.705  1.00  0.00     0.293 HD
ENDBRANCH   2   9
BRANCH   5  11
ATOM     11  C   UNL     1      -2.501  -5.771  16.286  1.00  0.00     0.260 C 
ATOM     12  O   UNL     1      -1.369  -5.240  16.440  1.00  0.00    -0.298 OA
ENDBRANCH   5  11
TORSDOF 3
ENDMDL
MODEL 7
REMARK VINA RESULT:    -4.336      2.784      4.778
REMARK INTER + INTRA:          -5.022
REMARK INTER:                  -4.970
REMARK INTRA:                  -0.052
REMARK UNBOUND:                -0.052
REMARK SMILES COc1cc(C=O)ccc1O
REMARK SMILES IDX 3 1 10 2 9 3 8 4 5 5 4 6 2 7 1 8 11 9 6 11 7 12
REMARK H PARENT 11 10
REMARK Flexibility Score: inf
ROOT
ATOM      1  C   UNL     1      -0.870  -6.438  14.561  1.00  0.00     0.161 A 
ATOM      2  C   UNL     1       0.403  -6.519  13.968  1.00  0.00     0.157 A 
ATOM      3  C   UNL     1       0.627  -7.403  12.909  1.00  0.00     0.051 A 
ATOM      4  C   UNL     1      -0.406  -8.210  12.430  1.00  0.00     0.015 A 
ATOM      5  C   UNL     1      -1.683  -8.143  13.009  1.00  0.00     0.018 A 
ATOM      6  C   UNL     1      -1.909  -7.256  14.072  1.00  0.00     0.062 A 
ENDROOT
BRANCH   1   7
ATOM      7  O   UNL     1      -1.066  -5.541  15.623  1.00  0.00    -0.493 OA
ATOM      8  C   UNL     1      -2.130  -5.625  16.567  1.00  0.00     0.278 C 
ENDBRANCH   1   7
BRANCH   2   9
ATOM      9  O   UNL     1       1.460  -5.728  14.419  1.00  0.00    -0.504 OA
ATOM     10  H   UNL     1       2.190  -5.398  13.798  1.00  0.00     0.293 HD
ENDBRANCH   2   9
BRANCH   5  11
ATOM     11  C   UNL     1      -2.786  -8.989  12.517  1.00  0.00     0.260 C 
ATOM     12  O   UNL     1      -3.863  -8.481  12.106  1.00  0.00    -0.298 OA
ENDBRANCH   5  11
TORSDOF 3
ENDMDL
MODEL 8
REMARK VINA RESULT:    -4.331      2.147      3.155
REMARK INTER + INTRA:          -5.017
REMARK INTER:                  -4.942
REMARK INTRA:                  -0.074
REMARK UNBOUND:                -0.052
REMARK SMILES COc1cc(C=O)ccc1O
REMARK SMILES IDX 3 1 10 2 9 3 8 4 5 5 4 6 2 7 1 8 11 9 6 11 7 12
REMARK H PARENT 11 10
REMARK Flexibility Score: inf
ROOT
ATOM      1  C   UNL     1       1.461  -7.813  12.227  1.00  0.00     0.161 A 
ATOM      2  C   UNL     1       0.140  -7.402  12.485  1.00  0.00     0.157 A 
ATOM      3  C   UNL     1      -0.205  -6.903  13.744  1.00  0.00     0.051 A 
ATOM      4  C   UNL     1       0.753  -6.807  14.754  1.00  0.00     0.015 A 
ATOM      5  C   UNL     1       2.076  -7.212  14.515  1.00  0.00     0.018 A 
ATOM      6  C   UNL     1       2.424  -7.713  13.252  1.00  0.00     0.062 A 
ENDROOT
BRANCH   1   7
ATOM      7  O   UNL     1       1.779  -8.309  10.953  1.00  0.00    -0.493 OA
ATOM      8  C   UNL     1       1.768  -9.688  10.597  1.00  0.00     0.278 C 
ENDBRANCH   1   7
BRANCH   2   9
ATOM      9  O   UNL     1      -0.845  -7.483  11.500  1.00  0.00    -0.504 OA
ATOM     10  H   UNL     1      -0.626  -7.433  10.512  1.00  0.00     0.293 HD
ENDBRANCH   2   9
BRANCH   5  11
ATOM     11  C   UNL     1       3.102  -7.118  15.571  1.00  0.00     0.260 C 
ATOM     12  O   UNL     1       2.946  -6.360  16.565  1.00  0.00    -0.298 OA
ENDBRANCH   5  11
TORSDOF 3
ENDMDL
MODEL 9
REMARK VINA RESULT:    -4.331      2.597      3.798
REMARK INTER + INTRA:          -5.016
REMARK INTER:                  -4.942
REMARK INTRA:                  -0.074
REMARK UNBOUND:                -0.052
REMARK SMILES COc1cc(C=O)ccc1O
REMARK SMILES IDX 3 1 10 2 9 3 8 4 5 5 4 6 2 7 1 8 11 9 6 11 7 12
REMARK H PARENT 11 10
REMARK Flexibility Score: inf
ROOT
ATOM      1  C   UNL     1      -2.065  -9.219  12.715  1.00  0.00     0.161 A 
ATOM      2  C   UNL     1      -3.356  -8.664  12.770  1.00  0.00     0.157 A 
ATOM      3  C   UNL     1      -3.560  -7.424  13.384  1.00  0.00     0.051 A 
ATOM      4  C   UNL     1      -2.488  -6.728  13.945  1.00  0.00     0.015 A 
ATOM      5  C   UNL     1      -1.192  -7.267  13.899  1.00  0.00     0.018 A 
ATOM      6  C   UNL     1      -0.987  -8.511  13.283  1.00  0.00     0.062 A 
ENDROOT
BRANCH   1   7
ATOM      7  O   UNL     1      -1.891 -10.466  12.092  1.00  0.00    -0.493 OA
ATOM      8  C   UNL     1      -1.838 -11.712  12.778  1.00  0.00     0.278 C 
ENDBRANCH   1   7
BRANCH   2   9
ATOM      9  O   UNL     1      -4.452  -9.329  12.221  1.00  0.00    -0.504 OA
ATOM     10  H   UNL     1      -4.529 -10.340  12.227  1.00  0.00     0.293 HD
ENDBRANCH   2   9
BRANCH   5  11
ATOM     11  C   UNL     1      -0.048  -6.546  14.487  1.00  0.00     0.260 C 
ATOM     12  O   UNL     1       0.357  -5.458  13.997  1.00  0.00    -0.298 OA
ENDBRANCH   5  11
TORSDOF 3
ENDMDL
