MODEL 1
REMARK VINA RESULT:    -1.828      0.000      0.000
REMARK INTER + INTRA:          -4.353
REMARK INTER:                  -3.218
REMARK INTRA:                  -1.135
REMARK UNBOUND:                -1.135
REMARK SMILES CCCCCCCCCCCCCCC(=O)[O-]
REMARK SMILES IDX 9 1 10 2 11 3 12 4 13 5 14 6 15 7 16 8 17 9 8 10 7 11 6 12
REMARK SMILES IDX 5 13 4 14 3 15 2 16 1 17
REMARK H PARENT
REMARK Flexibility Score: inf
ROOT
ATOM      1  C   UNL     1       4.277  -9.927   6.937  1.00  0.00     0.000 C 
ENDROOT
BRANCH   1   2
ATOM      2  C   UNL     1       4.074 -10.120   8.445  1.00  0.00     0.000 C 
BRANCH   2   3
ATOM      3  C   UNL     1       4.756  -8.997   9.240  1.00  0.00     0.000 C 
BRANCH   3   4
ATOM      4  C   UNL     1       6.225  -9.308   9.580  1.00  0.00     0.000 C 
BRANCH   4   5
ATOM      5  C   UNL     1       7.080  -8.084   9.955  1.00  0.00     0.006 C 
BRANCH   5   6
ATOM      6  C   UNL     1       8.127  -7.738   8.890  1.00  0.00     0.053 C 
BRANCH   6   7
ATOM      7  C   UNL     1       9.093  -8.867   8.720  1.00  0.00     0.041 C 
ATOM      8  O   UNL     1       9.146  -9.497   7.630  1.00  0.00    -0.550 OA
ATOM      9  O   UNL     1       9.972  -9.192   9.745  1.00  0.00    -0.550 OA
ENDBRANCH   6   7
ENDBRANCH   5   6
ENDBRANCH   4   5
ENDBRANCH   3   4
ENDBRANCH   2   3
ENDBRANCH   1   2
BRANCH   1  10
ATOM     10  C   UNL     1       5.754 -10.103   6.554  1.00  0.00     0.000 C 
BRANCH  10  11
ATOM     11  C   UNL     1       6.274  -8.985   5.631  1.00  0.00    -0.000 C 
BRANCH  11  12
ATOM     12  C   UNL     1       5.446  -7.688   5.644  1.00  0.00    -0.000 C 
BRANCH  12  13
ATOM     13  C   UNL     1       5.957  -6.660   6.669  1.00  0.00    -0.000 C 
BRANCH  13  14
ATOM     14  C   UNL     1       5.873  -5.216   6.147  1.00  0.00    -0.000 C 
BRANCH  14  15
ATOM     15  C   UNL     1       5.312  -5.133   4.716  1.00  0.00    -0.000 C 
BRANCH  15  16
ATOM     16  C   UNL     1       5.309  -3.697   4.168  1.00  0.00    -0.003 C 
ATOM     17  C   UNL     1       3.993  -3.329   3.486  1.00  0.00     0.004 C 
ENDBRANCH  15  16
ENDBRANCH  14  15
ENDBRANCH  13  14
ENDBRANCH  12  13
ENDBRANCH  11  12
ENDBRANCH  10  11
ENDBRANCH   1  10
TORSDOF 13
ENDMDL
MODEL 2
REMARK VINA RESULT:    -1.795      1.770      2.987
REMARK INTER + INTRA:          -4.294
REMARK INTER:                  -3.082
REMARK INTRA:                  -1.212
REMARK UNBOUND:                -1.135
REMARK SMILES CCCCCCCCCCCCCCC(=O)[O-]
REMARK SMILES IDX 9 1 10 2 11 3 12 4 13 5 14 6 15 7 16 8 17 9 8 10 7 11 6 12
REMARK SMILES IDX 5 13 4 14 3 15 2 16 1 17
REMARK H PARENT
REMARK Flexibility Score: inf
ROOT
ATOM      1  C   UNL     1       7.570 -10.087   6.444  1.00  0.00     0.000 C 
ENDROOT
BRANCH   1   2
ATOM      2  C   UNL     1       8.911  -9.508   5.975  1.00  0.00     0.000 C 
BRANCH   2   3
ATOM      3  C   UNL     1       9.769  -9.069   7.171  1.00  0.00     0.000 C 
BRANCH   3   4
ATOM      4  C   UNL     1       9.638 -10.011   8.382  1.00  0.00     0.000 C 
BRANCH   4   5
ATOM      5  C   UNL     1       9.177  -9.335   9.686  1.00  0.00     0.006 C 
BRANCH   5   6
ATOM      6  C   UNL     1       7.776  -9.777  10.125  1.00  0.00     0.053 C 
BRANCH   6   7
ATOM      7  C   UNL     1       6.760  -8.745   9.747  1.00  0.00     0.041 C 
ATOM      8  O   UNL     1       7.125  -7.580   9.438  1.00  0.00    -0.550 OA
ATOM      9  O   UNL     1       5.415  -9.084   9.685  1.00  0.00    -0.550 OA
ENDBRANCH   6   7
ENDBRANCH   5   6
ENDBRANCH   4   5
ENDBRANCH   3   4
ENDBRANCH   2   3
ENDBRANCH   1   2
BRANCH   1  10
ATOM     10  C   UNL     1       6.455  -9.782   5.433  1.00  0.00     0.000 C 
BRANCH  10  11
ATOM     11  C   UNL     1       5.044  -9.955   6.022  1.00  0.00    -0.000 C 
BRANCH  11  12
ATOM     12  C   UNL     1       4.278  -8.646   6.285  1.00  0.00    -0.000 C 
BRANCH  12  13
ATOM     13  C   UNL     1       4.925  -7.426   5.607  1.00  0.00    -0.000 C 
BRANCH  13  14
ATOM     14  C   UNL     1       5.669  -6.523   6.605  1.00  0.00    -0.000 C 
BRANCH  14  15
ATOM     15  C   UNL     1       5.920  -5.108   6.054  1.00  0.00    -0.000 C 
BRANCH  15  16
ATOM     16  C   UNL     1       5.414  -4.939   4.614  1.00  0.00    -0.003 C 
ATOM     17  C   UNL     1       5.044  -3.494   4.284  1.00  0.00     0.004 C 
ENDBRANCH  15  16
ENDBRANCH  14  15
ENDBRANCH  13  14
ENDBRANCH  12  13
ENDBRANCH  11  12
ENDBRANCH  10  11
ENDBRANCH   1  10
TORSDOF 13
ENDMDL
MODEL 3
REMARK VINA RESULT:    -1.684      2.969      5.737
REMARK INTER + INTRA:          -4.099
REMARK INTER:                  -2.226
REMARK INTRA:                  -1.873
REMARK UNBOUND:                -1.135
REMARK SMILES CCCCCCCCCCCCCCC(=O)[O-]
REMARK SMILES IDX 9 1 10 2 11 3 12 4 13 5 14 6 15 7 16 8 17 9 8 10 7 11 6 12
REMARK SMILES IDX 5 13 4 14 3 15 2 16 1 17
REMARK H PARENT
REMARK Flexibility Score: inf
ROOT
ATOM      1  C   UNL     1       4.013  -9.895   6.604  1.00  0.00     0.000 C 
ENDROOT
BRANCH   1   2
ATOM      2  C   UNL     1       5.540  -9.928   6.469  1.00  0.00     0.000 C 
BRANCH   2   3
ATOM      3  C   UNL     1       6.022  -8.907   5.428  1.00  0.00     0.000 C 
BRANCH   3   4
ATOM      4  C   UNL     1       6.083  -7.471   5.977  1.00  0.00     0.000 C 
BRANCH   4   5
ATOM      5  C   UNL     1       5.222  -6.445   5.218  1.00  0.00     0.006 C 
BRANCH   5   6
ATOM      6  C   UNL     1       5.540  -4.995   5.604  1.00  0.00     0.053 C 
BRANCH   6   7
ATOM      7  C   UNL     1       5.247  -4.074   4.462  1.00  0.00     0.041 C 
ATOM      8  O   UNL     1       6.179  -3.431   3.912  1.00  0.00    -0.550 OA
ATOM      9  O   UNL     1       3.952  -3.964   3.972  1.00  0.00    -0.550 OA
ENDBRANCH   6   7
ENDBRANCH   5   6
ENDBRANCH   4   5
ENDBRANCH   3   4
ENDBRANCH   2   3
ENDBRANCH   1   2
BRANCH   1  10
ATOM     10  C   UNL     1       3.592  -9.840   8.081  1.00  0.00     0.000 C 
BRANCH  10  11
ATOM     11  C   UNL     1       4.449  -8.871   8.915  1.00  0.00    -0.000 C 
BRANCH  11  12
ATOM     12  C   UNL     1       5.163  -9.502  10.124  1.00  0.00    -0.000 C 
BRANCH  12  13
ATOM     13  C   UNL     1       6.680  -9.249  10.125  1.00  0.00    -0.000 C 
BRANCH  13  14
ATOM     14  C   UNL     1       7.048  -7.876   9.539  1.00  0.00    -0.000 C 
BRANCH  14  15
ATOM     15  C   UNL     1       8.355  -7.908   8.725  1.00  0.00    -0.000 C 
BRANCH  15  16
ATOM     16  C   UNL     1       8.706  -9.320   8.231  1.00  0.00    -0.003 C 
ATOM     17  C   UNL     1       9.531  -9.307   6.946  1.00  0.00     0.004 C 
ENDBRANCH  15  16
ENDBRANCH  14  15
ENDBRANCH  13  14
ENDBRANCH  12  13
ENDBRANCH  11  12
ENDBRANCH  10  11
ENDBRANCH   1  10
TORSDOF 13
ENDMDL
MODEL 4
REMARK VINA RESULT:    -1.524      3.054      5.701
REMARK INTER + INTRA:          -3.817
REMARK INTER:                  -2.215
REMARK INTRA:                  -1.602
REMARK UNBOUND:                -1.135
REMARK SMILES CCCCCCCCCCCCCCC(=O)[O-]
REMARK SMILES IDX 9 1 10 2 11 3 12 4 13 5 14 6 15 7 16 8 17 9 8 10 7 11 6 12
REMARK SMILES IDX 5 13 4 14 3 15 2 16 1 17
REMARK H PARENT
REMARK Flexibility Score: inf
ROOT
ATOM      1  C   UNL     1       6.664 -10.036   6.607  1.00  0.00     0.000 C 
ENDROOT
BRANCH   1   2
ATOM      2  C   UNL     1       5.303  -9.943   5.904  1.00  0.00     0.000 C 
BRANCH   2   3
ATOM      3  C   UNL     1       4.518  -8.714   6.386  1.00  0.00     0.000 C 
BRANCH   3   4
ATOM      4  C   UNL     1       5.399  -7.463   6.546  1.00  0.00     0.000 C 
BRANCH   4   5
ATOM      5  C   UNL     1       5.425  -6.523   5.327  1.00  0.00     0.006 C 
BRANCH   5   6
ATOM      6  C   UNL     1       5.643  -5.054   5.710  1.00  0.00     0.053 C 
BRANCH   6   7
ATOM      7  C   UNL     1       5.322  -4.160   4.554  1.00  0.00     0.041 C 
ATOM      8  O   UNL     1       6.249  -3.618   3.896  1.00  0.00    -0.550 OA
ATOM      9  O   UNL     1       4.001  -3.967   4.169  1.00  0.00    -0.550 OA
ENDBRANCH   6   7
ENDBRANCH   5   6
ENDBRANCH   4   5
ENDBRANCH   3   4
ENDBRANCH   2   3
ENDBRANCH   1   2
BRANCH   1  10
ATOM     10  C   UNL     1       7.813  -9.966   5.590  1.00  0.00     0.000 C 
BRANCH  10  11
ATOM     11  C   UNL     1       9.176  -9.672   6.243  1.00  0.00    -0.000 C 
BRANCH  11  12
ATOM     12  C   UNL     1       9.215  -9.820   7.775  1.00  0.00    -0.000 C 
BRANCH  12  13
ATOM     13  C   UNL     1      10.067  -8.739   8.461  1.00  0.00    -0.000 C 
BRANCH  13  14
ATOM     14  C   UNL     1       9.274  -7.939   9.507  1.00  0.00    -0.000 C 
BRANCH  14  15
ATOM     15  C   UNL     1       7.856  -7.579   9.029  1.00  0.00    -0.000 C 
BRANCH  15  16
ATOM     16  C   UNL     1       6.789  -7.842  10.103  1.00  0.00    -0.003 C 
ATOM     17  C   UNL     1       6.277  -9.282  10.086  1.00  0.00     0.004 C 
ENDBRANCH  15  16
ENDBRANCH  14  15
ENDBRANCH  13  14
ENDBRANCH  12  13
ENDBRANCH  11  12
ENDBRANCH  10  11
ENDBRANCH   1  10
TORSDOF 13
ENDMDL
MODEL 5
REMARK VINA RESULT:    -1.121      2.469      3.522
REMARK INTER + INTRA:          -3.107
REMARK INTER:                  -2.003
REMARK INTRA:                  -1.104
REMARK UNBOUND:                -1.135
REMARK SMILES CCCCCCCCCCCCCCC(=O)[O-]
REMARK SMILES IDX 9 1 10 2 11 3 12 4 13 5 14 6 15 7 16 8 17 9 8 10 7 11 6 12
REMARK SMILES IDX 5 13 4 14 3 15 2 16 1 17
REMARK H PARENT
REMARK Flexibility Score: inf
ROOT
ATOM      1  C   UNL     1       8.167 -10.125   7.421  1.00  0.00     0.000 C 
ENDROOT
BRANCH   1   2
ATOM      2  C   UNL     1       8.362  -8.806   8.180  1.00  0.00     0.000 C 
BRANCH   2   3
ATOM      3  C   UNL     1       7.055  -8.359   8.851  1.00  0.00     0.000 C 
BRANCH   3   4
ATOM      4  C   UNL     1       6.664  -9.240  10.051  1.00  0.00     0.000 C 
BRANCH   4   5
ATOM      5  C   UNL     1       5.207  -9.736  10.047  1.00  0.00     0.006 C 
BRANCH   5   6
ATOM      6  C   UNL     1       4.259  -8.801   9.287  1.00  0.00     0.053 C 
BRANCH   6   7
ATOM      7  C   UNL     1       3.120  -9.574   8.701  1.00  0.00     0.041 C 
ATOM      8  O   UNL     1       2.039  -9.689   9.337  1.00  0.00    -0.550 OA
ATOM      9  O   UNL     1       3.233 -10.125   7.431  1.00  0.00    -0.550 OA
ENDBRANCH   6   7
ENDBRANCH   5   6
ENDBRANCH   4   5
ENDBRANCH   3   4
ENDBRANCH   2   3
ENDBRANCH   1   2
BRANCH   1  10
ATOM     10  C   UNL     1       6.946 -10.049   6.492  1.00  0.00     0.000 C 
BRANCH  10  11
ATOM     11  C   UNL     1       6.815  -8.691   5.780  1.00  0.00    -0.000 C 
BRANCH  11  12
ATOM     12  C   UNL     1       5.372  -8.226   5.517  1.00  0.00    -0.000 C 
BRANCH  12  13
ATOM     13  C   UNL     1       5.089  -6.813   6.057  1.00  0.00    -0.000 C 
BRANCH  13  14
ATOM     14  C   UNL     1       6.078  -5.767   5.518  1.00  0.00    -0.000 C 
BRANCH  14  15
ATOM     15  C   UNL     1       5.459  -4.362   5.411  1.00  0.00    -0.000 C 
BRANCH  15  16
ATOM     16  C   UNL     1       5.370  -3.867   3.959  1.00  0.00    -0.003 C 
ATOM     17  C   UNL     1       3.949  -3.475   3.556  1.00  0.00     0.004 C 
ENDBRANCH  15  16
ENDBRANCH  14  15
ENDBRANCH  13  14
ENDBRANCH  12  13
ENDBRANCH  11  12
ENDBRANCH  10  11
ENDBRANCH   1  10
TORSDOF 13
ENDMDL
MODEL 6
REMARK VINA RESULT:    -1.042      2.597      5.359
REMARK INTER + INTRA:          -2.969
REMARK INTER:                  -2.055
REMARK INTRA:                  -0.914
REMARK UNBOUND:                -1.135
REMARK SMILES CCCCCCCCCCCCCCC(=O)[O-]
REMARK SMILES IDX 9 1 10 2 11 3 12 4 13 5 14 6 15 7 16 8 17 9 8 10 7 11 6 12
REMARK SMILES IDX 5 13 4 14 3 15 2 16 1 17
REMARK H PARENT
REMARK Flexibility Score: inf
ROOT
ATOM      1  C   UNL     1       4.714  -9.776   6.940  1.00  0.00     0.000 C 
ENDROOT
BRANCH   1   2
ATOM      2  C   UNL     1       5.665  -9.773   5.737  1.00  0.00     0.000 C 
BRANCH   2   3
ATOM      3  C   UNL     1       6.353  -8.409   5.582  1.00  0.00     0.000 C 
BRANCH   3   4
ATOM      4  C   UNL     1       7.889  -8.504   5.609  1.00  0.00     0.000 C 
BRANCH   4   5
ATOM      5  C   UNL     1       8.474  -9.271   6.809  1.00  0.00     0.006 C 
BRANCH   5   6
ATOM      6  C   UNL     1       9.324  -8.384   7.727  1.00  0.00     0.053 C 
BRANCH   6   7
ATOM      7  C   UNL     1       8.999  -8.654   9.162  1.00  0.00     0.041 C 
ATOM      8  O   UNL     1       8.378  -7.795   9.843  1.00  0.00    -0.550 OA
ATOM      9  O   UNL     1       9.333  -9.874   9.734  1.00  0.00    -0.550 OA
ENDBRANCH   6   7
ENDBRANCH   5   6
ENDBRANCH   4   5
ENDBRANCH   3   4
ENDBRANCH   2   3
ENDBRANCH   1   2
BRANCH   1  10
ATOM     10  C   UNL     1       5.465 -10.124   8.234  1.00  0.00     0.000 C 
BRANCH  10  11
ATOM     11  C   UNL     1       5.113  -9.187   9.404  1.00  0.00    -0.000 C 
BRANCH  11  12
ATOM     12  C   UNL     1       3.625  -8.813   9.519  1.00  0.00    -0.000 C 
BRANCH  12  13
ATOM     13  C   UNL     1       2.723 -10.023   9.819  1.00  0.00    -0.000 C 
BRANCH  13  14
ATOM     14  C   UNL     1       1.510 -10.101   8.878  1.00  0.00    -0.000 C 
BRANCH  14  15
ATOM     15  C   UNL     1       0.169 -10.095   9.634  1.00  0.00    -0.000 C 
BRANCH  15  16
ATOM     16  C   UNL     1      -1.036  -9.941   8.693  1.00  0.00    -0.003 C 
ATOM     17  C   UNL     1      -2.372 -10.092   9.417  1.00  0.00     0.004 C 
ENDBRANCH  15  16
ENDBRANCH  14  15
ENDBRANCH  13  14
ENDBRANCH  12  13
ENDBRANCH  11  12
ENDBRANCH  10  11
ENDBRANCH   1  10
TORSDOF 13
ENDMDL
MODEL 7
REMARK VINA RESULT:    -1.028      2.716      4.947
REMARK INTER + INTRA:          -2.945
REMARK INTER:                  -3.037
REMARK INTRA:                   0.093
REMARK UNBOUND:                -1.135
REMARK SMILES CCCCCCCCCCCCCCC(=O)[O-]
REMARK SMILES IDX 9 1 10 2 11 3 12 4 13 5 14 6 15 7 16 8 17 9 8 10 7 11 6 12
REMARK SMILES IDX 5 13 4 14 3 15 2 16 1 17
REMARK H PARENT
REMARK Flexibility Score: inf
ROOT
ATOM      1  C   UNL     1       6.371  -9.885   5.526  1.00  0.00     0.000 C 
ENDROOT
BRANCH   1   2
ATOM      2  C   UNL     1       7.817  -9.717   5.043  1.00  0.00     0.000 C 
BRANCH   2   3
ATOM      3  C   UNL     1       8.812  -9.992   6.180  1.00  0.00     0.000 C 
BRANCH   3   4
ATOM      4  C   UNL     1       8.871  -8.854   7.215  1.00  0.00     0.000 C 
BRANCH   4   5
ATOM      5  C   UNL     1       9.915  -9.042   8.331  1.00  0.00     0.006 C 
BRANCH   5   6
ATOM      6  C   UNL     1       9.321  -9.648   9.609  1.00  0.00     0.053 C 
BRANCH   6   7
ATOM      7  C   UNL     1       7.935  -9.133   9.837  1.00  0.00     0.041 C 
ATOM      8  O   UNL     1       6.986  -9.936  10.039  1.00  0.00    -0.550 OA
ATOM      9  O   UNL     1       7.699  -7.765   9.876  1.00  0.00    -0.550 OA
ENDBRANCH   6   7
ENDBRANCH   5   6
ENDBRANCH   4   5
ENDBRANCH   3   4
ENDBRANCH   2   3
ENDBRANCH   1   2
BRANCH   1  10
ATOM     10  C   UNL     1       6.075  -8.956   6.712  1.00  0.00     0.000 C 
BRANCH  10  11
ATOM     11  C   UNL     1       4.696  -8.279   6.617  1.00  0.00    -0.000 C 
BRANCH  11  12
ATOM     12  C   UNL     1       3.537  -9.207   6.211  1.00  0.00    -0.000 C 
BRANCH  12  13
ATOM     13  C   UNL     1       3.049 -10.098   7.366  1.00  0.00    -0.000 C 
BRANCH  13  14
ATOM     14  C   UNL     1       3.627  -9.670   8.725  1.00  0.00    -0.000 C 
BRANCH  14  15
ATOM     15  C   UNL     1       2.757 -10.124   9.911  1.00  0.00    -0.000 C 
BRANCH  15  16
ATOM     16  C   UNL     1       1.483  -9.280  10.064  1.00  0.00    -0.003 C 
ATOM     17  C   UNL     1       0.210 -10.125  10.048  1.00  0.00     0.004 C 
ENDBRANCH  15  16
ENDBRANCH  14  15
ENDBRANCH  13  14
ENDBRANCH  12  13
ENDBRANCH  11  12
ENDBRANCH  10  11
ENDBRANCH   1  10
TORSDOF 13
ENDMDL
MODEL 8
REMARK VINA RESULT:    -1.005      3.495      5.280
REMARK INTER + INTRA:          -2.903
REMARK INTER:                  -2.320
REMARK INTRA:                  -0.583
REMARK UNBOUND:                -1.135
REMARK SMILES CCCCCCCCCCCCCCC(=O)[O-]
REMARK SMILES IDX 9 1 10 2 11 3 12 4 13 5 14 6 15 7 16 8 17 9 8 10 7 11 6 12
REMARK SMILES IDX 5 13 4 14 3 15 2 16 1 17
REMARK H PARENT
REMARK Flexibility Score: inf
ROOT
ATOM      1  C   UNL     1       7.373  -8.636   5.991  1.00  0.00     0.000 C 
ENDROOT
BRANCH   1   2
ATOM      2  C   UNL     1       5.909  -8.676   5.536  1.00  0.00     0.000 C 
BRANCH   2   3
ATOM      3  C   UNL     1       5.220  -9.964   6.010  1.00  0.00     0.000 C 
BRANCH   3   4
ATOM      4  C   UNL     1       4.409  -9.771   7.304  1.00  0.00     0.000 C 
BRANCH   4   5
ATOM      5  C   UNL     1       5.159 -10.123   8.601  1.00  0.00     0.006 C 
BRANCH   5   6
ATOM      6  C   UNL     1       4.310  -9.904   9.860  1.00  0.00     0.053 C 
BRANCH   6   7
ATOM      7  C   UNL     1       2.967  -9.354   9.496  1.00  0.00     0.041 C 
ATOM      8  O   UNL     1       2.595  -8.241   9.951  1.00  0.00    -0.550 OA
ATOM      9  O   UNL     1       2.148 -10.046   8.614  1.00  0.00    -0.550 OA
ENDBRANCH   6   7
ENDBRANCH   5   6
ENDBRANCH   4   5
ENDBRANCH   3   4
ENDBRANCH   2   3
ENDBRANCH   1   2
BRANCH   1  10
ATOM     10  C   UNL     1       8.131  -9.885   5.514  1.00  0.00     0.000 C 
BRANCH  10  11
ATOM     11  C   UNL     1       9.533 -10.012   6.137  1.00  0.00    -0.000 C 
BRANCH  11  12
ATOM     12  C   UNL     1      10.078  -8.730   6.792  1.00  0.00    -0.000 C 
BRANCH  12  13
ATOM     13  C   UNL     1      10.076  -8.794   8.329  1.00  0.00    -0.000 C 
BRANCH  13  14
ATOM     14  C   UNL     1       8.826  -9.492   8.888  1.00  0.00    -0.000 C 
BRANCH  14  15
ATOM     15  C   UNL     1       8.130  -8.672   9.990  1.00  0.00    -0.000 C 
BRANCH  15  16
ATOM     16  C   UNL     1       7.975  -7.191   9.612  1.00  0.00    -0.003 C 
ATOM     17  C   UNL     1       6.807  -6.944   8.658  1.00  0.00     0.004 C 
ENDBRANCH  15  16
ENDBRANCH  14  15
ENDBRANCH  13  14
ENDBRANCH  12  13
ENDBRANCH  11  12
ENDBRANCH  10  11
ENDBRANCH   1  10
TORSDOF 13
ENDMDL
MODEL 9
REMARK VINA RESULT:    -0.797      1.603      2.570
REMARK INTER + INTRA:          -2.537
REMARK INTER:                  -1.213
REMARK INTRA:                  -1.324
REMARK UNBOUND:                -1.135
REMARK SMILES CCCCCCCCCCCCCCC(=O)[O-]
REMARK SMILES IDX 9 1 10 2 11 3 12 4 13 5 14 6 15 7 16 8 17 9 8 10 7 11 6 12
REMARK SMILES IDX 5 13 4 14 3 15 2 16 1 17
REMARK H PARENT
REMARK Flexibility Score: inf
ROOT
ATOM      1  C   UNL     1       5.484 -10.117   6.089  1.00  0.00     0.000 C 
ENDROOT
BRANCH   1   2
ATOM      2  C   UNL     1       6.450  -9.955   4.909  1.00  0.00     0.000 C 
BRANCH   2   3
ATOM      3  C   UNL     1       7.821  -9.452   5.384  1.00  0.00     0.000 C 
BRANCH   3   4
ATOM      4  C   UNL     1       8.169  -9.915   6.810  1.00  0.00     0.000 C 
BRANCH   4   5
ATOM      5  C   UNL     1       9.213  -9.050   7.540  1.00  0.00     0.006 C 
BRANCH   5   6
ATOM      6  C   UNL     1       9.205  -9.259   9.059  1.00  0.00     0.053 C 
BRANCH   6   7
ATOM      7  C   UNL     1       7.848  -8.974   9.619  1.00  0.00     0.041 C 
ATOM      8  O   UNL     1       7.548  -7.808   9.989  1.00  0.00    -0.550 OA
ATOM      9  O   UNL     1       6.896  -9.983   9.685  1.00  0.00    -0.550 OA
ENDBRANCH   6   7
ENDBRANCH   5   6
ENDBRANCH   4   5
ENDBRANCH   3   4
ENDBRANCH   2   3
ENDBRANCH   1   2
BRANCH   1  10
ATOM     10  C   UNL     1       4.612  -8.865   6.262  1.00  0.00     0.000 C 
BRANCH  10  11
ATOM     11  C   UNL     1       5.111  -7.935   7.383  1.00  0.00    -0.000 C 
BRANCH  11  12
ATOM     12  C   UNL     1       5.937  -6.725   6.912  1.00  0.00    -0.000 C 
BRANCH  12  13
ATOM     13  C   UNL     1       5.575  -6.269   5.488  1.00  0.00    -0.000 C 
BRANCH  13  14
ATOM     14  C   UNL     1       5.174  -4.786   5.429  1.00  0.00    -0.000 C 
BRANCH  14  15
ATOM     15  C   UNL     1       5.858  -4.030   4.275  1.00  0.00    -0.000 C 
BRANCH  15  16
ATOM     16  C   UNL     1       4.853  -3.508   3.237  1.00  0.00    -0.003 C 
ATOM     17  C   UNL     1       3.411  -3.550   3.738  1.00  0.00     0.004 C 
ENDBRANCH  15  16
ENDBRANCH  14  15
ENDBRANCH  13  14
ENDBRANCH  12  13
ENDBRANCH  11  12
ENDBRANCH  10  11
ENDBRANCH   1  10
TORSDOF 13
ENDMDL
