MODEL 1
REMARK VINA RESULT:    -5.904      0.000      0.000
REMARK INTER + INTRA:          -6.726
REMARK INTER:                  -6.595
REMARK INTRA:                  -0.131
REMARK UNBOUND:                -0.131
REMARK SMILES O=C([O-])C=Cc1ccccc1
REMARK SMILES IDX 4 1 5 2 2 3 1 4 3 5 6 6 7 7 11 8 8 9 10 10 9 11
REMARK H PARENT
REMARK Flexibility Score: inf
ROOT
ATOM      1  C   UNL     1     -42.801 -39.493 104.515  1.00  0.00     0.025 C 
ATOM      2  C   UNL     1     -43.651 -38.469 104.675  1.00  0.00     0.010 C 
ENDROOT
BRANCH   1   3
ATOM      3  C   UNL     1     -43.078 -40.593 103.576  1.00  0.00     0.064 C 
ATOM      4  O   UNL     1     -42.338 -41.611 103.576  1.00  0.00    -0.545 OA
ATOM      5  O   UNL     1     -44.146 -40.528 102.688  1.00  0.00    -0.545 OA
ENDBRANCH   1   3
BRANCH   2   6
ATOM      6  C   UNL     1     -43.439 -37.324 105.603  1.00  0.00    -0.026 A 
ATOM      7  C   UNL     1     -42.163 -36.806 105.916  1.00  0.00     0.008 A 
ATOM      8  C   UNL     1     -44.570 -36.733 106.196  1.00  0.00     0.008 A 
ATOM      9  C   UNL     1     -42.035 -35.727 106.796  1.00  0.00     0.001 A 
ATOM     10  C   UNL     1     -44.433 -35.655 107.076  1.00  0.00     0.001 A 
ATOM     11  C   UNL     1     -43.167 -35.152 107.376  1.00  0.00     0.000 A 
ENDBRANCH   2   6
TORSDOF 2
ENDMDL
MODEL 2
REMARK VINA RESULT:    -5.885      0.518      1.812
REMARK INTER + INTRA:          -6.705
REMARK INTER:                  -6.572
REMARK INTRA:                  -0.132
REMARK UNBOUND:                -0.131
REMARK SMILES O=C([O-])C=Cc1ccccc1
REMARK SMILES IDX 4 1 5 2 2 3 1 4 3 5 6 6 7 7 11 8 8 9 10 10 9 11
REMARK H PARENT
REMARK Flexibility Score: inf
ROOT
ATOM      1  C   UNL     1     -43.855 -39.169 104.045  1.00  0.00     0.025 C 
ATOM      2  C   UNL     1     -42.934 -38.632 104.858  1.00  0.00     0.010 C 
ENDROOT
BRANCH   1   3
ATOM      3  C   UNL     1     -43.581 -40.381 103.255  1.00  0.00     0.064 C 
ATOM      4  O   UNL     1     -44.225 -40.590 102.195  1.00  0.00    -0.545 OA
ATOM      5  O   UNL     1     -42.618 -41.299 103.659  1.00  0.00    -0.545 OA
ENDBRANCH   1   3
BRANCH   2   6
ATOM      6  C   UNL     1     -43.139 -37.412 105.687  1.00  0.00    -0.026 A 
ATOM      7  C   UNL     1     -44.410 -36.852 105.941  1.00  0.00     0.008 A 
ATOM      8  C   UNL     1     -42.006 -36.788 106.241  1.00  0.00     0.008 A 
ATOM      9  C   UNL     1     -44.532 -35.703 106.730  1.00  0.00     0.001 A 
ATOM     10  C   UNL     1     -42.136 -35.640 107.027  1.00  0.00     0.001 A 
ATOM     11  C   UNL     1     -43.397 -35.097 107.272  1.00  0.00     0.000 A 
ENDBRANCH   2   6
TORSDOF 2
ENDMDL
MODEL 3
REMARK VINA RESULT:    -5.831      4.493      7.685
REMARK INTER + INTRA:          -6.644
REMARK INTER:                  -6.496
REMARK INTRA:                  -0.147
REMARK UNBOUND:                -0.131
REMARK SMILES O=C([O-])C=Cc1ccccc1
REMARK SMILES IDX 4 1 5 2 2 3 1 4 3 5 6 6 7 7 11 8 8 9 10 10 9 11
REMARK H PARENT
REMARK Flexibility Score: inf
ROOT
ATOM      1  C   UNL     1     -42.094 -41.804 103.459  1.00  0.00     0.025 C 
ATOM      2  C   UNL     1     -41.732 -42.760 102.592  1.00  0.00     0.010 C 
ENDROOT
BRANCH   1   3
ATOM      3  C   UNL     1     -43.071 -40.762 103.103  1.00  0.00     0.064 C 
ATOM      4  O   UNL     1     -43.440 -40.639 101.907  1.00  0.00    -0.545 OA
ATOM      5  O   UNL     1     -43.598 -39.911 104.069  1.00  0.00    -0.545 OA
ENDBRANCH   1   3
BRANCH   2   6
ATOM      6  C   UNL     1     -40.753 -43.844 102.880  1.00  0.00    -0.026 A 
ATOM      7  C   UNL     1     -40.150 -44.632 101.875  1.00  0.00     0.008 A 
ATOM      8  C   UNL     1     -40.416 -44.093 104.224  1.00  0.00     0.008 A 
ATOM      9  C   UNL     1     -39.236 -45.635 102.216  1.00  0.00     0.001 A 
ATOM     10  C   UNL     1     -39.503 -45.098 104.556  1.00  0.00     0.001 A 
ATOM     11  C   UNL     1     -38.913 -45.869 103.554  1.00  0.00     0.000 A 
ENDBRANCH   2   6
TORSDOF 2
ENDMDL
MODEL 4
REMARK VINA RESULT:    -5.587     14.091     14.427
REMARK INTER + INTRA:          -6.371
REMARK INTER:                  -6.223
REMARK INTRA:                  -0.148
REMARK UNBOUND:                -0.131
REMARK SMILES O=C([O-])C=Cc1ccccc1
REMARK SMILES IDX 4 1 5 2 2 3 1 4 3 5 6 6 7 7 11 8 8 9 10 10 9 11
REMARK H PARENT
REMARK Flexibility Score: inf
ROOT
ATOM      1  C   UNL     1     -33.061 -41.312 114.257  1.00  0.00     0.025 C 
ATOM      2  C   UNL     1     -32.499 -41.747 113.120  1.00  0.00     0.010 C 
ENDROOT
BRANCH   1   3
ATOM      3  C   UNL     1     -33.930 -42.177 115.073  1.00  0.00     0.064 C 
ATOM      4  O   UNL     1     -34.127 -43.368 114.722  1.00  0.00    -0.545 OA
ATOM      5  O   UNL     1     -34.536 -41.699 116.230  1.00  0.00    -0.545 OA
ENDBRANCH   1   3
BRANCH   2   6
ATOM      6  C   UNL     1     -31.612 -40.932 112.245  1.00  0.00    -0.026 A 
ATOM      7  C   UNL     1     -31.106 -41.393 111.009  1.00  0.00     0.008 A 
ATOM      8  C   UNL     1     -31.261 -39.639 112.675  1.00  0.00     0.008 A 
ATOM      9  C   UNL     1     -30.276 -40.575 110.235  1.00  0.00     0.001 A 
ATOM     10  C   UNL     1     -30.430 -38.828 111.896  1.00  0.00     0.001 A 
ATOM     11  C   UNL     1     -29.938 -39.295 110.677  1.00  0.00     0.000 A 
ENDBRANCH   2   6
TORSDOF 2
ENDMDL
MODEL 5
REMARK VINA RESULT:    -5.486      4.378      7.776
REMARK INTER + INTRA:          -6.259
REMARK INTER:                  -6.125
REMARK INTRA:                  -0.134
REMARK UNBOUND:                -0.131
REMARK SMILES O=C([O-])C=Cc1ccccc1
REMARK SMILES IDX 4 1 5 2 2 3 1 4 3 5 6 6 7 7 11 8 8 9 10 10 9 11
REMARK H PARENT
REMARK Flexibility Score: inf
ROOT
ATOM      1  C   UNL     1     -41.479 -41.793 104.819  1.00  0.00     0.025 C 
ATOM      2  C   UNL     1     -41.447 -42.499 103.680  1.00  0.00     0.010 C 
ENDROOT
BRANCH   1   3
ATOM      3  C   UNL     1     -42.329 -40.601 104.971  1.00  0.00     0.064 C 
ATOM      4  O   UNL     1     -43.409 -40.522 104.330  1.00  0.00    -0.545 OA
ATOM      5  O   UNL     1     -41.960 -39.558 105.813  1.00  0.00    -0.545 OA
ENDBRANCH   1   3
BRANCH   2   6
ATOM      6  C   UNL     1     -40.615 -43.713 103.453  1.00  0.00    -0.026 A 
ATOM      7  C   UNL     1     -39.897 -44.363 104.481  1.00  0.00     0.008 A 
ATOM      8  C   UNL     1     -40.545 -44.235 102.149  1.00  0.00     0.008 A 
ATOM      9  C   UNL     1     -39.133 -45.501 104.199  1.00  0.00     0.001 A 
ATOM     10  C   UNL     1     -39.779 -45.372 101.875  1.00  0.00     0.001 A 
ATOM     11  C   UNL     1     -39.074 -46.005 102.899  1.00  0.00     0.000 A 
ENDBRANCH   2   6
TORSDOF 2
ENDMDL
MODEL 6
REMARK VINA RESULT:    -5.448      1.430      2.248
REMARK INTER + INTRA:          -6.216
REMARK INTER:                  -6.085
REMARK INTRA:                  -0.131
REMARK UNBOUND:                -0.131
REMARK SMILES O=C([O-])C=Cc1ccccc1
REMARK SMILES IDX 4 1 5 2 2 3 1 4 3 5 6 6 7 7 11 8 8 9 10 10 9 11
REMARK H PARENT
REMARK Flexibility Score: inf
ROOT
ATOM      1  C   UNL     1     -41.869 -39.556 104.643  1.00  0.00     0.025 C 
ATOM      2  C   UNL     1     -41.613 -38.708 105.649  1.00  0.00     0.010 C 
ENDROOT
BRANCH   1   3
ATOM      3  C   UNL     1     -40.961 -40.667 104.314  1.00  0.00     0.064 C 
ATOM      4  O   UNL     1     -39.739 -40.437 104.129  1.00  0.00    -0.545 OA
ATOM      5  O   UNL     1     -41.432 -41.971 104.207  1.00  0.00    -0.545 OA
ENDBRANCH   1   3
BRANCH   2   6
ATOM      6  C   UNL     1     -42.483 -37.564 106.040  1.00  0.00    -0.026 A 
ATOM      7  C   UNL     1     -43.888 -37.575 105.900  1.00  0.00     0.008 A 
ATOM      8  C   UNL     1     -41.869 -36.416 106.574  1.00  0.00     0.008 A 
ATOM      9  C   UNL     1     -44.646 -36.465 106.287  1.00  0.00     0.001 A 
ATOM     10  C   UNL     1     -42.634 -35.311 106.958  1.00  0.00     0.001 A 
ATOM     11  C   UNL     1     -44.021 -35.334 106.815  1.00  0.00     0.000 A 
ENDBRANCH   2   6
TORSDOF 2
ENDMDL
MODEL 7
REMARK VINA RESULT:    -5.400      3.198      3.678
REMARK INTER + INTRA:          -6.163
REMARK INTER:                  -6.018
REMARK INTRA:                  -0.145
REMARK UNBOUND:                -0.131
REMARK SMILES O=C([O-])C=Cc1ccccc1
REMARK SMILES IDX 4 1 5 2 2 3 1 4 3 5 6 6 7 7 11 8 8 9 10 10 9 11
REMARK H PARENT
REMARK Flexibility Score: inf
ROOT
ATOM      1  C   UNL     1     -42.104 -41.758 104.340  1.00  0.00     0.025 C 
ATOM      2  C   UNL     1     -41.887 -41.397 105.613  1.00  0.00     0.010 C 
ENDROOT
BRANCH   1   3
ATOM      3  C   UNL     1     -41.112 -42.529 103.572  1.00  0.00     0.064 C 
ATOM      4  O   UNL     1     -41.423 -42.992 102.445  1.00  0.00    -0.545 OA
ATOM      5  O   UNL     1     -39.833 -42.752 104.070  1.00  0.00    -0.545 OA
ENDBRANCH   1   3
BRANCH   2   6
ATOM      6  C   UNL     1     -42.841 -40.620 106.452  1.00  0.00    -0.026 A 
ATOM      7  C   UNL     1     -42.466 -39.957 107.641  1.00  0.00     0.008 A 
ATOM      8  C   UNL     1     -44.183 -40.547 106.034  1.00  0.00     0.008 A 
ATOM      9  C   UNL     1     -43.415 -39.244 108.382  1.00  0.00     0.001 A 
ATOM     10  C   UNL     1     -45.125 -39.833 106.781  1.00  0.00     0.001 A 
ATOM     11  C   UNL     1     -44.742 -39.182 107.953  1.00  0.00     0.000 A 
ENDBRANCH   2   6
TORSDOF 2
ENDMDL
MODEL 8
REMARK VINA RESULT:    -5.391      1.823      2.215
REMARK INTER + INTRA:          -6.153
REMARK INTER:                  -6.009
REMARK INTRA:                  -0.144
REMARK UNBOUND:                -0.131
REMARK SMILES O=C([O-])C=Cc1ccccc1
REMARK SMILES IDX 4 1 5 2 2 3 1 4 3 5 6 6 7 7 11 8 8 9 10 10 9 11
REMARK H PARENT
REMARK Flexibility Score: inf
ROOT
ATOM      1  C   UNL     1     -43.854 -40.373 103.964  1.00  0.00     0.025 C 
ATOM      2  C   UNL     1     -43.928 -39.105 104.391  1.00  0.00     0.010 C 
ENDROOT
BRANCH   1   3
ATOM      3  C   UNL     1     -43.867 -40.713 102.532  1.00  0.00     0.064 C 
ATOM      4  O   UNL     1     -42.794 -40.678 101.876  1.00  0.00    -0.545 OA
ATOM      5  O   UNL     1     -45.046 -41.073 101.889  1.00  0.00    -0.545 OA
ENDBRANCH   1   3
BRANCH   2   6
ATOM      6  C   UNL     1     -43.921 -38.686 105.820  1.00  0.00    -0.026 A 
ATOM      7  C   UNL     1     -43.653 -37.364 106.239  1.00  0.00     0.008 A 
ATOM      8  C   UNL     1     -44.193 -39.660 106.798  1.00  0.00     0.008 A 
ATOM      9  C   UNL     1     -43.662 -37.038 107.600  1.00  0.00     0.001 A 
ATOM     10  C   UNL     1     -44.199 -39.327 108.156  1.00  0.00     0.001 A 
ATOM     11  C   UNL     1     -43.934 -38.018 108.557  1.00  0.00     0.000 A 
ENDBRANCH   2   6
TORSDOF 2
ENDMDL
