MODEL 1
REMARK VINA RESULT:    -3.713      0.000      0.000
REMARK INTER + INTRA:          -5.719
REMARK INTER:                  -5.667
REMARK INTRA:                  -0.052
REMARK UNBOUND:                -0.052
REMARK SMILES CC1=CCC[C@@H](C)C(=O)C[C@H](C(C)C)C(=O)C1
REMARK SMILES IDX 8 1 9 2 6 3 7 4 5 5 4 6 3 7 2 8 1 9 10 11 11 12 15 13 16 14
REMARK SMILES IDX 17 15 12 17 13 18 14 19
REMARK H PARENT
REMARK Flexibility Score: 70.00
ROOT
ATOM      1  C   UNL     1     -14.629  -3.702   7.182  1.00  0.00     0.136 C 
ATOM      2  O   UNL     1     -14.243  -3.158   8.205  1.00  0.00    -0.299 OA
ENDROOT
BRANCH   1   3
ATOM      3  C   UNL     1     -15.456  -5.006   7.275  1.00  0.00     0.053 C 
ATOM      4  C   UNL     1     -16.809  -4.766   7.955  1.00  0.00     0.016 C 
BRANCH   3   5
ATOM      5  C   UNL     1     -14.691  -6.188   7.967  1.00  0.00     0.015 C 
BRANCH   5   6
ATOM      6  C   UNL     1     -13.498  -6.510   7.096  1.00  0.00     0.028 C 
BRANCH   6   7
ATOM      7  C   UNL     1     -13.506  -7.333   5.869  1.00  0.00    -0.028 C 
ATOM      8  C   UNL     1     -12.830  -6.848   4.791  1.00  0.00    -0.070 CG0
ATOM      9  C   UNL     1     -12.964  -7.584   3.484  1.00  0.00     0.039 C 
ATOM     10  G   UNL     1     -11.831  -5.665   4.891  1.00  0.00     0.000 G0
ENDBRANCH   6   7
ENDBRANCH   5   6
ENDBRANCH   3   5
ENDBRANCH   1   3
BRANCH   1  11
ATOM     11  C   UNL     1     -14.220  -3.100   5.830  1.00  0.00     0.087 C 
BRANCH  11  12
ATOM     12  C   UNL     1     -12.668  -3.184   5.513  1.00  0.00     0.066 C 
BRANCH  12  13
ATOM     13  C   UNL     1     -12.341  -4.283   4.473  1.00  0.00     0.140 C 
ATOM     14  O   UNL     1     -12.472  -4.038   3.283  1.00  0.00    -0.299 OA
BRANCH  13  15
ATOM     15  C   UNL     1     -11.812  -5.665   4.883  1.00  0.00     0.106 CG0
ATOM     16  G   UNL     1     -12.809  -6.849   4.778  1.00  0.00     0.000 G0
ENDBRANCH  13  15
ENDBRANCH  12  13
BRANCH  12  17
ATOM     17  C   UNL     1     -12.102  -1.800   5.056  1.00  0.00    -0.006 C 
ATOM     18  C   UNL     1     -10.587  -1.673   5.303  1.00  0.00     0.008 C 
ATOM     19  C   UNL     1     -12.808  -0.638   5.784  1.00  0.00     0.008 C 
ENDBRANCH  12  17
ENDBRANCH  11  12
ENDBRANCH   1  11
TORSDOF 1
ENDMDL
MODEL 2
REMARK VINA RESULT:    -3.532      3.239      5.892
REMARK INTER + INTRA:          -5.443
REMARK INTER:                  -5.540
REMARK INTRA:                   0.097
REMARK UNBOUND:                -0.052
REMARK SMILES CC1=CCC[C@@H](C)C(=O)C[C@H](C(C)C)C(=O)C1
REMARK SMILES IDX 8 1 9 2 6 3 7 4 5 5 4 6 3 7 2 8 1 9 10 11 11 12 15 13 16 14
REMARK SMILES IDX 17 15 12 17 13 18 14 19
REMARK H PARENT
REMARK Flexibility Score: 70.00
ROOT
ATOM      1  C   UNL     1     -14.204  -3.543   6.749  1.00  0.00     0.136 C 
ATOM      2  O   UNL     1     -14.057  -3.195   7.911  1.00  0.00    -0.299 OA
ENDROOT
BRANCH   1   3
ATOM      3  C   UNL     1     -13.450  -2.793   5.627  1.00  0.00     0.053 C 
ATOM      4  C   UNL     1     -13.197  -1.328   6.001  1.00  0.00     0.016 C 
BRANCH   3   5
ATOM      5  C   UNL     1     -14.147  -2.892   4.225  1.00  0.00     0.015 C 
BRANCH   5   6
ATOM      6  C   UNL     1     -15.292  -1.905   4.231  1.00  0.00     0.028 C 
BRANCH   6   7
ATOM      7  C   UNL     1     -16.548  -2.016   3.462  1.00  0.00    -0.028 C 
ATOM      8  C   UNL     1     -17.639  -2.497   4.120  1.00  0.00    -0.070 CG0
ATOM      9  C   UNL     1     -18.882  -2.776   3.317  1.00  0.00     0.039 C 
ATOM     10  G   UNL     1     -17.693  -2.633   5.665  1.00  0.00     0.000 G0
ENDBRANCH   6   7
ENDBRANCH   5   6
ENDBRANCH   3   5
ENDBRANCH   1   3
BRANCH   1  11
ATOM     11  C   UNL     1     -15.188  -4.680   6.441  1.00  0.00     0.087 C 
BRANCH  11  12
ATOM     12  C   UNL     1     -16.582  -4.568   7.189  1.00  0.00     0.066 C 
BRANCH  12  13
ATOM     13  C   UNL     1     -17.710  -4.067   6.254  1.00  0.00     0.140 C 
ATOM     14  O   UNL     1     -18.641  -4.813   5.988  1.00  0.00    -0.299 OA
BRANCH  13  15
ATOM     15  C   UNL     1     -17.724  -2.642   5.682  1.00  0.00     0.106 CG0
ATOM     16  G   UNL     1     -17.635  -2.512   4.139  1.00  0.00     0.000 G0
ENDBRANCH  13  15
ENDBRANCH  12  13
BRANCH  12  17
ATOM     17  C   UNL     1     -16.978  -5.921   7.864  1.00  0.00    -0.006 C 
ATOM     18  C   UNL     1     -17.800  -5.717   9.152  1.00  0.00     0.008 C 
ATOM     19  C   UNL     1     -15.733  -6.759   8.214  1.00  0.00     0.008 C 
ENDBRANCH  12  17
ENDBRANCH  11  12
ENDBRANCH   1  11
TORSDOF 1
ENDMDL
MODEL 3
REMARK VINA RESULT:    -3.428     18.193     20.660
REMARK INTER + INTRA:          -5.283
REMARK INTER:                  -5.403
REMARK INTRA:                   0.120
REMARK UNBOUND:                -0.052
REMARK SMILES CC1=CCC[C@@H](C)C(=O)C[C@H](C(C)C)C(=O)C1
REMARK SMILES IDX 8 1 9 2 6 3 7 4 5 5 4 6 3 7 2 8 1 9 10 11 11 12 15 13 16 14
REMARK SMILES IDX 17 15 12 17 13 18 14 19
REMARK H PARENT
REMARK Flexibility Score: 70.00
ROOT
ATOM      1  C   UNL     1       0.009   4.307  16.577  1.00  0.00     0.136 C 
ATOM      2  O   UNL     1      -0.424   3.559  15.712  1.00  0.00    -0.299 OA
ENDROOT
BRANCH   1   3
ATOM      3  C   UNL     1       0.431   3.727  17.947  1.00  0.00     0.053 C 
ATOM      4  C   UNL     1      -0.654   2.813  18.528  1.00  0.00     0.016 C 
BRANCH   3   5
ATOM      5  C   UNL     1       0.850   4.821  18.991  1.00  0.00     0.015 C 
BRANCH   5   6
ATOM      6  C   UNL     1      -0.406   5.239  19.720  1.00  0.00     0.028 C 
BRANCH   6   7
ATOM      7  C   UNL     1      -0.648   6.542  20.372  1.00  0.00    -0.028 C 
ATOM      8  C   UNL     1      -1.409   7.445  19.693  1.00  0.00    -0.070 CG0
ATOM      9  C   UNL     1      -1.529   8.835  20.260  1.00  0.00     0.039 C 
ATOM     10  G   UNL     1      -2.258   7.061  18.453  1.00  0.00     0.000 G0
ENDBRANCH   6   7
ENDBRANCH   5   6
ENDBRANCH   3   5
ENDBRANCH   1   3
BRANCH   1  11
ATOM     11  C   UNL     1       0.056   5.815  16.288  1.00  0.00     0.087 C 
BRANCH  11  12
ATOM     12  C   UNL     1      -1.355   6.474  15.991  1.00  0.00     0.066 C 
BRANCH  12  13
ATOM     13  C   UNL     1      -1.760   7.504  17.074  1.00  0.00     0.140 C 
ATOM     14  O   UNL     1      -1.699   8.697  16.817  1.00  0.00    -0.299 OA
BRANCH  13  15
ATOM     15  C   UNL     1      -2.283   7.076  18.453  1.00  0.00     0.106 CG0
ATOM     16  G   UNL     1      -1.398   7.438  19.674  1.00  0.00     0.000 G0
ENDBRANCH  13  15
ENDBRANCH  12  13
BRANCH  12  17
ATOM     17  C   UNL     1      -1.395   7.119  14.567  1.00  0.00    -0.006 C 
ATOM     18  C   UNL     1      -1.831   6.118  13.480  1.00  0.00     0.008 C 
ATOM     19  C   UNL     1      -0.020   7.693  14.172  1.00  0.00     0.008 C 
ENDBRANCH  12  17
ENDBRANCH  11  12
ENDBRANCH   1  11
TORSDOF 1
ENDMDL
MODEL 4
REMARK VINA RESULT:    -3.427      2.131      2.255
REMARK INTER + INTRA:          -5.282
REMARK INTER:                  -5.102
REMARK INTRA:                  -0.180
REMARK UNBOUND:                -0.052
REMARK SMILES CC1=CCC[C@@H](C)C(=O)C[C@H](C(C)C)C(=O)C1
REMARK SMILES IDX 8 1 9 2 6 3 7 4 5 5 4 6 3 7 2 8 1 9 10 11 11 12 15 13 16 14
REMARK SMILES IDX 17 15 12 17 13 18 14 19
REMARK H PARENT
REMARK Flexibility Score: 70.00
ROOT
ATOM      1  C   UNL     1     -14.586  -3.264   7.159  1.00  0.00     0.136 C 
ATOM      2  O   UNL     1     -13.918  -3.021   8.153  1.00  0.00    -0.299 OA
ENDROOT
BRANCH   1   3
ATOM      3  C   UNL     1     -15.346  -4.608   7.061  1.00  0.00     0.053 C 
ATOM      4  C   UNL     1     -16.314  -4.793   8.235  1.00  0.00     0.016 C 
BRANCH   3   5
ATOM      5  C   UNL     1     -14.404  -5.854   6.918  1.00  0.00     0.015 C 
BRANCH   5   6
ATOM      6  C   UNL     1     -14.462  -6.286   5.470  1.00  0.00     0.028 C 
BRANCH   6   7
ATOM      7  C   UNL     1     -15.614  -6.138   4.557  1.00  0.00    -0.028 C 
ATOM      8  C   UNL     1     -15.526  -5.176   3.597  1.00  0.00    -0.070 CG0
ATOM      9  C   UNL     1     -16.750  -4.895   2.766  1.00  0.00     0.039 C 
ATOM     10  G   UNL     1     -14.192  -4.470   3.238  1.00  0.00     0.000 G0
ENDBRANCH   6   7
ENDBRANCH   5   6
ENDBRANCH   3   5
ENDBRANCH   1   3
BRANCH   1  11
ATOM     11  C   UNL     1     -14.593  -2.246   6.010  1.00  0.00     0.087 C 
BRANCH  11  12
ATOM     12  C   UNL     1     -13.475  -2.484   4.910  1.00  0.00     0.066 C 
BRANCH  12  13
ATOM     13  C   UNL     1     -14.070  -2.965   3.565  1.00  0.00     0.140 C 
ATOM     14  O   UNL     1     -14.426  -2.137   2.739  1.00  0.00    -0.299 OA
BRANCH  13  15
ATOM     15  C   UNL     1     -14.189  -4.454   3.209  1.00  0.00     0.106 CG0
ATOM     16  G   UNL     1     -15.516  -5.157   3.597  1.00  0.00     0.000 G0
ENDBRANCH  13  15
ENDBRANCH  12  13
BRANCH  12  17
ATOM     17  C   UNL     1     -12.595  -1.209   4.706  1.00  0.00    -0.006 C 
ATOM     18  C   UNL     1     -11.202  -1.540   4.136  1.00  0.00     0.008 C 
ATOM     19  C   UNL     1     -12.404  -0.440   6.029  1.00  0.00     0.008 C 
ENDBRANCH  12  17
ENDBRANCH  11  12
ENDBRANCH   1  11
TORSDOF 1
ENDMDL
MODEL 5
REMARK VINA RESULT:    -3.312      3.218      4.120
REMARK INTER + INTRA:          -5.107
REMARK INTER:                  -5.061
REMARK INTRA:                  -0.046
REMARK UNBOUND:                -0.052
REMARK SMILES CC1=CCC[C@@H](C)C(=O)C[C@H](C(C)C)C(=O)C1
REMARK SMILES IDX 8 1 9 2 6 3 7 4 5 5 4 6 3 7 2 8 1 9 10 11 11 12 15 13 16 14
REMARK SMILES IDX 17 15 12 17 13 18 14 19
REMARK H PARENT
REMARK Flexibility Score: 70.00
ROOT
ATOM      1  C   UNL     1     -14.814  -3.475   6.807  1.00  0.00     0.136 C 
ATOM      2  O   UNL     1     -14.033  -4.132   7.479  1.00  0.00    -0.299 OA
ENDROOT
BRANCH   1   3
ATOM      3  C   UNL     1     -16.164  -4.096   6.380  1.00  0.00     0.053 C 
ATOM      4  C   UNL     1     -16.957  -4.602   7.591  1.00  0.00     0.016 C 
BRANCH   3   5
ATOM      5  C   UNL     1     -16.025  -5.225   5.299  1.00  0.00     0.015 C 
BRANCH   5   6
ATOM      6  C   UNL     1     -16.193  -4.565   3.949  1.00  0.00     0.028 C 
BRANCH   6   7
ATOM      7  C   UNL     1     -17.327  -3.719   3.524  1.00  0.00    -0.028 C 
ATOM      8  C   UNL     1     -17.038  -2.451   3.120  1.00  0.00    -0.070 CG0
ATOM      9  C   UNL     1     -18.189  -1.520   2.843  1.00  0.00     0.039 C 
ATOM     10  G   UNL     1     -15.594  -1.980   2.805  1.00  0.00     0.000 G0
ENDBRANCH   6   7
ENDBRANCH   5   6
ENDBRANCH   3   5
ENDBRANCH   1   3
BRANCH   1  11
ATOM     11  C   UNL     1     -14.392  -2.069   6.353  1.00  0.00     0.087 C 
BRANCH  11  12
ATOM     12  C   UNL     1     -13.858  -1.990   4.862  1.00  0.00     0.066 C 
BRANCH  12  13
ATOM     13  C   UNL     1     -14.840  -1.244   3.927  1.00  0.00     0.140 C 
ATOM     14  O   UNL     1     -14.996  -0.039   4.062  1.00  0.00    -0.299 OA
BRANCH  13  15
ATOM     15  C   UNL     1     -15.598  -1.959   2.800  1.00  0.00     0.106 CG0
ATOM     16  G   UNL     1     -17.033  -2.447   3.128  1.00  0.00     0.000 G0
ENDBRANCH  13  15
ENDBRANCH  12  13
BRANCH  12  17
ATOM     17  C   UNL     1     -12.434  -1.347   4.800  1.00  0.00    -0.006 C 
ATOM     18  C   UNL     1     -11.319  -2.401   4.654  1.00  0.00     0.008 C 
ATOM     19  C   UNL     1     -12.142  -0.507   6.059  1.00  0.00     0.008 C 
ENDBRANCH  12  17
ENDBRANCH  11  12
ENDBRANCH   1  11
TORSDOF 1
ENDMDL
MODEL 6
REMARK VINA RESULT:    -3.291     12.878     14.805
REMARK INTER + INTRA:          -5.075
REMARK INTER:                  -4.959
REMARK INTRA:                  -0.116
REMARK UNBOUND:                -0.052
REMARK SMILES CC1=CCC[C@@H](C)C(=O)C[C@H](C(C)C)C(=O)C1
REMARK SMILES IDX 8 1 9 2 6 3 7 4 5 5 4 6 3 7 2 8 1 9 10 11 11 12 15 13 16 14
REMARK SMILES IDX 17 15 12 17 13 18 14 19
REMARK H PARENT
REMARK Flexibility Score: 70.00
ROOT
ATOM      1  C   UNL     1      -4.482   7.615  11.071  1.00  0.00     0.136 C 
ATOM      2  O   UNL     1      -4.337   8.437  11.964  1.00  0.00    -0.299 OA
ENDROOT
BRANCH   1   3
ATOM      3  C   UNL     1      -5.895   7.346  10.504  1.00  0.00     0.053 C 
ATOM      4  C   UNL     1      -6.686   8.646  10.324  1.00  0.00     0.016 C 
BRANCH   3   5
ATOM      5  C   UNL     1      -6.722   6.307  11.340  1.00  0.00     0.015 C 
BRANCH   5   6
ATOM      6  C   UNL     1      -6.618   4.981  10.622  1.00  0.00     0.028 C 
BRANCH   6   7
ATOM      7  C   UNL     1      -6.220   4.776   9.214  1.00  0.00    -0.028 C 
ATOM      8  C   UNL     1      -5.002   4.210   8.989  1.00  0.00    -0.070 CG0
ATOM      9  C   UNL     1      -4.505   4.146   7.569  1.00  0.00     0.039 C 
ATOM     10  G   UNL     1      -4.183   3.512  10.106  1.00  0.00     0.000 G0
ENDBRANCH   6   7
ENDBRANCH   5   6
ENDBRANCH   3   5
ENDBRANCH   1   3
BRANCH   1  11
ATOM     11  C   UNL     1      -3.254   6.829  10.589  1.00  0.00     0.087 C 
BRANCH  11  12
ATOM     12  C   UNL     1      -2.936   5.522  11.430  1.00  0.00     0.066 C 
BRANCH  12  13
ATOM     13  C   UNL     1      -2.900   4.251  10.547  1.00  0.00     0.140 C 
ATOM     14  O   UNL     1      -1.821   3.779  10.222  1.00  0.00    -0.299 OA
BRANCH  13  15
ATOM     15  C   UNL     1      -4.181   3.531  10.100  1.00  0.00     0.106 CG0
ATOM     16  G   UNL     1      -5.008   4.217   8.981  1.00  0.00     0.000 G0
ENDBRANCH  13  15
ENDBRANCH  12  13
BRANCH  12  17
ATOM     17  C   UNL     1      -1.607   5.675  12.240  1.00  0.00    -0.006 C 
ATOM     18  C   UNL     1      -1.857   5.940  13.737  1.00  0.00     0.008 C 
ATOM     19  C   UNL     1      -0.740   6.822  11.684  1.00  0.00     0.008 C 
ENDBRANCH  12  17
ENDBRANCH  11  12
ENDBRANCH   1  11
TORSDOF 1
ENDMDL
MODEL 7
REMARK VINA RESULT:    -3.267      1.953      5.140
REMARK INTER + INTRA:          -5.039
REMARK INTER:                  -5.449
REMARK INTRA:                   0.410
REMARK UNBOUND:                -0.052
REMARK SMILES CC1=CCC[C@@H](C)C(=O)C[C@H](C(C)C)C(=O)C1
REMARK SMILES IDX 8 1 9 2 6 3 7 4 5 5 4 6 3 7 2 8 1 9 10 11 11 12 15 13 16 14
REMARK SMILES IDX 17 15 12 17 13 18 14 19
REMARK H PARENT
REMARK Flexibility Score: 70.00
ROOT
ATOM      1  C   UNL     1     -13.624  -6.429   5.748  1.00  0.00     0.136 C 
ATOM      2  O   UNL     1     -12.904  -6.716   6.693  1.00  0.00    -0.299 OA
ENDROOT
BRANCH   1   3
ATOM      3  C   UNL     1     -13.068  -6.526   4.308  1.00  0.00     0.053 C 
ATOM      4  C   UNL     1     -12.341  -7.855   4.074  1.00  0.00     0.016 C 
BRANCH   3   5
ATOM      5  C   UNL     1     -12.153  -5.317   3.904  1.00  0.00     0.015 C 
BRANCH   5   6
ATOM      6  C   UNL     1     -13.000  -4.069   4.011  1.00  0.00     0.028 C 
BRANCH   6   7
ATOM      7  C   UNL     1     -12.580  -2.772   4.582  1.00  0.00    -0.028 C 
ATOM      8  C   UNL     1     -13.476  -2.126   5.378  1.00  0.00    -0.070 CG0
ATOM      9  C   UNL     1     -13.137  -0.731   5.833  1.00  0.00     0.039 C 
ATOM     10  G   UNL     1     -14.747  -2.815   5.941  1.00  0.00     0.000 G0
ENDBRANCH   6   7
ENDBRANCH   5   6
ENDBRANCH   3   5
ENDBRANCH   1   3
BRANCH   1  11
ATOM     11  C   UNL     1     -15.044  -5.918   6.033  1.00  0.00     0.087 C 
BRANCH  11  12
ATOM     12  C   UNL     1     -15.184  -5.067   7.364  1.00  0.00     0.066 C 
BRANCH  12  13
ATOM     13  C   UNL     1     -14.578  -3.650   7.220  1.00  0.00     0.140 C 
ATOM     14  O   UNL     1     -13.904  -3.192   8.131  1.00  0.00    -0.299 OA
BRANCH  13  15
ATOM     15  C   UNL     1     -14.757  -2.811   5.946  1.00  0.00     0.106 CG0
ATOM     16  G   UNL     1     -13.485  -2.127   5.381  1.00  0.00     0.000 G0
ENDBRANCH  13  15
ENDBRANCH  12  13
BRANCH  12  17
ATOM     17  C   UNL     1     -16.671  -4.991   7.840  1.00  0.00    -0.006 C 
ATOM     18  C   UNL     1     -17.086  -6.219   8.673  1.00  0.00     0.008 C 
ATOM     19  C   UNL     1     -17.637  -4.871   6.644  1.00  0.00     0.008 C 
ENDBRANCH  12  17
ENDBRANCH  11  12
ENDBRANCH   1  11
TORSDOF 1
ENDMDL
MODEL 8
REMARK VINA RESULT:    -3.227      2.164      4.483
REMARK INTER + INTRA:          -4.977
REMARK INTER:                  -5.555
REMARK INTRA:                   0.577
REMARK UNBOUND:                -0.052
REMARK SMILES CC1=CCC[C@@H](C)C(=O)C[C@H](C(C)C)C(=O)C1
REMARK SMILES IDX 8 1 9 2 6 3 7 4 5 5 4 6 3 7 2 8 1 9 10 11 11 12 15 13 16 14
REMARK SMILES IDX 17 15 12 17 13 18 14 19
REMARK H PARENT
REMARK Flexibility Score: 70.00
ROOT
ATOM      1  C   UNL     1     -15.206  -2.681   5.923  1.00  0.00     0.136 C 
ATOM      2  O   UNL     1     -14.954  -1.816   6.749  1.00  0.00    -0.299 OA
ENDROOT
BRANCH   1   3
ATOM      3  C   UNL     1     -14.257  -2.888   4.720  1.00  0.00     0.053 C 
ATOM      4  C   UNL     1     -13.974  -1.568   3.994  1.00  0.00     0.016 C 
BRANCH   3   5
ATOM      5  C   UNL     1     -14.751  -3.981   3.709  1.00  0.00     0.015 C 
BRANCH   5   6
ATOM      6  C   UNL     1     -14.022  -5.260   4.051  1.00  0.00     0.028 C 
BRANCH   6   7
ATOM      7  C   UNL     1     -14.636  -6.520   4.517  1.00  0.00    -0.028 C 
ATOM      8  C   UNL     1     -14.453  -6.855   5.824  1.00  0.00    -0.070 CG0
ATOM      9  C   UNL     1     -14.924  -8.211   6.278  1.00  0.00     0.039 C 
ATOM     10  G   UNL     1     -13.913  -5.852   6.878  1.00  0.00     0.000 G0
ENDBRANCH   6   7
ENDBRANCH   5   6
ENDBRANCH   3   5
ENDBRANCH   1   3
BRANCH   1  11
ATOM     11  C   UNL     1     -16.500  -3.492   6.080  1.00  0.00     0.087 C 
BRANCH  11  12
ATOM     12  C   UNL     1     -16.373  -4.763   7.020  1.00  0.00     0.066 C 
BRANCH  12  13
ATOM     13  C   UNL     1     -14.937  -4.943   7.569  1.00  0.00     0.140 C 
ATOM     14  O   UNL     1     -14.613  -4.364   8.596  1.00  0.00    -0.299 OA
BRANCH  13  15
ATOM     15  C   UNL     1     -13.913  -5.865   6.892  1.00  0.00     0.106 CG0
ATOM     16  G   UNL     1     -14.461  -6.845   5.821  1.00  0.00     0.000 G0
ENDBRANCH  13  15
ENDBRANCH  12  13
BRANCH  12  17
ATOM     17  C   UNL     1     -17.414  -4.718   8.185  1.00  0.00    -0.006 C 
ATOM     18  C   UNL     1     -17.637  -6.100   8.829  1.00  0.00     0.008 C 
ATOM     19  C   UNL     1     -18.777  -4.186   7.700  1.00  0.00     0.008 C 
ENDBRANCH  12  17
ENDBRANCH  11  12
ENDBRANCH   1  11
TORSDOF 1
ENDMDL
MODEL 9
REMARK VINA RESULT:    -3.193     15.374     18.069
REMARK INTER + INTRA:          -4.925
REMARK INTER:                  -4.755
REMARK INTRA:                  -0.170
REMARK UNBOUND:                -0.052
REMARK SMILES CC1=CCC[C@@H](C)C(=O)C[C@H](C(C)C)C(=O)C1
REMARK SMILES IDX 8 1 9 2 6 3 7 4 5 5 4 6 3 7 2 8 1 9 10 11 11 12 15 13 16 14
REMARK SMILES IDX 17 15 12 17 13 18 14 19
REMARK H PARENT
REMARK Flexibility Score: 70.00
ROOT
ATOM      1  C   UNL     1      -1.980   5.770  12.450  1.00  0.00     0.136 C 
ATOM      2  O   UNL     1      -0.812   5.497  12.217  1.00  0.00    -0.299 OA
ENDROOT
BRANCH   1   3
ATOM      3  C   UNL     1      -3.014   5.741  11.300  1.00  0.00     0.053 C 
ATOM      4  C   UNL     1      -3.069   4.365  10.628  1.00  0.00     0.016 C 
BRANCH   3   5
ATOM      5  C   UNL     1      -2.800   6.871  10.232  1.00  0.00     0.015 C 
BRANCH   5   6
ATOM      6  C   UNL     1      -3.642   8.050  10.663  1.00  0.00     0.028 C 
BRANCH   6   7
ATOM      7  C   UNL     1      -4.966   7.988  11.316  1.00  0.00    -0.028 C 
ATOM      8  C   UNL     1      -5.047   8.439  12.599  1.00  0.00    -0.070 CG0
ATOM      9  C   UNL     1      -6.342   8.232  13.339  1.00  0.00     0.039 C 
ATOM     10  G   UNL     1      -3.921   9.271  13.268  1.00  0.00     0.000 G0
ENDBRANCH   6   7
ENDBRANCH   5   6
ENDBRANCH   3   5
ENDBRANCH   1   3
BRANCH   1  11
ATOM     11  C   UNL     1      -2.365   6.199  13.873  1.00  0.00     0.087 C 
BRANCH  11  12
ATOM     12  C   UNL     1      -1.954   7.684  14.249  1.00  0.00     0.066 C 
BRANCH  12  13
ATOM     13  C   UNL     1      -3.185   8.599  14.456  1.00  0.00     0.140 C 
ATOM     14  O   UNL     1      -3.571   8.834  15.592  1.00  0.00    -0.299 OA
BRANCH  13  15
ATOM     15  C   UNL     1      -3.917   9.262  13.281  1.00  0.00     0.106 CG0
ATOM     16  G   UNL     1      -5.043   8.433  12.608  1.00  0.00     0.000 G0
ENDBRANCH  13  15
ENDBRANCH  12  13
BRANCH  12  17
ATOM     17  C   UNL     1      -1.018   7.717  15.502  1.00  0.00    -0.006 C 
ATOM     18  C   UNL     1       0.035   8.839  15.420  1.00  0.00     0.008 C 
ATOM     19  C   UNL     1      -0.281   6.376  15.687  1.00  0.00     0.008 C 
ENDBRANCH  12  17
ENDBRANCH  11  12
ENDBRANCH   1  11
TORSDOF 1
ENDMDL
