MODEL 1
REMARK VINA RESULT:    -3.512      0.000      0.000
REMARK INTER + INTRA:          -8.031
REMARK INTER:                  -6.181
REMARK INTRA:                  -1.851
REMARK UNBOUND:                -1.851
REMARK SMILES CCCCCCCCCCCCCCC(=O)[O-]
REMARK SMILES IDX 9 1 10 2 11 3 12 4 13 5 14 6 15 7 16 8 17 9 8 10 7 11 6 12
REMARK SMILES IDX 5 13 4 14 3 15 2 16 1 17
REMARK H PARENT
REMARK Flexibility Score: inf
ROOT
ATOM      1  C   UNL     1      40.281  11.774  15.016  1.00  0.00     0.000 C 
ENDROOT
BRANCH   1   2
ATOM      2  C   UNL     1      40.321  11.017  16.348  1.00  0.00     0.000 C 
BRANCH   2   3
ATOM      3  C   UNL     1      40.152  11.977  17.534  1.00  0.00     0.000 C 
BRANCH   3   4
ATOM      4  C   UNL     1      41.325  12.959  17.682  1.00  0.00     0.000 C 
BRANCH   4   5
ATOM      5  C   UNL     1      40.884  14.411  17.964  1.00  0.00     0.006 C 
BRANCH   5   6
ATOM      6  C   UNL     1      39.845  14.908  16.951  1.00  0.00     0.053 C 
BRANCH   6   7
ATOM      7  C   UNL     1      40.497  15.752  15.902  1.00  0.00     0.041 C 
ATOM      8  O   UNL     1      40.808  16.947  16.151  1.00  0.00    -0.550 OA
ATOM      9  O   UNL     1      40.718  15.233  14.632  1.00  0.00    -0.550 OA
ENDBRANCH   6   7
ENDBRANCH   5   6
ENDBRANCH   4   5
ENDBRANCH   3   4
ENDBRANCH   2   3
ENDBRANCH   1   2
BRANCH   1  10
ATOM     10  C   UNL     1      38.849  12.195  14.664  1.00  0.00     0.000 C 
BRANCH  10  11
ATOM     11  C   UNL     1      38.666  12.306  13.143  1.00  0.00    -0.000 C 
BRANCH  11  12
ATOM     12  C   UNL     1      40.001  12.296  12.383  1.00  0.00    -0.000 C 
BRANCH  12  13
ATOM     13  C   UNL     1      40.056  11.210  11.296  1.00  0.00    -0.000 C 
BRANCH  13  14
ATOM     14  C   UNL     1      41.084  10.126  11.656  1.00  0.00    -0.000 C 
BRANCH  14  15
ATOM     15  C   UNL     1      40.472   8.717  11.688  1.00  0.00    -0.000 C 
BRANCH  15  16
ATOM     16  C   UNL     1      38.992   8.723  12.097  1.00  0.00    -0.003 C 
ATOM     17  C   UNL     1      38.838   8.526  13.601  1.00  0.00     0.004 C 
ENDBRANCH  15  16
ENDBRANCH  14  15
ENDBRANCH  13  14
ENDBRANCH  12  13
ENDBRANCH  11  12
ENDBRANCH  10  11
ENDBRANCH   1  10
TORSDOF 13
ENDMDL
MODEL 2
REMARK VINA RESULT:    -3.443      2.736      6.325
REMARK INTER + INTRA:          -7.910
REMARK INTER:                  -5.650
REMARK INTRA:                  -2.259
REMARK UNBOUND:                -1.851
REMARK SMILES CCCCCCCCCCCCCCC(=O)[O-]
REMARK SMILES IDX 9 1 10 2 11 3 12 4 13 5 14 6 15 7 16 8 17 9 8 10 7 11 6 12
REMARK SMILES IDX 5 13 4 14 3 15 2 16 1 17
REMARK H PARENT
REMARK Flexibility Score: inf
ROOT
ATOM      1  C   UNL     1      41.153  11.780  14.661  1.00  0.00     0.000 C 
ENDROOT
BRANCH   1   2
ATOM      2  C   UNL     1      40.821  12.920  13.692  1.00  0.00     0.000 C 
BRANCH   2   3
ATOM      3  C   UNL     1      39.420  12.743  13.091  1.00  0.00     0.000 C 
BRANCH   3   4
ATOM      4  C   UNL     1      38.703  11.482  13.603  1.00  0.00     0.000 C 
BRANCH   4   5
ATOM      5  C   UNL     1      38.312  10.496  12.482  1.00  0.00     0.006 C 
BRANCH   5   6
ATOM      6  C   UNL     1      39.298  10.534  11.306  1.00  0.00     0.053 C 
BRANCH   6   7
ATOM      7  C   UNL     1      40.451   9.616  11.560  1.00  0.00     0.041 C 
ATOM      8  O   UNL     1      40.255   8.384  11.739  1.00  0.00    -0.550 OA
ATOM      9  O   UNL     1      41.740  10.127  11.649  1.00  0.00    -0.550 OA
ENDBRANCH   6   7
ENDBRANCH   5   6
ENDBRANCH   4   5
ENDBRANCH   3   4
ENDBRANCH   2   3
ENDBRANCH   1   2
BRANCH   1  10
ATOM     10  C   UNL     1      42.116  12.251  15.757  1.00  0.00     0.000 C 
BRANCH  10  11
ATOM     11  C   UNL     1      41.700  11.700  17.130  1.00  0.00    -0.000 C 
BRANCH  11  12
ATOM     12  C   UNL     1      40.263  11.158  17.140  1.00  0.00    -0.000 C 
BRANCH  12  13
ATOM     13  C   UNL     1      39.297  12.055  17.930  1.00  0.00    -0.000 C 
BRANCH  13  14
ATOM     14  C   UNL     1      38.599  13.061  17.002  1.00  0.00    -0.000 C 
BRANCH  14  15
ATOM     15  C   UNL     1      39.224  14.463  17.070  1.00  0.00    -0.000 C 
BRANCH  15  16
ATOM     16  C   UNL     1      38.997  15.275  15.787  1.00  0.00    -0.003 C 
ATOM     17  C   UNL     1      40.230  16.102  15.436  1.00  0.00     0.004 C 
ENDBRANCH  15  16
ENDBRANCH  14  15
ENDBRANCH  13  14
ENDBRANCH  12  13
ENDBRANCH  11  12
ENDBRANCH  10  11
ENDBRANCH   1  10
TORSDOF 13
ENDMDL
MODEL 3
REMARK VINA RESULT:    -3.366      1.588      2.908
REMARK INTER + INTRA:          -7.775
REMARK INTER:                  -5.708
REMARK INTRA:                  -2.067
REMARK UNBOUND:                -1.851
REMARK SMILES CCCCCCCCCCCCCCC(=O)[O-]
REMARK SMILES IDX 9 1 10 2 11 3 12 4 13 5 14 6 15 7 16 8 17 9 8 10 7 11 6 12
REMARK SMILES IDX 5 13 4 14 3 15 2 16 1 17
REMARK H PARENT
REMARK Flexibility Score: inf
ROOT
ATOM      1  C   UNL     1      41.378  11.278  16.593  1.00  0.00     0.000 C 
ENDROOT
BRANCH   1   2
ATOM      2  C   UNL     1      41.830  12.731  16.771  1.00  0.00     0.000 C 
BRANCH   2   3
ATOM      3  C   UNL     1      41.293  13.320  18.083  1.00  0.00     0.000 C 
BRANCH   3   4
ATOM      4  C   UNL     1      40.614  14.686  17.892  1.00  0.00     0.000 C 
BRANCH   4   5
ATOM      5  C   UNL     1      39.938  14.854  16.515  1.00  0.00     0.006 C 
BRANCH   5   6
ATOM      6  C   UNL     1      40.456  16.087  15.762  1.00  0.00     0.053 C 
BRANCH   6   7
ATOM      7  C   UNL     1      40.479  17.279  16.664  1.00  0.00     0.041 C 
ATOM      8  O   UNL     1      39.406  17.734  17.143  1.00  0.00    -0.550 OA
ATOM      9  O   UNL     1      41.680  17.920  16.938  1.00  0.00    -0.550 OA
ENDBRANCH   6   7
ENDBRANCH   5   6
ENDBRANCH   4   5
ENDBRANCH   3   4
ENDBRANCH   2   3
ENDBRANCH   1   2
BRANCH   1  10
ATOM     10  C   UNL     1      39.855  11.155  16.718  1.00  0.00     0.000 C 
BRANCH  10  11
ATOM     11  C   UNL     1      39.305  10.101  15.746  1.00  0.00    -0.000 C 
BRANCH  11  12
ATOM     12  C   UNL     1      38.173  10.645  14.860  1.00  0.00    -0.000 C 
BRANCH  12  13
ATOM     13  C   UNL     1      38.345  12.135  14.527  1.00  0.00    -0.000 C 
BRANCH  13  14
ATOM     14  C   UNL     1      38.985  12.317  13.142  1.00  0.00    -0.000 C 
BRANCH  14  15
ATOM     15  C   UNL     1      40.454  12.763  13.222  1.00  0.00    -0.000 C 
BRANCH  15  16
ATOM     16  C   UNL     1      41.437  11.599  13.034  1.00  0.00    -0.003 C 
ATOM     17  C   UNL     1      40.910  10.595  12.013  1.00  0.00     0.004 C 
ENDBRANCH  15  16
ENDBRANCH  14  15
ENDBRANCH  13  14
ENDBRANCH  12  13
ENDBRANCH  11  12
ENDBRANCH  10  11
ENDBRANCH   1  10
TORSDOF 13
ENDMDL
MODEL 4
REMARK VINA RESULT:    -3.349      1.334      3.059
REMARK INTER + INTRA:          -7.746
REMARK INTER:                  -5.830
REMARK INTRA:                  -1.916
REMARK UNBOUND:                -1.851
REMARK SMILES CCCCCCCCCCCCCCC(=O)[O-]
REMARK SMILES IDX 9 1 10 2 11 3 12 4 13 5 14 6 15 7 16 8 17 9 8 10 7 11 6 12
REMARK SMILES IDX 5 13 4 14 3 15 2 16 1 17
REMARK H PARENT
REMARK Flexibility Score: inf
ROOT
ATOM      1  C   UNL     1      38.192   9.211  14.104  1.00  0.00     0.000 C 
ENDROOT
BRANCH   1   2
ATOM      2  C   UNL     1      38.843   9.120  15.489  1.00  0.00     0.000 C 
BRANCH   2   3
ATOM      3  C   UNL     1      39.033  10.514  16.103  1.00  0.00     0.000 C 
BRANCH   3   4
ATOM      4  C   UNL     1      40.124  10.548  17.185  1.00  0.00     0.000 C 
BRANCH   4   5
ATOM      5  C   UNL     1      40.272  11.923  17.871  1.00  0.00     0.006 C 
BRANCH   5   6
ATOM      6  C   UNL     1      39.810  13.074  16.967  1.00  0.00     0.053 C 
BRANCH   6   7
ATOM      7  C   UNL     1      40.976  13.676  16.249  1.00  0.00     0.041 C 
ATOM      8  O   UNL     1      40.883  14.824  15.738  1.00  0.00    -0.550 OA
ATOM      9  O   UNL     1      42.151  12.950  16.102  1.00  0.00    -0.550 OA
ENDBRANCH   6   7
ENDBRANCH   5   6
ENDBRANCH   4   5
ENDBRANCH   3   4
ENDBRANCH   2   3
ENDBRANCH   1   2
BRANCH   1  10
ATOM     10  C   UNL     1      38.697   8.093  13.184  1.00  0.00     0.000 C 
BRANCH  10  11
ATOM     11  C   UNL     1      39.059   8.644  11.796  1.00  0.00    -0.000 C 
BRANCH  11  12
ATOM     12  C   UNL     1      40.553   8.979  11.663  1.00  0.00    -0.000 C 
BRANCH  12  13
ATOM     13  C   UNL     1      40.807  10.481  11.460  1.00  0.00    -0.000 C 
BRANCH  13  14
ATOM     14  C   UNL     1      41.160  11.163  12.791  1.00  0.00    -0.000 C 
BRANCH  14  15
ATOM     15  C   UNL     1      40.339  12.438  13.040  1.00  0.00    -0.000 C 
BRANCH  15  16
ATOM     16  C   UNL     1      38.851  12.259  12.702  1.00  0.00    -0.003 C 
ATOM     17  C   UNL     1      37.969  13.006  13.696  1.00  0.00     0.004 C 
ENDBRANCH  15  16
ENDBRANCH  14  15
ENDBRANCH  13  14
ENDBRANCH  12  13
ENDBRANCH  11  12
ENDBRANCH  10  11
ENDBRANCH   1  10
TORSDOF 13
ENDMDL
MODEL 5
REMARK VINA RESULT:    -3.345      1.591      2.793
REMARK INTER + INTRA:          -7.738
REMARK INTER:                  -6.100
REMARK INTRA:                  -1.638
REMARK UNBOUND:                -1.851
REMARK SMILES CCCCCCCCCCCCCCC(=O)[O-]
REMARK SMILES IDX 9 1 10 2 11 3 12 4 13 5 14 6 15 7 16 8 17 9 8 10 7 11 6 12
REMARK SMILES IDX 5 13 4 14 3 15 2 16 1 17
REMARK H PARENT
REMARK Flexibility Score: inf
ROOT
ATOM      1  C   UNL     1      38.215  10.637  15.719  1.00  0.00     0.000 C 
ENDROOT
BRANCH   1   2
ATOM      2  C   UNL     1      39.215  11.623  16.331  1.00  0.00     0.000 C 
BRANCH   2   3
ATOM      3  C   UNL     1      38.557  12.984  16.597  1.00  0.00     0.000 C 
BRANCH   3   4
ATOM      4  C   UNL     1      38.949  14.051  15.562  1.00  0.00     0.000 C 
BRANCH   4   5
ATOM      5  C   UNL     1      40.314  14.714  15.844  1.00  0.00     0.006 C 
BRANCH   5   6
ATOM      6  C   UNL     1      40.363  16.169  15.360  1.00  0.00     0.053 C 
BRANCH   6   7
ATOM      7  C   UNL     1      40.383  17.107  16.525  1.00  0.00     0.041 C 
ATOM      8  O   UNL     1      39.329  17.330  17.179  1.00  0.00    -0.550 OA
ATOM      9  O   UNL     1      41.554  17.775  16.860  1.00  0.00    -0.550 OA
ENDBRANCH   6   7
ENDBRANCH   5   6
ENDBRANCH   4   5
ENDBRANCH   3   4
ENDBRANCH   2   3
ENDBRANCH   1   2
BRANCH   1  10
ATOM     10  C   UNL     1      38.925   9.375  15.211  1.00  0.00     0.000 C 
BRANCH  10  11
ATOM     11  C   UNL     1      38.374   8.946  13.843  1.00  0.00    -0.000 C 
BRANCH  11  12
ATOM     12  C   UNL     1      39.366   8.084  13.048  1.00  0.00    -0.000 C 
BRANCH  12  13
ATOM     13  C   UNL     1      39.614   8.622  11.629  1.00  0.00    -0.000 C 
BRANCH  13  14
ATOM     14  C   UNL     1      40.626   9.777  11.650  1.00  0.00    -0.000 C 
BRANCH  14  15
ATOM     15  C   UNL     1      39.970  11.144  11.399  1.00  0.00    -0.000 C 
BRANCH  15  16
ATOM     16  C   UNL     1      40.087  12.087  12.605  1.00  0.00    -0.003 C 
ATOM     17  C   UNL     1      41.354  11.800  13.405  1.00  0.00     0.004 C 
ENDBRANCH  15  16
ENDBRANCH  14  15
ENDBRANCH  13  14
ENDBRANCH  12  13
ENDBRANCH  11  12
ENDBRANCH  10  11
ENDBRANCH   1  10
TORSDOF 13
ENDMDL
MODEL 6
REMARK VINA RESULT:    -3.300      2.823      6.007
REMARK INTER + INTRA:          -7.658
REMARK INTER:                  -5.439
REMARK INTRA:                  -2.219
REMARK UNBOUND:                -1.851
REMARK SMILES CCCCCCCCCCCCCCC(=O)[O-]
REMARK SMILES IDX 9 1 10 2 11 3 12 4 13 5 14 6 15 7 16 8 17 9 8 10 7 11 6 12
REMARK SMILES IDX 5 13 4 14 3 15 2 16 1 17
REMARK H PARENT
REMARK Flexibility Score: inf
ROOT
ATOM      1  C   UNL     1      42.174  12.315  15.685  1.00  0.00     0.000 C 
ENDROOT
BRANCH   1   2
ATOM      2  C   UNL     1      41.156  11.876  14.627  1.00  0.00     0.000 C 
BRANCH   2   3
ATOM      3  C   UNL     1      40.648  13.077  13.818  1.00  0.00     0.000 C 
BRANCH   3   4
ATOM      4  C   UNL     1      39.536  12.702  12.824  1.00  0.00     0.000 C 
BRANCH   4   5
ATOM      5  C   UNL     1      39.147  11.209  12.865  1.00  0.00     0.006 C 
BRANCH   5   6
ATOM      6  C   UNL     1      39.436  10.498  11.537  1.00  0.00     0.053 C 
BRANCH   6   7
ATOM      7  C   UNL     1      40.670   9.660  11.649  1.00  0.00     0.041 C 
ATOM      8  O   UNL     1      41.806  10.202  11.663  1.00  0.00    -0.550 OA
ATOM      9  O   UNL     1      40.568   8.275  11.688  1.00  0.00    -0.550 OA
ENDBRANCH   6   7
ENDBRANCH   5   6
ENDBRANCH   4   5
ENDBRANCH   3   4
ENDBRANCH   2   3
ENDBRANCH   1   2
BRANCH   1  10
ATOM     10  C   UNL     1      41.923  11.604  17.021  1.00  0.00     0.000 C 
BRANCH  10  11
ATOM     11  C   UNL     1      42.064  12.579  18.199  1.00  0.00    -0.000 C 
BRANCH  11  12
ATOM     12  C   UNL     1      40.727  13.220  18.601  1.00  0.00    -0.000 C 
BRANCH  12  13
ATOM     13  C   UNL     1      40.390  14.463  17.763  1.00  0.00    -0.000 C 
BRANCH  13  14
ATOM     14  C   UNL     1      39.046  14.288  17.039  1.00  0.00    -0.000 C 
BRANCH  14  15
ATOM     15  C   UNL     1      38.313  13.003  17.454  1.00  0.00    -0.000 C 
BRANCH  15  16
ATOM     16  C   UNL     1      37.879  12.154  16.250  1.00  0.00    -0.003 C 
ATOM     17  C   UNL     1      38.212  10.682  16.469  1.00  0.00     0.004 C 
ENDBRANCH  15  16
ENDBRANCH  14  15
ENDBRANCH  13  14
ENDBRANCH  12  13
ENDBRANCH  11  12
ENDBRANCH  10  11
ENDBRANCH   1  10
TORSDOF 13
ENDMDL
MODEL 7
REMARK VINA RESULT:    -3.279      2.643      6.562
REMARK INTER + INTRA:          -7.622
REMARK INTER:                  -5.878
REMARK INTRA:                  -1.744
REMARK UNBOUND:                -1.851
REMARK SMILES CCCCCCCCCCCCCCC(=O)[O-]
REMARK SMILES IDX 9 1 10 2 11 3 12 4 13 5 14 6 15 7 16 8 17 9 8 10 7 11 6 12
REMARK SMILES IDX 5 13 4 14 3 15 2 16 1 17
REMARK H PARENT
REMARK Flexibility Score: inf
ROOT
ATOM      1  C   UNL     1      41.536  12.075  15.239  1.00  0.00     0.000 C 
ENDROOT
BRANCH   1   2
ATOM      2  C   UNL     1      40.286  11.254  15.573  1.00  0.00     0.000 C 
BRANCH   2   3
ATOM      3  C   UNL     1      39.114  11.635  14.658  1.00  0.00     0.000 C 
BRANCH   3   4
ATOM      4  C   UNL     1      39.467  12.759  13.669  1.00  0.00     0.000 C 
BRANCH   4   5
ATOM      5  C   UNL     1      39.902  12.245  12.280  1.00  0.00     0.006 C 
BRANCH   5   6
ATOM      6  C   UNL     1      39.384  10.829  11.997  1.00  0.00     0.053 C 
BRANCH   6   7
ATOM      7  C   UNL     1      40.526   9.885  11.791  1.00  0.00     0.041 C 
ATOM      8  O   UNL     1      41.701  10.325  11.678  1.00  0.00    -0.550 OA
ATOM      9  O   UNL     1      40.288   8.522  11.673  1.00  0.00    -0.550 OA
ENDBRANCH   6   7
ENDBRANCH   5   6
ENDBRANCH   4   5
ENDBRANCH   3   4
ENDBRANCH   2   3
ENDBRANCH   1   2
BRANCH   1  10
ATOM     10  C   UNL     1      42.330  12.411  16.507  1.00  0.00     0.000 C 
BRANCH  10  11
ATOM     11  C   UNL     1      41.412  12.455  17.737  1.00  0.00    -0.000 C 
BRANCH  11  12
ATOM     12  C   UNL     1      41.190  13.883  18.260  1.00  0.00    -0.000 C 
BRANCH  12  13
ATOM     13  C   UNL     1      39.718  14.319  18.185  1.00  0.00    -0.000 C 
BRANCH  13  14
ATOM     14  C   UNL     1      39.347  14.753  16.759  1.00  0.00    -0.000 C 
BRANCH  14  15
ATOM     15  C   UNL     1      40.429  15.626  16.104  1.00  0.00    -0.000 C 
BRANCH  15  16
ATOM     16  C   UNL     1      40.228  17.123  16.381  1.00  0.00    -0.003 C 
ATOM     17  C   UNL     1      41.273  17.645  17.362  1.00  0.00     0.004 C 
ENDBRANCH  15  16
ENDBRANCH  14  15
ENDBRANCH  13  14
ENDBRANCH  12  13
ENDBRANCH  11  12
ENDBRANCH  10  11
ENDBRANCH   1  10
TORSDOF 13
ENDMDL
MODEL 8
REMARK VINA RESULT:    -3.197      2.806      5.874
REMARK INTER + INTRA:          -7.477
REMARK INTER:                  -5.440
REMARK INTRA:                  -2.037
REMARK UNBOUND:                -1.851
REMARK SMILES CCCCCCCCCCCCCCC(=O)[O-]
REMARK SMILES IDX 9 1 10 2 11 3 12 4 13 5 14 6 15 7 16 8 17 9 8 10 7 11 6 12
REMARK SMILES IDX 5 13 4 14 3 15 2 16 1 17
REMARK H PARENT
REMARK Flexibility Score: inf
ROOT
ATOM      1  C   UNL     1      40.484  15.092  15.076  1.00  0.00     0.000 C 
ENDROOT
BRANCH   1   2
ATOM      2  C   UNL     1      39.267  14.161  15.103  1.00  0.00     0.000 C 
BRANCH   2   3
ATOM      3  C   UNL     1      39.479  12.949  14.185  1.00  0.00     0.000 C 
BRANCH   3   4
ATOM      4  C   UNL     1      40.903  12.875  13.609  1.00  0.00     0.000 C 
BRANCH   4   5
ATOM      5  C   UNL     1      41.265  11.490  13.032  1.00  0.00     0.006 C 
BRANCH   5   6
ATOM      6  C   UNL     1      40.253  11.019  11.979  1.00  0.00     0.053 C 
BRANCH   6   7
ATOM      7  C   UNL     1      39.889   9.586  12.207  1.00  0.00     0.041 C 
ATOM      8  O   UNL     1      40.307   8.693  11.423  1.00  0.00    -0.550 OA
ATOM      9  O   UNL     1      39.047   9.243  13.257  1.00  0.00    -0.550 OA
ENDBRANCH   6   7
ENDBRANCH   5   6
ENDBRANCH   4   5
ENDBRANCH   3   4
ENDBRANCH   2   3
ENDBRANCH   1   2
BRANCH   1  10
ATOM     10  C   UNL     1      40.465  16.058  16.267  1.00  0.00     0.000 C 
BRANCH  10  11
ATOM     11  C   UNL     1      39.818  15.404  17.497  1.00  0.00    -0.000 C 
BRANCH  11  12
ATOM     12  C   UNL     1      40.853  14.807  18.464  1.00  0.00    -0.000 C 
BRANCH  12  13
ATOM     13  C   UNL     1      40.908  13.273  18.400  1.00  0.00    -0.000 C 
BRANCH  13  14
ATOM     14  C   UNL     1      42.107  12.802  17.563  1.00  0.00    -0.000 C 
BRANCH  14  15
ATOM     15  C   UNL     1      41.828  11.487  16.817  1.00  0.00    -0.000 C 
BRANCH  15  16
ATOM     16  C   UNL     1      40.802  10.602  17.540  1.00  0.00    -0.003 C 
ATOM     17  C   UNL     1      39.686  10.172  16.594  1.00  0.00     0.004 C 
ENDBRANCH  15  16
ENDBRANCH  14  15
ENDBRANCH  13  14
ENDBRANCH  12  13
ENDBRANCH  11  12
ENDBRANCH  10  11
ENDBRANCH   1  10
TORSDOF 13
ENDMDL
MODEL 9
REMARK VINA RESULT:    -3.086      0.862      2.130
REMARK INTER + INTRA:          -7.282
REMARK INTER:                  -5.723
REMARK INTRA:                  -1.559
REMARK UNBOUND:                -1.851
REMARK SMILES CCCCCCCCCCCCCCC(=O)[O-]
REMARK SMILES IDX 9 1 10 2 11 3 12 4 13 5 14 6 15 7 16 8 17 9 8 10 7 11 6 12
REMARK SMILES IDX 5 13 4 14 3 15 2 16 1 17
REMARK H PARENT
REMARK Flexibility Score: inf
ROOT
ATOM      1  C   UNL     1      40.161  11.357  14.960  1.00  0.00     0.000 C 
ENDROOT
BRANCH   1   2
ATOM      2  C   UNL     1      40.465  11.614  16.440  1.00  0.00     0.000 C 
BRANCH   2   3
ATOM      3  C   UNL     1      41.438  12.789  16.609  1.00  0.00     0.000 C 
BRANCH   3   4
ATOM      4  C   UNL     1      40.887  13.897  17.521  1.00  0.00     0.000 C 
BRANCH   4   5
ATOM      5  C   UNL     1      39.463  14.356  17.146  1.00  0.00     0.006 C 
BRANCH   5   6
ATOM      6  C   UNL     1      39.331  15.885  17.135  1.00  0.00     0.053 C 
BRANCH   6   7
ATOM      7  C   UNL     1      40.317  16.489  16.186  1.00  0.00     0.041 C 
ATOM      8  O   UNL     1      41.100  17.396  16.576  1.00  0.00    -0.550 OA
ATOM      9  O   UNL     1      40.340  16.085  14.857  1.00  0.00    -0.550 OA
ENDBRANCH   6   7
ENDBRANCH   5   6
ENDBRANCH   4   5
ENDBRANCH   3   4
ENDBRANCH   2   3
ENDBRANCH   1   2
BRANCH   1  10
ATOM     10  C   UNL     1      38.671  11.560  14.660  1.00  0.00     0.000 C 
BRANCH  10  11
ATOM     11  C   UNL     1      37.924  10.218  14.646  1.00  0.00    -0.000 C 
BRANCH  11  12
ATOM     12  C   UNL     1      38.855   9.024  14.388  1.00  0.00    -0.000 C 
BRANCH  12  13
ATOM     13  C   UNL     1      38.415   8.179  13.181  1.00  0.00    -0.000 C 
BRANCH  13  14
ATOM     14  C   UNL     1      38.897   8.810  11.866  1.00  0.00    -0.000 C 
BRANCH  14  15
ATOM     15  C   UNL     1      40.424   8.748  11.704  1.00  0.00    -0.000 C 
BRANCH  15  16
ATOM     16  C   UNL     1      41.064  10.140  11.592  1.00  0.00    -0.003 C 
ATOM     17  C   UNL     1      40.023  11.196  11.237  1.00  0.00     0.004 C 
ENDBRANCH  15  16
ENDBRANCH  14  15
ENDBRANCH  13  14
ENDBRANCH  12  13
ENDBRANCH  11  12
ENDBRANCH  10  11
ENDBRANCH   1  10
TORSDOF 13
ENDMDL
