MODEL 1
REMARK VINA RESULT:    -4.618      0.000      0.000
REMARK INTER + INTRA:          -5.394
REMARK INTER:                  -5.293
REMARK INTRA:                  -0.101
REMARK UNBOUND:                -0.101
REMARK SMILES COc1cc(C(=O)[O-])ccc1O
REMARK SMILES IDX 5 1 9 2 4 3 10 4 3 5 11 6 6 7 7 8 8 9 2 10 1 11 12 12
REMARK H PARENT 12 13
REMARK Flexibility Score: inf
ROOT
ATOM      1  C   UNL     1     139.367 134.127 144.428  1.00  0.00     0.001 A 
ATOM      2  C   UNL     1     138.130 133.499 144.643  1.00  0.00     0.014 A 
ATOM      3  C   UNL     1     139.945 134.875 145.470  1.00  0.00     0.060 A 
ATOM      4  C   UNL     1     137.483 133.616 145.874  1.00  0.00     0.051 A 
ATOM      5  C   UNL     1     139.296 134.997 146.716  1.00  0.00     0.161 A 
ATOM      6  C   UNL     1     138.056 134.360 146.909  1.00  0.00     0.157 A 
ENDROOT
BRANCH   1   7
ATOM      7  C   UNL     1     140.050 133.999 143.121  1.00  0.00     0.072 C 
ATOM      8  O   UNL     1     139.536 133.320 142.192  1.00  0.00    -0.545 OA
ATOM      9  O   UNL     1     141.271 134.627 142.900  1.00  0.00    -0.545 OA
ENDBRANCH   1   7
BRANCH   5  10
ATOM     10  O   UNL     1     139.847 135.737 147.773  1.00  0.00    -0.493 OA
ATOM     11  C   UNL     1     139.961 137.156 147.795  1.00  0.00     0.278 C 
ENDBRANCH   5  10
BRANCH   6  12
ATOM     12  O   UNL     1     137.379 134.453 148.124  1.00  0.00    -0.504 OA
ATOM     13  H   UNL     1     136.828 135.266 148.374  1.00  0.00     0.293 HD
ENDBRANCH   6  12
TORSDOF 3
ENDMDL
MODEL 2
REMARK VINA RESULT:    -4.593      1.326      2.659
REMARK INTER + INTRA:          -5.365
REMARK INTER:                  -5.274
REMARK INTRA:                  -0.091
REMARK UNBOUND:                -0.101
REMARK SMILES COc1cc(C(=O)[O-])ccc1O
REMARK SMILES IDX 5 1 9 2 4 3 10 4 3 5 11 6 6 7 7 8 8 9 2 10 1 11 12 12
REMARK H PARENT 12 13
REMARK Flexibility Score: inf
ROOT
ATOM      1  C   UNL     1     139.186 133.987 144.447  1.00  0.00     0.001 A 
ATOM      2  C   UNL     1     139.898 134.130 145.648  1.00  0.00     0.014 A 
ATOM      3  C   UNL     1     137.779 133.982 144.482  1.00  0.00     0.060 A 
ATOM      4  C   UNL     1     139.219 134.265 146.860  1.00  0.00     0.051 A 
ATOM      5  C   UNL     1     137.088 134.119 145.703  1.00  0.00     0.161 A 
ATOM      6  C   UNL     1     137.822 134.260 146.894  1.00  0.00     0.157 A 
ENDROOT
BRANCH   1   7
ATOM      7  C   UNL     1     139.910 133.845 143.164  1.00  0.00     0.072 C 
ATOM      8  O   UNL     1     139.393 133.218 142.201  1.00  0.00    -0.545 OA
ATOM      9  O   UNL     1     141.175 134.400 143.004  1.00  0.00    -0.545 OA
ENDBRANCH   1   7
BRANCH   5  10
ATOM     10  O   UNL     1     135.686 134.117 145.768  1.00  0.00    -0.493 OA
ATOM     11  C   UNL     1     134.841 134.995 145.032  1.00  0.00     0.278 C 
ENDBRANCH   5  10
BRANCH   6  12
ATOM     12  O   UNL     1     137.180 134.398 148.125  1.00  0.00    -0.504 OA
ATOM     13  H   UNL     1     137.574 134.944 148.882  1.00  0.00     0.293 HD
ENDBRANCH   6  12
TORSDOF 3
ENDMDL
MODEL 3
REMARK VINA RESULT:    -4.379     12.348     13.102
REMARK INTER + INTRA:          -5.120
REMARK INTER:                  -5.025
REMARK INTRA:                  -0.094
REMARK UNBOUND:                -0.101
REMARK SMILES COc1cc(C(=O)[O-])ccc1O
REMARK SMILES IDX 5 1 9 2 4 3 10 4 3 5 11 6 6 7 7 8 8 9 2 10 1 11 12 12
REMARK H PARENT 12 13
REMARK Flexibility Score: inf
ROOT
ATOM      1  C   UNL     1     136.815 133.332 132.939  1.00  0.00     0.001 A 
ATOM      2  C   UNL     1     136.719 131.942 132.769  1.00  0.00     0.014 A 
ATOM      3  C   UNL     1     138.067 133.901 133.234  1.00  0.00     0.060 A 
ATOM      4  C   UNL     1     137.852 131.136 132.891  1.00  0.00     0.051 A 
ATOM      5  C   UNL     1     139.215 133.092 133.359  1.00  0.00     0.161 A 
ATOM      6  C   UNL     1     139.096 131.701 133.185  1.00  0.00     0.157 A 
ENDROOT
BRANCH   1   7
ATOM      7  C   UNL     1     135.610 134.183 132.807  1.00  0.00     0.072 C 
ATOM      8  O   UNL     1     134.894 134.441 133.811  1.00  0.00    -0.545 OA
ATOM      9  O   UNL     1     135.251 134.709 131.571  1.00  0.00    -0.545 OA
ENDBRANCH   1   7
BRANCH   5  10
ATOM     10  O   UNL     1     140.477 133.632 133.653  1.00  0.00    -0.493 OA
ATOM     11  C   UNL     1     141.372 134.171 132.686  1.00  0.00     0.278 C 
ENDBRANCH   5  10
BRANCH   6  12
ATOM     12  O   UNL     1     140.205 130.863 133.299  1.00  0.00    -0.504 OA
ATOM     13  H   UNL     1     140.310 130.027 132.737  1.00  0.00     0.293 HD
ENDBRANCH   6  12
TORSDOF 3
ENDMDL
MODEL 4
REMARK VINA RESULT:    -4.372     12.943     14.409
REMARK INTER + INTRA:          -5.112
REMARK INTER:                  -5.020
REMARK INTRA:                  -0.092
REMARK UNBOUND:                -0.101
REMARK SMILES COc1cc(C(=O)[O-])ccc1O
REMARK SMILES IDX 5 1 9 2 4 3 10 4 3 5 11 6 6 7 7 8 8 9 2 10 1 11 12 12
REMARK H PARENT 12 13
REMARK Flexibility Score: inf
ROOT
ATOM      1  C   UNL     1     139.061 133.194 130.675  1.00  0.00     0.001 A 
ATOM      2  C   UNL     1     139.776 132.060 131.089  1.00  0.00     0.014 A 
ATOM      3  C   UNL     1     137.776 133.424 131.201  1.00  0.00     0.060 A 
ATOM      4  C   UNL     1     139.221 131.171 132.011  1.00  0.00     0.051 A 
ATOM      5  C   UNL     1     137.210 132.530 132.132  1.00  0.00     0.161 A 
ATOM      6  C   UNL     1     137.944 131.399 132.533  1.00  0.00     0.157 A 
ENDROOT
BRANCH   1   7
ATOM      7  C   UNL     1     139.656 134.134 129.698  1.00  0.00     0.072 C 
ATOM      8  O   UNL     1     139.304 135.344 129.674  1.00  0.00    -0.545 OA
ATOM      9  O   UNL     1     140.613 133.694 128.790  1.00  0.00    -0.545 OA
ENDBRANCH   1   7
BRANCH   5  10
ATOM     10  O   UNL     1     135.931 132.732 132.674  1.00  0.00    -0.493 OA
ATOM     11  C   UNL     1     135.532 133.894 133.395  1.00  0.00     0.278 C 
ENDBRANCH   5  10
BRANCH   6  12
ATOM     12  O   UNL     1     137.422 130.488 133.452  1.00  0.00    -0.504 OA
ATOM     13  H   UNL     1     136.542 130.010 133.298  1.00  0.00     0.293 HD
ENDBRANCH   6  12
TORSDOF 3
ENDMDL
MODEL 5
REMARK VINA RESULT:    -4.205      1.934      4.443
REMARK INTER + INTRA:          -4.920
REMARK INTER:                  -4.843
REMARK INTRA:                  -0.077
REMARK UNBOUND:                -0.101
REMARK SMILES COc1cc(C(=O)[O-])ccc1O
REMARK SMILES IDX 5 1 9 2 4 3 10 4 3 5 11 6 6 7 7 8 8 9 2 10 1 11 12 12
REMARK H PARENT 12 13
REMARK Flexibility Score: inf
ROOT
ATOM      1  C   UNL     1     136.711 134.221 146.328  1.00  0.00     0.001 A 
ATOM      2  C   UNL     1     137.272 134.633 147.546  1.00  0.00     0.014 A 
ATOM      3  C   UNL     1     137.559 133.977 145.231  1.00  0.00     0.060 A 
ATOM      4  C   UNL     1     138.653 134.800 147.668  1.00  0.00     0.051 A 
ATOM      5  C   UNL     1     138.954 134.144 145.348  1.00  0.00     0.161 A 
ATOM      6  C   UNL     1     139.495 134.558 146.578  1.00  0.00     0.157 A 
ENDROOT
BRANCH   1   7
ATOM      7  C   UNL     1     135.247 134.045 146.204  1.00  0.00     0.072 C 
ATOM      8  O   UNL     1     134.644 134.396 145.154  1.00  0.00    -0.545 OA
ATOM      9  O   UNL     1     134.513 133.490 147.247  1.00  0.00    -0.545 OA
ENDBRANCH   1   7
BRANCH   5  10
ATOM     10  O   UNL     1     139.823 133.909 144.272  1.00  0.00    -0.493 OA
ATOM     11  C   UNL     1     139.406 133.663 142.933  1.00  0.00     0.278 C 
ENDBRANCH   5  10
BRANCH   6  12
ATOM     12  O   UNL     1     140.869 134.736 146.739  1.00  0.00    -0.504 OA
ATOM     13  H   UNL     1     141.439 135.198 146.041  1.00  0.00     0.293 HD
ENDBRANCH   6  12
TORSDOF 3
ENDMDL
MODEL 6
REMARK VINA RESULT:    -4.191      2.046      3.746
REMARK INTER + INTRA:          -4.905
REMARK INTER:                  -4.827
REMARK INTRA:                  -0.078
REMARK UNBOUND:                -0.101
REMARK SMILES COc1cc(C(=O)[O-])ccc1O
REMARK SMILES IDX 5 1 9 2 4 3 10 4 3 5 11 6 6 7 7 8 8 9 2 10 1 11 12 12
REMARK H PARENT 12 13
REMARK Flexibility Score: inf
ROOT
ATOM      1  C   UNL     1     140.804 136.515 146.249  1.00  0.00     0.001 A 
ATOM      2  C   UNL     1     140.365 136.939 147.512  1.00  0.00     0.014 A 
ATOM      3  C   UNL     1     140.125 135.464 145.605  1.00  0.00     0.060 A 
ATOM      4  C   UNL     1     139.269 136.327 148.122  1.00  0.00     0.051 A 
ATOM      5  C   UNL     1     139.017 134.841 146.216  1.00  0.00     0.161 A 
ATOM      6  C   UNL     1     138.595 135.283 147.483  1.00  0.00     0.157 A 
ENDROOT
BRANCH   1   7
ATOM      7  C   UNL     1     141.967 137.168 145.606  1.00  0.00     0.072 C 
ATOM      8  O   UNL     1     142.141 138.412 145.708  1.00  0.00    -0.545 OA
ATOM      9  O   UNL     1     142.885 136.418 144.880  1.00  0.00    -0.545 OA
ENDBRANCH   1   7
BRANCH   5  10
ATOM     10  O   UNL     1     138.321 133.791 145.599  1.00  0.00    -0.493 OA
ATOM     11  C   UNL     1     138.372 133.494 144.207  1.00  0.00     0.278 C 
ENDBRANCH   5  10
BRANCH   6  12
ATOM     12  O   UNL     1     137.504 134.695 148.124  1.00  0.00    -0.504 OA
ATOM     13  H   UNL     1     136.639 134.489 147.639  1.00  0.00     0.293 HD
ENDBRANCH   6  12
TORSDOF 3
ENDMDL
MODEL 7
REMARK VINA RESULT:    -4.129      2.581      3.212
REMARK INTER + INTRA:          -4.833
REMARK INTER:                  -4.732
REMARK INTRA:                  -0.101
REMARK UNBOUND:                -0.101
REMARK SMILES COc1cc(C(=O)[O-])ccc1O
REMARK SMILES IDX 5 1 9 2 4 3 10 4 3 5 11 6 6 7 7 8 8 9 2 10 1 11 12 12
REMARK H PARENT 12 13
REMARK Flexibility Score: inf
ROOT
ATOM      1  C   UNL     1     136.813 135.502 145.036  1.00  0.00     0.001 A 
ATOM      2  C   UNL     1     136.639 134.517 146.020  1.00  0.00     0.014 A 
ATOM      3  C   UNL     1     137.949 136.331 145.089  1.00  0.00     0.060 A 
ATOM      4  C   UNL     1     137.581 134.362 147.039  1.00  0.00     0.051 A 
ATOM      5  C   UNL     1     138.903 136.179 146.115  1.00  0.00     0.161 A 
ATOM      6  C   UNL     1     138.709 135.186 147.092  1.00  0.00     0.157 A 
ENDROOT
BRANCH   1   7
ATOM      7  C   UNL     1     135.811 135.662 143.957  1.00  0.00     0.072 C 
ATOM      8  O   UNL     1     134.601 135.371 144.157  1.00  0.00    -0.545 OA
ATOM      9  O   UNL     1     136.192 136.136 142.706  1.00  0.00    -0.545 OA
ENDBRANCH   1   7
BRANCH   5  10
ATOM     10  O   UNL     1     140.045 136.991 146.194  1.00  0.00    -0.493 OA
ATOM     11  C   UNL     1     141.254 136.760 145.477  1.00  0.00     0.278 C 
ENDBRANCH   5  10
BRANCH   6  12
ATOM     12  O   UNL     1     139.628 135.001 148.125  1.00  0.00    -0.504 OA
ATOM     13  H   UNL     1     140.627 135.091 147.982  1.00  0.00     0.293 HD
ENDBRANCH   6  12
TORSDOF 3
ENDMDL
MODEL 8
REMARK VINA RESULT:    -4.086     12.405     13.345
REMARK INTER + INTRA:          -4.784
REMARK INTER:                  -4.703
REMARK INTRA:                  -0.081
REMARK UNBOUND:                -0.101
REMARK SMILES COc1cc(C(=O)[O-])ccc1O
REMARK SMILES IDX 5 1 9 2 4 3 10 4 3 5 11 6 6 7 7 8 8 9 2 10 1 11 12 12
REMARK H PARENT 12 13
REMARK Flexibility Score: inf
ROOT
ATOM      1  C   UNL     1     139.243 132.789 132.738  1.00  0.00     0.001 A 
ATOM      2  C   UNL     1     139.185 131.630 131.949  1.00  0.00     0.014 A 
ATOM      3  C   UNL     1     138.043 133.388 133.165  1.00  0.00     0.060 A 
ATOM      4  C   UNL     1     137.953 131.079 131.591  1.00  0.00     0.051 A 
ATOM      5  C   UNL     1     136.796 132.836 132.807  1.00  0.00     0.161 A 
ATOM      6  C   UNL     1     136.762 131.674 132.014  1.00  0.00     0.157 A 
ENDROOT
BRANCH   1   7
ATOM      7  C   UNL     1     140.552 133.368 133.115  1.00  0.00     0.072 C 
ATOM      8  O   UNL     1     140.616 134.481 133.704  1.00  0.00    -0.545 OA
ATOM      9  O   UNL     1     141.732 132.692 132.824  1.00  0.00    -0.545 OA
ENDBRANCH   1   7
BRANCH   5  10
ATOM     10  O   UNL     1     135.583 133.411 133.217  1.00  0.00    -0.493 OA
ATOM     11  C   UNL     1     135.428 134.768 133.622  1.00  0.00     0.278 C 
ENDBRANCH   5  10
BRANCH   6  12
ATOM     12  O   UNL     1     135.550 131.095 131.637  1.00  0.00    -0.504 OA
ATOM     13  H   UNL     1     135.482 130.125 131.350  1.00  0.00     0.293 HD
ENDBRANCH   6  12
TORSDOF 3
ENDMDL
MODEL 9
REMARK VINA RESULT:    -4.000      1.223      2.527
REMARK INTER + INTRA:          -4.685
REMARK INTER:                  -4.585
REMARK INTRA:                  -0.100
REMARK UNBOUND:                -0.101
REMARK SMILES COc1cc(C(=O)[O-])ccc1O
REMARK SMILES IDX 5 1 9 2 4 3 10 4 3 5 11 6 6 7 7 8 8 9 2 10 1 11 12 12
REMARK H PARENT 12 13
REMARK Flexibility Score: inf
ROOT
ATOM      1  C   UNL     1     140.009 134.646 143.971  1.00  0.00     0.001 A 
ATOM      2  C   UNL     1     140.892 135.479 144.676  1.00  0.00     0.014 A 
ATOM      3  C   UNL     1     138.979 133.991 144.672  1.00  0.00     0.060 A 
ATOM      4  C   UNL     1     140.749 135.656 146.054  1.00  0.00     0.051 A 
ATOM      5  C   UNL     1     138.830 134.166 146.063  1.00  0.00     0.161 A 
ATOM      6  C   UNL     1     139.726 135.005 146.749  1.00  0.00     0.157 A 
ENDROOT
BRANCH   1   7
ATOM      7  C   UNL     1     140.165 134.463 142.511  1.00  0.00     0.072 C 
ATOM      8  O   UNL     1     139.169 134.186 141.789  1.00  0.00    -0.545 OA
ATOM      9  O   UNL     1     141.414 134.593 141.913  1.00  0.00    -0.545 OA
ENDBRANCH   1   7
BRANCH   5  10
ATOM     10  O   UNL     1     137.813 133.526 146.788  1.00  0.00    -0.493 OA
ATOM     11  C   UNL     1     136.437 133.889 146.745  1.00  0.00     0.278 C 
ENDBRANCH   5  10
BRANCH   6  12
ATOM     12  O   UNL     1     139.616 135.207 148.125  1.00  0.00    -0.504 OA
ATOM     13  H   UNL     1     139.255 136.068 148.518  1.00  0.00     0.293 HD
ENDBRANCH   6  12
TORSDOF 3
ENDMDL
