MODEL 1
REMARK VINA RESULT:    -5.449      0.000      0.000
REMARK INTER + INTRA:          -7.354
REMARK INTER:                  -7.679
REMARK INTRA:                   0.325
REMARK UNBOUND:                 0.325
REMARK SMILES CC1=CCC(=C(C)C)C(=O)CC(C)=CCC1
REMARK SMILES IDX 12 1 14 2 13 3 15 4 16 5 2 6 1 7 3 8 11 10 9 11 10 12 5 13
REMARK SMILES IDX 6 14 7 15 8 16 4 17
REMARK H PARENT
REMARK Flexibility Score: 60.00
ROOT
ATOM      1  C   UNL     1      -5.400 -13.665  29.155  1.00  0.00    -0.070 C 
ATOM      2  C   UNL     1      -5.321 -14.341  30.325  1.00  0.00    -0.027 C 
ATOM      3  C   UNL     1      -5.618 -14.454  27.888  1.00  0.00     0.039 C 
ENDROOT
BRANCH   2   4
ATOM      4  C   UNL     1      -5.232 -13.715  31.696  1.00  0.00     0.032 C 
BRANCH   4   5
ATOM      5  C   UNL     1      -3.903 -13.014  32.012  1.00  0.00     0.034 C 
BRANCH   5   6
ATOM      6  C   UNL     1      -4.026 -11.513  32.195  1.00  0.00    -0.077 C 
ATOM      7  C   UNL     1      -4.934 -11.011  33.291  1.00  0.00     0.039 C 
ATOM      8  C   UNL     1      -3.437 -10.585  31.399  1.00  0.00    -0.023 CG0
ATOM      9  G   UNL     1      -2.382 -10.794  30.328  1.00  0.00     0.000 G0
ENDBRANCH   5   6
ENDBRANCH   4   5
ENDBRANCH   2   4
BRANCH   1  10
ATOM     10  C   UNL     1      -5.195 -12.170  29.041  1.00  0.00     0.111 C 
BRANCH  10  11
ATOM     11  C   UNL     1      -3.827 -11.848  28.497  1.00  0.00     0.163 C 
ATOM     12  O   UNL     1      -3.713 -11.521  27.286  1.00  0.00    -0.294 OA
BRANCH  11  13
ATOM     13  C   UNL     1      -2.603 -11.914  29.340  1.00  0.00    -0.002 C 
ATOM     14  C   UNL     1      -1.819 -13.026  29.329  1.00  0.00    -0.069 C 
ATOM     15  C   UNL     1      -2.085 -14.145  28.349  1.00  0.00     0.039 C 
ATOM     16  C   UNL     1      -0.646 -13.176  30.268  1.00  0.00     0.039 C 
BRANCH  13  17
ATOM     17  C   UNL     1      -2.384 -10.776  30.322  1.00  0.00     0.066 CG0
ATOM     18  G   UNL     1      -3.436 -10.576  31.396  1.00  0.00     0.000 G0
ENDBRANCH  13  17
ENDBRANCH  11  13
ENDBRANCH  10  11
ENDBRANCH   1  10
TORSDOF 0
ENDMDL
MODEL 2
REMARK VINA RESULT:    -5.422      1.790      4.249
REMARK INTER + INTRA:          -7.316
REMARK INTER:                  -7.549
REMARK INTRA:                   0.233
REMARK UNBOUND:                 0.325
REMARK SMILES CC1=CCC(=C(C)C)C(=O)CC(C)=CCC1
REMARK SMILES IDX 12 1 14 2 13 3 15 4 16 5 2 6 1 7 3 8 11 10 9 11 10 12 5 13
REMARK SMILES IDX 6 14 7 15 8 16 4 17
REMARK H PARENT
REMARK Flexibility Score: 60.00
ROOT
ATOM      1  C   UNL     1      -3.735 -11.654  31.959  1.00  0.00    -0.070 C 
ATOM      2  C   UNL     1      -2.399 -11.803  32.124  1.00  0.00    -0.027 C 
ATOM      3  C   UNL     1      -4.433 -10.566  32.735  1.00  0.00     0.039 C 
ENDROOT
BRANCH   2   4
ATOM      4  C   UNL     1      -1.518 -12.748  31.343  1.00  0.00     0.032 C 
BRANCH   4   5
ATOM      5  C   UNL     1      -1.010 -12.210  29.998  1.00  0.00     0.034 C 
BRANCH   5   6
ATOM      6  C   UNL     1      -1.126 -13.201  28.855  1.00  0.00    -0.077 C 
ATOM      7  C   UNL     1      -0.093 -14.298  28.768  1.00  0.00     0.039 C 
ATOM      8  C   UNL     1      -2.048 -13.132  27.861  1.00  0.00    -0.023 CG0
ATOM      9  G   UNL     1      -3.268 -12.235  27.768  1.00  0.00     0.000 G0
ENDBRANCH   5   6
ENDBRANCH   4   5
ENDBRANCH   2   4
BRANCH   1  10
ATOM     10  C   UNL     1      -4.576 -12.575  31.102  1.00  0.00     0.111 C 
BRANCH  10  11
ATOM     11  C   UNL     1      -4.846 -11.963  29.750  1.00  0.00     0.163 C 
ATOM     12  O   UNL     1      -5.371 -10.819  29.692  1.00  0.00    -0.294 OA
BRANCH  11  13
ATOM     13  C   UNL     1      -4.525 -12.670  28.482  1.00  0.00    -0.002 C 
ATOM     14  C   UNL     1      -5.249 -13.756  28.096  1.00  0.00    -0.069 C 
ATOM     15  C   UNL     1      -6.485 -14.168  28.862  1.00  0.00     0.039 C 
ATOM     16  C   UNL     1      -4.866 -14.572  26.885  1.00  0.00     0.039 C 
BRANCH  13  17
ATOM     17  C   UNL     1      -3.265 -12.234  27.754  1.00  0.00     0.066 CG0
ATOM     18  G   UNL     1      -2.057 -13.146  27.855  1.00  0.00     0.000 G0
ENDBRANCH  13  17
ENDBRANCH  11  13
ENDBRANCH  10  11
ENDBRANCH   1  10
TORSDOF 0
ENDMDL
MODEL 3
REMARK VINA RESULT:    -5.320      2.089      4.817
REMARK INTER + INTRA:          -7.173
REMARK INTER:                  -7.630
REMARK INTRA:                   0.457
REMARK UNBOUND:                 0.325
REMARK SMILES CC1=CCC(=C(C)C)C(=O)CC(C)=CCC1
REMARK SMILES IDX 12 1 14 2 13 3 15 4 16 5 2 6 1 7 3 8 11 10 9 11 10 12 5 13
REMARK SMILES IDX 6 14 7 15 8 16 4 17
REMARK H PARENT
REMARK Flexibility Score: 60.00
ROOT
ATOM      1  C   UNL     1      -0.752 -13.183  30.878  1.00  0.00    -0.070 C 
ATOM      2  C   UNL     1      -0.541 -13.330  29.549  1.00  0.00    -0.027 C 
ATOM      3  C   UNL     1       0.312 -12.500  31.699  1.00  0.00     0.039 C 
ENDROOT
BRANCH   2   4
ATOM      4  C   UNL     1      -1.539 -13.871  28.555  1.00  0.00     0.032 C 
BRANCH   4   5
ATOM      5  C   UNL     1      -2.471 -12.826  27.925  1.00  0.00     0.034 C 
BRANCH   5   6
ATOM      6  C   UNL     1      -3.879 -13.329  27.671  1.00  0.00    -0.077 C 
ATOM      7  C   UNL     1      -4.122 -14.137  26.419  1.00  0.00     0.039 C 
ATOM      8  C   UNL     1      -4.955 -13.045  28.449  1.00  0.00    -0.023 CG0
ATOM      9  G   UNL     1      -4.982 -12.384  29.814  1.00  0.00     0.000 G0
ENDBRANCH   5   6
ENDBRANCH   4   5
ENDBRANCH   2   4
BRANCH   1  10
ATOM     10  C   UNL     1      -1.960 -13.745  31.596  1.00  0.00     0.111 C 
BRANCH  10  11
ATOM     11  C   UNL     1      -3.121 -12.785  31.539  1.00  0.00     0.163 C 
ATOM     12  O   UNL     1      -2.963 -11.610  31.967  1.00  0.00    -0.294 OA
BRANCH  11  13
ATOM     13  C   UNL     1      -4.451 -13.179  31.004  1.00  0.00    -0.002 C 
ATOM     14  C   UNL     1      -5.073 -14.299  31.464  1.00  0.00    -0.069 C 
ATOM     15  C   UNL     1      -4.504 -15.070  32.633  1.00  0.00     0.039 C 
ATOM     16  C   UNL     1      -6.360 -14.798  30.850  1.00  0.00     0.039 C 
BRANCH  13  17
ATOM     17  C   UNL     1      -4.977 -12.387  29.820  1.00  0.00     0.066 CG0
ATOM     18  G   UNL     1      -4.947 -13.067  28.464  1.00  0.00     0.000 G0
ENDBRANCH  13  17
ENDBRANCH  11  13
ENDBRANCH  10  11
ENDBRANCH   1  10
TORSDOF 0
ENDMDL
MODEL 4
REMARK VINA RESULT:    -5.319      1.867      3.797
REMARK INTER + INTRA:          -7.171
REMARK INTER:                  -7.471
REMARK INTRA:                   0.300
REMARK UNBOUND:                 0.325
REMARK SMILES CC1=CCC(=C(C)C)C(=O)CC(C)=CCC1
REMARK SMILES IDX 12 1 14 2 13 3 15 4 16 5 2 6 1 7 3 8 11 10 9 11 10 12 5 13
REMARK SMILES IDX 6 14 7 15 8 16 4 17
REMARK H PARENT
REMARK Flexibility Score: 60.00
ROOT
ATOM      1  C   UNL     1      -3.624 -11.274  28.421  1.00  0.00    -0.070 C 
ATOM      2  C   UNL     1      -2.940 -10.477  29.275  1.00  0.00    -0.027 C 
ATOM      3  C   UNL     1      -3.198 -11.302  26.975  1.00  0.00     0.039 C 
ENDROOT
BRANCH   2   4
ATOM      4  C   UNL     1      -3.141 -10.415  30.770  1.00  0.00     0.032 C 
BRANCH   4   5
ATOM      5  C   UNL     1      -1.945 -10.882  31.613  1.00  0.00     0.034 C 
BRANCH   5   6
ATOM      6  C   UNL     1      -1.440 -12.266  31.252  1.00  0.00    -0.077 C 
ATOM      7  C   UNL     1       0.014 -12.405  30.869  1.00  0.00     0.039 C 
ATOM      8  C   UNL     1      -2.214 -13.378  31.177  1.00  0.00    -0.023 CG0
ATOM      9  G   UNL     1      -3.651 -13.559  31.631  1.00  0.00     0.000 G0
ENDBRANCH   5   6
ENDBRANCH   4   5
ENDBRANCH   2   4
BRANCH   1  10
ATOM     10  C   UNL     1      -4.846 -12.071  28.823  1.00  0.00     0.111 C 
BRANCH  10  11
ATOM     11  C   UNL     1      -4.473 -13.482  29.203  1.00  0.00     0.163 C 
ATOM     12  O   UNL     1      -3.997 -14.246  28.321  1.00  0.00    -0.294 OA
BRANCH  11  13
ATOM     13  C   UNL     1      -4.657 -14.006  30.582  1.00  0.00    -0.002 C 
ATOM     14  C   UNL     1      -5.773 -14.716  30.905  1.00  0.00    -0.069 C 
ATOM     15  C   UNL     1      -6.764 -15.118  29.837  1.00  0.00     0.039 C 
ATOM     16  C   UNL     1      -6.052 -15.149  32.325  1.00  0.00     0.039 C 
BRANCH  13  17
ATOM     17  C   UNL     1      -3.647 -13.564  31.626  1.00  0.00     0.066 CG0
ATOM     18  G   UNL     1      -2.212 -13.382  31.168  1.00  0.00     0.000 G0
ENDBRANCH  13  17
ENDBRANCH  11  13
ENDBRANCH  10  11
ENDBRANCH   1  10
TORSDOF 0
ENDMDL
MODEL 5
REMARK VINA RESULT:    -5.162      1.858      3.532
REMARK INTER + INTRA:          -6.949
REMARK INTER:                  -6.871
REMARK INTRA:                  -0.078
REMARK UNBOUND:                 0.325
REMARK SMILES CC1=CCC(=C(C)C)C(=O)CC(C)=CCC1
REMARK SMILES IDX 12 1 14 2 13 3 15 4 16 5 2 6 1 7 3 8 11 10 9 11 10 12 5 13
REMARK SMILES IDX 6 14 7 15 8 16 4 17
REMARK H PARENT
REMARK Flexibility Score: 60.00
ROOT
ATOM      1  C   UNL     1      -2.058 -12.646  29.870  1.00  0.00    -0.070 C 
ATOM      2  C   UNL     1      -2.251 -12.786  31.203  1.00  0.00    -0.027 C 
ATOM      3  C   UNL     1      -1.204 -13.666  29.161  1.00  0.00     0.039 C 
ENDROOT
BRANCH   2   4
ATOM      4  C   UNL     1      -3.169 -11.940  32.051  1.00  0.00     0.032 C 
BRANCH   4   5
ATOM      5  C   UNL     1      -4.559 -12.539  32.310  1.00  0.00     0.034 C 
BRANCH   5   6
ATOM      6  C   UNL     1      -4.706 -13.978  31.854  1.00  0.00    -0.077 C 
ATOM      7  C   UNL     1      -4.321 -15.066  32.827  1.00  0.00     0.039 C 
ATOM      8  C   UNL     1      -5.089 -14.360  30.609  1.00  0.00    -0.023 CG0
ATOM      9  G   UNL     1      -5.657 -13.504  29.493  1.00  0.00     0.000 G0
ENDBRANCH   5   6
ENDBRANCH   4   5
ENDBRANCH   2   4
BRANCH   1  10
ATOM     10  C   UNL     1      -2.585 -11.473  29.071  1.00  0.00     0.111 C 
BRANCH  10  11
ATOM     11  C   UNL     1      -4.059 -11.622  28.795  1.00  0.00     0.163 C 
ATOM     12  O   UNL     1      -4.795 -10.601  28.847  1.00  0.00    -0.294 OA
BRANCH  11  13
ATOM     13  C   UNL     1      -4.677 -12.935  28.473  1.00  0.00    -0.002 C 
ATOM     14  C   UNL     1      -4.485 -13.505  27.252  1.00  0.00    -0.069 C 
ATOM     15  C   UNL     1      -3.519 -12.896  26.262  1.00  0.00     0.039 C 
ATOM     16  C   UNL     1      -5.203 -14.771  26.848  1.00  0.00     0.039 C 
BRANCH  13  17
ATOM     17  C   UNL     1      -5.653 -13.502  29.489  1.00  0.00     0.066 CG0
ATOM     18  G   UNL     1      -5.077 -14.369  30.593  1.00  0.00     0.000 G0
ENDBRANCH  13  17
ENDBRANCH  11  13
ENDBRANCH  10  11
ENDBRANCH   1  10
TORSDOF 0
ENDMDL
MODEL 6
REMARK VINA RESULT:    -5.112      1.258      2.004
REMARK INTER + INTRA:          -6.879
REMARK INTER:                  -7.236
REMARK INTRA:                   0.357
REMARK UNBOUND:                 0.325
REMARK SMILES CC1=CCC(=C(C)C)C(=O)CC(C)=CCC1
REMARK SMILES IDX 12 1 14 2 13 3 15 4 16 5 2 6 1 7 3 8 11 10 9 11 10 12 5 13
REMARK SMILES IDX 6 14 7 15 8 16 4 17
REMARK H PARENT
REMARK Flexibility Score: 60.00
ROOT
ATOM      1  C   UNL     1      -4.188 -13.968  27.499  1.00  0.00    -0.070 C 
ATOM      2  C   UNL     1      -5.339 -14.197  28.172  1.00  0.00    -0.027 C 
ATOM      3  C   UNL     1      -4.261 -13.758  26.007  1.00  0.00     0.039 C 
ENDROOT
BRANCH   2   4
ATOM      4  C   UNL     1      -5.474 -14.304  29.671  1.00  0.00     0.032 C 
BRANCH   4   5
ATOM      5  C   UNL     1      -5.255 -12.997  30.445  1.00  0.00     0.034 C 
BRANCH   5   6
ATOM      6  C   UNL     1      -4.392 -13.150  31.683  1.00  0.00    -0.077 C 
ATOM      7  C   UNL     1      -4.896 -14.052  32.784  1.00  0.00     0.039 C 
ATOM      8  C   UNL     1      -3.233 -12.480  31.907  1.00  0.00    -0.023 CG0
ATOM      9  G   UNL     1      -2.433 -11.631  30.937  1.00  0.00     0.000 G0
ENDBRANCH   5   6
ENDBRANCH   4   5
ENDBRANCH   2   4
BRANCH   1  10
ATOM     10  C   UNL     1      -2.822 -13.996  28.151  1.00  0.00     0.111 C 
BRANCH  10  11
ATOM     11  C   UNL     1      -2.390 -12.613  28.567  1.00  0.00     0.163 C 
ATOM     12  O   UNL     1      -2.642 -11.641  27.807  1.00  0.00    -0.294 OA
BRANCH  11  13
ATOM     13  C   UNL     1      -1.665 -12.358  29.840  1.00  0.00    -0.002 C 
ATOM     14  C   UNL     1      -0.434 -12.900  30.052  1.00  0.00    -0.069 C 
ATOM     15  C   UNL     1       0.284 -13.634  28.943  1.00  0.00     0.039 C 
ATOM     16  C   UNL     1       0.269 -12.768  31.382  1.00  0.00     0.039 C 
BRANCH  13  17
ATOM     17  C   UNL     1      -2.430 -11.631  30.932  1.00  0.00     0.066 CG0
ATOM     18  G   UNL     1      -3.234 -12.481  31.898  1.00  0.00     0.000 G0
ENDBRANCH  13  17
ENDBRANCH  11  13
ENDBRANCH  10  11
ENDBRANCH   1  10
TORSDOF 0
ENDMDL
MODEL 7
REMARK VINA RESULT:    -5.107      1.871      3.650
REMARK INTER + INTRA:          -6.872
REMARK INTER:                  -7.327
REMARK INTRA:                   0.455
REMARK UNBOUND:                 0.325
REMARK SMILES CC1=CCC(=C(C)C)C(=O)CC(C)=CCC1
REMARK SMILES IDX 12 1 14 2 13 3 15 4 16 5 2 6 1 7 3 8 11 10 9 11 10 12 5 13
REMARK SMILES IDX 6 14 7 15 8 16 4 17
REMARK H PARENT
REMARK Flexibility Score: 60.00
ROOT
ATOM      1  C   UNL     1      -4.571 -13.616  31.232  1.00  0.00    -0.070 C 
ATOM      2  C   UNL     1      -5.428 -14.423  30.564  1.00  0.00    -0.027 C 
ATOM      3  C   UNL     1      -3.752 -14.212  32.349  1.00  0.00     0.039 C 
ENDROOT
BRANCH   2   4
ATOM      4  C   UNL     1      -6.231 -14.035  29.346  1.00  0.00     0.032 C 
BRANCH   4   5
ATOM      5  C   UNL     1      -5.553 -13.028  28.407  1.00  0.00     0.034 C 
BRANCH   5   6
ATOM      6  C   UNL     1      -4.485 -13.637  27.517  1.00  0.00    -0.077 C 
ATOM      7  C   UNL     1      -4.902 -14.739  26.573  1.00  0.00     0.039 C 
ATOM      8  C   UNL     1      -3.168 -13.314  27.557  1.00  0.00    -0.023 CG0
ATOM      9  G   UNL     1      -2.499 -12.169  28.294  1.00  0.00     0.000 G0
ENDBRANCH   5   6
ENDBRANCH   4   5
ENDBRANCH   2   4
BRANCH   1  10
ATOM     10  C   UNL     1      -4.453 -12.129  30.972  1.00  0.00     0.111 C 
BRANCH  10  11
ATOM     11  C   UNL     1      -3.015 -11.726  30.768  1.00  0.00     0.163 C 
ATOM     12  O   UNL     1      -2.538 -10.792  31.466  1.00  0.00    -0.294 OA
BRANCH  11  13
ATOM     13  C   UNL     1      -2.142 -12.386  29.762  1.00  0.00    -0.002 C 
ATOM     14  C   UNL     1      -1.001 -13.019  30.150  1.00  0.00    -0.069 C 
ATOM     15  C   UNL     1      -0.683 -13.199  31.617  1.00  0.00     0.039 C 
ATOM     16  C   UNL     1      -0.028 -13.584  29.143  1.00  0.00     0.039 C 
BRANCH  13  17
ATOM     17  C   UNL     1      -2.489 -12.165  28.300  1.00  0.00     0.066 CG0
ATOM     18  G   UNL     1      -3.163 -13.311  27.568  1.00  0.00     0.000 G0
ENDBRANCH  13  17
ENDBRANCH  11  13
ENDBRANCH  10  11
ENDBRANCH   1  10
TORSDOF 0
ENDMDL
MODEL 8
REMARK VINA RESULT:    -4.911      1.406      3.222
REMARK INTER + INTRA:          -6.596
REMARK INTER:                  -7.118
REMARK INTRA:                   0.522
REMARK UNBOUND:                 0.325
REMARK SMILES CC1=CCC(=C(C)C)C(=O)CC(C)=CCC1
REMARK SMILES IDX 12 1 14 2 13 3 15 4 16 5 2 6 1 7 3 8 11 10 9 11 10 12 5 13
REMARK SMILES IDX 6 14 7 15 8 16 4 17
REMARK H PARENT
REMARK Flexibility Score: 60.00
ROOT
ATOM      1  C   UNL     1      -3.156 -13.241  27.682  1.00  0.00    -0.070 C 
ATOM      2  C   UNL     1      -2.184 -14.145  27.943  1.00  0.00    -0.027 C 
ATOM      3  C   UNL     1      -4.187 -13.583  26.636  1.00  0.00     0.039 C 
ENDROOT
BRANCH   2   4
ATOM      4  C   UNL     1      -1.149 -14.030  29.036  1.00  0.00     0.032 C 
BRANCH   4   5
ATOM      5  C   UNL     1      -1.705 -14.002  30.467  1.00  0.00     0.034 C 
BRANCH   5   6
ATOM      6  C   UNL     1      -1.321 -12.762  31.253  1.00  0.00    -0.077 C 
ATOM      7  C   UNL     1       0.149 -12.458  31.410  1.00  0.00     0.039 C 
ATOM      8  C   UNL     1      -2.199 -11.946  31.888  1.00  0.00    -0.023 CG0
ATOM      9  G   UNL     1      -3.713 -11.930  31.790  1.00  0.00     0.000 G0
ENDBRANCH   5   6
ENDBRANCH   4   5
ENDBRANCH   2   4
BRANCH   1  10
ATOM     10  C   UNL     1      -3.213 -11.870  28.322  1.00  0.00     0.111 C 
BRANCH  10  11
ATOM     11  C   UNL     1      -4.344 -11.781  29.315  1.00  0.00     0.163 C 
ATOM     12  O   UNL     1      -5.306 -11.003  29.076  1.00  0.00    -0.294 OA
BRANCH  11  13
ATOM     13  C   UNL     1      -4.358 -12.573  30.573  1.00  0.00    -0.002 C 
ATOM     14  C   UNL     1      -5.049 -13.744  30.642  1.00  0.00    -0.069 C 
ATOM     15  C   UNL     1      -5.681 -14.338  29.404  1.00  0.00     0.039 C 
ATOM     16  C   UNL     1      -5.191 -14.504  31.940  1.00  0.00     0.039 C 
BRANCH  13  17
ATOM     17  C   UNL     1      -3.727 -11.931  31.796  1.00  0.00     0.066 CG0
ATOM     18  G   UNL     1      -2.212 -11.946  31.881  1.00  0.00     0.000 G0
ENDBRANCH  13  17
ENDBRANCH  11  13
ENDBRANCH  10  11
ENDBRANCH   1  10
TORSDOF 0
ENDMDL
MODEL 9
REMARK VINA RESULT:    -4.797      1.790      3.468
REMARK INTER + INTRA:          -6.435
REMARK INTER:                  -6.889
REMARK INTRA:                   0.454
REMARK UNBOUND:                 0.325
REMARK SMILES CC1=CCC(=C(C)C)C(=O)CC(C)=CCC1
REMARK SMILES IDX 12 1 14 2 13 3 15 4 16 5 2 6 1 7 3 8 11 10 9 11 10 12 5 13
REMARK SMILES IDX 6 14 7 15 8 16 4 17
REMARK H PARENT
REMARK Flexibility Score: 60.00
ROOT
ATOM      1  C   UNL     1      -4.386 -11.331  31.751  1.00  0.00    -0.070 C 
ATOM      2  C   UNL     1      -4.669 -12.472  32.421  1.00  0.00    -0.027 C 
ATOM      3  C   UNL     1      -3.690 -10.220  32.496  1.00  0.00     0.039 C 
ENDROOT
BRANCH   2   4
ATOM      4  C   UNL     1      -5.245 -13.728  31.813  1.00  0.00     0.032 C 
BRANCH   4   5
ATOM      5  C   UNL     1      -4.487 -14.274  30.594  1.00  0.00     0.034 C 
BRANCH   5   6
ATOM      6  C   UNL     1      -5.300 -14.277  29.313  1.00  0.00    -0.077 C 
ATOM      7  C   UNL     1      -6.677 -14.893  29.357  1.00  0.00     0.039 C 
ATOM      8  C   UNL     1      -4.853 -13.832  28.112  1.00  0.00    -0.023 CG0
ATOM      9  G   UNL     1      -3.587 -13.052  27.806  1.00  0.00     0.000 G0
ENDBRANCH   5   6
ENDBRANCH   4   5
ENDBRANCH   2   4
BRANCH   1  10
ATOM     10  C   UNL     1      -4.808 -11.079  30.320  1.00  0.00     0.111 C 
BRANCH  10  11
ATOM     11  C   UNL     1      -3.614 -11.045  29.400  1.00  0.00     0.163 C 
ATOM     12  O   UNL     1      -3.185  -9.930  28.997  1.00  0.00    -0.294 OA
BRANCH  11  13
ATOM     13  C   UNL     1      -2.930 -12.283  28.942  1.00  0.00    -0.002 C 
ATOM     14  C   UNL     1      -1.701 -12.610  29.426  1.00  0.00    -0.069 C 
ATOM     15  C   UNL     1      -1.079 -11.811  30.548  1.00  0.00     0.039 C 
ATOM     16  C   UNL     1      -0.925 -13.788  28.885  1.00  0.00     0.039 C 
BRANCH  13  17
ATOM     17  C   UNL     1      -3.582 -13.046  27.802  1.00  0.00     0.066 CG0
ATOM     18  G   UNL     1      -4.835 -13.839  28.126  1.00  0.00     0.000 G0
ENDBRANCH  13  17
ENDBRANCH  11  13
ENDBRANCH  10  11
ENDBRANCH   1  10
TORSDOF 0
ENDMDL
