MODEL 1
REMARK VINA RESULT:    -6.420      0.000      0.000
REMARK INTER + INTRA:          -7.949
REMARK INTER:                  -7.733
REMARK INTRA:                  -0.216
REMARK UNBOUND:                -0.216
REMARK SMILES O=c1c(O)c(-c2ccc(O)c(O)c2)oc2cc(O)cc(O)c12
REMARK SMILES IDX 5 1 3 2 2 3 1 4 22 5 20 6 19 7 17 8 16 9 15 10 14 11 6 12
REMARK SMILES IDX 7 13 8 14 9 15 13 16 11 17 10 18 12 20 4 22 21 24 18 26
REMARK H PARENT 10 19 12 21 4 23 21 25 18 27
REMARK Flexibility Score: inf
ROOT
ATOM      1  C   UNL     1      -6.270  25.661  33.856  1.00  0.00     0.180 A 
ATOM      2  C   UNL     1      -7.057  24.714  34.533  1.00  0.00     0.208 A 
ATOM      3  C   UNL     1      -7.349  23.494  33.900  1.00  0.00     0.238 A 
ATOM      4  O   UNL     1      -8.099  22.673  34.489  1.00  0.00    -0.285 OA
ATOM      5  C   UNL     1      -6.837  23.232  32.607  1.00  0.00     0.111 A 
ATOM      6  C   UNL     1      -7.036  22.015  31.889  1.00  0.00     0.134 A 
ATOM      7  C   UNL     1      -6.593  21.914  30.564  1.00  0.00     0.093 A 
ATOM      8  C   UNL     1      -5.902  22.961  29.954  1.00  0.00     0.123 A 
ATOM      9  C   UNL     1      -5.650  24.134  30.668  1.00  0.00     0.094 A 
ATOM     10  C   UNL     1      -6.111  24.276  31.978  1.00  0.00     0.146 A 
ATOM     11  O   UNL     1      -5.859  25.412  32.618  1.00  0.00    -0.452 OA
ENDROOT
BRANCH   1  12
ATOM     12  C   UNL     1      -5.900  26.959  34.467  1.00  0.00     0.025 A 
ATOM     13  C   UNL     1      -5.042  27.026  35.580  1.00  0.00     0.016 A 
ATOM     14  C   UNL     1      -4.686  28.262  36.125  1.00  0.00     0.051 A 
ATOM     15  C   UNL     1      -5.170  29.448  35.559  1.00  0.00     0.157 A 
ATOM     16  C   UNL     1      -6.364  28.153  33.891  1.00  0.00     0.062 A 
ATOM     17  C   UNL     1      -6.008  29.394  34.438  1.00  0.00     0.158 A 
BRANCH  15  18
ATOM     18  O   UNL     1      -4.819  30.684  36.101  1.00  0.00    -0.504 OA
ATOM     19  H   UNL     1      -5.467  31.213  36.674  1.00  0.00     0.293 HD
ENDBRANCH  15  18
BRANCH  17  20
ATOM     20  O   UNL     1      -6.482  30.577  33.873  1.00  0.00    -0.504 OA
ATOM     21  H   UNL     1      -6.295  30.814  32.906  1.00  0.00     0.293 HD
ENDBRANCH  17  20
ENDBRANCH   1  12
BRANCH   2  22
ATOM     22  O   UNL     1      -7.571  25.003  35.800  1.00  0.00    -0.502 OA
ATOM     23  H   UNL     1      -8.420  25.540  35.933  1.00  0.00     0.293 HD
ENDBRANCH   2  22
BRANCH   6  24
ATOM     24  O   UNL     1      -7.633  20.875  32.435  1.00  0.00    -0.507 OA
ATOM     25  H   UNL     1      -7.129  20.091  32.821  1.00  0.00     0.293 HD
ENDBRANCH   6  24
BRANCH   8  26
ATOM     26  O   UNL     1      -5.463  22.821  28.639  1.00  0.00    -0.508 OA
ATOM     27  H   UNL     1      -5.671  21.991  28.097  1.00  0.00     0.293 HD
ENDBRANCH   8  26
TORSDOF 6
ENDMDL
MODEL 2
REMARK VINA RESULT:    -6.237      8.250     12.791
REMARK INTER + INTRA:          -7.728
REMARK INTER:                  -7.812
REMARK INTRA:                   0.084
REMARK UNBOUND:                -0.216
REMARK SMILES O=c1c(O)c(-c2ccc(O)c(O)c2)oc2cc(O)cc(O)c12
REMARK SMILES IDX 5 1 3 2 2 3 1 4 22 5 20 6 19 7 17 8 16 9 15 10 14 11 6 12
REMARK SMILES IDX 7 13 8 14 9 15 13 16 11 17 10 18 12 20 4 22 21 24 18 26
REMARK H PARENT 10 19 12 21 4 23 21 25 18 27
REMARK Flexibility Score: inf
ROOT
ATOM      1  C   UNL     1      -4.715  36.540  34.163  1.00  0.00     0.180 A 
ATOM      2  C   UNL     1      -4.576  37.754  34.856  1.00  0.00     0.208 A 
ATOM      3  C   UNL     1      -3.823  38.788  34.276  1.00  0.00     0.238 A 
ATOM      4  O   UNL     1      -3.657  39.853  34.927  1.00  0.00    -0.285 OA
ATOM      5  C   UNL     1      -3.231  38.600  33.004  1.00  0.00     0.111 A 
ATOM      6  C   UNL     1      -2.481  39.592  32.305  1.00  0.00     0.134 A 
ATOM      7  C   UNL     1      -1.832  39.254  31.111  1.00  0.00     0.093 A 
ATOM      8  C   UNL     1      -1.960  37.980  30.558  1.00  0.00     0.123 A 
ATOM      9  C   UNL     1      -2.740  37.019  31.204  1.00  0.00     0.094 A 
ATOM     10  C   UNL     1      -3.369  37.317  32.415  1.00  0.00     0.146 A 
ATOM     11  O   UNL     1      -4.094  36.371  33.001  1.00  0.00    -0.452 OA
ENDROOT
BRANCH   1  12
ATOM     12  C   UNL     1      -5.514  35.413  34.697  1.00  0.00     0.025 A 
ATOM     13  C   UNL     1      -6.757  35.628  35.319  1.00  0.00     0.016 A 
ATOM     14  C   UNL     1      -7.506  34.548  35.794  1.00  0.00     0.051 A 
ATOM     15  C   UNL     1      -7.030  33.239  35.644  1.00  0.00     0.157 A 
ATOM     16  C   UNL     1      -5.053  34.097  34.531  1.00  0.00     0.062 A 
ATOM     17  C   UNL     1      -5.803  33.013  35.009  1.00  0.00     0.158 A 
BRANCH  15  18
ATOM     18  O   UNL     1      -7.772  32.159  36.119  1.00  0.00    -0.504 OA
ATOM     19  H   UNL     1      -7.517  31.677  36.973  1.00  0.00     0.293 HD
ENDBRANCH  15  18
BRANCH  17  20
ATOM     20  O   UNL     1      -5.335  31.709  34.854  1.00  0.00    -0.504 OA
ATOM     21  H   UNL     1      -4.671  31.303  35.503  1.00  0.00     0.293 HD
ENDBRANCH  17  20
ENDBRANCH   1  12
BRANCH   2  22
ATOM     22  O   UNL     1      -5.150  37.911  36.121  1.00  0.00    -0.502 OA
ATOM     23  H   UNL     1      -5.369  38.820  36.511  1.00  0.00     0.293 HD
ENDBRANCH   2  22
BRANCH   6  24
ATOM     24  O   UNL     1      -2.365  40.921  32.723  1.00  0.00    -0.507 OA
ATOM     25  H   UNL     1      -3.118  41.592  32.718  1.00  0.00     0.293 HD
ENDBRANCH   6  24
BRANCH   8  26
ATOM     26  O   UNL     1      -1.312  37.682  29.361  1.00  0.00    -0.508 OA
ATOM     27  H   UNL     1      -1.407  36.776  28.918  1.00  0.00     0.293 HD
ENDBRANCH   8  26
TORSDOF 6
ENDMDL
MODEL 3
REMARK VINA RESULT:    -6.201     17.268     19.757
REMARK INTER + INTRA:          -7.686
REMARK INTER:                  -7.530
REMARK INTRA:                  -0.156
REMARK UNBOUND:                -0.216
REMARK SMILES O=c1c(O)c(-c2ccc(O)c(O)c2)oc2cc(O)cc(O)c12
REMARK SMILES IDX 5 1 3 2 2 3 1 4 22 5 20 6 19 7 17 8 16 9 15 10 14 11 6 12
REMARK SMILES IDX 7 13 8 14 9 15 13 16 11 17 10 18 12 20 4 22 21 24 18 26
REMARK H PARENT 10 19 12 21 4 23 21 25 18 27
REMARK Flexibility Score: inf
ROOT
ATOM      1  C   UNL     1      -3.432  37.593  18.973  1.00  0.00     0.180 A 
ATOM      2  C   UNL     1      -4.677  37.705  18.331  1.00  0.00     0.208 A 
ATOM      3  C   UNL     1      -5.778  38.181  19.060  1.00  0.00     0.238 A 
ATOM      4  O   UNL     1      -6.903  38.227  18.495  1.00  0.00    -0.285 OA
ATOM      5  C   UNL     1      -5.618  38.555  20.416  1.00  0.00     0.111 A 
ATOM      6  C   UNL     1      -6.656  39.087  21.238  1.00  0.00     0.134 A 
ATOM      7  C   UNL     1      -6.416  39.299  22.602  1.00  0.00     0.093 A 
ATOM      8  C   UNL     1      -5.160  39.061  23.158  1.00  0.00     0.123 A 
ATOM      9  C   UNL     1      -4.121  38.596  22.350  1.00  0.00     0.094 A 
ATOM     10  C   UNL     1      -4.340  38.341  20.995  1.00  0.00     0.146 A 
ATOM     11  O   UNL     1      -3.328  37.889  20.264  1.00  0.00    -0.452 OA
ENDROOT
BRANCH   1  12
ATOM     12  C   UNL     1      -2.219  37.123  18.265  1.00  0.00     0.025 A 
ATOM     13  C   UNL     1      -1.103  37.962  18.088  1.00  0.00     0.016 A 
ATOM     14  C   UNL     1       0.040  37.490  17.438  1.00  0.00     0.051 A 
ATOM     15  C   UNL     1       0.091  36.172  16.968  1.00  0.00     0.157 A 
ATOM     16  C   UNL     1      -2.153  35.796  17.810  1.00  0.00     0.062 A 
ATOM     17  C   UNL     1      -1.006  35.322  17.157  1.00  0.00     0.158 A 
BRANCH  15  18
ATOM     18  O   UNL     1       1.228  35.697  16.317  1.00  0.00    -0.504 OA
ATOM     19  H   UNL     1       1.893  35.093  16.786  1.00  0.00     0.293 HD
ENDBRANCH  15  18
BRANCH  17  20
ATOM     20  O   UNL     1      -0.950  34.008  16.694  1.00  0.00    -0.504 OA
ATOM     21  H   UNL     1      -0.812  33.797  15.712  1.00  0.00     0.293 HD
ENDBRANCH  17  20
ENDBRANCH   1  12
BRANCH   2  22
ATOM     22  O   UNL     1      -4.818  37.310  16.998  1.00  0.00    -0.502 OA
ATOM     23  H   UNL     1      -5.690  37.409  16.491  1.00  0.00     0.293 HD
ENDBRANCH   2  22
BRANCH   6  24
ATOM     24  O   UNL     1      -7.920  39.447  20.764  1.00  0.00    -0.507 OA
ATOM     25  H   UNL     1      -8.665  38.797  20.563  1.00  0.00     0.293 HD
ENDBRANCH   6  24
BRANCH   8  26
ATOM     26  O   UNL     1      -4.953  39.298  24.515  1.00  0.00    -0.508 OA
ATOM     27  H   UNL     1      -4.097  39.016  24.978  1.00  0.00     0.293 HD
ENDBRANCH   8  26
TORSDOF 6
ENDMDL
MODEL 4
REMARK VINA RESULT:    -6.191     18.325     19.925
REMARK INTER + INTRA:          -7.674
REMARK INTER:                  -7.566
REMARK INTRA:                  -0.108
REMARK UNBOUND:                -0.216
REMARK SMILES O=c1c(O)c(-c2ccc(O)c(O)c2)oc2cc(O)cc(O)c12
REMARK SMILES IDX 5 1 3 2 2 3 1 4 22 5 20 6 19 7 17 8 16 9 15 10 14 11 6 12
REMARK SMILES IDX 7 13 8 14 9 15 13 16 11 17 10 18 12 20 4 22 21 24 18 26
REMARK H PARENT 10 19 12 21 4 23 21 25 18 27
REMARK Flexibility Score: inf
ROOT
ATOM      1  C   UNL     1      -3.430  38.492  19.131  1.00  0.00     0.180 A 
ATOM      2  C   UNL     1      -2.449  39.472  18.906  1.00  0.00     0.208 A 
ATOM      3  C   UNL     1      -1.273  39.114  18.227  1.00  0.00     0.238 A 
ATOM      4  O   UNL     1      -0.374  39.983  18.078  1.00  0.00    -0.285 OA
ATOM      5  C   UNL     1      -1.100  37.787  17.768  1.00  0.00     0.111 A 
ATOM      6  C   UNL     1       0.033  37.324  17.035  1.00  0.00     0.134 A 
ATOM      7  C   UNL     1       0.158  35.960  16.745  1.00  0.00     0.093 A 
ATOM      8  C   UNL     1      -0.839  35.053  17.103  1.00  0.00     0.123 A 
ATOM      9  C   UNL     1      -1.980  35.505  17.768  1.00  0.00     0.094 A 
ATOM     10  C   UNL     1      -2.115  36.854  18.104  1.00  0.00     0.146 A 
ATOM     11  O   UNL     1      -3.211  37.240  18.746  1.00  0.00    -0.452 OA
ENDROOT
BRANCH   1  12
ATOM     12  C   UNL     1      -4.707  38.798  19.817  1.00  0.00     0.025 A 
ATOM     13  C   UNL     1      -5.946  38.596  19.182  1.00  0.00     0.016 A 
ATOM     14  C   UNL     1      -7.139  38.868  19.856  1.00  0.00     0.051 A 
ATOM     15  C   UNL     1      -7.113  39.332  21.178  1.00  0.00     0.157 A 
ATOM     16  C   UNL     1      -4.688  39.242  21.149  1.00  0.00     0.062 A 
ATOM     17  C   UNL     1      -5.885  39.516  21.826  1.00  0.00     0.158 A 
BRANCH  15  18
ATOM     18  O   UNL     1      -8.300  39.607  21.854  1.00  0.00    -0.504 OA
ATOM     19  H   UNL     1      -9.185  39.672  21.364  1.00  0.00     0.293 HD
ENDBRANCH  15  18
BRANCH  17  20
ATOM     20  O   UNL     1      -5.862  39.971  23.144  1.00  0.00    -0.504 OA
ATOM     21  H   UNL     1      -5.077  39.781  23.757  1.00  0.00     0.293 HD
ENDBRANCH  17  20
ENDBRANCH   1  12
BRANCH   2  22
ATOM     22  O   UNL     1      -2.630  40.772  19.388  1.00  0.00    -0.502 OA
ATOM     23  H   UNL     1      -1.893  41.467  19.367  1.00  0.00     0.293 HD
ENDBRANCH   2  22
BRANCH   6  24
ATOM     24  O   UNL     1       1.042  38.160  16.548  1.00  0.00    -0.507 OA
ATOM     25  H   UNL     1       0.889  38.961  15.955  1.00  0.00     0.293 HD
ENDBRANCH   6  24
BRANCH   8  26
ATOM     26  O   UNL     1      -0.689  33.705  16.785  1.00  0.00    -0.508 OA
ATOM     27  H   UNL     1      -1.438  33.039  16.932  1.00  0.00     0.293 HD
ENDBRANCH   8  26
TORSDOF 6
ENDMDL
MODEL 5
REMARK VINA RESULT:    -6.004     17.394     19.900
REMARK INTER + INTRA:          -7.448
REMARK INTER:                  -7.125
REMARK INTRA:                  -0.323
REMARK UNBOUND:                -0.216
REMARK SMILES O=c1c(O)c(-c2ccc(O)c(O)c2)oc2cc(O)cc(O)c12
REMARK SMILES IDX 5 1 3 2 2 3 1 4 22 5 20 6 19 7 17 8 16 9 15 10 14 11 6 12
REMARK SMILES IDX 7 13 8 14 9 15 13 16 11 17 10 18 12 20 4 22 21 24 18 26
REMARK H PARENT 10 19 12 21 4 23 21 25 18 27
REMARK Flexibility Score: inf
ROOT
ATOM      1  C   UNL     1      -2.621  39.211  20.390  1.00  0.00     0.180 A 
ATOM      2  C   UNL     1      -2.096  39.371  21.683  1.00  0.00     0.208 A 
ATOM      3  C   UNL     1      -2.980  39.519  22.764  1.00  0.00     0.238 A 
ATOM      4  O   UNL     1      -2.504  39.718  23.912  1.00  0.00    -0.285 OA
ATOM      5  C   UNL     1      -4.378  39.489  22.540  1.00  0.00     0.111 A 
ATOM      6  C   UNL     1      -5.365  39.589  23.565  1.00  0.00     0.134 A 
ATOM      7  C   UNL     1      -6.718  39.678  23.214  1.00  0.00     0.093 A 
ATOM      8  C   UNL     1      -7.123  39.605  21.882  1.00  0.00     0.123 A 
ATOM      9  C   UNL     1      -6.169  39.447  20.875  1.00  0.00     0.094 A 
ATOM     10  C   UNL     1      -4.810  39.392  21.192  1.00  0.00     0.146 A 
ATOM     11  O   UNL     1      -3.935  39.252  20.203  1.00  0.00    -0.452 OA
ENDROOT
BRANCH   1  12
ATOM     12  C   UNL     1      -1.753  39.024  19.204  1.00  0.00     0.025 A 
ATOM     13  C   UNL     1      -1.301  40.120  18.448  1.00  0.00     0.016 A 
ATOM     14  C   UNL     1      -0.464  39.923  17.347  1.00  0.00     0.051 A 
ATOM     15  C   UNL     1      -0.054  38.631  16.994  1.00  0.00     0.157 A 
ATOM     16  C   UNL     1      -1.321  37.733  18.859  1.00  0.00     0.062 A 
ATOM     17  C   UNL     1      -0.481  37.534  17.753  1.00  0.00     0.158 A 
BRANCH  15  18
ATOM     18  O   UNL     1       0.780  38.429  15.896  1.00  0.00    -0.504 OA
ATOM     19  H   UNL     1       1.789  38.455  15.986  1.00  0.00     0.293 HD
ENDBRANCH  15  18
BRANCH  17  20
ATOM     20  O   UNL     1      -0.066  36.249  17.405  1.00  0.00    -0.504 OA
ATOM     21  H   UNL     1       0.910  36.036  17.233  1.00  0.00     0.293 HD
ENDBRANCH  17  20
ENDBRANCH   1  12
BRANCH   2  22
ATOM     22  O   UNL     1      -0.713  39.421  21.880  1.00  0.00    -0.502 OA
ATOM     23  H   UNL     1      -0.072  39.741  21.162  1.00  0.00     0.293 HD
ENDBRANCH   2  22
BRANCH   6  24
ATOM     24  O   UNL     1      -5.075  39.578  24.932  1.00  0.00    -0.507 OA
ATOM     25  H   UNL     1      -4.831  38.754  25.461  1.00  0.00     0.293 HD
ENDBRANCH   6  24
BRANCH   8  26
ATOM     26  O   UNL     1      -8.479  39.682  21.571  1.00  0.00    -0.508 OA
ATOM     27  H   UNL     1      -9.193  39.498  22.266  1.00  0.00     0.293 HD
ENDBRANCH   8  26
TORSDOF 6
ENDMDL
MODEL 6
REMARK VINA RESULT:    -5.537     10.138     14.647
REMARK INTER + INTRA:          -6.886
REMARK INTER:                  -6.576
REMARK INTRA:                  -0.310
REMARK UNBOUND:                -0.216
REMARK SMILES O=c1c(O)c(-c2ccc(O)c(O)c2)oc2cc(O)cc(O)c12
REMARK SMILES IDX 5 1 3 2 2 3 1 4 22 5 20 6 19 7 17 8 16 9 15 10 14 11 6 12
REMARK SMILES IDX 7 13 8 14 9 15 13 16 11 17 10 18 12 20 4 22 21 24 18 26
REMARK H PARENT 10 19 12 21 4 23 21 25 18 27
REMARK Flexibility Score: inf
ROOT
ATOM      1  C   UNL     1      -3.489  38.286  32.109  1.00  0.00     0.180 A 
ATOM      2  C   UNL     1      -4.213  38.832  31.036  1.00  0.00     0.208 A 
ATOM      3  C   UNL     1      -3.542  39.637  30.101  1.00  0.00     0.238 A 
ATOM      4  O   UNL     1      -4.207  40.168  29.173  1.00  0.00    -0.285 OA
ATOM      5  C   UNL     1      -2.153  39.873  30.242  1.00  0.00     0.111 A 
ATOM      6  C   UNL     1      -1.365  40.639  29.333  1.00  0.00     0.134 A 
ATOM      7  C   UNL     1      -0.027  40.915  29.641  1.00  0.00     0.093 A 
ATOM      8  C   UNL     1       0.568  40.398  30.792  1.00  0.00     0.123 A 
ATOM      9  C   UNL     1      -0.178  39.598  31.659  1.00  0.00     0.094 A 
ATOM     10  C   UNL     1      -1.525  39.336  31.396  1.00  0.00     0.146 A 
ATOM     11  O   UNL     1      -2.201  38.579  32.251  1.00  0.00    -0.452 OA
ENDROOT
BRANCH   1  12
ATOM     12  C   UNL     1      -4.121  37.408  33.121  1.00  0.00     0.025 A 
ATOM     13  C   UNL     1      -4.814  37.942  34.222  1.00  0.00     0.016 A 
ATOM     14  C   UNL     1      -5.423  37.095  35.152  1.00  0.00     0.051 A 
ATOM     15  C   UNL     1      -5.361  35.705  34.988  1.00  0.00     0.157 A 
ATOM     16  C   UNL     1      -4.080  36.015  32.950  1.00  0.00     0.062 A 
ATOM     17  C   UNL     1      -4.691  35.164  33.883  1.00  0.00     0.158 A 
BRANCH  15  18
ATOM     18  O   UNL     1      -5.965  34.857  35.914  1.00  0.00    -0.504 OA
ATOM     19  H   UNL     1      -6.147  35.155  36.865  1.00  0.00     0.293 HD
ENDBRANCH  15  18
BRANCH  17  20
ATOM     20  O   UNL     1      -4.636  33.781  33.719  1.00  0.00    -0.504 OA
ATOM     21  H   UNL     1      -5.390  33.269  33.275  1.00  0.00     0.293 HD
ENDBRANCH  17  20
ENDBRANCH   1  12
BRANCH   2  22
ATOM     22  O   UNL     1      -5.588  38.606  30.928  1.00  0.00    -0.502 OA
ATOM     23  H   UNL     1      -6.129  38.176  31.669  1.00  0.00     0.293 HD
ENDBRANCH   2  22
BRANCH   6  24
ATOM     24  O   UNL     1      -1.835  41.125  28.110  1.00  0.00    -0.507 OA
ATOM     25  H   UNL     1      -1.338  41.773  27.519  1.00  0.00     0.293 HD
ENDBRANCH   6  24
BRANCH   8  26
ATOM     26  O   UNL     1       1.906  40.681  31.060  1.00  0.00    -0.508 OA
ATOM     27  H   UNL     1       2.521  39.990  31.473  1.00  0.00     0.293 HD
ENDBRANCH   8  26
TORSDOF 6
ENDMDL
MODEL 7
REMARK VINA RESULT:    -5.464     18.208     20.190
REMARK INTER + INTRA:          -6.797
REMARK INTER:                  -6.490
REMARK INTRA:                  -0.308
REMARK UNBOUND:                -0.216
REMARK SMILES O=c1c(O)c(-c2ccc(O)c(O)c2)oc2cc(O)cc(O)c12
REMARK SMILES IDX 5 1 3 2 2 3 1 4 22 5 20 6 19 7 17 8 16 9 15 10 14 11 6 12
REMARK SMILES IDX 7 13 8 14 9 15 13 16 11 17 10 18 12 20 4 22 21 24 18 26
REMARK H PARENT 10 19 12 21 4 23 21 25 18 27
REMARK Flexibility Score: inf
ROOT
ATOM      1  C   UNL     1      -3.006  38.920  19.810  1.00  0.00     0.180 A 
ATOM      2  C   UNL     1      -2.966  37.561  19.454  1.00  0.00     0.208 A 
ATOM      3  C   UNL     1      -2.056  37.141  18.471  1.00  0.00     0.238 A 
ATOM      4  O   UNL     1      -2.063  35.933  18.118  1.00  0.00    -0.285 OA
ATOM      5  C   UNL     1      -1.187  38.082  17.868  1.00  0.00     0.111 A 
ATOM      6  C   UNL     1      -0.199  37.760  16.890  1.00  0.00     0.134 A 
ATOM      7  C   UNL     1       0.516  38.791  16.266  1.00  0.00     0.093 A 
ATOM      8  C   UNL     1       0.325  40.123  16.631  1.00  0.00     0.123 A 
ATOM      9  C   UNL     1      -0.597  40.443  17.629  1.00  0.00     0.094 A 
ATOM     10  C   UNL     1      -1.350  39.440  18.243  1.00  0.00     0.146 A 
ATOM     11  O   UNL     1      -2.224  39.789  19.179  1.00  0.00    -0.452 OA
ENDROOT
BRANCH   1  12
ATOM     12  C   UNL     1      -3.921  39.435  20.855  1.00  0.00     0.025 A 
ATOM     13  C   UNL     1      -3.478  39.653  22.172  1.00  0.00     0.016 A 
ATOM     14  C   UNL     1      -4.351  40.162  23.137  1.00  0.00     0.051 A 
ATOM     15  C   UNL     1      -5.674  40.473  22.798  1.00  0.00     0.157 A 
ATOM     16  C   UNL     1      -5.242  39.770  20.516  1.00  0.00     0.062 A 
ATOM     17  C   UNL     1      -6.119  40.280  21.484  1.00  0.00     0.158 A 
BRANCH  15  18
ATOM     18  O   UNL     1      -6.549  40.979  23.757  1.00  0.00    -0.504 OA
ATOM     19  H   UNL     1      -7.535  40.742  23.751  1.00  0.00     0.293 HD
ENDBRANCH  15  18
BRANCH  17  20
ATOM     20  O   UNL     1      -7.434  40.597  21.146  1.00  0.00    -0.504 OA
ATOM     21  H   UNL     1      -8.110  40.873  21.850  1.00  0.00     0.293 HD
ENDBRANCH  17  20
ENDBRANCH   1  12
BRANCH   2  22
ATOM     22  O   UNL     1      -3.849  36.653  20.046  1.00  0.00    -0.502 OA
ATOM     23  H   UNL     1      -4.812  36.557  19.748  1.00  0.00     0.293 HD
ENDBRANCH   2  22
BRANCH   6  24
ATOM     24  O   UNL     1       0.136  36.456  16.518  1.00  0.00    -0.507 OA
ATOM     25  H   UNL     1      -0.397  35.885  15.879  1.00  0.00     0.293 HD
ENDBRANCH   6  24
BRANCH   8  26
ATOM     26  O   UNL     1       1.065  41.121  16.000  1.00  0.00    -0.508 OA
ATOM     27  H   UNL     1       1.450  41.903  16.517  1.00  0.00     0.293 HD
ENDBRANCH   8  26
TORSDOF 6
ENDMDL
MODEL 8
REMARK VINA RESULT:    -5.368      9.690     13.878
REMARK INTER + INTRA:          -6.682
REMARK INTER:                  -6.361
REMARK INTRA:                  -0.322
REMARK UNBOUND:                -0.216
REMARK SMILES O=c1c(O)c(-c2ccc(O)c(O)c2)oc2cc(O)cc(O)c12
REMARK SMILES IDX 5 1 3 2 2 3 1 4 22 5 20 6 19 7 17 8 16 9 15 10 14 11 6 12
REMARK SMILES IDX 7 13 8 14 9 15 13 16 11 17 10 18 12 20 4 22 21 24 18 26
REMARK H PARENT 10 19 12 21 4 23 21 25 18 27
REMARK Flexibility Score: inf
ROOT
ATOM      1  C   UNL     1      -3.138  38.558  32.513  1.00  0.00     0.180 A 
ATOM      2  C   UNL     1      -3.999  39.375  33.265  1.00  0.00     0.208 A 
ATOM      3  C   UNL     1      -4.913  38.774  34.145  1.00  0.00     0.238 A 
ATOM      4  O   UNL     1      -5.719  39.509  34.775  1.00  0.00    -0.285 OA
ATOM      5  C   UNL     1      -4.945  37.364  34.272  1.00  0.00     0.111 A 
ATOM      6  C   UNL     1      -5.803  36.651  35.162  1.00  0.00     0.134 A 
ATOM      7  C   UNL     1      -5.841  35.252  35.110  1.00  0.00     0.093 A 
ATOM      8  C   UNL     1      -5.007  34.539  34.249  1.00  0.00     0.123 A 
ATOM      9  C   UNL     1      -4.121  35.226  33.417  1.00  0.00     0.094 A 
ATOM     10  C   UNL     1      -4.087  36.623  33.420  1.00  0.00     0.146 A 
ATOM     11  O   UNL     1      -3.237  37.237  32.606  1.00  0.00    -0.452 OA
ENDROOT
BRANCH   1  12
ATOM     12  C   UNL     1      -2.130  39.119  31.584  1.00  0.00     0.025 A 
ATOM     13  C   UNL     1      -2.431  39.347  30.229  1.00  0.00     0.016 A 
ATOM     14  C   UNL     1      -1.473  39.900  29.375  1.00  0.00     0.051 A 
ATOM     15  C   UNL     1      -0.206  40.245  29.865  1.00  0.00     0.157 A 
ATOM     16  C   UNL     1      -0.866  39.487  32.073  1.00  0.00     0.062 A 
ATOM     17  C   UNL     1       0.096  40.041  31.217  1.00  0.00     0.158 A 
BRANCH  15  18
ATOM     18  O   UNL     1       0.754  40.794  29.017  1.00  0.00    -0.504 OA
ATOM     19  H   UNL     1       1.624  40.313  28.821  1.00  0.00     0.293 HD
ENDBRANCH  15  18
BRANCH  17  20
ATOM     20  O   UNL     1       1.355  40.392  31.704  1.00  0.00    -0.504 OA
ATOM     21  H   UNL     1       1.969  39.706  32.129  1.00  0.00     0.293 HD
ENDBRANCH  17  20
ENDBRANCH   1  12
BRANCH   2  22
ATOM     22  O   UNL     1      -3.966  40.764  33.108  1.00  0.00    -0.502 OA
ATOM     23  H   UNL     1      -4.567  41.386  33.636  1.00  0.00     0.293 HD
ENDBRANCH   2  22
BRANCH   6  24
ATOM     24  O   UNL     1      -6.611  37.261  36.125  1.00  0.00    -0.507 OA
ATOM     25  H   UNL     1      -6.657  38.255  36.290  1.00  0.00     0.293 HD
ENDBRANCH   6  24
BRANCH   8  26
ATOM     26  O   UNL     1      -5.061  33.147  34.235  1.00  0.00    -0.508 OA
ATOM     27  H   UNL     1      -5.801  32.641  34.707  1.00  0.00     0.293 HD
ENDBRANCH   8  26
TORSDOF 6
ENDMDL
MODEL 9
REMARK VINA RESULT:    -5.226     17.966     20.726
REMARK INTER + INTRA:          -6.511
REMARK INTER:                  -6.696
REMARK INTRA:                   0.185
REMARK UNBOUND:                -0.216
REMARK SMILES O=c1c(O)c(-c2ccc(O)c(O)c2)oc2cc(O)cc(O)c12
REMARK SMILES IDX 5 1 3 2 2 3 1 4 22 5 20 6 19 7 17 8 16 9 15 10 14 11 6 12
REMARK SMILES IDX 7 13 8 14 9 15 13 16 11 17 10 18 12 20 4 22 21 24 18 26
REMARK H PARENT 10 19 12 21 4 23 21 25 18 27
REMARK Flexibility Score: inf
ROOT
ATOM      1  C   UNL     1      -0.662  35.163  17.221  1.00  0.00     0.180 A 
ATOM      2  C   UNL     1       0.335  36.071  16.826  1.00  0.00     0.208 A 
ATOM      3  C   UNL     1       0.115  37.446  17.007  1.00  0.00     0.238 A 
ATOM      4  O   UNL     1       0.988  38.256  16.601  1.00  0.00    -0.285 OA
ATOM      5  C   UNL     1      -1.092  37.894  17.597  1.00  0.00     0.111 A 
ATOM      6  C   UNL     1      -1.403  39.261  17.865  1.00  0.00     0.134 A 
ATOM      7  C   UNL     1      -2.679  39.600  18.331  1.00  0.00     0.093 A 
ATOM      8  C   UNL     1      -3.632  38.618  18.600  1.00  0.00     0.123 A 
ATOM      9  C   UNL     1      -3.317  37.273  18.397  1.00  0.00     0.094 A 
ATOM     10  C   UNL     1      -2.065  36.908  17.899  1.00  0.00     0.146 A 
ATOM     11  O   UNL     1      -1.810  35.618  17.711  1.00  0.00    -0.452 OA
ENDROOT
BRANCH   1  12
ATOM     12  C   UNL     1      -0.494  33.698  17.085  1.00  0.00     0.025 A 
ATOM     13  C   UNL     1       0.158  33.137  15.972  1.00  0.00     0.016 A 
ATOM     14  C   UNL     1       0.327  31.753  15.875  1.00  0.00     0.051 A 
ATOM     15  C   UNL     1      -0.139  30.912  16.894  1.00  0.00     0.157 A 
ATOM     16  C   UNL     1      -0.939  32.851  18.113  1.00  0.00     0.062 A 
ATOM     17  C   UNL     1      -0.770  31.462  18.017  1.00  0.00     0.158 A 
BRANCH  15  18
ATOM     18  O   UNL     1       0.026  29.531  16.801  1.00  0.00    -0.504 OA
ATOM     19  H   UNL     1       0.599  29.021  17.463  1.00  0.00     0.293 HD
ENDBRANCH  15  18
BRANCH  17  20
ATOM     20  O   UNL     1      -1.226  30.624  19.033  1.00  0.00    -0.504 OA
ATOM     21  H   UNL     1      -1.271  30.934  19.996  1.00  0.00     0.293 HD
ENDBRANCH  17  20
ENDBRANCH   1  12
BRANCH   2  22
ATOM     22  O   UNL     1       1.509  35.608  16.226  1.00  0.00    -0.502 OA
ATOM     23  H   UNL     1       2.273  35.209  16.760  1.00  0.00     0.293 HD
ENDBRANCH   2  22
BRANCH   6  24
ATOM     24  O   UNL     1      -0.494  40.312  17.718  1.00  0.00    -0.507 OA
ATOM     25  H   UNL     1       0.499  40.198  17.578  1.00  0.00     0.293 HD
ENDBRANCH   6  24
BRANCH   8  26
ATOM     26  O   UNL     1      -4.887  38.990  19.077  1.00  0.00    -0.508 OA
ATOM     27  H   UNL     1      -5.026  39.270  20.041  1.00  0.00     0.293 HD
ENDBRANCH   8  26
TORSDOF 6
ENDMDL
