MODEL 1
REMARK VINA RESULT:    -4.413      0.000      0.000
REMARK INTER + INTRA:          -4.768
REMARK INTER:                  -4.671
REMARK INTRA:                  -0.097
REMARK UNBOUND:                -0.097
REMARK SMILES C=C(C)[C@H]1CC=C(C)C(=O)C1
REMARK SMILES IDX 8 1 7 2 6 3 5 4 4 5 11 6 9 7 10 8 2 9 1 10 3 11
REMARK H PARENT
REMARK Flexibility Score: inf
ROOT
ATOM      1  C   UNL     1      19.193  52.350  32.187  1.00  0.00     0.048 C 
ATOM      2  C   UNL     1      18.149  52.498  33.259  1.00  0.00    -0.012 C 
ATOM      3  C   UNL     1      16.937  51.941  33.095  1.00  0.00    -0.019 C 
ATOM      4  C   UNL     1      15.851  52.075  34.129  1.00  0.00     0.036 C 
ATOM      5  C   UNL     1      16.441  52.141  35.549  1.00  0.00     0.025 C 
ATOM      6  C   UNL     1      17.478  53.274  35.645  1.00  0.00     0.089 C 
ATOM      7  C   UNL     1      18.498  53.152  34.546  1.00  0.00     0.158 C 
ATOM      8  O   UNL     1      19.646  53.644  34.716  1.00  0.00    -0.295 OA
ENDROOT
BRANCH   5   9
ATOM      9  C   UNL     1      15.351  52.295  36.600  1.00  0.00    -0.077 C 
ATOM     10  C   UNL     1      14.761  53.487  36.787  1.00  0.00     0.008 C 
ATOM     11  C   UNL     1      14.905  51.130  37.448  1.00  0.00     0.039 C 
ENDBRANCH   5   9
TORSDOF 1
ENDMDL
MODEL 2
REMARK VINA RESULT:    -4.341     15.305     16.517
REMARK INTER + INTRA:          -4.691
REMARK INTER:                  -4.593
REMARK INTRA:                  -0.098
REMARK UNBOUND:                -0.097
REMARK SMILES C=C(C)[C@H]1CC=C(C)C(=O)C1
REMARK SMILES IDX 8 1 7 2 6 3 5 4 4 5 11 6 9 7 10 8 2 9 1 10 3 11
REMARK H PARENT
REMARK Flexibility Score: inf
ROOT
ATOM      1  C   UNL     1      18.265  60.431  22.018  1.00  0.00     0.048 C 
ATOM      2  C   UNL     1      16.803  60.572  21.697  1.00  0.00    -0.012 C 
ATOM      3  C   UNL     1      16.239  61.792  21.661  1.00  0.00    -0.019 C 
ATOM      4  C   UNL     1      14.777  61.988  21.364  1.00  0.00     0.036 C 
ATOM      5  C   UNL     1      14.260  60.913  20.389  1.00  0.00     0.025 C 
ATOM      6  C   UNL     1      14.560  59.506  20.937  1.00  0.00     0.089 C 
ATOM      7  C   UNL     1      16.014  59.378  21.299  1.00  0.00     0.158 C 
ATOM      8  O   UNL     1      16.550  58.237  21.297  1.00  0.00    -0.295 OA
ENDROOT
BRANCH   5   9
ATOM      9  C   UNL     1      12.777  61.092  20.097  1.00  0.00    -0.077 C 
ATOM     10  C   UNL     1      11.887  60.204  20.569  1.00  0.00     0.008 C 
ATOM     11  C   UNL     1      12.271  62.256  19.281  1.00  0.00     0.039 C 
ENDBRANCH   5   9
TORSDOF 1
ENDMDL
MODEL 3
REMARK VINA RESULT:    -4.105     15.214     16.474
REMARK INTER + INTRA:          -4.442
REMARK INTER:                  -4.347
REMARK INTRA:                  -0.095
REMARK UNBOUND:                -0.097
REMARK SMILES C=C(C)[C@H]1CC=C(C)C(=O)C1
REMARK SMILES IDX 8 1 7 2 6 3 5 4 4 5 11 6 9 7 10 8 2 9 1 10 3 11
REMARK H PARENT
REMARK Flexibility Score: inf
ROOT
ATOM      1  C   UNL     1      12.616  61.502  19.670  1.00  0.00     0.048 C 
ATOM      2  C   UNL     1      13.816  61.463  20.577  1.00  0.00    -0.012 C 
ATOM      3  C   UNL     1      15.010  61.082  20.091  1.00  0.00    -0.019 C 
ATOM      4  C   UNL     1      16.238  61.007  20.959  1.00  0.00     0.036 C 
ATOM      5  C   UNL     1      16.204  62.081  22.062  1.00  0.00     0.025 C 
ATOM      6  C   UNL     1      14.905  61.967  22.880  1.00  0.00     0.089 C 
ATOM      7  C   UNL     1      13.706  61.962  21.971  1.00  0.00     0.158 C 
ATOM      8  O   UNL     1      12.595  62.354  22.419  1.00  0.00    -0.295 OA
ENDROOT
BRANCH   5   9
ATOM      9  C   UNL     1      17.433  62.001  22.956  1.00  0.00    -0.077 C 
ATOM     10  C   UNL     1      17.629  62.921  23.915  1.00  0.00     0.008 C 
ATOM     11  C   UNL     1      18.452  60.900  22.795  1.00  0.00     0.039 C 
ENDBRANCH   5   9
TORSDOF 1
ENDMDL
MODEL 4
REMARK VINA RESULT:    -3.979      1.520      2.428
REMARK INTER + INTRA:          -4.309
REMARK INTER:                  -4.213
REMARK INTRA:                  -0.096
REMARK UNBOUND:                -0.097
REMARK SMILES C=C(C)[C@H]1CC=C(C)C(=O)C1
REMARK SMILES IDX 8 1 7 2 6 3 5 4 4 5 11 6 9 7 10 8 2 9 1 10 3 11
REMARK H PARENT
REMARK Flexibility Score: inf
ROOT
ATOM      1  C   UNL     1      20.702  54.014  33.236  1.00  0.00     0.048 C 
ATOM      2  C   UNL     1      19.444  53.354  33.727  1.00  0.00    -0.012 C 
ATOM      3  C   UNL     1      19.011  53.585  34.979  1.00  0.00    -0.019 C 
ATOM      4  C   UNL     1      17.768  52.935  35.527  1.00  0.00     0.036 C 
ATOM      5  C   UNL     1      16.723  52.715  34.418  1.00  0.00     0.025 C 
ATOM      6  C   UNL     1      17.336  51.912  33.256  1.00  0.00     0.089 C 
ATOM      7  C   UNL     1      18.617  52.548  32.793  1.00  0.00     0.158 C 
ATOM      8  O   UNL     1      19.003  52.360  31.608  1.00  0.00    -0.295 OA
ENDROOT
BRANCH   5   9
ATOM      9  C   UNL     1      15.470  52.041  34.959  1.00  0.00    -0.077 C 
ATOM     10  C   UNL     1      14.474  51.701  34.124  1.00  0.00     0.008 C 
ATOM     11  C   UNL     1      15.312  51.738  36.429  1.00  0.00     0.039 C 
ENDBRANCH   5   9
TORSDOF 1
ENDMDL
MODEL 5
REMARK VINA RESULT:    -3.964     14.707     16.230
REMARK INTER + INTRA:          -4.293
REMARK INTER:                  -4.194
REMARK INTRA:                  -0.099
REMARK UNBOUND:                -0.097
REMARK SMILES C=C(C)[C@H]1CC=C(C)C(=O)C1
REMARK SMILES IDX 8 1 7 2 6 3 5 4 4 5 11 6 9 7 10 8 2 9 1 10 3 11
REMARK H PARENT
REMARK Flexibility Score: inf
ROOT
ATOM      1  C   UNL     1      12.982  62.338  20.468  1.00  0.00     0.048 C 
ATOM      2  C   UNL     1      14.049  61.286  20.596  1.00  0.00    -0.012 C 
ATOM      3  C   UNL     1      15.345  61.641  20.590  1.00  0.00    -0.019 C 
ATOM      4  C   UNL     1      16.452  60.627  20.696  1.00  0.00     0.036 C 
ATOM      5  C   UNL     1      16.025  59.428  21.563  1.00  0.00     0.025 C 
ATOM      6  C   UNL     1      14.721  58.814  21.021  1.00  0.00     0.089 C 
ATOM      7  C   UNL     1      13.667  59.873  20.852  1.00  0.00     0.158 C 
ATOM      8  O   UNL     1      12.452  59.543  20.894  1.00  0.00    -0.295 OA
ENDROOT
BRANCH   5   9
ATOM      9  C   UNL     1      17.131  58.388  21.660  1.00  0.00    -0.077 C 
ATOM     10  C   UNL     1      16.897  57.119  21.288  1.00  0.00     0.008 C 
ATOM     11  C   UNL     1      18.505  58.746  22.170  1.00  0.00     0.039 C 
ENDBRANCH   5   9
TORSDOF 1
ENDMDL
MODEL 6
REMARK VINA RESULT:    -3.921     15.157     16.570
REMARK INTER + INTRA:          -4.247
REMARK INTER:                  -4.149
REMARK INTRA:                  -0.097
REMARK UNBOUND:                -0.097
REMARK SMILES C=C(C)[C@H]1CC=C(C)C(=O)C1
REMARK SMILES IDX 8 1 7 2 6 3 5 4 4 5 11 6 9 7 10 8 2 9 1 10 3 11
REMARK H PARENT
REMARK Flexibility Score: inf
ROOT
ATOM      1  C   UNL     1      15.827  62.892  24.802  1.00  0.00     0.048 C 
ATOM      2  C   UNL     1      14.987  62.339  23.683  1.00  0.00    -0.012 C 
ATOM      3  C   UNL     1      13.647  62.344  23.786  1.00  0.00    -0.019 C 
ATOM      4  C   UNL     1      12.761  61.786  22.705  1.00  0.00     0.036 C 
ATOM      5  C   UNL     1      13.389  61.989  21.313  1.00  0.00     0.025 C 
ATOM      6  C   UNL     1      14.805  61.387  21.274  1.00  0.00     0.089 C 
ATOM      7  C   UNL     1      15.633  61.905  22.418  1.00  0.00     0.158 C 
ATOM      8  O   UNL     1      16.887  61.934  22.305  1.00  0.00    -0.295 OA
ENDROOT
BRANCH   5   9
ATOM      9  C   UNL     1      12.509  61.411  20.215  1.00  0.00    -0.077 C 
ATOM     10  C   UNL     1      11.902  60.225  20.391  1.00  0.00     0.008 C 
ATOM     11  C   UNL     1      12.294  62.142  18.913  1.00  0.00     0.039 C 
ENDBRANCH   5   9
TORSDOF 1
ENDMDL
MODEL 7
REMARK VINA RESULT:    -3.918      1.808      4.737
REMARK INTER + INTRA:          -4.244
REMARK INTER:                  -4.145
REMARK INTRA:                  -0.098
REMARK UNBOUND:                -0.097
REMARK SMILES C=C(C)[C@H]1CC=C(C)C(=O)C1
REMARK SMILES IDX 8 1 7 2 6 3 5 4 4 5 11 6 9 7 10 8 2 9 1 10 3 11
REMARK H PARENT
REMARK Flexibility Score: inf
ROOT
ATOM      1  C   UNL     1      15.241  52.552  36.959  1.00  0.00     0.048 C 
ATOM      2  C   UNL     1      16.168  52.570  35.775  1.00  0.00    -0.012 C 
ATOM      3  C   UNL     1      17.439  52.982  35.924  1.00  0.00    -0.019 C 
ATOM      4  C   UNL     1      18.401  53.037  34.768  1.00  0.00     0.036 C 
ATOM      5  C   UNL     1      18.107  51.923  33.747  1.00  0.00     0.025 C 
ATOM      6  C   UNL     1      16.640  51.993  33.287  1.00  0.00     0.089 C 
ATOM      7  C   UNL     1      15.714  52.019  34.473  1.00  0.00     0.158 C 
ATOM      8  O   UNL     1      14.534  51.599  34.339  1.00  0.00    -0.295 OA
ENDROOT
BRANCH   5   9
ATOM      9  C   UNL     1      19.064  51.983  32.565  1.00  0.00    -0.077 C 
ATOM     10  C   UNL     1      19.573  53.162  32.171  1.00  0.00     0.008 C 
ATOM     11  C   UNL     1      19.464  50.738  31.813  1.00  0.00     0.039 C 
ENDBRANCH   5   9
TORSDOF 1
ENDMDL
MODEL 8
REMARK VINA RESULT:    -3.913      2.415      4.635
REMARK INTER + INTRA:          -4.238
REMARK INTER:                  -4.139
REMARK INTRA:                  -0.099
REMARK UNBOUND:                -0.097
REMARK SMILES C=C(C)[C@H]1CC=C(C)C(=O)C1
REMARK SMILES IDX 8 1 7 2 6 3 5 4 4 5 11 6 9 7 10 8 2 9 1 10 3 11
REMARK H PARENT
REMARK Flexibility Score: inf
ROOT
ATOM      1  C   UNL     1      15.296  51.752  36.303  1.00  0.00     0.048 C 
ATOM      2  C   UNL     1      16.337  52.725  35.819  1.00  0.00    -0.012 C 
ATOM      3  C   UNL     1      17.534  52.274  35.405  1.00  0.00    -0.019 C 
ATOM      4  C   UNL     1      18.616  53.206  34.929  1.00  0.00     0.036 C 
ATOM      5  C   UNL     1      18.018  54.442  34.233  1.00  0.00     0.025 C 
ATOM      6  C   UNL     1      17.012  55.145  35.163  1.00  0.00     0.089 C 
ATOM      7  C   UNL     1      15.997  54.164  35.683  1.00  0.00     0.158 C 
ATOM      8  O   UNL     1      14.863  54.584  36.036  1.00  0.00    -0.295 OA
ENDROOT
BRANCH   5   9
ATOM      9  C   UNL     1      19.105  55.399  33.765  1.00  0.00    -0.077 C 
ATOM     10  C   UNL     1      19.008  56.712  34.034  1.00  0.00     0.008 C 
ATOM     11  C   UNL     1      20.307  54.908  32.998  1.00  0.00     0.039 C 
ENDBRANCH   5   9
TORSDOF 1
ENDMDL
MODEL 9
REMARK VINA RESULT:    -3.890     14.885     15.949
REMARK INTER + INTRA:          -4.214
REMARK INTER:                  -4.123
REMARK INTRA:                  -0.091
REMARK UNBOUND:                -0.097
REMARK SMILES C=C(C)[C@H]1CC=C(C)C(=O)C1
REMARK SMILES IDX 8 1 7 2 6 3 5 4 4 5 11 6 9 7 10 8 2 9 1 10 3 11
REMARK H PARENT
REMARK Flexibility Score: inf
ROOT
ATOM      1  C   UNL     1      16.267  60.843  20.104  1.00  0.00     0.048 C 
ATOM      2  C   UNL     1      15.285  61.477  21.051  1.00  0.00    -0.012 C 
ATOM      3  C   UNL     1      14.017  61.691  20.658  1.00  0.00    -0.019 C 
ATOM      4  C   UNL     1      13.000  62.339  21.559  1.00  0.00     0.036 C 
ATOM      5  C   UNL     1      13.260  61.983  23.034  1.00  0.00     0.025 C 
ATOM      6  C   UNL     1      14.702  62.348  23.427  1.00  0.00     0.089 C 
ATOM      7  C   UNL     1      15.683  61.750  22.455  1.00  0.00     0.158 C 
ATOM      8  O   UNL     1      16.861  61.517  22.837  1.00  0.00    -0.295 OA
ENDROOT
BRANCH   5   9
ATOM      9  C   UNL     1      12.247  62.649  23.955  1.00  0.00    -0.077 C 
ATOM     10  C   UNL     1      11.988  62.123  25.163  1.00  0.00     0.008 C 
ATOM     11  C   UNL     1      11.516  63.903  23.543  1.00  0.00     0.039 C 
ENDBRANCH   5   9
TORSDOF 1
ENDMDL
