MODEL 1
REMARK VINA RESULT:    -4.978      0.000      0.000
REMARK INTER + INTRA:          -6.461
REMARK INTER:                  -6.142
REMARK INTRA:                  -0.319
REMARK UNBOUND:                -0.319
REMARK SMILES CCOC(=O)c1ccc(O)c(O)c1
REMARK SMILES IDX 4 1 5 2 3 3 2 4 1 5 6 6 13 7 7 8 11 9 8 10 9 11 12 12 10 14
REMARK H PARENT 12 13 10 15
REMARK Flexibility Score: inf
ROOT
ATOM      1  C   UNL     1       9.743  -7.472  -9.019  1.00  0.00     0.338 C 
ATOM      2  O   UNL     1      10.479  -8.475  -8.805  1.00  0.00    -0.246 OA
ENDROOT
BRANCH   1   3
ATOM      3  O   UNL     1       9.321  -7.179 -10.320  1.00  0.00    -0.462 OA
BRANCH   3   4
ATOM      4  C   UNL     1       9.877  -6.115 -11.088  1.00  0.00     0.230 C 
ATOM      5  C   UNL     1       8.884  -4.966 -11.156  1.00  0.00     0.049 C 
ENDBRANCH   3   4
ENDBRANCH   1   3
BRANCH   1   6
ATOM      6  C   UNL     1       9.325  -6.604  -7.896  1.00  0.00     0.064 A 
ATOM      7  C   UNL     1      10.274  -5.834  -7.202  1.00  0.00     0.065 A 
ATOM      8  C   UNL     1       7.975  -6.534  -7.507  1.00  0.00     0.020 A 
ATOM      9  C   UNL     1       9.885  -5.008  -6.136  1.00  0.00     0.158 A 
ATOM     10  C   UNL     1       7.586  -5.712  -6.446  1.00  0.00     0.051 A 
ATOM     11  C   UNL     1       8.533  -4.949  -5.758  1.00  0.00     0.157 A 
BRANCH   9  12
ATOM     12  O   UNL     1      10.835  -4.250  -5.455  1.00  0.00    -0.504 OA
ATOM     13  H   UNL     1      11.410  -3.565  -5.931  1.00  0.00     0.293 HD
ENDBRANCH   9  12
BRANCH  11  14
ATOM     14  O   UNL     1       8.114  -4.137  -4.704  1.00  0.00    -0.504 OA
ATOM     15  H   UNL     1       8.615  -4.098  -3.824  1.00  0.00     0.293 HD
ENDBRANCH  11  14
ENDBRANCH   1   6
TORSDOF 5
ENDMDL
MODEL 2
REMARK VINA RESULT:    -4.825     15.998     18.308
REMARK INTER + INTRA:          -6.272
REMARK INTER:                  -6.093
REMARK INTRA:                  -0.179
REMARK UNBOUND:                -0.319
REMARK SMILES CCOC(=O)c1ccc(O)c(O)c1
REMARK SMILES IDX 4 1 5 2 3 3 2 4 1 5 6 6 13 7 7 8 11 9 8 10 9 11 12 12 10 14
REMARK H PARENT 12 13 10 15
REMARK Flexibility Score: inf
ROOT
ATOM      1  C   UNL     1      20.334  -1.654 -19.135  1.00  0.00     0.338 C 
ATOM      2  O   UNL     1      20.140  -2.878 -19.376  1.00  0.00    -0.246 OA
ENDROOT
BRANCH   1   3
ATOM      3  O   UNL     1      19.987  -1.123 -17.888  1.00  0.00    -0.462 OA
BRANCH   3   4
ATOM      4  C   UNL     1      18.637  -1.015 -17.446  1.00  0.00     0.230 C 
ATOM      5  C   UNL     1      18.488  -1.702 -16.098  1.00  0.00     0.049 C 
ENDBRANCH   3   4
ENDBRANCH   1   3
BRANCH   1   6
ATOM      6  C   UNL     1      20.928  -0.778 -20.168  1.00  0.00     0.064 A 
ATOM      7  C   UNL     1      21.307   0.538 -19.852  1.00  0.00     0.065 A 
ATOM      8  C   UNL     1      21.123  -1.246 -21.480  1.00  0.00     0.020 A 
ATOM      9  C   UNL     1      21.870   1.374 -20.827  1.00  0.00     0.158 A 
ATOM     10  C   UNL     1      21.685  -0.414 -22.452  1.00  0.00     0.051 A 
ATOM     11  C   UNL     1      22.059   0.894 -22.133  1.00  0.00     0.157 A 
BRANCH   9  12
ATOM     12  O   UNL     1      22.242   2.678 -20.502  1.00  0.00    -0.504 OA
ATOM     13  H   UNL     1      21.870   3.149 -19.686  1.00  0.00     0.293 HD
ENDBRANCH   9  12
BRANCH  11  14
ATOM     14  O   UNL     1      22.618   1.700 -23.125  1.00  0.00    -0.504 OA
ATOM     15  H   UNL     1      22.420   2.692 -23.186  1.00  0.00     0.293 HD
ENDBRANCH  11  14
ENDBRANCH   1   6
TORSDOF 5
ENDMDL
MODEL 3
REMARK VINA RESULT:    -4.653     17.030     19.067
REMARK INTER + INTRA:          -6.060
REMARK INTER:                  -5.848
REMARK INTRA:                  -0.213
REMARK UNBOUND:                -0.319
REMARK SMILES CCOC(=O)c1ccc(O)c(O)c1
REMARK SMILES IDX 4 1 5 2 3 3 2 4 1 5 6 6 13 7 7 8 11 9 8 10 9 11 12 12 10 14
REMARK H PARENT 12 13 10 15
REMARK Flexibility Score: inf
ROOT
ATOM      1  C   UNL     1      22.139   0.963 -22.265  1.00  0.00     0.338 C 
ATOM      2  O   UNL     1      22.874   0.181 -22.930  1.00  0.00    -0.246 OA
ENDROOT
BRANCH   1   3
ATOM      3  O   UNL     1      21.889   2.257 -22.734  1.00  0.00    -0.462 OA
BRANCH   3   4
ATOM      4  C   UNL     1      22.931   3.148 -23.122  1.00  0.00     0.230 C 
ATOM      5  C   UNL     1      23.028   4.283 -22.115  1.00  0.00     0.049 C 
ENDBRANCH   3   4
ENDBRANCH   1   3
BRANCH   1   6
ATOM      6  C   UNL     1      21.538   0.514 -20.990  1.00  0.00     0.064 A 
ATOM      7  C   UNL     1      20.277  -0.107 -20.977  1.00  0.00     0.065 A 
ATOM      8  C   UNL     1      22.218   0.700 -19.773  1.00  0.00     0.020 A 
ATOM      9  C   UNL     1      19.702  -0.535 -19.771  1.00  0.00     0.158 A 
ATOM     10  C   UNL     1      21.646   0.274 -18.571  1.00  0.00     0.051 A 
ATOM     11  C   UNL     1      20.392  -0.342 -18.563  1.00  0.00     0.157 A 
BRANCH   9  12
ATOM     12  O   UNL     1      18.451  -1.149 -19.771  1.00  0.00    -0.504 OA
ATOM     13  H   UNL     1      18.343  -2.135 -19.564  1.00  0.00     0.293 HD
ENDBRANCH   9  12
BRANCH  11  14
ATOM     14  O   UNL     1      19.848  -0.757 -17.348  1.00  0.00    -0.504 OA
ATOM     15  H   UNL     1      20.191  -1.573 -16.855  1.00  0.00     0.293 HD
ENDBRANCH  11  14
ENDBRANCH   1   6
TORSDOF 5
ENDMDL
MODEL 4
REMARK VINA RESULT:    -4.637     14.197     16.461
REMARK INTER + INTRA:          -6.040
REMARK INTER:                  -5.927
REMARK INTRA:                  -0.113
REMARK UNBOUND:                -0.319
REMARK SMILES CCOC(=O)c1ccc(O)c(O)c1
REMARK SMILES IDX 4 1 5 2 3 3 2 4 1 5 6 6 13 7 7 8 11 9 8 10 9 11 12 12 10 14
REMARK H PARENT 12 13 10 15
REMARK Flexibility Score: inf
ROOT
ATOM      1  C   UNL     1      18.912  -1.265 -17.113  1.00  0.00     0.338 C 
ATOM      2  O   UNL     1      18.396  -0.470 -16.279  1.00  0.00    -0.246 OA
ENDROOT
BRANCH   1   3
ATOM      3  O   UNL     1      18.749  -2.646 -16.957  1.00  0.00    -0.462 OA
BRANCH   3   4
ATOM      4  C   UNL     1      18.174  -3.226 -15.789  1.00  0.00     0.230 C 
ATOM      5  C   UNL     1      18.193  -4.741 -15.914  1.00  0.00     0.049 C 
ENDBRANCH   3   4
ENDBRANCH   1   3
BRANCH   1   6
ATOM      6  C   UNL     1      19.690  -0.741 -18.257  1.00  0.00     0.064 A 
ATOM      7  C   UNL     1      20.926  -0.106 -18.044  1.00  0.00     0.065 A 
ATOM      8  C   UNL     1      19.208  -0.870 -19.572  1.00  0.00     0.020 A 
ATOM      9  C   UNL     1      21.669   0.393 -19.124  1.00  0.00     0.158 A 
ATOM     10  C   UNL     1      19.948  -0.374 -20.649  1.00  0.00     0.051 A 
ATOM     11  C   UNL     1      21.175   0.258 -20.432  1.00  0.00     0.157 A 
BRANCH   9  12
ATOM     12  O   UNL     1      22.893   1.021 -18.901  1.00  0.00    -0.504 OA
ATOM     13  H   UNL     1      23.032   2.004 -19.106  1.00  0.00     0.293 HD
ENDBRANCH   9  12
BRANCH  11  14
ATOM     14  O   UNL     1      21.891   0.743 -21.527  1.00  0.00    -0.504 OA
ATOM     15  H   UNL     1      22.173   0.143 -22.294  1.00  0.00     0.293 HD
ENDBRANCH  11  14
ENDBRANCH   1   6
TORSDOF 5
ENDMDL
MODEL 5
REMARK VINA RESULT:    -4.595      1.707      2.434
REMARK INTER + INTRA:          -5.988
REMARK INTER:                  -5.697
REMARK INTRA:                  -0.291
REMARK UNBOUND:                -0.319
REMARK SMILES CCOC(=O)c1ccc(O)c(O)c1
REMARK SMILES IDX 4 1 5 2 3 3 2 4 1 5 6 6 13 7 7 8 11 9 8 10 9 11 12 12 10 14
REMARK H PARENT 12 13 10 15
REMARK Flexibility Score: inf
ROOT
ATOM      1  C   UNL     1       8.392  -5.718  -9.118  1.00  0.00     0.338 C 
ATOM      2  O   UNL     1       7.804  -4.742  -9.662  1.00  0.00    -0.246 OA
ENDROOT
BRANCH   1   3
ATOM      3  O   UNL     1       9.238  -6.536  -9.875  1.00  0.00    -0.462 OA
BRANCH   3   4
ATOM      4  C   UNL     1      10.454  -6.063 -10.449  1.00  0.00     0.230 C 
ATOM      5  C   UNL     1      11.464  -5.793  -9.346  1.00  0.00     0.049 C 
ENDBRANCH   3   4
ENDBRANCH   1   3
BRANCH   1   6
ATOM      6  C   UNL     1       8.189  -6.000  -7.680  1.00  0.00     0.064 A 
ATOM      7  C   UNL     1       8.136  -4.948  -6.750  1.00  0.00     0.065 A 
ATOM      8  C   UNL     1       8.044  -7.322  -7.222  1.00  0.00     0.020 A 
ATOM      9  C   UNL     1       7.944  -5.208  -5.385  1.00  0.00     0.158 A 
ATOM     10  C   UNL     1       7.851  -7.583  -5.862  1.00  0.00     0.051 A 
ATOM     11  C   UNL     1       7.801  -6.533  -4.941  1.00  0.00     0.157 A 
BRANCH   9  12
ATOM     12  O   UNL     1       7.894  -4.157  -4.472  1.00  0.00    -0.504 OA
ATOM     13  H   UNL     1       8.052  -3.197  -4.756  1.00  0.00     0.293 HD
ENDBRANCH   9  12
BRANCH  11  14
ATOM     14  O   UNL     1       7.607  -6.825  -3.591  1.00  0.00    -0.504 OA
ATOM     15  H   UNL     1       8.311  -6.623  -2.891  1.00  0.00     0.293 HD
ENDBRANCH  11  14
ENDBRANCH   1   6
TORSDOF 5
ENDMDL
MODEL 6
REMARK VINA RESULT:    -4.563      1.555      2.425
REMARK INTER + INTRA:          -5.949
REMARK INTER:                  -5.696
REMARK INTRA:                  -0.253
REMARK UNBOUND:                -0.319
REMARK SMILES CCOC(=O)c1ccc(O)c(O)c1
REMARK SMILES IDX 4 1 5 2 3 3 2 4 1 5 6 6 13 7 7 8 11 9 8 10 9 11 12 12 10 14
REMARK H PARENT 12 13 10 15
REMARK Flexibility Score: inf
ROOT
ATOM      1  C   UNL     1       8.222  -7.656 -10.221  1.00  0.00     0.338 C 
ATOM      2  O   UNL     1       7.296  -8.487 -10.003  1.00  0.00    -0.246 OA
ENDROOT
BRANCH   1   3
ATOM      3  O   UNL     1       8.698  -7.465 -11.523  1.00  0.00    -0.462 OA
BRANCH   3   4
ATOM      4  C   UNL     1       8.022  -6.654 -12.479  1.00  0.00     0.230 C 
ATOM      5  C   UNL     1       8.221  -5.187 -12.130  1.00  0.00     0.049 C 
ENDBRANCH   3   4
ENDBRANCH   1   3
BRANCH   1   6
ATOM      6  C   UNL     1       8.804  -6.882  -9.103  1.00  0.00     0.064 A 
ATOM      7  C   UNL     1       7.977  -6.121  -8.259  1.00  0.00     0.065 A 
ATOM      8  C   UNL     1      10.191  -6.895  -8.867  1.00  0.00     0.020 A 
ATOM      9  C   UNL     1       8.523  -5.385  -7.197  1.00  0.00     0.158 A 
ATOM     10  C   UNL     1      10.735  -6.163  -7.809  1.00  0.00     0.051 A 
ATOM     11  C   UNL     1       9.910  -5.407  -6.973  1.00  0.00     0.157 A 
BRANCH   9  12
ATOM     12  O   UNL     1       7.694  -4.634  -6.366  1.00  0.00    -0.504 OA
ATOM     13  H   UNL     1       7.813  -3.633  -6.259  1.00  0.00     0.293 HD
ENDBRANCH   9  12
BRANCH  11  14
ATOM     14  O   UNL     1      10.483  -4.686  -5.925  1.00  0.00    -0.504 OA
ATOM     15  H   UNL     1      10.269  -4.887  -4.955  1.00  0.00     0.293 HD
ENDBRANCH  11  14
ENDBRANCH   1   6
TORSDOF 5
ENDMDL
MODEL 7
REMARK VINA RESULT:    -4.516      1.993      2.829
REMARK INTER + INTRA:          -5.892
REMARK INTER:                  -5.572
REMARK INTRA:                  -0.320
REMARK UNBOUND:                -0.319
REMARK SMILES CCOC(=O)c1ccc(O)c(O)c1
REMARK SMILES IDX 4 1 5 2 3 3 2 4 1 5 6 6 13 7 7 8 11 9 8 10 9 11 12 12 10 14
REMARK H PARENT 12 13 10 15
REMARK Flexibility Score: inf
ROOT
ATOM      1  C   UNL     1       9.938  -6.156 -10.366  1.00  0.00     0.338 C 
ATOM      2  O   UNL     1       9.444  -5.816 -11.477  1.00  0.00    -0.246 OA
ENDROOT
BRANCH   1   3
ATOM      3  O   UNL     1      11.111  -6.917 -10.326  1.00  0.00    -0.462 OA
BRANCH   3   4
ATOM      4  C   UNL     1      12.316  -6.507 -10.964  1.00  0.00     0.230 C 
ATOM      5  C   UNL     1      12.850  -5.255 -10.285  1.00  0.00     0.049 C 
ENDBRANCH   3   4
ENDBRANCH   1   3
BRANCH   1   6
ATOM      6  C   UNL     1       9.278  -5.753  -9.105  1.00  0.00     0.064 A 
ATOM      7  C   UNL     1       8.012  -5.142  -9.129  1.00  0.00     0.065 A 
ATOM      8  C   UNL     1       9.905  -5.974  -7.865  1.00  0.00     0.020 A 
ATOM      9  C   UNL     1       7.381  -4.757  -7.936  1.00  0.00     0.158 A 
ATOM     10  C   UNL     1       9.277  -5.591  -6.677  1.00  0.00     0.051 A 
ATOM     11  C   UNL     1       8.019  -4.983  -6.705  1.00  0.00     0.157 A 
BRANCH   9  12
ATOM     12  O   UNL     1       6.127  -4.152  -7.972  1.00  0.00    -0.504 OA
ATOM     13  H   UNL     1       5.532  -4.208  -8.791  1.00  0.00     0.293 HD
ENDBRANCH   9  12
BRANCH  11  14
ATOM     14  O   UNL     1       7.417  -4.613  -5.503  1.00  0.00    -0.504 OA
ATOM     15  H   UNL     1       7.093  -3.669  -5.332  1.00  0.00     0.293 HD
ENDBRANCH  11  14
ENDBRANCH   1   6
TORSDOF 5
ENDMDL
MODEL 8
REMARK VINA RESULT:    -4.474      2.448      3.008
REMARK INTER + INTRA:          -5.839
REMARK INTER:                  -5.679
REMARK INTRA:                  -0.160
REMARK UNBOUND:                -0.319
REMARK SMILES CCOC(=O)c1ccc(O)c(O)c1
REMARK SMILES IDX 4 1 5 2 3 3 2 4 1 5 6 6 13 7 7 8 11 9 8 10 9 11 12 12 10 14
REMARK H PARENT 12 13 10 15
REMARK Flexibility Score: inf
ROOT
ATOM      1  C   UNL     1      11.068  -6.454  -9.113  1.00  0.00     0.338 C 
ATOM      2  O   UNL     1      11.112  -7.715  -9.063  1.00  0.00    -0.246 OA
ENDROOT
BRANCH   1   3
ATOM      3  O   UNL     1      12.232  -5.723  -9.372  1.00  0.00    -0.462 OA
BRANCH   3   4
ATOM      4  C   UNL     1      12.788  -5.599 -10.677  1.00  0.00     0.230 C 
ATOM      5  C   UNL     1      13.975  -4.650 -10.635  1.00  0.00     0.049 C 
ENDBRANCH   3   4
ENDBRANCH   1   3
BRANCH   1   6
ATOM      6  C   UNL     1       9.787  -5.746  -8.897  1.00  0.00     0.064 A 
ATOM      7  C   UNL     1       9.277  -5.578  -7.598  1.00  0.00     0.065 A 
ATOM      8  C   UNL     1       9.061  -5.230  -9.985  1.00  0.00     0.020 A 
ATOM      9  C   UNL     1       8.063  -4.907  -7.387  1.00  0.00     0.158 A 
ATOM     10  C   UNL     1       7.851  -4.561  -9.776  1.00  0.00     0.051 A 
ATOM     11  C   UNL     1       7.348  -4.398  -8.483  1.00  0.00     0.157 A 
BRANCH   9  12
ATOM     12  O   UNL     1       7.568  -4.747  -6.094  1.00  0.00    -0.504 OA
ATOM     13  H   UNL     1       7.807  -5.391  -5.349  1.00  0.00     0.293 HD
ENDBRANCH   9  12
BRANCH  11  14
ATOM     14  O   UNL     1       6.139  -3.725  -8.305  1.00  0.00    -0.504 OA
ATOM     15  H   UNL     1       5.737  -3.575  -7.388  1.00  0.00     0.293 HD
ENDBRANCH  11  14
ENDBRANCH   1   6
TORSDOF 5
ENDMDL
MODEL 9
REMARK VINA RESULT:    -4.427     11.258     12.448
REMARK INTER + INTRA:          -5.782
REMARK INTER:                  -5.490
REMARK INTRA:                  -0.292
REMARK UNBOUND:                -0.319
REMARK SMILES CCOC(=O)c1ccc(O)c(O)c1
REMARK SMILES IDX 4 1 5 2 3 3 2 4 1 5 6 6 13 7 7 8 11 9 8 10 9 11 12 12 10 14
REMARK H PARENT 12 13 10 15
REMARK Flexibility Score: inf
ROOT
ATOM      1  C   UNL     1       4.456   6.012 -10.743  1.00  0.00     0.338 C 
ATOM      2  O   UNL     1       4.681   5.584 -11.910  1.00  0.00    -0.246 OA
ENDROOT
BRANCH   1   3
ATOM      3  O   UNL     1       3.875   7.271 -10.559  1.00  0.00    -0.462 OA
BRANCH   3   4
ATOM      4  C   UNL     1       4.638   8.474 -10.531  1.00  0.00     0.230 C 
ATOM      5  C   UNL     1       4.626   9.049  -9.123  1.00  0.00     0.049 C 
ENDBRANCH   3   4
ENDBRANCH   1   3
BRANCH   1   6
ATOM      6  C   UNL     1       4.806   5.184  -9.568  1.00  0.00     0.064 A 
ATOM      7  C   UNL     1       5.982   4.414  -9.566  1.00  0.00     0.065 A 
ATOM      8  C   UNL     1       3.971   5.156  -8.436  1.00  0.00     0.020 A 
ATOM      9  C   UNL     1       6.320   3.627  -8.454  1.00  0.00     0.158 A 
ATOM     10  C   UNL     1       4.307   4.372  -7.329  1.00  0.00     0.051 A 
ATOM     11  C   UNL     1       5.476   3.607  -7.332  1.00  0.00     0.157 A 
BRANCH   9  12
ATOM     12  O   UNL     1       7.488   2.867  -8.464  1.00  0.00    -0.504 OA
ATOM     13  H   UNL     1       7.975   2.630  -7.607  1.00  0.00     0.293 HD
ENDBRANCH   9  12
BRANCH  11  14
ATOM     14  O   UNL     1       5.785   2.836  -6.211  1.00  0.00    -0.504 OA
ATOM     15  H   UNL     1       5.508   1.865  -6.133  1.00  0.00     0.293 HD
ENDBRANCH  11  14
ENDBRANCH   1   6
TORSDOF 5
ENDMDL
