MODEL 1
REMARK VINA RESULT:    -7.098      0.000      0.000
REMARK INTER + INTRA:          -7.098
REMARK INTER:                  -7.098
REMARK INTRA:                   0.000
REMARK UNBOUND:                 0.000
REMARK SMILES C[C@@H]1C(=O)CC[C@H]2[C@]1(C)CC[C@H]1[C@@]2(C)CC[C@]2(C)[C@@H]3CC(C)(C)CC[C@]3(C)CC[C@]12C
REMARK SMILES IDX 1 1 2 2 3 3 4 4 5 5 6 6 7 7 8 8 10 9 11 10 12 11 13 12 15 13
REMARK SMILES IDX 16 14 17 15 30 16 29 17 28 18 26 19 19 20 20 21 21 22 24 23
REMARK SMILES IDX 25 24 22 25 23 26 27 27 31 28 18 29 14 30 9 31
REMARK H PARENT
REMARK Flexibility Score: inf
ROOT
ATOM      1  C   UNL     1      99.136  91.912  77.094  1.00  0.00     0.016 C 
ATOM      2  C   UNL     1      99.171  91.621  78.614  1.00  0.00     0.059 C 
ATOM      3  C   UNL     1     100.435  90.861  78.989  1.00  0.00     0.136 C 
ATOM      4  O   UNL     1     101.333  90.677  78.179  1.00  0.00    -0.299 OA
ATOM      5  C   UNL     1     100.587  90.327  80.378  1.00  0.00     0.076 C 
ATOM      6  C   UNL     1      99.524  90.936  81.282  1.00  0.00     0.012 C 
ATOM      7  C   UNL     1      98.054  90.655  80.793  1.00  0.00     0.002 C 
ATOM      8  C   UNL     1      97.901  90.867  79.198  1.00  0.00    -0.020 C 
ATOM      9  C   UNL     1      97.750  89.523  78.421  1.00  0.00     0.008 C 
ATOM     10  C   UNL     1      96.874  88.481  79.102  1.00  0.00     0.005 C 
ATOM     11  C   UNL     1      97.412  88.129  80.510  1.00  0.00     0.002 C 
ATOM     12  C   UNL     1      97.327  89.363  81.443  1.00  0.00    -0.026 C 
ATOM     13  C   UNL     1      98.020  88.929  82.756  1.00  0.00     0.008 C 
ATOM     14  C   UNL     1      97.288  87.838  83.519  1.00  0.00     0.008 C 
ATOM     15  C   UNL     1      96.893  86.533  82.746  1.00  0.00    -0.024 C 
ATOM     16  C   UNL     1      96.927  86.695  81.097  1.00  0.00    -0.024 C 
ATOM     17  C   UNL     1      97.904  85.635  80.493  1.00  0.00     0.008 C 
ATOM     18  C   UNL     1      99.264  85.618  81.195  1.00  0.00     0.007 C 
ATOM     19  C   UNL     1      99.174  85.005  82.607  1.00  0.00    -0.029 C 
ATOM     20  C   UNL     1      97.775  85.277  83.270  1.00  0.00     0.002 C 
ATOM     21  C   UNL     1      97.785  84.996  84.831  1.00  0.00     0.011 C 
ATOM     22  C   UNL     1      99.110  85.173  85.680  1.00  0.00    -0.035 C 
ATOM     23  C   UNL     1     100.399  84.965  84.852  1.00  0.00     0.007 C 
ATOM     24  C   UNL     1     100.315  85.601  83.466  1.00  0.00     0.007 C 
ATOM     25  C   UNL     1      99.096  84.114  86.811  1.00  0.00     0.011 C 
ATOM     26  C   UNL     1      99.179  86.560  86.378  1.00  0.00     0.011 C 
ATOM     27  C   UNL     1      99.390  83.465  82.456  1.00  0.00     0.011 C 
ATOM     28  C   UNL     1      95.540  86.331  80.457  1.00  0.00     0.012 C 
ATOM     29  C   UNL     1      95.423  86.224  83.250  1.00  0.00     0.012 C 
ATOM     30  C   UNL     1      95.848  89.738  81.767  1.00  0.00     0.012 C 
ATOM     31  C   UNL     1      96.655  91.752  78.907  1.00  0.00     0.012 C 
ENDROOT
TORSDOF 0
ENDMDL
MODEL 2
REMARK VINA RESULT:    -6.979      1.231      1.419
REMARK INTER + INTRA:          -6.979
REMARK INTER:                  -6.979
REMARK INTRA:                   0.000
REMARK UNBOUND:                 0.000
REMARK SMILES C[C@@H]1C(=O)CC[C@H]2[C@]1(C)CC[C@H]1[C@@]2(C)CC[C@]2(C)[C@@H]3CC(C)(C)CC[C@]3(C)CC[C@]12C
REMARK SMILES IDX 1 1 2 2 3 3 4 4 5 5 6 6 7 7 8 8 10 9 11 10 12 11 13 12 15 13
REMARK SMILES IDX 16 14 17 15 30 16 29 17 28 18 26 19 19 20 20 21 21 22 24 23
REMARK SMILES IDX 25 24 22 25 23 26 27 27 31 28 18 29 14 30 9 31
REMARK H PARENT
REMARK Flexibility Score: inf
ROOT
ATOM      1  C   UNL     1      97.584  92.268  78.065  1.00  0.00     0.016 C 
ATOM      2  C   UNL     1      98.285  91.755  79.347  1.00  0.00     0.059 C 
ATOM      3  C   UNL     1      99.466  90.863  78.995  1.00  0.00     0.136 C 
ATOM      4  O   UNL     1      99.851  90.739  77.841  1.00  0.00    -0.299 OA
ATOM      5  C   UNL     1     100.176  90.122  80.083  1.00  0.00     0.076 C 
ATOM      6  C   UNL     1      99.747  90.663  81.440  1.00  0.00     0.012 C 
ATOM      7  C   UNL     1      98.196  90.559  81.690  1.00  0.00     0.002 C 
ATOM      8  C   UNL     1      97.347  91.013  80.391  1.00  0.00    -0.020 C 
ATOM      9  C   UNL     1      96.677  89.812  79.656  1.00  0.00     0.008 C 
ATOM     10  C   UNL     1      96.092  88.744  80.569  1.00  0.00     0.005 C 
ATOM     11  C   UNL     1      97.173  88.152  81.506  1.00  0.00     0.002 C 
ATOM     12  C   UNL     1      97.693  89.238  82.480  1.00  0.00    -0.026 C 
ATOM     13  C   UNL     1      98.855  88.569  83.252  1.00  0.00     0.008 C 
ATOM     14  C   UNL     1      98.428  87.431  84.163  1.00  0.00     0.008 C 
ATOM     15  C   UNL     1      97.552  86.284  83.552  1.00  0.00    -0.024 C 
ATOM     16  C   UNL     1      96.834  86.684  82.112  1.00  0.00    -0.024 C 
ATOM     17  C   UNL     1      97.270  85.660  81.014  1.00  0.00     0.008 C 
ATOM     18  C   UNL     1      98.785  85.446  80.974  1.00  0.00     0.007 C 
ATOM     19  C   UNL     1      99.283  84.640  82.190  1.00  0.00    -0.029 C 
ATOM     20  C   UNL     1      98.403  84.907  83.465  1.00  0.00     0.002 C 
ATOM     21  C   UNL     1      99.103  84.400  84.795  1.00  0.00     0.011 C 
ATOM     22  C   UNL     1     100.680  84.358  84.919  1.00  0.00    -0.035 C 
ATOM     23  C   UNL     1     101.396  84.186  83.560  1.00  0.00     0.007 C 
ATOM     24  C   UNL     1     100.760  85.023  82.452  1.00  0.00     0.007 C 
ATOM     25  C   UNL     1     101.057  83.148  85.811  1.00  0.00     0.011 C 
ATOM     26  C   UNL     1     101.247  85.620  85.629  1.00  0.00     0.011 C 
ATOM     27  C   UNL     1      99.202  83.128  81.806  1.00  0.00     0.011 C 
ATOM     28  C   UNL     1      95.275  86.514  82.182  1.00  0.00     0.012 C 
ATOM     29  C   UNL     1      96.459  86.007  84.665  1.00  0.00     0.012 C 
ATOM     30  C   UNL     1      96.599  89.663  83.507  1.00  0.00     0.012 C 
ATOM     31  C   UNL     1      96.236  92.015  80.819  1.00  0.00     0.012 C 
ENDROOT
TORSDOF 0
ENDMDL
MODEL 3
REMARK VINA RESULT:    -6.965      2.217      7.174
REMARK INTER + INTRA:          -6.965
REMARK INTER:                  -6.965
REMARK INTRA:                   0.000
REMARK UNBOUND:                 0.000
REMARK SMILES C[C@@H]1C(=O)CC[C@H]2[C@]1(C)CC[C@H]1[C@@]2(C)CC[C@]2(C)[C@@H]3CC(C)(C)CC[C@]3(C)CC[C@]12C
REMARK SMILES IDX 1 1 2 2 3 3 4 4 5 5 6 6 7 7 8 8 10 9 11 10 12 11 13 12 15 13
REMARK SMILES IDX 16 14 17 15 30 16 29 17 28 18 26 19 19 20 20 21 21 22 24 23
REMARK SMILES IDX 25 24 22 25 23 26 27 27 31 28 18 29 14 30 9 31
REMARK H PARENT
REMARK Flexibility Score: inf
ROOT
ATOM      1  C   UNL     1     100.960  84.874  88.329  1.00  0.00     0.016 C 
ATOM      2  C   UNL     1     101.260  85.370  86.894  1.00  0.00     0.059 C 
ATOM      3  C   UNL     1     101.126  86.883  86.807  1.00  0.00     0.136 C 
ATOM      4  O   UNL     1     100.957  87.568  87.806  1.00  0.00    -0.299 OA
ATOM      5  C   UNL     1     101.202  87.552  85.470  1.00  0.00     0.076 C 
ATOM      6  C   UNL     1     101.727  86.569  84.433  1.00  0.00     0.012 C 
ATOM      7  C   UNL     1     100.841  85.275  84.297  1.00  0.00     0.002 C 
ATOM      8  C   UNL     1     100.407  84.691  85.740  1.00  0.00    -0.020 C 
ATOM      9  C   UNL     1      98.900  84.931  86.061  1.00  0.00     0.008 C 
ATOM     10  C   UNL     1      97.952  84.739  84.886  1.00  0.00     0.005 C 
ATOM     11  C   UNL     1      98.318  85.679  83.711  1.00  0.00     0.002 C 
ATOM     12  C   UNL     1      99.709  85.310  83.140  1.00  0.00    -0.026 C 
ATOM     13  C   UNL     1     100.017  86.399  82.084  1.00  0.00     0.008 C 
ATOM     14  C   UNL     1      99.102  86.373  80.873  1.00  0.00     0.008 C 
ATOM     15  C   UNL     1      97.553  86.384  81.116  1.00  0.00    -0.024 C 
ATOM     16  C   UNL     1      97.115  85.972  82.660  1.00  0.00    -0.024 C 
ATOM     17  C   UNL     1      96.275  87.133  83.286  1.00  0.00     0.008 C 
ATOM     18  C   UNL     1      96.941  88.500  83.118  1.00  0.00     0.007 C 
ATOM     19  C   UNL     1      96.880  88.993  81.658  1.00  0.00    -0.029 C 
ATOM     20  C   UNL     1      96.916  87.796  80.639  1.00  0.00     0.002 C 
ATOM     21  C   UNL     1      97.232  88.276  79.161  1.00  0.00     0.011 C 
ATOM     22  C   UNL     1      98.110  89.566  78.895  1.00  0.00    -0.035 C 
ATOM     23  C   UNL     1      98.037  90.602  80.040  1.00  0.00     0.007 C 
ATOM     24  C   UNL     1      98.072  89.952  81.422  1.00  0.00     0.007 C 
ATOM     25  C   UNL     1      97.582  90.245  77.606  1.00  0.00     0.011 C 
ATOM     26  C   UNL     1      99.601  89.217  78.627  1.00  0.00     0.011 C 
ATOM     27  C   UNL     1      95.542  89.781  81.493  1.00  0.00     0.011 C 
ATOM     28  C   UNL     1      96.128  84.751  82.669  1.00  0.00     0.012 C 
ATOM     29  C   UNL     1      96.999  85.326  80.074  1.00  0.00     0.012 C 
ATOM     30  C   UNL     1      99.689  83.924  82.426  1.00  0.00     0.012 C 
ATOM     31  C   UNL     1     100.686  83.161  85.788  1.00  0.00     0.012 C 
ENDROOT
TORSDOF 0
ENDMDL
MODEL 4
REMARK VINA RESULT:    -6.909      5.407      7.428
REMARK INTER + INTRA:          -6.909
REMARK INTER:                  -6.909
REMARK INTRA:                   0.000
REMARK UNBOUND:                 0.000
REMARK SMILES C[C@@H]1C(=O)CC[C@H]2[C@]1(C)CC[C@H]1[C@@]2(C)CC[C@]2(C)[C@@H]3CC(C)(C)CC[C@]3(C)CC[C@]12C
REMARK SMILES IDX 1 1 2 2 3 3 4 4 5 5 6 6 7 7 8 8 10 9 11 10 12 11 13 12 15 13
REMARK SMILES IDX 16 14 17 15 30 16 29 17 28 18 26 19 19 20 20 21 21 22 24 23
REMARK SMILES IDX 25 24 22 25 23 26 27 27 31 28 18 29 14 30 9 31
REMARK H PARENT
REMARK Flexibility Score: inf
ROOT
ATOM      1  C   UNL     1      90.989  83.375  80.767  1.00  0.00     0.016 C 
ATOM      2  C   UNL     1      91.870  84.542  81.275  1.00  0.00     0.059 C 
ATOM      3  C   UNL     1      93.333  84.129  81.332  1.00  0.00     0.136 C 
ATOM      4  O   UNL     1      93.713  83.060  80.875  1.00  0.00    -0.299 OA
ATOM      5  C   UNL     1      94.332  85.048  81.960  1.00  0.00     0.076 C 
ATOM      6  C   UNL     1      93.710  86.423  82.163  1.00  0.00     0.012 C 
ATOM      7  C   UNL     1      92.418  86.396  83.062  1.00  0.00     0.002 C 
ATOM      8  C   UNL     1      91.438  85.173  82.667  1.00  0.00    -0.020 C 
ATOM      9  C   UNL     1      91.440  84.029  83.726  1.00  0.00     0.008 C 
ATOM     10  C   UNL     1      91.474  84.493  85.175  1.00  0.00     0.005 C 
ATOM     11  C   UNL     1      92.719  85.369  85.456  1.00  0.00     0.002 C 
ATOM     12  C   UNL     1      92.647  86.683  84.639  1.00  0.00    -0.026 C 
ATOM     13  C   UNL     1      93.998  87.393  84.891  1.00  0.00     0.008 C 
ATOM     14  C   UNL     1      94.204  87.859  86.322  1.00  0.00     0.008 C 
ATOM     15  C   UNL     1      94.002  86.816  87.474  1.00  0.00    -0.024 C 
ATOM     16  C   UNL     1      93.161  85.465  87.015  1.00  0.00    -0.024 C 
ATOM     17  C   UNL     1      94.031  84.195  87.289  1.00  0.00     0.008 C 
ATOM     18  C   UNL     1      95.452  84.323  86.736  1.00  0.00     0.007 C 
ATOM     19  C   UNL     1      96.302  85.313  87.558  1.00  0.00    -0.029 C 
ATOM     20  C   UNL     1      95.422  86.463  88.171  1.00  0.00     0.002 C 
ATOM     21  C   UNL     1      96.300  87.677  88.692  1.00  0.00     0.011 C 
ATOM     22  C   UNL     1      97.693  88.019  88.021  1.00  0.00    -0.035 C 
ATOM     23  C   UNL     1      98.381  86.792  87.380  1.00  0.00     0.007 C 
ATOM     24  C   UNL     1      97.398  85.893  86.633  1.00  0.00     0.007 C 
ATOM     25  C   UNL     1      98.632  88.567  89.125  1.00  0.00     0.011 C 
ATOM     26  C   UNL     1      97.571  89.142  86.952  1.00  0.00     0.011 C 
ATOM     27  C   UNL     1      96.974  84.498  88.709  1.00  0.00     0.011 C 
ATOM     28  C   UNL     1      91.891  85.247  87.913  1.00  0.00     0.012 C 
ATOM     29  C   UNL     1      93.206  87.624  88.581  1.00  0.00     0.012 C 
ATOM     30  C   UNL     1      91.501  87.612  85.143  1.00  0.00     0.012 C 
ATOM     31  C   UNL     1      89.983  85.702  82.511  1.00  0.00     0.012 C 
ENDROOT
TORSDOF 0
ENDMDL
MODEL 5
REMARK VINA RESULT:    -6.660      1.465      2.070
REMARK INTER + INTRA:          -6.660
REMARK INTER:                  -6.660
REMARK INTRA:                   0.000
REMARK UNBOUND:                 0.000
REMARK SMILES C[C@@H]1C(=O)CC[C@H]2[C@]1(C)CC[C@H]1[C@@]2(C)CC[C@]2(C)[C@@H]3CC(C)(C)CC[C@]3(C)CC[C@]12C
REMARK SMILES IDX 1 1 2 2 3 3 4 4 5 5 6 6 7 7 8 8 10 9 11 10 12 11 13 12 15 13
REMARK SMILES IDX 16 14 17 15 30 16 29 17 28 18 26 19 19 20 20 21 21 22 24 23
REMARK SMILES IDX 25 24 22 25 23 26 27 27 31 28 18 29 14 30 9 31
REMARK H PARENT
REMARK Flexibility Score: inf
ROOT
ATOM      1  C   UNL     1     101.317  91.393  78.253  1.00  0.00     0.016 C 
ATOM      2  C   UNL     1     100.948  91.282  79.752  1.00  0.00     0.059 C 
ATOM      3  C   UNL     1     102.128  90.762  80.561  1.00  0.00     0.136 C 
ATOM      4  O   UNL     1     103.234  90.623  80.060  1.00  0.00    -0.299 OA
ATOM      5  C   UNL     1     101.933  90.415  82.003  1.00  0.00     0.076 C 
ATOM      6  C   UNL     1     100.596  90.959  82.488  1.00  0.00     0.012 C 
ATOM      7  C   UNL     1      99.368  90.412  81.669  1.00  0.00     0.002 C 
ATOM      8  C   UNL     1      99.655  90.420  80.079  1.00  0.00    -0.020 C 
ATOM      9  C   UNL     1      99.880  88.990  79.497  1.00  0.00     0.008 C 
ATOM     10  C   UNL     1      98.966  87.913  80.064  1.00  0.00     0.005 C 
ATOM     11  C   UNL     1      99.114  87.803  81.601  1.00  0.00     0.002 C 
ATOM     12  C   UNL     1      98.631  89.108  82.283  1.00  0.00    -0.026 C 
ATOM     13  C   UNL     1      98.963  88.929  83.784  1.00  0.00     0.008 C 
ATOM     14  C   UNL     1      98.168  87.835  84.475  1.00  0.00     0.008 C 
ATOM     15  C   UNL     1      98.156  86.408  83.827  1.00  0.00    -0.024 C 
ATOM     16  C   UNL     1      98.642  86.388  82.242  1.00  0.00    -0.024 C 
ATOM     17  C   UNL     1      99.862  85.422  82.087  1.00  0.00     0.008 C 
ATOM     18  C   UNL     1     100.957  85.684  83.123  1.00  0.00     0.007 C 
ATOM     19  C   UNL     1     100.535  85.225  84.533  1.00  0.00    -0.029 C 
ATOM     20  C   UNL     1      98.983  85.362  84.748  1.00  0.00     0.002 C 
ATOM     21  C   UNL     1      98.577  85.261  86.278  1.00  0.00     0.011 C 
ATOM     22  C   UNL     1      99.576  85.724  87.416  1.00  0.00    -0.035 C 
ATOM     23  C   UNL     1     101.063  85.616  87.006  1.00  0.00     0.007 C 
ATOM     24  C   UNL     1     101.310  86.074  85.570  1.00  0.00     0.007 C 
ATOM     25  C   UNL     1      99.355  84.808  88.646  1.00  0.00     0.011 C 
ATOM     26  C   UNL     1      99.291  87.175  87.893  1.00  0.00     0.011 C 
ATOM     27  C   UNL     1     100.953  83.727  84.676  1.00  0.00     0.011 C 
ATOM     28  C   UNL     1      97.545  85.755  81.314  1.00  0.00     0.012 C 
ATOM     29  C   UNL     1      96.646  85.945  83.956  1.00  0.00     0.012 C 
ATOM     30  C   UNL     1      97.090  89.296  82.139  1.00  0.00     0.012 C 
ATOM     31  C   UNL     1      98.455  91.074  79.335  1.00  0.00     0.012 C 
ENDROOT
TORSDOF 0
ENDMDL
MODEL 6
REMARK VINA RESULT:    -6.635      2.171      3.920
REMARK INTER + INTRA:          -6.635
REMARK INTER:                  -6.635
REMARK INTRA:                   0.000
REMARK UNBOUND:                 0.000
REMARK SMILES C[C@@H]1C(=O)CC[C@H]2[C@]1(C)CC[C@H]1[C@@]2(C)CC[C@]2(C)[C@@H]3CC(C)(C)CC[C@]3(C)CC[C@]12C
REMARK SMILES IDX 1 1 2 2 3 3 4 4 5 5 6 6 7 7 8 8 10 9 11 10 12 11 13 12 15 13
REMARK SMILES IDX 16 14 17 15 30 16 29 17 28 18 26 19 19 20 20 21 21 22 24 23
REMARK SMILES IDX 25 24 22 25 23 26 27 27 31 28 18 29 14 30 9 31
REMARK H PARENT
REMARK Flexibility Score: inf
ROOT
ATOM      1  C   UNL     1     102.227  91.632  80.866  1.00  0.00     0.016 C 
ATOM      2  C   UNL     1     100.842  91.117  81.328  1.00  0.00     0.059 C 
ATOM      3  C   UNL     1     100.646  91.358  82.817  1.00  0.00     0.136 C 
ATOM      4  O   UNL     1     101.445  92.017  83.468  1.00  0.00    -0.299 OA
ATOM      5  C   UNL     1      99.449  90.780  83.504  1.00  0.00     0.076 C 
ATOM      6  C   UNL     1      98.449  90.288  82.467  1.00  0.00     0.012 C 
ATOM      7  C   UNL     1      99.043  89.202  81.495  1.00  0.00     0.002 C 
ATOM      8  C   UNL     1     100.526  89.599  80.987  1.00  0.00    -0.020 C 
ATOM      9  C   UNL     1     101.642  88.725  81.637  1.00  0.00     0.008 C 
ATOM     10  C   UNL     1     101.298  87.250  81.791  1.00  0.00     0.005 C 
ATOM     11  C   UNL     1     100.021  87.058  82.644  1.00  0.00     0.002 C 
ATOM     12  C   UNL     1      98.792  87.659  81.917  1.00  0.00    -0.026 C 
ATOM     13  C   UNL     1      97.623  87.535  82.924  1.00  0.00     0.008 C 
ATOM     14  C   UNL     1      97.208  86.106  83.228  1.00  0.00     0.008 C 
ATOM     15  C   UNL     1      98.318  85.094  83.675  1.00  0.00    -0.024 C 
ATOM     16  C   UNL     1      99.860  85.594  83.328  1.00  0.00    -0.024 C 
ATOM     17  C   UNL     1     100.696  85.647  84.648  1.00  0.00     0.008 C 
ATOM     18  C   UNL     1      99.981  86.402  85.770  1.00  0.00     0.007 C 
ATOM     19  C   UNL     1      98.792  85.599  86.335  1.00  0.00    -0.029 C 
ATOM     20  C   UNL     1      98.126  84.696  85.235  1.00  0.00     0.002 C 
ATOM     21  C   UNL     1      96.699  84.161  85.678  1.00  0.00     0.011 C 
ATOM     22  C   UNL     1      95.792  84.997  86.671  1.00  0.00    -0.035 C 
ATOM     23  C   UNL     1      96.602  85.907  87.621  1.00  0.00     0.007 C 
ATOM     24  C   UNL     1      97.766  86.602  86.918  1.00  0.00     0.007 C 
ATOM     25  C   UNL     1      94.990  83.995  87.540  1.00  0.00     0.011 C 
ATOM     26  C   UNL     1      94.742  85.863  85.919  1.00  0.00     0.011 C 
ATOM     27  C   UNL     1      99.346  84.700  87.485  1.00  0.00     0.011 C 
ATOM     28  C   UNL     1     100.620  84.539  82.447  1.00  0.00     0.012 C 
ATOM     29  C   UNL     1      97.966  83.770  82.880  1.00  0.00     0.012 C 
ATOM     30  C   UNL     1      98.427  86.849  80.636  1.00  0.00     0.012 C 
ATOM     31  C   UNL     1     100.607  89.438  79.441  1.00  0.00     0.012 C 
ENDROOT
TORSDOF 0
ENDMDL
MODEL 7
REMARK VINA RESULT:    -6.535      3.215      6.625
REMARK INTER + INTRA:          -6.535
REMARK INTER:                  -6.535
REMARK INTRA:                   0.000
REMARK UNBOUND:                 0.000
REMARK SMILES C[C@@H]1C(=O)CC[C@H]2[C@]1(C)CC[C@H]1[C@@]2(C)CC[C@]2(C)[C@@H]3CC(C)(C)CC[C@]3(C)CC[C@]12C
REMARK SMILES IDX 1 1 2 2 3 3 4 4 5 5 6 6 7 7 8 8 10 9 11 10 12 11 13 12 15 13
REMARK SMILES IDX 16 14 17 15 30 16 29 17 28 18 26 19 19 20 20 21 21 22 24 23
REMARK SMILES IDX 25 24 22 25 23 26 27 27 31 28 18 29 14 30 9 31
REMARK H PARENT
REMARK Flexibility Score: inf
ROOT
ATOM      1  C   UNL     1     102.238  87.297  81.613  1.00  0.00     0.016 C 
ATOM      2  C   UNL     1     100.965  86.489  81.961  1.00  0.00     0.059 C 
ATOM      3  C   UNL     1      99.712  87.299  81.661  1.00  0.00     0.136 C 
ATOM      4  O   UNL     1      99.771  88.373  81.078  1.00  0.00    -0.299 OA
ATOM      5  C   UNL     1      98.378  86.774  82.086  1.00  0.00     0.076 C 
ATOM      6  C   UNL     1      98.506  85.311  82.492  1.00  0.00     0.012 C 
ATOM      7  C   UNL     1      99.534  85.078  83.661  1.00  0.00     0.002 C 
ATOM      8  C   UNL     1     100.894  85.924  83.443  1.00  0.00    -0.020 C 
ATOM      9  C   UNL     1     101.015  87.136  84.417  1.00  0.00     0.008 C 
ATOM     10  C   UNL     1     100.548  86.867  85.841  1.00  0.00     0.005 C 
ATOM     11  C   UNL     1      99.069  86.411  85.870  1.00  0.00     0.002 C 
ATOM     12  C   UNL     1      98.912  85.046  85.155  1.00  0.00    -0.026 C 
ATOM     13  C   UNL     1      97.388  84.776  85.124  1.00  0.00     0.008 C 
ATOM     14  C   UNL     1      96.764  84.551  86.490  1.00  0.00     0.008 C 
ATOM     15  C   UNL     1      97.026  85.619  87.607  1.00  0.00    -0.024 C 
ATOM     16  C   UNL     1      98.308  86.620  87.289  1.00  0.00    -0.024 C 
ATOM     17  C   UNL     1      97.819  88.105  87.295  1.00  0.00     0.008 C 
ATOM     18  C   UNL     1      96.570  88.319  86.437  1.00  0.00     0.007 C 
ATOM     19  C   UNL     1      95.314  87.706  87.089  1.00  0.00    -0.029 C 
ATOM     20  C   UNL     1      95.665  86.433  87.942  1.00  0.00     0.002 C 
ATOM     21  C   UNL     1      94.377  85.579  88.304  1.00  0.00     0.011 C 
ATOM     22  C   UNL     1      93.115  85.567  87.349  1.00  0.00    -0.035 C 
ATOM     23  C   UNL     1      92.971  86.857  86.510  1.00  0.00     0.007 C 
ATOM     24  C   UNL     1      94.309  87.355  85.966  1.00  0.00     0.007 C 
ATOM     25  C   UNL     1      91.849  85.433  88.233  1.00  0.00     0.011 C 
ATOM     26  C   UNL     1      93.114  84.342  86.392  1.00  0.00     0.011 C 
ATOM     27  C   UNL     1      94.693  88.801  88.015  1.00  0.00     0.011 C 
ATOM     28  C   UNL     1      99.372  86.574  88.443  1.00  0.00     0.012 C 
ATOM     29  C   UNL     1      97.300  84.752  88.904  1.00  0.00     0.012 C 
ATOM     30  C   UNL     1      99.599  83.896  85.953  1.00  0.00     0.012 C 
ATOM     31  C   UNL     1     102.125  84.995  83.651  1.00  0.00     0.012 C 
ENDROOT
TORSDOF 0
ENDMDL
MODEL 8
REMARK VINA RESULT:    -6.512      3.786      6.066
REMARK INTER + INTRA:          -6.512
REMARK INTER:                  -6.512
REMARK INTRA:                   0.000
REMARK UNBOUND:                 0.000
REMARK SMILES C[C@@H]1C(=O)CC[C@H]2[C@]1(C)CC[C@H]1[C@@]2(C)CC[C@]2(C)[C@@H]3CC(C)(C)CC[C@]3(C)CC[C@]12C
REMARK SMILES IDX 1 1 2 2 3 3 4 4 5 5 6 6 7 7 8 8 10 9 11 10 12 11 13 12 15 13
REMARK SMILES IDX 16 14 17 15 30 16 29 17 28 18 26 19 19 20 20 21 21 22 24 23
REMARK SMILES IDX 25 24 22 25 23 26 27 27 31 28 18 29 14 30 9 31
REMARK H PARENT
REMARK Flexibility Score: inf
ROOT
ATOM      1  C   UNL     1      91.261  84.154  81.806  1.00  0.00     0.016 C 
ATOM      2  C   UNL     1      92.588  84.818  81.364  1.00  0.00     0.059 C 
ATOM      3  C   UNL     1      93.596  83.767  80.923  1.00  0.00     0.136 C 
ATOM      4  O   UNL     1      93.283  82.591  80.808  1.00  0.00    -0.299 OA
ATOM      5  C   UNL     1      95.003  84.179  80.622  1.00  0.00     0.076 C 
ATOM      6  C   UNL     1      95.083  85.696  80.520  1.00  0.00     0.012 C 
ATOM      7  C   UNL     1      94.612  86.435  81.828  1.00  0.00     0.002 C 
ATOM      8  C   UNL     1      93.257  85.789  82.427  1.00  0.00    -0.020 C 
ATOM      9  C   UNL     1      93.504  84.967  83.729  1.00  0.00     0.008 C 
ATOM     10  C   UNL     1      94.505  85.579  84.698  1.00  0.00     0.005 C 
ATOM     11  C   UNL     1      95.885  85.782  84.025  1.00  0.00     0.002 C 
ATOM     12  C   UNL     1      95.779  86.821  82.882  1.00  0.00    -0.026 C 
ATOM     13  C   UNL     1      97.170  86.824  82.204  1.00  0.00     0.008 C 
ATOM     14  C   UNL     1      98.292  87.353  83.081  1.00  0.00     0.008 C 
ATOM     15  C   UNL     1      98.470  86.731  84.509  1.00  0.00    -0.024 C 
ATOM     16  C   UNL     1      97.142  85.897  85.046  1.00  0.00    -0.024 C 
ATOM     17  C   UNL     1      97.555  84.427  85.381  1.00  0.00     0.008 C 
ATOM     18  C   UNL     1      98.354  83.767  84.254  1.00  0.00     0.007 C 
ATOM     19  C   UNL     1      99.781  84.343  84.148  1.00  0.00    -0.029 C 
ATOM     20  C   UNL     1      99.831  85.854  84.579  1.00  0.00     0.002 C 
ATOM     21  C   UNL     1     101.177  86.562  84.129  1.00  0.00     0.011 C 
ATOM     22  C   UNL     1     101.955  86.082  82.836  1.00  0.00    -0.035 C 
ATOM     23  C   UNL     1     101.719  84.592  82.498  1.00  0.00     0.007 C 
ATOM     24  C   UNL     1     100.264  84.171  82.688  1.00  0.00     0.007 C 
ATOM     25  C   UNL     1     103.471  86.278  83.091  1.00  0.00     0.011 C 
ATOM     26  C   UNL     1     101.606  86.941  81.588  1.00  0.00     0.011 C 
ATOM     27  C   UNL     1     100.690  83.498  85.097  1.00  0.00     0.011 C 
ATOM     28  C   UNL     1      96.627  86.461  86.418  1.00  0.00     0.012 C 
ATOM     29  C   UNL     1      98.757  87.985  85.435  1.00  0.00     0.012 C 
ATOM     30  C   UNL     1      95.495  88.253  83.431  1.00  0.00     0.012 C 
ATOM     31  C   UNL     1      92.235  86.919  82.740  1.00  0.00     0.012 C 
ENDROOT
TORSDOF 0
ENDMDL
MODEL 9
REMARK VINA RESULT:    -6.485      2.798      7.605
REMARK INTER + INTRA:          -6.485
REMARK INTER:                  -6.485
REMARK INTRA:                   0.000
REMARK UNBOUND:                 0.000
REMARK SMILES C[C@@H]1C(=O)CC[C@H]2[C@]1(C)CC[C@H]1[C@@]2(C)CC[C@]2(C)[C@@H]3CC(C)(C)CC[C@]3(C)CC[C@]12C
REMARK SMILES IDX 1 1 2 2 3 3 4 4 5 5 6 6 7 7 8 8 10 9 11 10 12 11 13 12 15 13
REMARK SMILES IDX 16 14 17 15 30 16 29 17 28 18 26 19 19 20 20 21 21 22 24 23
REMARK SMILES IDX 25 24 22 25 23 26 27 27 31 28 18 29 14 30 9 31
REMARK H PARENT
REMARK Flexibility Score: inf
ROOT
ATOM      1  C   UNL     1      96.717  84.867  89.125  1.00  0.00     0.016 C 
ATOM      2  C   UNL     1      97.517  86.033  88.496  1.00  0.00     0.059 C 
ATOM      3  C   UNL     1      96.598  86.956  87.710  1.00  0.00     0.136 C 
ATOM      4  O   UNL     1      95.382  86.825  87.742  1.00  0.00    -0.299 OA
ATOM      5  C   UNL     1      97.190  88.049  86.878  1.00  0.00     0.076 C 
ATOM      6  C   UNL     1      98.660  88.226  87.233  1.00  0.00     0.012 C 
ATOM      7  C   UNL     1      99.513  86.919  87.026  1.00  0.00     0.002 C 
ATOM      8  C   UNL     1      98.751  85.610  87.591  1.00  0.00    -0.020 C 
ATOM      9  C   UNL     1      98.212  84.687  86.456  1.00  0.00     0.008 C 
ATOM     10  C   UNL     1      99.139  84.527  85.260  1.00  0.00     0.005 C 
ATOM     11  C   UNL     1      99.462  85.896  84.613  1.00  0.00     0.002 C 
ATOM     12  C   UNL     1     100.264  86.782  85.599  1.00  0.00    -0.026 C 
ATOM     13  C   UNL     1     100.394  88.155  84.898  1.00  0.00     0.008 C 
ATOM     14  C   UNL     1     101.246  88.138  83.640  1.00  0.00     0.008 C 
ATOM     15  C   UNL     1     100.910  87.079  82.534  1.00  0.00    -0.024 C 
ATOM     16  C   UNL     1      99.960  85.831  83.069  1.00  0.00    -0.024 C 
ATOM     17  C   UNL     1      98.659  85.763  82.204  1.00  0.00     0.008 C 
ATOM     18  C   UNL     1      97.970  87.123  82.069  1.00  0.00     0.007 C 
ATOM     19  C   UNL     1      98.757  88.076  81.148  1.00  0.00    -0.029 C 
ATOM     20  C   UNL     1     100.304  87.808  81.220  1.00  0.00     0.002 C 
ATOM     21  C   UNL     1     101.149  88.994  80.590  1.00  0.00     0.011 C 
ATOM     22  C   UNL     1     100.603  90.480  80.609  1.00  0.00    -0.035 C 
ATOM     23  C   UNL     1      99.060  90.564  80.634  1.00  0.00     0.007 C 
ATOM     24  C   UNL     1      98.431  89.531  81.566  1.00  0.00     0.007 C 
ATOM     25  C   UNL     1     101.097  91.185  79.321  1.00  0.00     0.011 C 
ATOM     26  C   UNL     1     101.170  91.299  81.802  1.00  0.00     0.011 C 
ATOM     27  C   UNL     1      98.251  87.832  79.690  1.00  0.00     0.011 C 
ATOM     28  C   UNL     1     100.646  84.441  82.819  1.00  0.00     0.012 C 
ATOM     29  C   UNL     1     102.330  86.547  82.075  1.00  0.00     0.012 C 
ATOM     30  C   UNL     1     101.696  86.217  85.846  1.00  0.00     0.012 C 
ATOM     31  C   UNL     1      99.725  84.785  88.481  1.00  0.00     0.012 C 
ENDROOT
TORSDOF 0
ENDMDL
