MODEL 1
REMARK VINA RESULT:    -4.274      0.000      0.000
REMARK INTER + INTRA:          -5.124
REMARK INTER:                  -6.523
REMARK INTRA:                   1.398
REMARK UNBOUND:                 1.398
REMARK SMILES CC1=CCC[C@@H](C)C(=O)C[C@H](C(C)C)C(=O)C1
REMARK SMILES IDX 8 1 9 2 6 3 7 4 5 5 4 6 3 7 2 8 1 9 10 11 11 12 15 13 16 14
REMARK SMILES IDX 17 15 12 17 13 18 14 19
REMARK H PARENT
REMARK Flexibility Score: 70.00
ROOT
ATOM      1  C   UNL     1      -8.690   1.799 -19.212  1.00  0.00     0.136 C 
ATOM      2  O   UNL     1      -7.995   0.862 -18.844  1.00  0.00    -0.299 OA
ENDROOT
BRANCH   1   3
ATOM      3  C   UNL     1      -8.254   3.208 -18.824  1.00  0.00     0.053 C 
ATOM      4  C   UNL     1      -8.549   3.598 -17.364  1.00  0.00     0.016 C 
BRANCH   3   5
ATOM      5  C   UNL     1      -8.785   4.278 -19.812  1.00  0.00     0.015 C 
BRANCH   5   6
ATOM      6  C   UNL     1     -10.321   4.433 -19.848  1.00  0.00     0.028 C 
BRANCH   6   7
ATOM      7  C   UNL     1     -10.876   4.781 -18.482  1.00  0.00    -0.028 C 
ATOM      8  C   UNL     1     -11.760   4.049 -17.764  1.00  0.00    -0.070 CG0
ATOM      9  C   UNL     1     -12.163   4.565 -16.405  1.00  0.00     0.039 C 
ATOM     10  G   UNL     1     -12.406   2.775 -18.269  1.00  0.00     0.000 G0
ENDBRANCH   6   7
ENDBRANCH   5   6
ENDBRANCH   3   5
ENDBRANCH   1   3
BRANCH   1  11
ATOM     11  C   UNL     1      -9.947   1.483 -19.999  1.00  0.00     0.087 C 
BRANCH  11  12
ATOM     12  C   UNL     1     -11.006   0.735 -19.156  1.00  0.00     0.066 C 
BRANCH  12  13
ATOM     13  C   UNL     1     -11.503   1.595 -18.008  1.00  0.00     0.140 C 
ATOM     14  O   UNL     1     -11.197   1.312 -16.858  1.00  0.00    -0.299 OA
BRANCH  13  15
ATOM     15  C   UNL     1     -12.402   2.777 -18.255  1.00  0.00     0.106 CG0
ATOM     16  G   UNL     1     -11.743   4.048 -17.762  1.00  0.00     0.000 G0
ENDBRANCH  13  15
ENDBRANCH  12  13
BRANCH  12  17
ATOM     17  C   UNL     1     -12.163   0.159 -20.028  1.00  0.00    -0.006 C 
ATOM     18  C   UNL     1     -13.326  -0.449 -19.225  1.00  0.00     0.008 C 
ATOM     19  C   UNL     1     -11.632  -0.869 -21.041  1.00  0.00     0.008 C 
ENDBRANCH  12  17
ENDBRANCH  11  12
ENDBRANCH   1  11
TORSDOF 1
ENDMDL
MODEL 2
REMARK VINA RESULT:    -4.262      1.881      3.969
REMARK INTER + INTRA:          -5.105
REMARK INTER:                  -5.286
REMARK INTRA:                   0.180
REMARK UNBOUND:                 1.398
REMARK SMILES CC1=CCC[C@@H](C)C(=O)C[C@H](C(C)C)C(=O)C1
REMARK SMILES IDX 8 1 9 2 6 3 7 4 5 5 4 6 3 7 2 8 1 9 10 11 11 12 15 13 16 14
REMARK SMILES IDX 17 15 12 17 13 18 14 19
REMARK H PARENT
REMARK Flexibility Score: 70.00
ROOT
ATOM      1  C   UNL     1      -9.560   4.268 -17.844  1.00  0.00     0.136 C 
ATOM      2  O   UNL     1      -9.674   3.937 -16.672  1.00  0.00    -0.299 OA
ENDROOT
BRANCH   1   3
ATOM      3  C   UNL     1      -8.267   3.908 -18.567  1.00  0.00     0.053 C 
ATOM      4  C   UNL     1      -8.154   4.452 -20.002  1.00  0.00     0.016 C 
BRANCH   3   5
ATOM      5  C   UNL     1      -7.972   2.387 -18.515  1.00  0.00     0.015 C 
BRANCH   5   6
ATOM      6  C   UNL     1      -8.671   1.546 -19.606  1.00  0.00     0.028 C 
BRANCH   6   7
ATOM      7  C   UNL     1      -9.681   0.588 -19.009  1.00  0.00    -0.028 C 
ATOM      8  C   UNL     1     -11.023   0.620 -19.189  1.00  0.00    -0.070 CG0
ATOM      9  C   UNL     1     -11.849  -0.453 -18.524  1.00  0.00     0.039 C 
ATOM     10  G   UNL     1     -11.741   1.699 -19.972  1.00  0.00     0.000 G0
ENDBRANCH   6   7
ENDBRANCH   5   6
ENDBRANCH   3   5
ENDBRANCH   1   3
BRANCH   1  11
ATOM     11  C   UNL     1     -10.703   5.041 -18.477  1.00  0.00     0.087 C 
BRANCH  11  12
ATOM     12  C   UNL     1     -11.376   4.268 -19.635  1.00  0.00     0.066 C 
BRANCH  12  13
ATOM     13  C   UNL     1     -11.921   2.933 -19.162  1.00  0.00     0.140 C 
ATOM     14  O   UNL     1     -12.487   2.853 -18.081  1.00  0.00    -0.299 OA
BRANCH  13  15
ATOM     15  C   UNL     1     -11.743   1.685 -19.987  1.00  0.00     0.106 CG0
ATOM     16  G   UNL     1     -11.038   0.618 -19.176  1.00  0.00     0.000 G0
ENDBRANCH  13  15
ENDBRANCH  12  13
BRANCH  12  17
ATOM     17  C   UNL     1     -12.439   5.127 -20.385  1.00  0.00    -0.006 C 
ATOM     18  C   UNL     1     -12.114   5.397 -21.864  1.00  0.00     0.008 C 
ATOM     19  C   UNL     1     -12.691   6.456 -19.653  1.00  0.00     0.008 C 
ENDBRANCH  12  17
ENDBRANCH  11  12
ENDBRANCH   1  11
TORSDOF 1
ENDMDL
MODEL 3
REMARK VINA RESULT:    -3.968      1.783      4.466
REMARK INTER + INTRA:          -4.658
REMARK INTER:                  -5.974
REMARK INTRA:                   1.317
REMARK UNBOUND:                 1.398
REMARK SMILES CC1=CCC[C@@H](C)C(=O)C[C@H](C(C)C)C(=O)C1
REMARK SMILES IDX 8 1 9 2 6 3 7 4 5 5 4 6 3 7 2 8 1 9 10 11 11 12 15 13 16 14
REMARK SMILES IDX 17 15 12 17 13 18 14 19
REMARK H PARENT
REMARK Flexibility Score: 70.00
ROOT
ATOM      1  C   UNL     1     -11.587   4.500 -18.807  1.00  0.00     0.136 C 
ATOM      2  O   UNL     1     -12.224   5.507 -19.084  1.00  0.00    -0.299 OA
ENDROOT
BRANCH   1   3
ATOM      3  C   UNL     1     -11.710   3.941 -17.394  1.00  0.00     0.053 C 
ATOM      4  C   UNL     1     -10.381   3.819 -16.628  1.00  0.00     0.016 C 
BRANCH   3   5
ATOM      5  C   UNL     1     -12.508   2.613 -17.357  1.00  0.00     0.015 C 
BRANCH   5   6
ATOM      6  C   UNL     1     -11.646   1.332 -17.305  1.00  0.00     0.028 C 
BRANCH   6   7
ATOM      7  C   UNL     1     -12.271   0.208 -18.106  1.00  0.00    -0.028 C 
ATOM      8  C   UNL     1     -12.286   0.095 -19.455  1.00  0.00    -0.070 CG0
ATOM      9  C   UNL     1     -12.939  -1.126 -20.052  1.00  0.00     0.039 C 
ATOM     10  G   UNL     1     -11.737   1.149 -20.394  1.00  0.00     0.000 G0
ENDBRANCH   6   7
ENDBRANCH   5   6
ENDBRANCH   3   5
ENDBRANCH   1   3
BRANCH   1  11
ATOM     11  C   UNL     1     -10.701   3.904 -19.885  1.00  0.00     0.087 C 
BRANCH  11  12
ATOM     12  C   UNL     1      -9.872   2.700 -19.378  1.00  0.00     0.066 C 
BRANCH  12  13
ATOM     13  C   UNL     1     -10.287   1.416 -20.073  1.00  0.00     0.140 C 
ATOM     14  O   UNL     1      -9.437   0.603 -20.408  1.00  0.00    -0.299 OA
BRANCH  13  15
ATOM     15  C   UNL     1     -11.731   1.137 -20.394  1.00  0.00     0.106 CG0
ATOM     16  G   UNL     1     -12.284   0.089 -19.452  1.00  0.00     0.000 G0
ENDBRANCH  13  15
ENDBRANCH  12  13
BRANCH  12  17
ATOM     17  C   UNL     1      -8.337   2.962 -19.450  1.00  0.00    -0.006 C 
ATOM     18  C   UNL     1      -7.534   2.374 -18.277  1.00  0.00     0.008 C 
ATOM     19  C   UNL     1      -8.039   4.464 -19.587  1.00  0.00     0.008 C 
ENDBRANCH  12  17
ENDBRANCH  11  12
ENDBRANCH   1  11
TORSDOF 1
ENDMDL
MODEL 4
REMARK VINA RESULT:    -3.675      1.713      4.120
REMARK INTER + INTRA:          -4.211
REMARK INTER:                  -6.184
REMARK INTRA:                   1.974
REMARK UNBOUND:                 1.398
REMARK SMILES CC1=CCC[C@@H](C)C(=O)C[C@H](C(C)C)C(=O)C1
REMARK SMILES IDX 8 1 9 2 6 3 7 4 5 5 4 6 3 7 2 8 1 9 10 11 11 12 15 13 16 14
REMARK SMILES IDX 17 15 12 17 13 18 14 19
REMARK H PARENT
REMARK Flexibility Score: 70.00
ROOT
ATOM      1  C   UNL     1     -11.727   0.459 -17.875  1.00  0.00     0.136 C 
ATOM      2  O   UNL     1     -11.386  -0.662 -17.524  1.00  0.00    -0.299 OA
ENDROOT
BRANCH   1   3
ATOM      3  C   UNL     1     -12.430   0.604 -19.220  1.00  0.00     0.053 C 
ATOM      4  C   UNL     1     -13.372  -0.556 -19.588  1.00  0.00     0.016 C 
BRANCH   3   5
ATOM      5  C   UNL     1     -11.436   0.911 -20.369  1.00  0.00     0.015 C 
BRANCH   5   6
ATOM      6  C   UNL     1     -10.728   2.280 -20.275  1.00  0.00     0.028 C 
BRANCH   6   7
ATOM      7  C   UNL     1     -11.610   3.399 -20.788  1.00  0.00    -0.028 C 
ATOM      8  C   UNL     1     -11.784   4.613 -20.213  1.00  0.00    -0.070 CG0
ATOM      9  C   UNL     1     -12.689   5.599 -20.908  1.00  0.00     0.039 C 
ATOM     10  G   UNL     1     -11.166   5.014 -18.889  1.00  0.00     0.000 G0
ENDBRANCH   6   7
ENDBRANCH   5   6
ENDBRANCH   3   5
ENDBRANCH   1   3
BRANCH   1  11
ATOM     11  C   UNL     1     -11.396   1.620 -16.957  1.00  0.00     0.087 C 
BRANCH  11  12
ATOM     12  C   UNL     1     -10.628   2.752 -17.679  1.00  0.00     0.066 C 
BRANCH  12  13
ATOM     13  C   UNL     1     -11.492   3.991 -17.831  1.00  0.00     0.140 C 
ATOM     14  O   UNL     1     -12.470   4.145 -17.114  1.00  0.00    -0.299 OA
BRANCH  13  15
ATOM     15  C   UNL     1     -11.187   5.026 -18.882  1.00  0.00     0.106 CG0
ATOM     16  G   UNL     1     -11.785   4.613 -20.212  1.00  0.00     0.000 G0
ENDBRANCH  13  15
ENDBRANCH  12  13
BRANCH  12  17
ATOM     17  C   UNL     1      -9.248   3.050 -17.019  1.00  0.00    -0.006 C 
ATOM     18  C   UNL     1      -9.193   4.366 -16.224  1.00  0.00     0.008 C 
ATOM     19  C   UNL     1      -8.120   3.022 -18.063  1.00  0.00     0.008 C 
ENDBRANCH  12  17
ENDBRANCH  11  12
ENDBRANCH   1  11
TORSDOF 1
ENDMDL
MODEL 5
REMARK VINA RESULT:    -3.610      1.850      4.720
REMARK INTER + INTRA:          -4.110
REMARK INTER:                  -4.566
REMARK INTRA:                   0.455
REMARK UNBOUND:                 1.398
REMARK SMILES CC1=CCC[C@@H](C)C(=O)C[C@H](C(C)C)C(=O)C1
REMARK SMILES IDX 8 1 9 2 6 3 7 4 5 5 4 6 3 7 2 8 1 9 10 11 11 12 15 13 16 14
REMARK SMILES IDX 17 15 12 17 13 18 14 19
REMARK H PARENT
REMARK Flexibility Score: 70.00
ROOT
ATOM      1  C   UNL     1     -12.100   0.590 -18.202  1.00  0.00     0.136 C 
ATOM      2  O   UNL     1     -11.700  -0.220 -17.377  1.00  0.00    -0.299 OA
ENDROOT
BRANCH   1   3
ATOM      3  C   UNL     1     -12.369   0.095 -19.619  1.00  0.00     0.053 C 
ATOM      4  C   UNL     1     -13.639  -0.760 -19.777  1.00  0.00     0.016 C 
BRANCH   3   5
ATOM      5  C   UNL     1     -11.133  -0.610 -20.236  1.00  0.00     0.015 C 
BRANCH   5   6
ATOM      6  C   UNL     1     -10.041   0.338 -20.778  1.00  0.00     0.028 C 
BRANCH   6   7
ATOM      7  C   UNL     1      -8.985   0.627 -19.732  1.00  0.00    -0.028 C 
ATOM      8  C   UNL     1      -8.655   1.843 -19.237  1.00  0.00    -0.070 CG0
ATOM      9  C   UNL     1      -7.589   1.905 -18.172  1.00  0.00     0.039 C 
ATOM     10  G   UNL     1      -9.255   3.144 -19.731  1.00  0.00     0.000 G0
ENDBRANCH   6   7
ENDBRANCH   5   6
ENDBRANCH   3   5
ENDBRANCH   1   3
BRANCH   1  11
ATOM     11  C   UNL     1     -12.268   2.031 -17.757  1.00  0.00     0.087 C 
BRANCH  11  12
ATOM     12  C   UNL     1     -10.929   2.803 -17.717  1.00  0.00     0.066 C 
BRANCH  12  13
ATOM     13  C   UNL     1     -10.592   3.390 -19.077  1.00  0.00     0.140 C 
ATOM     14  O   UNL     1     -11.429   4.046 -19.682  1.00  0.00    -0.299 OA
BRANCH  13  15
ATOM     15  C   UNL     1      -9.251   3.147 -19.718  1.00  0.00     0.106 CG0
ATOM     16  G   UNL     1      -8.667   1.838 -19.228  1.00  0.00     0.000 G0
ENDBRANCH  13  15
ENDBRANCH  12  13
BRANCH  12  17
ATOM     17  C   UNL     1     -10.884   3.859 -16.572  1.00  0.00    -0.006 C 
ATOM     18  C   UNL     1     -12.098   4.804 -16.528  1.00  0.00     0.008 C 
ATOM     19  C   UNL     1      -9.585   4.679 -16.628  1.00  0.00     0.008 C 
ENDBRANCH  12  17
ENDBRANCH  11  12
ENDBRANCH   1  11
TORSDOF 1
ENDMDL
MODEL 6
REMARK VINA RESULT:    -3.557      1.557      3.084
REMARK INTER + INTRA:          -4.031
REMARK INTER:                  -4.918
REMARK INTRA:                   0.887
REMARK UNBOUND:                 1.398
REMARK SMILES CC1=CCC[C@@H](C)C(=O)C[C@H](C(C)C)C(=O)C1
REMARK SMILES IDX 8 1 9 2 6 3 7 4 5 5 4 6 3 7 2 8 1 9 10 11 11 12 15 13 16 14
REMARK SMILES IDX 17 15 12 17 13 18 14 19
REMARK H PARENT
REMARK Flexibility Score: 70.00
ROOT
ATOM      1  C   UNL     1     -11.394   2.520 -17.372  1.00  0.00     0.136 C 
ATOM      2  O   UNL     1     -10.636   2.116 -16.501  1.00  0.00    -0.299 OA
ENDROOT
BRANCH   1   3
ATOM      3  C   UNL     1     -11.439   4.020 -17.642  1.00  0.00     0.053 C 
ATOM      4  C   UNL     1     -12.499   4.792 -16.837  1.00  0.00     0.016 C 
BRANCH   3   5
ATOM      5  C   UNL     1     -11.537   4.340 -19.156  1.00  0.00     0.015 C 
BRANCH   5   6
ATOM      6  C   UNL     1     -10.184   4.569 -19.866  1.00  0.00     0.028 C 
BRANCH   6   7
ATOM      7  C   UNL     1      -9.043   3.920 -19.112  1.00  0.00    -0.028 C 
ATOM      8  C   UNL     1      -8.582   2.657 -19.282  1.00  0.00    -0.070 CG0
ATOM      9  C   UNL     1      -7.408   2.217 -18.443  1.00  0.00     0.039 C 
ATOM     10  G   UNL     1      -9.212   1.651 -20.221  1.00  0.00     0.000 G0
ENDBRANCH   6   7
ENDBRANCH   5   6
ENDBRANCH   3   5
ENDBRANCH   1   3
BRANCH   1  11
ATOM     11  C   UNL     1     -12.252   1.499 -18.094  1.00  0.00     0.087 C 
BRANCH  11  12
ATOM     12  C   UNL     1     -11.711   1.152 -19.501  1.00  0.00     0.066 C 
BRANCH  12  13
ATOM     13  C   UNL     1     -10.234   0.805 -19.452  1.00  0.00     0.140 C 
ATOM     14  O   UNL     1      -9.850  -0.132 -18.766  1.00  0.00    -0.299 OA
BRANCH  13  15
ATOM     15  C   UNL     1      -9.219   1.622 -20.206  1.00  0.00     0.106 CG0
ATOM     16  G   UNL     1      -8.581   2.642 -19.287  1.00  0.00     0.000 G0
ENDBRANCH  13  15
ENDBRANCH  12  13
BRANCH  12  17
ATOM     17  C   UNL     1     -12.568   0.063 -20.216  1.00  0.00    -0.006 C 
ATOM     18  C   UNL     1     -13.625  -0.606 -19.322  1.00  0.00     0.008 C 
ATOM     19  C   UNL     1     -11.672  -1.009 -20.859  1.00  0.00     0.008 C 
ENDBRANCH  12  17
ENDBRANCH  11  12
ENDBRANCH   1  11
TORSDOF 1
ENDMDL
MODEL 7
REMARK VINA RESULT:    -3.273      2.085      4.027
REMARK INTER + INTRA:          -3.597
REMARK INTER:                  -4.639
REMARK INTRA:                   1.043
REMARK UNBOUND:                 1.398
REMARK SMILES CC1=CCC[C@@H](C)C(=O)C[C@H](C(C)C)C(=O)C1
REMARK SMILES IDX 8 1 9 2 6 3 7 4 5 5 4 6 3 7 2 8 1 9 10 11 11 12 15 13 16 14
REMARK SMILES IDX 17 15 12 17 13 18 14 19
REMARK H PARENT
REMARK Flexibility Score: 70.00
ROOT
ATOM      1  C   UNL     1     -11.397   2.049 -19.788  1.00  0.00     0.136 C 
ATOM      2  O   UNL     1     -12.095   2.058 -18.783  1.00  0.00    -0.299 OA
ENDROOT
BRANCH   1   3
ATOM      3  C   UNL     1     -10.506   0.836 -20.031  1.00  0.00     0.053 C 
ATOM      4  C   UNL     1     -11.125  -0.514 -19.626  1.00  0.00     0.016 C 
BRANCH   3   5
ATOM      5  C   UNL     1      -9.094   1.016 -19.418  1.00  0.00     0.015 C 
BRANCH   5   6
ATOM      6  C   UNL     1      -8.594   2.475 -19.342  1.00  0.00     0.028 C 
BRANCH   6   7
ATOM      7  C   UNL     1      -8.739   3.041 -17.944  1.00  0.00    -0.028 C 
ATOM      8  C   UNL     1      -9.408   4.167 -17.599  1.00  0.00    -0.070 CG0
ATOM      9  C   UNL     1      -9.455   4.537 -16.137  1.00  0.00     0.039 C 
ATOM     10  G   UNL     1     -10.060   5.099 -18.598  1.00  0.00     0.000 G0
ENDBRANCH   6   7
ENDBRANCH   5   6
ENDBRANCH   3   5
ENDBRANCH   1   3
BRANCH   1  11
ATOM     11  C   UNL     1     -11.451   3.262 -20.698  1.00  0.00     0.087 C 
BRANCH  11  12
ATOM     12  C   UNL     1     -12.173   4.465 -20.047  1.00  0.00     0.066 C 
BRANCH  12  13
ATOM     13  C   UNL     1     -11.542   4.828 -18.714  1.00  0.00     0.140 C 
ATOM     14  O   UNL     1     -12.240   4.919 -17.714  1.00  0.00    -0.299 OA
BRANCH  13  15
ATOM     15  C   UNL     1     -10.069   5.117 -18.605  1.00  0.00     0.106 CG0
ATOM     16  G   UNL     1      -9.421   4.169 -17.618  1.00  0.00     0.000 G0
ENDBRANCH  13  15
ENDBRANCH  12  13
BRANCH  12  17
ATOM     17  C   UNL     1     -12.293   5.682 -21.014  1.00  0.00    -0.006 C 
ATOM     18  C   UNL     1     -13.109   6.861 -20.457  1.00  0.00     0.008 C 
ATOM     19  C   UNL     1     -12.860   5.251 -22.376  1.00  0.00     0.008 C 
ENDBRANCH  12  17
ENDBRANCH  11  12
ENDBRANCH   1  11
TORSDOF 1
ENDMDL
MODEL 8
REMARK VINA RESULT:    -3.257      1.806      3.551
REMARK INTER + INTRA:          -3.573
REMARK INTER:                  -3.933
REMARK INTRA:                   0.360
REMARK UNBOUND:                 1.398
REMARK SMILES CC1=CCC[C@@H](C)C(=O)C[C@H](C(C)C)C(=O)C1
REMARK SMILES IDX 8 1 9 2 6 3 7 4 5 5 4 6 3 7 2 8 1 9 10 11 11 12 15 13 16 14
REMARK SMILES IDX 17 15 12 17 13 18 14 19
REMARK H PARENT
REMARK Flexibility Score: 70.00
ROOT
ATOM      1  C   UNL     1     -12.152   4.393 -18.874  1.00  0.00     0.136 C 
ATOM      2  O   UNL     1     -12.459   4.985 -17.848  1.00  0.00    -0.299 OA
ENDROOT
BRANCH   1   3
ATOM      3  C   UNL     1     -11.616   5.216 -20.040  1.00  0.00     0.053 C 
ATOM      4  C   UNL     1     -12.610   5.427 -21.195  1.00  0.00     0.016 C 
BRANCH   3   5
ATOM      5  C   UNL     1     -10.255   4.681 -20.557  1.00  0.00     0.015 C 
BRANCH   5   6
ATOM      6  C   UNL     1      -9.042   4.998 -19.656  1.00  0.00     0.028 C 
BRANCH   6   7
ATOM      7  C   UNL     1      -8.182   3.772 -19.429  1.00  0.00    -0.028 C 
ATOM      8  C   UNL     1      -8.254   2.923 -18.376  1.00  0.00    -0.070 CG0
ATOM      9  C   UNL     1      -7.319   1.740 -18.360  1.00  0.00     0.039 C 
ATOM     10  G   UNL     1      -9.178   3.126 -17.194  1.00  0.00     0.000 G0
ENDBRANCH   6   7
ENDBRANCH   5   6
ENDBRANCH   3   5
ENDBRANCH   1   3
BRANCH   1  11
ATOM     11  C   UNL     1     -12.359   2.891 -18.915  1.00  0.00     0.087 C 
BRANCH  11  12
ATOM     12  C   UNL     1     -11.040   2.102 -18.745  1.00  0.00     0.066 C 
BRANCH  12  13
ATOM     13  C   UNL     1     -10.442   2.321 -17.367  1.00  0.00     0.140 C 
ATOM     14  O   UNL     1     -11.001   1.863 -16.380  1.00  0.00    -0.299 OA
BRANCH  13  15
ATOM     15  C   UNL     1      -9.184   3.128 -17.186  1.00  0.00     0.106 CG0
ATOM     16  G   UNL     1      -8.257   2.925 -18.366  1.00  0.00     0.000 G0
ENDBRANCH  13  15
ENDBRANCH  12  13
BRANCH  12  17
ATOM     17  C   UNL     1     -11.198   0.594 -19.107  1.00  0.00    -0.006 C 
ATOM     18  C   UNL     1     -10.393   0.145 -20.338  1.00  0.00     0.008 C 
ATOM     19  C   UNL     1     -12.679   0.221 -19.286  1.00  0.00     0.008 C 
ENDBRANCH  12  17
ENDBRANCH  11  12
ENDBRANCH   1  11
TORSDOF 1
ENDMDL
MODEL 9
REMARK VINA RESULT:    -3.228      1.656      3.810
REMARK INTER + INTRA:          -3.527
REMARK INTER:                  -4.866
REMARK INTRA:                   1.339
REMARK UNBOUND:                 1.398
REMARK SMILES CC1=CCC[C@@H](C)C(=O)C[C@H](C(C)C)C(=O)C1
REMARK SMILES IDX 8 1 9 2 6 3 7 4 5 5 4 6 3 7 2 8 1 9 10 11 11 12 15 13 16 14
REMARK SMILES IDX 17 15 12 17 13 18 14 19
REMARK H PARENT
REMARK Flexibility Score: 70.00
ROOT
ATOM      1  C   UNL     1     -10.547   0.828 -19.135  1.00  0.00     0.136 C 
ATOM      2  O   UNL     1      -9.702  -0.021 -18.887  1.00  0.00    -0.299 OA
ENDROOT
BRANCH   1   3
ATOM      3  C   UNL     1     -11.886   0.738 -18.411  1.00  0.00     0.053 C 
ATOM      4  C   UNL     1     -12.828  -0.365 -18.927  1.00  0.00     0.016 C 
BRANCH   3   5
ATOM      5  C   UNL     1     -12.606   2.109 -18.339  1.00  0.00     0.015 C 
BRANCH   5   6
ATOM      6  C   UNL     1     -12.091   3.063 -17.240  1.00  0.00     0.028 C 
BRANCH   6   7
ATOM      7  C   UNL     1     -12.385   4.510 -17.577  1.00  0.00    -0.028 C 
ATOM      8  C   UNL     1     -12.142   5.126 -18.758  1.00  0.00    -0.070 CG0
ATOM      9  C   UNL     1     -12.542   6.574 -18.893  1.00  0.00     0.039 C 
ATOM     10  G   UNL     1     -11.445   4.461 -19.926  1.00  0.00     0.000 G0
ENDBRANCH   6   7
ENDBRANCH   5   6
ENDBRANCH   3   5
ENDBRANCH   1   3
BRANCH   1  11
ATOM     11  C   UNL     1     -10.207   1.886 -20.168  1.00  0.00     0.087 C 
BRANCH  11  12
ATOM     12  C   UNL     1      -9.286   2.994 -19.606  1.00  0.00     0.066 C 
BRANCH  12  13
ATOM     13  C   UNL     1      -9.966   4.351 -19.655  1.00  0.00     0.140 C 
ATOM     14  O   UNL     1      -9.319   5.365 -19.436  1.00  0.00    -0.299 OA
BRANCH  13  15
ATOM     15  C   UNL     1     -11.441   4.471 -19.934  1.00  0.00     0.106 CG0
ATOM     16  G   UNL     1     -12.141   5.134 -18.766  1.00  0.00     0.000 G0
ENDBRANCH  13  15
ENDBRANCH  12  13
BRANCH  12  17
ATOM     17  C   UNL     1      -8.728   2.645 -18.193  1.00  0.00    -0.006 C 
ATOM     18  C   UNL     1      -8.938   3.742 -17.136  1.00  0.00     0.008 C 
ATOM     19  C   UNL     1      -7.240   2.265 -18.266  1.00  0.00     0.008 C 
ENDBRANCH  12  17
ENDBRANCH  11  12
ENDBRANCH   1  11
TORSDOF 1
ENDMDL
