MODEL 1
REMARK VINA RESULT:    -4.175      0.000      0.000
REMARK INTER + INTRA:          -8.775
REMARK INTER:                  -7.348
REMARK INTRA:                  -1.428
REMARK UNBOUND:                -1.428
REMARK SMILES CCCCCCCCCCCCCCC(=O)[O-]
REMARK SMILES IDX 9 1 10 2 11 3 12 4 13 5 14 6 15 7 16 8 17 9 8 10 7 11 6 12
REMARK SMILES IDX 5 13 4 14 3 15 2 16 1 17
REMARK H PARENT
REMARK Flexibility Score: inf
ROOT
ATOM      1  C   UNL     1      45.736   4.348  21.727  1.00  0.00     0.000 C 
ENDROOT
BRANCH   1   2
ATOM      2  C   UNL     1      46.511   5.673  21.609  1.00  0.00     0.000 C 
BRANCH   2   3
ATOM      3  C   UNL     1      47.845   5.659  22.374  1.00  0.00     0.000 C 
BRANCH   3   4
ATOM      4  C   UNL     1      49.055   5.979  21.477  1.00  0.00     0.000 C 
BRANCH   4   5
ATOM      5  C   UNL     1      49.514   7.449  21.492  1.00  0.00     0.006 C 
BRANCH   5   6
ATOM      6  C   UNL     1      49.158   8.201  20.203  1.00  0.00     0.053 C 
BRANCH   6   7
ATOM      7  C   UNL     1      50.395   8.505  19.419  1.00  0.00     0.041 C 
ATOM      8  O   UNL     1      50.543   9.634  18.880  1.00  0.00    -0.550 OA
ATOM      9  O   UNL     1      51.406   7.558  19.321  1.00  0.00    -0.550 OA
ENDBRANCH   6   7
ENDBRANCH   5   6
ENDBRANCH   4   5
ENDBRANCH   3   4
ENDBRANCH   2   3
ENDBRANCH   1   2
BRANCH   1  10
ATOM     10  C   UNL     1      45.538   3.583  20.405  1.00  0.00     0.000 C 
BRANCH  10  11
ATOM     11  C   UNL     1      46.603   2.501  20.171  1.00  0.00    -0.000 C 
BRANCH  11  12
ATOM     12  C   UNL     1      47.120   1.943  21.506  1.00  0.00    -0.000 C 
BRANCH  12  13
ATOM     13  C   UNL     1      48.654   1.867  21.565  1.00  0.00    -0.000 C 
BRANCH  13  14
ATOM     14  C   UNL     1      49.328   2.608  20.397  1.00  0.00    -0.000 C 
BRANCH  14  15
ATOM     15  C   UNL     1      50.817   2.888  20.657  1.00  0.00    -0.000 C 
BRANCH  15  16
ATOM     16  C   UNL     1      51.677   2.748  19.392  1.00  0.00    -0.003 C 
ATOM     17  C   UNL     1      52.870   1.829  19.638  1.00  0.00     0.004 C 
ENDBRANCH  15  16
ENDBRANCH  14  15
ENDBRANCH  13  14
ENDBRANCH  12  13
ENDBRANCH  11  12
ENDBRANCH  10  11
ENDBRANCH   1  10
TORSDOF 13
ENDMDL
MODEL 2
REMARK VINA RESULT:    -4.114      5.302      7.747
REMARK INTER + INTRA:          -8.668
REMARK INTER:                  -7.637
REMARK INTRA:                  -1.031
REMARK UNBOUND:                -1.428
REMARK SMILES CCCCCCCCCCCCCCC(=O)[O-]
REMARK SMILES IDX 9 1 10 2 11 3 12 4 13 5 14 6 15 7 16 8 17 9 8 10 7 11 6 12
REMARK SMILES IDX 5 13 4 14 3 15 2 16 1 17
REMARK H PARENT
REMARK Flexibility Score: inf
ROOT
ATOM      1  C   UNL     1      47.027  12.701  20.443  1.00  0.00     0.000 C 
ENDROOT
BRANCH   1   2
ATOM      2  C   UNL     1      47.250  14.211  20.646  1.00  0.00     0.000 C 
BRANCH   2   3
ATOM      3  C   UNL     1      48.331  14.790  19.717  1.00  0.00     0.000 C 
BRANCH   3   4
ATOM      4  C   UNL     1      48.804  13.786  18.648  1.00  0.00     0.000 C 
BRANCH   4   5
ATOM      5  C   UNL     1      49.470  14.411  17.409  1.00  0.00     0.006 C 
BRANCH   5   6
ATOM      6  C   UNL     1      48.963  13.815  16.090  1.00  0.00     0.053 C 
BRANCH   6   7
ATOM      7  C   UNL     1      49.956  14.049  14.997  1.00  0.00     0.041 C 
ATOM      8  O   UNL     1      50.437  13.075  14.358  1.00  0.00    -0.550 OA
ATOM      9  O   UNL     1      50.314  15.345  14.648  1.00  0.00    -0.550 OA
ENDBRANCH   6   7
ENDBRANCH   5   6
ENDBRANCH   4   5
ENDBRANCH   3   4
ENDBRANCH   2   3
ENDBRANCH   1   2
BRANCH   1  10
ATOM     10  C   UNL     1      46.319  11.980  21.605  1.00  0.00     0.000 C 
BRANCH  10  11
ATOM     11  C   UNL     1      45.952  10.525  21.275  1.00  0.00    -0.000 C 
BRANCH  11  12
ATOM     12  C   UNL     1      46.787   9.546  22.114  1.00  0.00    -0.000 C 
BRANCH  12  13
ATOM     13  C   UNL     1      47.966   8.947  21.332  1.00  0.00    -0.000 C 
BRANCH  13  14
ATOM     14  C   UNL     1      47.759   9.013  19.808  1.00  0.00    -0.000 C 
BRANCH  14  15
ATOM     15  C   UNL     1      48.876   9.794  19.095  1.00  0.00    -0.000 C 
BRANCH  15  16
ATOM     16  C   UNL     1      49.771   8.892  18.233  1.00  0.00    -0.003 C 
ATOM     17  C   UNL     1      50.832   8.199  19.082  1.00  0.00     0.004 C 
ENDBRANCH  15  16
ENDBRANCH  14  15
ENDBRANCH  13  14
ENDBRANCH  12  13
ENDBRANCH  11  12
ENDBRANCH  10  11
ENDBRANCH   1  10
TORSDOF 13
ENDMDL
MODEL 3
REMARK VINA RESULT:    -4.103      3.321      5.784
REMARK INTER + INTRA:          -8.649
REMARK INTER:                  -7.076
REMARK INTRA:                  -1.573
REMARK UNBOUND:                -1.428
REMARK SMILES CCCCCCCCCCCCCCC(=O)[O-]
REMARK SMILES IDX 9 1 10 2 11 3 12 4 13 5 14 6 15 7 16 8 17 9 8 10 7 11 6 12
REMARK SMILES IDX 5 13 4 14 3 15 2 16 1 17
REMARK H PARENT
REMARK Flexibility Score: inf
ROOT
ATOM      1  C   UNL     1      46.693   1.809  20.208  1.00  0.00     0.000 C 
ENDROOT
BRANCH   1   2
ATOM      2  C   UNL     1      48.125   1.546  20.710  1.00  0.00     0.000 C 
BRANCH   2   3
ATOM      3  C   UNL     1      48.585   2.560  21.770  1.00  0.00     0.000 C 
BRANCH   3   4
ATOM      4  C   UNL     1      49.806   3.385  21.322  1.00  0.00     0.000 C 
BRANCH   4   5
ATOM      5  C   UNL     1      50.732   2.690  20.307  1.00  0.00     0.006 C 
BRANCH   5   6
ATOM      6  C   UNL     1      51.917   1.976  20.968  1.00  0.00     0.053 C 
BRANCH   6   7
ATOM      7  C   UNL     1      53.080   1.918  20.030  1.00  0.00     0.041 C 
ATOM      8  O   UNL     1      53.780   2.946  19.823  1.00  0.00    -0.550 OA
ATOM      9  O   UNL     1      53.423   0.718  19.420  1.00  0.00    -0.550 OA
ENDBRANCH   6   7
ENDBRANCH   5   6
ENDBRANCH   4   5
ENDBRANCH   3   4
ENDBRANCH   2   3
ENDBRANCH   1   2
BRANCH   1  10
ATOM     10  C   UNL     1      46.239   3.280  20.258  1.00  0.00     0.000 C 
BRANCH  10  11
ATOM     11  C   UNL     1      45.110   3.528  21.269  1.00  0.00    -0.000 C 
BRANCH  11  12
ATOM     12  C   UNL     1      43.750   3.122  20.682  1.00  0.00    -0.000 C 
BRANCH  12  13
ATOM     13  C   UNL     1      42.939   2.221  21.626  1.00  0.00    -0.000 C 
BRANCH  13  14
ATOM     14  C   UNL     1      43.244   0.726  21.424  1.00  0.00    -0.000 C 
BRANCH  14  15
ATOM     15  C   UNL     1      43.633   0.021  22.734  1.00  0.00    -0.000 C 
BRANCH  15  16
ATOM     16  C   UNL     1      45.152  -0.130  22.898  1.00  0.00    -0.003 C 
ATOM     17  C   UNL     1      45.705   0.904  23.874  1.00  0.00     0.004 C 
ENDBRANCH  15  16
ENDBRANCH  14  15
ENDBRANCH  13  14
ENDBRANCH  12  13
ENDBRANCH  11  12
ENDBRANCH  10  11
ENDBRANCH   1  10
TORSDOF 13
ENDMDL
MODEL 4
REMARK VINA RESULT:    -4.064      1.847      4.580
REMARK INTER + INTRA:          -8.580
REMARK INTER:                  -6.755
REMARK INTRA:                  -1.825
REMARK UNBOUND:                -1.428
REMARK SMILES CCCCCCCCCCCCCCC(=O)[O-]
REMARK SMILES IDX 9 1 10 2 11 3 12 4 13 5 14 6 15 7 16 8 17 9 8 10 7 11 6 12
REMARK SMILES IDX 5 13 4 14 3 15 2 16 1 17
REMARK H PARENT
REMARK Flexibility Score: inf
ROOT
ATOM      1  C   UNL     1      47.298   0.811  20.965  1.00  0.00     0.000 C 
ENDROOT
BRANCH   1   2
ATOM      2  C   UNL     1      48.557   0.665  21.840  1.00  0.00     0.000 C 
BRANCH   2   3
ATOM      3  C   UNL     1      48.840   1.909  22.699  1.00  0.00     0.000 C 
BRANCH   3   4
ATOM      4  C   UNL     1      50.269   2.452  22.517  1.00  0.00     0.000 C 
BRANCH   4   5
ATOM      5  C   UNL     1      50.902   2.188  21.139  1.00  0.00     0.006 C 
BRANCH   5   6
ATOM      6  C   UNL     1      50.667   3.329  20.141  1.00  0.00     0.053 C 
BRANCH   6   7
ATOM      7  C   UNL     1      51.785   3.395  19.151  1.00  0.00     0.041 C 
ATOM      8  O   UNL     1      52.598   2.438  19.047  1.00  0.00    -0.550 OA
ATOM      9  O   UNL     1      51.903   4.493  18.307  1.00  0.00    -0.550 OA
ENDBRANCH   6   7
ENDBRANCH   5   6
ENDBRANCH   4   5
ENDBRANCH   3   4
ENDBRANCH   2   3
ENDBRANCH   1   2
BRANCH   1  10
ATOM     10  C   UNL     1      47.191   2.135  20.186  1.00  0.00     0.000 C 
BRANCH  10  11
ATOM     11  C   UNL     1      45.965   2.971  20.585  1.00  0.00    -0.000 C 
BRANCH  11  12
ATOM     12  C   UNL     1      46.371   4.415  20.915  1.00  0.00    -0.000 C 
BRANCH  12  13
ATOM     13  C   UNL     1      46.489   4.670  22.426  1.00  0.00    -0.000 C 
BRANCH  13  14
ATOM     14  C   UNL     1      47.640   5.630  22.776  1.00  0.00    -0.000 C 
BRANCH  14  15
ATOM     15  C   UNL     1      48.636   5.804  21.617  1.00  0.00    -0.000 C 
BRANCH  15  16
ATOM     16  C   UNL     1      48.715   7.254  21.117  1.00  0.00    -0.003 C 
ATOM     17  C   UNL     1      50.068   7.538  20.470  1.00  0.00     0.004 C 
ENDBRANCH  15  16
ENDBRANCH  14  15
ENDBRANCH  13  14
ENDBRANCH  12  13
ENDBRANCH  11  12
ENDBRANCH  10  11
ENDBRANCH   1  10
TORSDOF 13
ENDMDL
MODEL 5
REMARK VINA RESULT:    -4.061      3.095      5.942
REMARK INTER + INTRA:          -8.575
REMARK INTER:                  -7.241
REMARK INTRA:                  -1.334
REMARK UNBOUND:                -1.428
REMARK SMILES CCCCCCCCCCCCCCC(=O)[O-]
REMARK SMILES IDX 9 1 10 2 11 3 12 4 13 5 14 6 15 7 16 8 17 9 8 10 7 11 6 12
REMARK SMILES IDX 5 13 4 14 3 15 2 16 1 17
REMARK H PARENT
REMARK Flexibility Score: inf
ROOT
ATOM      1  C   UNL     1      49.221   4.585  24.850  1.00  0.00     0.000 C 
ENDROOT
BRANCH   1   2
ATOM      2  C   UNL     1      49.895   3.881  23.658  1.00  0.00     0.000 C 
BRANCH   2   3
ATOM      3  C   UNL     1      49.591   4.558  22.311  1.00  0.00     0.000 C 
BRANCH   3   4
ATOM      4  C   UNL     1      48.803   3.651  21.348  1.00  0.00     0.000 C 
BRANCH   4   5
ATOM      5  C   UNL     1      49.635   2.572  20.632  1.00  0.00     0.006 C 
BRANCH   5   6
ATOM      6  C   UNL     1      50.930   3.121  20.020  1.00  0.00     0.053 C 
BRANCH   6   7
ATOM      7  C   UNL     1      52.096   2.273  20.419  1.00  0.00     0.041 C 
ATOM      8  O   UNL     1      52.273   1.967  21.628  1.00  0.00    -0.550 OA
ATOM      9  O   UNL     1      52.961   1.781  19.450  1.00  0.00    -0.550 OA
ENDBRANCH   6   7
ENDBRANCH   5   6
ENDBRANCH   4   5
ENDBRANCH   3   4
ENDBRANCH   2   3
ENDBRANCH   1   2
BRANCH   1  10
ATOM     10  C   UNL     1      50.109   5.592  25.606  1.00  0.00     0.000 C 
BRANCH  10  11
ATOM     11  C   UNL     1      49.597   7.037  25.509  1.00  0.00    -0.000 C 
BRANCH  11  12
ATOM     12  C   UNL     1      50.215   7.757  24.301  1.00  0.00    -0.000 C 
BRANCH  12  13
ATOM     13  C   UNL     1      49.188   8.585  23.513  1.00  0.00    -0.000 C 
BRANCH  13  14
ATOM     14  C   UNL     1      48.564   7.797  22.347  1.00  0.00    -0.000 C 
BRANCH  14  15
ATOM     15  C   UNL     1      48.964   8.361  20.973  1.00  0.00    -0.000 C 
BRANCH  15  16
ATOM     16  C   UNL     1      50.046   7.521  20.280  1.00  0.00    -0.003 C 
ATOM     17  C   UNL     1      50.742   8.320  19.183  1.00  0.00     0.004 C 
ENDBRANCH  15  16
ENDBRANCH  14  15
ENDBRANCH  13  14
ENDBRANCH  12  13
ENDBRANCH  11  12
ENDBRANCH  10  11
ENDBRANCH   1  10
TORSDOF 13
ENDMDL
MODEL 6
REMARK VINA RESULT:    -4.060      3.497      6.018
REMARK INTER + INTRA:          -8.573
REMARK INTER:                  -7.065
REMARK INTRA:                  -1.509
REMARK UNBOUND:                -1.428
REMARK SMILES CCCCCCCCCCCCCCC(=O)[O-]
REMARK SMILES IDX 9 1 10 2 11 3 12 4 13 5 14 6 15 7 16 8 17 9 8 10 7 11 6 12
REMARK SMILES IDX 5 13 4 14 3 15 2 16 1 17
REMARK H PARENT
REMARK Flexibility Score: inf
ROOT
ATOM      1  C   UNL     1      47.077   1.230  22.287  1.00  0.00     0.000 C 
ENDROOT
BRANCH   1   2
ATOM      2  C   UNL     1      48.375   1.581  23.038  1.00  0.00     0.000 C 
BRANCH   2   3
ATOM      3  C   UNL     1      48.893   2.993  22.716  1.00  0.00     0.000 C 
BRANCH   3   4
ATOM      4  C   UNL     1      50.385   3.012  22.336  1.00  0.00     0.000 C 
BRANCH   4   5
ATOM      5  C   UNL     1      50.738   2.295  21.020  1.00  0.00     0.006 C 
BRANCH   5   6
ATOM      6  C   UNL     1      52.076   1.546  21.086  1.00  0.00     0.053 C 
BRANCH   6   7
ATOM      7  C   UNL     1      52.791   1.641  19.776  1.00  0.00     0.041 C 
ATOM      8  O   UNL     1      53.460   0.664  19.346  1.00  0.00    -0.550 OA
ATOM      9  O   UNL     1      52.681   2.792  19.006  1.00  0.00    -0.550 OA
ENDBRANCH   6   7
ENDBRANCH   5   6
ENDBRANCH   4   5
ENDBRANCH   3   4
ENDBRANCH   2   3
ENDBRANCH   1   2
BRANCH   1  10
ATOM     10  C   UNL     1      47.240   0.985  20.774  1.00  0.00     0.000 C 
BRANCH  10  11
ATOM     11  C   UNL     1      46.686   2.132  19.917  1.00  0.00    -0.000 C 
BRANCH  11  12
ATOM     12  C   UNL     1      45.799   3.065  20.756  1.00  0.00    -0.000 C 
BRANCH  12  13
ATOM     13  C   UNL     1      44.500   3.458  20.036  1.00  0.00    -0.000 C 
BRANCH  13  14
ATOM     14  C   UNL     1      43.257   3.301  20.930  1.00  0.00    -0.000 C 
BRANCH  14  15
ATOM     15  C   UNL     1      43.442   2.225  22.013  1.00  0.00    -0.000 C 
BRANCH  15  16
ATOM     16  C   UNL     1      43.070   0.819  21.520  1.00  0.00    -0.003 C 
ATOM     17  C   UNL     1      43.467  -0.243  22.541  1.00  0.00     0.004 C 
ENDBRANCH  15  16
ENDBRANCH  14  15
ENDBRANCH  13  14
ENDBRANCH  12  13
ENDBRANCH  11  12
ENDBRANCH  10  11
ENDBRANCH   1  10
TORSDOF 13
ENDMDL
MODEL 7
REMARK VINA RESULT:    -4.055      2.679      5.763
REMARK INTER + INTRA:          -8.564
REMARK INTER:                  -6.992
REMARK INTRA:                  -1.572
REMARK UNBOUND:                -1.428
REMARK SMILES CCCCCCCCCCCCCCC(=O)[O-]
REMARK SMILES IDX 9 1 10 2 11 3 12 4 13 5 14 6 15 7 16 8 17 9 8 10 7 11 6 12
REMARK SMILES IDX 5 13 4 14 3 15 2 16 1 17
REMARK H PARENT
REMARK Flexibility Score: inf
ROOT
ATOM      1  C   UNL     1      48.073   5.596  22.400  1.00  0.00     0.000 C 
ENDROOT
BRANCH   1   2
ATOM      2  C   UNL     1      48.170   4.168  22.969  1.00  0.00     0.000 C 
BRANCH   2   3
ATOM      3  C   UNL     1      48.522   3.119  21.901  1.00  0.00     0.000 C 
BRANCH   3   4
ATOM      4  C   UNL     1      49.764   2.284  22.267  1.00  0.00     0.000 C 
BRANCH   4   5
ATOM      5  C   UNL     1      51.018   2.567  21.420  1.00  0.00     0.006 C 
BRANCH   5   6
ATOM      6  C   UNL     1      50.692   2.926  19.965  1.00  0.00     0.053 C 
BRANCH   6   7
ATOM      7  C   UNL     1      51.930   3.349  19.242  1.00  0.00     0.041 C 
ATOM      8  O   UNL     1      52.958   2.621  19.264  1.00  0.00    -0.550 OA
ATOM      9  O   UNL     1      51.936   4.526  18.503  1.00  0.00    -0.550 OA
ENDBRANCH   6   7
ENDBRANCH   5   6
ENDBRANCH   4   5
ENDBRANCH   3   4
ENDBRANCH   2   3
ENDBRANCH   1   2
BRANCH   1  10
ATOM     10  C   UNL     1      49.303   6.070  21.603  1.00  0.00     0.000 C 
BRANCH  10  11
ATOM     11  C   UNL     1      49.524   7.588  21.683  1.00  0.00    -0.000 C 
BRANCH  11  12
ATOM     12  C   UNL     1      48.329   8.281  22.357  1.00  0.00    -0.000 C 
BRANCH  12  13
ATOM     13  C   UNL     1      48.726   9.056  23.623  1.00  0.00    -0.000 C 
BRANCH  13  14
ATOM     14  C   UNL     1      49.863   8.372  24.403  1.00  0.00    -0.000 C 
BRANCH  14  15
ATOM     15  C   UNL     1      49.341   7.394  25.469  1.00  0.00    -0.000 C 
BRANCH  15  16
ATOM     16  C   UNL     1      50.159   6.096  25.533  1.00  0.00    -0.003 C 
ATOM     17  C   UNL     1      50.198   5.542  26.955  1.00  0.00     0.004 C 
ENDBRANCH  15  16
ENDBRANCH  14  15
ENDBRANCH  13  14
ENDBRANCH  12  13
ENDBRANCH  11  12
ENDBRANCH  10  11
ENDBRANCH   1  10
TORSDOF 13
ENDMDL
MODEL 8
REMARK VINA RESULT:    -4.031      4.553      5.782
REMARK INTER + INTRA:          -8.523
REMARK INTER:                  -6.493
REMARK INTRA:                  -2.030
REMARK UNBOUND:                -1.428
REMARK SMILES CCCCCCCCCCCCCCC(=O)[O-]
REMARK SMILES IDX 9 1 10 2 11 3 12 4 13 5 14 6 15 7 16 8 17 9 8 10 7 11 6 12
REMARK SMILES IDX 5 13 4 14 3 15 2 16 1 17
REMARK H PARENT
REMARK Flexibility Score: inf
ROOT
ATOM      1  C   UNL     1      47.302   0.744  20.666  1.00  0.00     0.000 C 
ENDROOT
BRANCH   1   2
ATOM      2  C   UNL     1      46.995   2.082  19.968  1.00  0.00     0.000 C 
BRANCH   2   3
ATOM      3  C   UNL     1      47.033   3.283  20.929  1.00  0.00     0.000 C 
BRANCH   3   4
ATOM      4  C   UNL     1      45.735   4.112  20.906  1.00  0.00     0.000 C 
BRANCH   4   5
ATOM      5  C   UNL     1      44.634   3.582  19.971  1.00  0.00     0.006 C 
BRANCH   5   6
ATOM      6  C   UNL     1      43.314   3.296  20.699  1.00  0.00     0.053 C 
BRANCH   6   7
ATOM      7  C   UNL     1      43.468   2.126  21.618  1.00  0.00     0.041 C 
ATOM      8  O   UNL     1      43.676   0.975  21.150  1.00  0.00    -0.550 OA
ATOM      9  O   UNL     1      43.431   2.313  22.994  1.00  0.00    -0.550 OA
ENDBRANCH   6   7
ENDBRANCH   5   6
ENDBRANCH   4   5
ENDBRANCH   3   4
ENDBRANCH   2   3
ENDBRANCH   1   2
BRANCH   1  10
ATOM     10  C   UNL     1      47.107   0.740  22.194  1.00  0.00     0.000 C 
BRANCH  10  11
ATOM     11  C   UNL     1      47.684  -0.513  22.870  1.00  0.00    -0.000 C 
BRANCH  11  12
ATOM     12  C   UNL     1      48.922  -1.022  22.116  1.00  0.00    -0.000 C 
BRANCH  12  13
ATOM     13  C   UNL     1      50.193  -1.006  22.979  1.00  0.00    -0.000 C 
BRANCH  13  14
ATOM     14  C   UNL     1      50.760   0.412  23.171  1.00  0.00    -0.000 C 
BRANCH  14  15
ATOM     15  C   UNL     1      51.235   1.041  21.851  1.00  0.00    -0.000 C 
BRANCH  15  16
ATOM     16  C   UNL     1      50.606   2.417  21.589  1.00  0.00    -0.003 C 
ATOM     17  C   UNL     1      50.702   2.793  20.113  1.00  0.00     0.004 C 
ENDBRANCH  15  16
ENDBRANCH  14  15
ENDBRANCH  13  14
ENDBRANCH  12  13
ENDBRANCH  11  12
ENDBRANCH  10  11
ENDBRANCH   1  10
TORSDOF 13
ENDMDL
MODEL 9
REMARK VINA RESULT:    -4.019      2.034      5.176
REMARK INTER + INTRA:          -8.500
REMARK INTER:                  -7.070
REMARK INTRA:                  -1.430
REMARK UNBOUND:                -1.428
REMARK SMILES CCCCCCCCCCCCCCC(=O)[O-]
REMARK SMILES IDX 9 1 10 2 11 3 12 4 13 5 14 6 15 7 16 8 17 9 8 10 7 11 6 12
REMARK SMILES IDX 5 13 4 14 3 15 2 16 1 17
REMARK H PARENT
REMARK Flexibility Score: inf
ROOT
ATOM      1  C   UNL     1      46.928   4.937  22.431  1.00  0.00     0.000 C 
ENDROOT
BRANCH   1   2
ATOM      2  C   UNL     1      47.273   4.449  21.012  1.00  0.00     0.000 C 
BRANCH   2   3
ATOM      3  C   UNL     1      47.199   2.919  20.868  1.00  0.00     0.000 C 
BRANCH   3   4
ATOM      4  C   UNL     1      48.584   2.247  20.895  1.00  0.00     0.000 C 
BRANCH   4   5
ATOM      5  C   UNL     1      49.766   3.160  20.523  1.00  0.00     0.006 C 
BRANCH   5   6
ATOM      6  C   UNL     1      51.131   2.489  20.726  1.00  0.00     0.053 C 
BRANCH   6   7
ATOM      7  C   UNL     1      51.959   2.607  19.487  1.00  0.00     0.041 C 
ATOM      8  O   UNL     1      52.646   1.629  19.088  1.00  0.00    -0.550 OA
ATOM      9  O   UNL     1      51.936   3.780  18.743  1.00  0.00    -0.550 OA
ENDBRANCH   6   7
ENDBRANCH   5   6
ENDBRANCH   4   5
ENDBRANCH   3   4
ENDBRANCH   2   3
ENDBRANCH   1   2
BRANCH   1  10
ATOM     10  C   UNL     1      48.094   4.907  23.437  1.00  0.00     0.000 C 
BRANCH  10  11
ATOM     11  C   UNL     1      49.325   5.689  22.955  1.00  0.00    -0.000 C 
BRANCH  11  12
ATOM     12  C   UNL     1      49.281   7.142  23.451  1.00  0.00    -0.000 C 
BRANCH  12  13
ATOM     13  C   UNL     1      49.098   8.155  22.310  1.00  0.00    -0.000 C 
BRANCH  13  14
ATOM     14  C   UNL     1      49.226   7.509  20.919  1.00  0.00    -0.000 C 
BRANCH  14  15
ATOM     15  C   UNL     1      49.143   8.538  19.780  1.00  0.00    -0.000 C 
BRANCH  15  16
ATOM     16  C   UNL     1      50.466   8.685  19.016  1.00  0.00    -0.003 C 
ATOM     17  C   UNL     1      51.306   7.416  19.125  1.00  0.00     0.004 C 
ENDBRANCH  15  16
ENDBRANCH  14  15
ENDBRANCH  13  14
ENDBRANCH  12  13
ENDBRANCH  11  12
ENDBRANCH  10  11
ENDBRANCH   1  10
TORSDOF 13
ENDMDL
