MODEL 1
REMARK VINA RESULT:    -5.138      0.000      0.000
REMARK INTER + INTRA:          -5.138
REMARK INTER:                  -5.138
REMARK INTRA:                   0.000
REMARK UNBOUND:                 0.000
REMARK SMILES C[C@@H]1C(=O)CC[C@H]2[C@@]1(C)CC[C@H]1[C@]2(C)CC[C@]2(C)[C@@H]3CC(C)(C)CC[C@@]3(C)CC[C@]12C
REMARK SMILES IDX 1 1 2 2 3 3 4 4 5 5 6 6 7 7 8 8 10 9 11 10 12 11 13 12 15 13
REMARK SMILES IDX 16 14 17 15 30 16 29 17 28 18 26 19 19 20 20 21 21 22 24 23
REMARK SMILES IDX 25 24 22 25 23 26 27 27 31 28 18 29 14 30 9 31
REMARK H PARENT
REMARK Flexibility Score: inf
ROOT
ATOM      1  C   UNL     1     147.292 132.397 142.581  1.00  0.00     0.016 C 
ATOM      2  C   UNL     1     146.994 133.129 143.907  1.00  0.00     0.059 C 
ATOM      3  C   UNL     1     148.237 133.235 144.776  1.00  0.00     0.136 C 
ATOM      4  O   UNL     1     149.319 132.812 144.393  1.00  0.00    -0.299 OA
ATOM      5  C   UNL     1     148.139 133.923 146.107  1.00  0.00     0.076 C 
ATOM      6  C   UNL     1     146.931 133.406 146.897  1.00  0.00     0.012 C 
ATOM      7  C   UNL     1     145.633 133.451 146.032  1.00  0.00     0.002 C 
ATOM      8  C   UNL     1     145.790 132.537 144.745  1.00  0.00    -0.020 C 
ATOM      9  C   UNL     1     144.495 132.614 143.894  1.00  0.00     0.008 C 
ATOM     10  C   UNL     1     143.205 132.403 144.697  1.00  0.00     0.005 C 
ATOM     11  C   UNL     1     143.025 133.369 145.905  1.00  0.00     0.002 C 
ATOM     12  C   UNL     1     144.286 133.347 146.870  1.00  0.00    -0.026 C 
ATOM     13  C   UNL     1     144.223 134.508 147.931  1.00  0.00     0.008 C 
ATOM     14  C   UNL     1     142.861 135.208 148.030  1.00  0.00     0.008 C 
ATOM     15  C   UNL     1     142.464 135.896 146.692  1.00  0.00    -0.024 C 
ATOM     16  C   UNL     1     142.236 134.750 145.569  1.00  0.00    -0.024 C 
ATOM     17  C   UNL     1     140.714 134.335 145.444  1.00  0.00     0.008 C 
ATOM     18  C   UNL     1     139.698 135.471 145.458  1.00  0.00     0.007 C 
ATOM     19  C   UNL     1     139.759 136.281 146.764  1.00  0.00    -0.029 C 
ATOM     20  C   UNL     1     141.203 136.876 146.863  1.00  0.00     0.002 C 
ATOM     21  C   UNL     1     141.275 137.867 148.062  1.00  0.00     0.011 C 
ATOM     22  C   UNL     1     140.256 139.055 147.951  1.00  0.00    -0.035 C 
ATOM     23  C   UNL     1     139.244 138.862 146.783  1.00  0.00     0.007 C 
ATOM     24  C   UNL     1     138.682 137.435 146.688  1.00  0.00     0.007 C 
ATOM     25  C   UNL     1     139.482 139.204 149.281  1.00  0.00     0.011 C 
ATOM     26  C   UNL     1     141.025 140.372 147.699  1.00  0.00     0.011 C 
ATOM     27  C   UNL     1     139.366 135.385 147.975  1.00  0.00     0.011 C 
ATOM     28  C   UNL     1     142.623 135.310 144.164  1.00  0.00     0.012 C 
ATOM     29  C   UNL     1     143.657 136.858 146.303  1.00  0.00     0.012 C 
ATOM     30  C   UNL     1     144.245 132.026 147.715  1.00  0.00     0.012 C 
ATOM     31  C   UNL     1     146.099 131.044 145.067  1.00  0.00     0.012 C 
ENDROOT
TORSDOF 0
ENDMDL
MODEL 2
REMARK VINA RESULT:    -5.112      7.751     10.462
REMARK INTER + INTRA:          -5.112
REMARK INTER:                  -5.112
REMARK INTRA:                   0.000
REMARK UNBOUND:                 0.000
REMARK SMILES C[C@@H]1C(=O)CC[C@H]2[C@@]1(C)CC[C@H]1[C@]2(C)CC[C@]2(C)[C@@H]3CC(C)(C)CC[C@@]3(C)CC[C@]12C
REMARK SMILES IDX 1 1 2 2 3 3 4 4 5 5 6 6 7 7 8 8 10 9 11 10 12 11 13 12 15 13
REMARK SMILES IDX 16 14 17 15 30 16 29 17 28 18 26 19 19 20 20 21 21 22 24 23
REMARK SMILES IDX 25 24 22 25 23 26 27 27 31 28 18 29 14 30 9 31
REMARK H PARENT
REMARK Flexibility Score: inf
ROOT
ATOM      1  C   UNL     1     132.370 134.325 142.601  1.00  0.00     0.016 C 
ATOM      2  C   UNL     1     133.135 134.614 143.911  1.00  0.00     0.059 C 
ATOM      3  C   UNL     1     133.268 133.364 144.766  1.00  0.00     0.136 C 
ATOM      4  O   UNL     1     132.840 132.284 144.384  1.00  0.00    -0.299 OA
ATOM      5  C   UNL     1     133.990 133.453 146.079  1.00  0.00     0.076 C 
ATOM      6  C   UNL     1     133.489 134.652 146.893  1.00  0.00     0.012 C 
ATOM      7  C   UNL     1     133.507 135.958 146.038  1.00  0.00     0.002 C 
ATOM      8  C   UNL     1     132.560 135.808 144.774  1.00  0.00    -0.020 C 
ATOM      9  C   UNL     1     132.609 137.111 143.934  1.00  0.00     0.008 C 
ATOM     10  C   UNL     1     132.415 138.393 144.753  1.00  0.00     0.005 C 
ATOM     11  C   UNL     1     133.411 138.567 145.937  1.00  0.00     0.002 C 
ATOM     12  C   UNL     1     133.419 137.297 146.891  1.00  0.00    -0.026 C 
ATOM     13  C   UNL     1     134.607 137.355 147.922  1.00  0.00     0.008 C 
ATOM     14  C   UNL     1     135.304 138.720 148.015  1.00  0.00     0.008 C 
ATOM     15  C   UNL     1     135.955 139.131 146.663  1.00  0.00    -0.024 C 
ATOM     16  C   UNL     1     134.780 139.364 145.573  1.00  0.00    -0.024 C 
ATOM     17  C   UNL     1     134.355 140.885 145.472  1.00  0.00     0.008 C 
ATOM     18  C   UNL     1     135.487 141.906 145.466  1.00  0.00     0.007 C 
ATOM     19  C   UNL     1     136.331 141.837 146.749  1.00  0.00    -0.029 C 
ATOM     20  C   UNL     1     136.935 140.395 146.820  1.00  0.00     0.002 C 
ATOM     21  C   UNL     1     137.956 140.316 147.992  1.00  0.00     0.011 C 
ATOM     22  C   UNL     1     139.137 141.341 147.860  1.00  0.00    -0.035 C 
ATOM     23  C   UNL     1     138.910 142.362 146.706  1.00  0.00     0.007 C 
ATOM     24  C   UNL     1     137.479 142.919 146.654  1.00  0.00     0.007 C 
ATOM     25  C   UNL     1     139.318 142.104 149.192  1.00  0.00     0.011 C 
ATOM     26  C   UNL     1     140.450 140.580 147.566  1.00  0.00     0.011 C 
ATOM     27  C   UNL     1     135.466 142.216 147.987  1.00  0.00     0.011 C 
ATOM     28  C   UNL     1     135.305 138.992 144.150  1.00  0.00     0.012 C 
ATOM     29  C   UNL     1     136.911 137.945 146.239  1.00  0.00     0.012 C 
ATOM     30  C   UNL     1     132.121 137.325 147.770  1.00  0.00     0.012 C 
ATOM     31  C   UNL     1     131.077 135.490 145.132  1.00  0.00     0.012 C 
ENDROOT
TORSDOF 0
ENDMDL
MODEL 3
REMARK VINA RESULT:    -5.092      8.851     14.835
REMARK INTER + INTRA:          -5.092
REMARK INTER:                  -5.092
REMARK INTRA:                   0.000
REMARK UNBOUND:                 0.000
REMARK SMILES C[C@@H]1C(=O)CC[C@H]2[C@@]1(C)CC[C@H]1[C@]2(C)CC[C@]2(C)[C@@H]3CC(C)(C)CC[C@@]3(C)CC[C@]12C
REMARK SMILES IDX 1 1 2 2 3 3 4 4 5 5 6 6 7 7 8 8 10 9 11 10 12 11 13 12 15 13
REMARK SMILES IDX 16 14 17 15 30 16 29 17 28 18 26 19 19 20 20 21 21 22 24 23
REMARK SMILES IDX 25 24 22 25 23 26 27 27 31 28 18 29 14 30 9 31
REMARK H PARENT
REMARK Flexibility Score: inf
ROOT
ATOM      1  C   UNL     1     134.311 149.245 142.591  1.00  0.00     0.016 C 
ATOM      2  C   UNL     1     134.596 148.489 143.907  1.00  0.00     0.059 C 
ATOM      3  C   UNL     1     133.346 148.370 144.763  1.00  0.00     0.136 C 
ATOM      4  O   UNL     1     132.268 148.801 144.379  1.00  0.00    -0.299 OA
ATOM      5  C   UNL     1     133.432 147.658 146.082  1.00  0.00     0.076 C 
ATOM      6  C   UNL     1     134.636 148.158 146.891  1.00  0.00     0.012 C 
ATOM      7  C   UNL     1     135.940 148.126 146.036  1.00  0.00     0.002 C 
ATOM      8  C   UNL     1     135.795 149.063 144.764  1.00  0.00    -0.020 C 
ATOM      9  C   UNL     1     137.097 149.000 143.923  1.00  0.00     0.008 C 
ATOM     10  C   UNL     1     138.380 149.194 144.739  1.00  0.00     0.005 C 
ATOM     11  C   UNL     1     138.550 148.206 145.931  1.00  0.00     0.002 C 
ATOM     12  C   UNL     1     137.280 148.213 146.886  1.00  0.00    -0.026 C 
ATOM     13  C   UNL     1     137.333 147.033 147.927  1.00  0.00     0.008 C 
ATOM     14  C   UNL     1     138.693 146.329 148.024  1.00  0.00     0.008 C 
ATOM     15  C   UNL     1     139.100 145.664 146.677  1.00  0.00    -0.024 C 
ATOM     16  C   UNL     1     139.338 146.829 145.577  1.00  0.00    -0.024 C 
ATOM     17  C   UNL     1     140.862 147.244 145.471  1.00  0.00     0.008 C 
ATOM     18  C   UNL     1     141.876 146.107 145.474  1.00  0.00     0.007 C 
ATOM     19  C   UNL     1     141.803 145.273 146.764  1.00  0.00    -0.029 C 
ATOM     20  C   UNL     1     140.358 144.678 146.841  1.00  0.00     0.002 C 
ATOM     21  C   UNL     1     140.274 143.667 148.021  1.00  0.00     0.011 C 
ATOM     22  C   UNL     1     141.292 142.479 147.897  1.00  0.00    -0.035 C 
ATOM     23  C   UNL     1     142.314 142.691 146.741  1.00  0.00     0.007 C 
ATOM     24  C   UNL     1     142.879 144.119 146.677  1.00  0.00     0.007 C 
ATOM     25  C   UNL     1     142.055 142.304 149.230  1.00  0.00     0.011 C 
ATOM     26  C   UNL     1     140.523 141.168 147.615  1.00  0.00     0.011 C 
ATOM     27  C   UNL     1     142.188 146.146 147.994  1.00  0.00     0.011 C 
ATOM     28  C   UNL     1     138.962 146.295 144.159  1.00  0.00     0.012 C 
ATOM     29  C   UNL     1     137.908 144.712 146.262  1.00  0.00     0.012 C 
ATOM     30  C   UNL     1     137.317 149.518 147.755  1.00  0.00     0.012 C 
ATOM     31  C   UNL     1     135.486 150.551 145.111  1.00  0.00     0.012 C 
ENDROOT
TORSDOF 0
ENDMDL
MODEL 4
REMARK VINA RESULT:    -5.080      7.840     10.549
REMARK INTER + INTRA:          -5.080
REMARK INTER:                  -5.080
REMARK INTRA:                   0.000
REMARK UNBOUND:                 0.000
REMARK SMILES C[C@@H]1C(=O)CC[C@H]2[C@@]1(C)CC[C@H]1[C@]2(C)CC[C@]2(C)[C@@H]3CC(C)(C)CC[C@@]3(C)CC[C@]12C
REMARK SMILES IDX 1 1 2 2 3 3 4 4 5 5 6 6 7 7 8 8 10 9 11 10 12 11 13 12 15 13
REMARK SMILES IDX 16 14 17 15 30 16 29 17 28 18 26 19 19 20 20 21 21 22 24 23
REMARK SMILES IDX 25 24 22 25 23 26 27 27 31 28 18 29 14 30 9 31
REMARK H PARENT
REMARK Flexibility Score: inf
ROOT
ATOM      1  C   UNL     1     149.228 147.326 142.588  1.00  0.00     0.016 C 
ATOM      2  C   UNL     1     148.488 147.029 143.911  1.00  0.00     0.059 C 
ATOM      3  C   UNL     1     148.357 148.277 144.769  1.00  0.00     0.136 C 
ATOM      4  O   UNL     1     148.768 149.361 144.382  1.00  0.00    -0.299 OA
ATOM      5  C   UNL     1     147.660 148.179 146.095  1.00  0.00     0.076 C 
ATOM      6  C   UNL     1     148.186 146.984 146.898  1.00  0.00     0.012 C 
ATOM      7  C   UNL     1     148.166 145.679 146.043  1.00  0.00     0.002 C 
ATOM      8  C   UNL     1     149.090 145.840 144.762  1.00  0.00    -0.020 C 
ATOM      9  C   UNL     1     149.039 144.537 143.922  1.00  0.00     0.008 C 
ATOM     10  C   UNL     1     149.261 143.257 144.736  1.00  0.00     0.005 C 
ATOM     11  C   UNL     1     148.287 143.071 145.937  1.00  0.00     0.002 C 
ATOM     12  C   UNL     1     148.282 144.340 146.892  1.00  0.00    -0.026 C 
ATOM     13  C   UNL     1     147.114 144.269 147.944  1.00  0.00     0.008 C 
ATOM     14  C   UNL     1     146.432 142.897 148.047  1.00  0.00     0.008 C 
ATOM     15  C   UNL     1     145.761 142.481 146.706  1.00  0.00    -0.024 C 
ATOM     16  C   UNL     1     146.920 142.261 145.595  1.00  0.00    -0.024 C 
ATOM     17  C   UNL     1     147.358 140.744 145.485  1.00  0.00     0.008 C 
ATOM     18  C   UNL     1     146.236 139.712 145.497  1.00  0.00     0.007 C 
ATOM     19  C   UNL     1     145.414 139.772 146.796  1.00  0.00    -0.029 C 
ATOM     20  C   UNL     1     144.797 141.207 146.878  1.00  0.00     0.002 C 
ATOM     21  C   UNL     1     143.795 141.275 148.068  1.00  0.00     0.011 C 
ATOM     22  C   UNL     1     142.623 140.238 147.955  1.00  0.00    -0.035 C 
ATOM     23  C   UNL     1     142.840 139.220 146.796  1.00  0.00     0.007 C 
ATOM     24  C   UNL     1     144.276 138.677 146.718  1.00  0.00     0.007 C 
ATOM     25  C   UNL     1     142.472 139.472 149.289  1.00  0.00     0.011 C 
ATOM     26  C   UNL     1     141.297 140.986 147.685  1.00  0.00     0.011 C 
ATOM     27  C   UNL     1     146.304 139.400 148.017  1.00  0.00     0.011 C 
ATOM     28  C   UNL     1     146.367 142.629 144.182  1.00  0.00     0.012 C 
ATOM     29  C   UNL     1     144.786 143.658 146.300  1.00  0.00     0.012 C 
ATOM     30  C   UNL     1     149.596 144.324 147.749  1.00  0.00     0.012 C 
ATOM     31  C   UNL     1     150.576 146.172 145.095  1.00  0.00     0.012 C 
ENDROOT
TORSDOF 0
ENDMDL
MODEL 5
REMARK VINA RESULT:    -5.079      3.142      4.834
REMARK INTER + INTRA:          -5.079
REMARK INTER:                  -5.079
REMARK INTRA:                   0.000
REMARK UNBOUND:                 0.000
REMARK SMILES C[C@@H]1C(=O)CC[C@H]2[C@@]1(C)CC[C@H]1[C@]2(C)CC[C@]2(C)[C@@H]3CC(C)(C)CC[C@@]3(C)CC[C@]12C
REMARK SMILES IDX 1 1 2 2 3 3 4 4 5 5 6 6 7 7 8 8 10 9 11 10 12 11 13 12 15 13
REMARK SMILES IDX 16 14 17 15 30 16 29 17 28 18 26 19 19 20 20 21 21 22 24 23
REMARK SMILES IDX 25 24 22 25 23 26 27 27 31 28 18 29 14 30 9 31
REMARK H PARENT
REMARK Flexibility Score: inf
ROOT
ATOM      1  C   UNL     1     147.744 139.147 144.796  1.00  0.00     0.016 C 
ATOM      2  C   UNL     1     146.470 139.400 145.631  1.00  0.00     0.059 C 
ATOM      3  C   UNL     1     146.603 140.649 146.487  1.00  0.00     0.136 C 
ATOM      4  O   UNL     1     147.605 141.349 146.439  1.00  0.00    -0.299 OA
ATOM      5  C   UNL     1     145.456 141.056 147.366  1.00  0.00     0.076 C 
ATOM      6  C   UNL     1     144.942 139.860 148.175  1.00  0.00     0.012 C 
ATOM      7  C   UNL     1     144.665 138.633 147.251  1.00  0.00     0.002 C 
ATOM      8  C   UNL     1     145.996 138.178 146.517  1.00  0.00    -0.020 C 
ATOM      9  C   UNL     1     145.690 136.970 145.593  1.00  0.00     0.008 C 
ATOM     10  C   UNL     1     144.897 135.847 146.272  1.00  0.00     0.005 C 
ATOM     11  C   UNL     1     143.549 136.295 146.911  1.00  0.00     0.002 C 
ATOM     12  C   UNL     1     143.748 137.514 147.910  1.00  0.00    -0.026 C 
ATOM     13  C   UNL     1     142.369 138.137 148.345  1.00  0.00     0.008 C 
ATOM     14  C   UNL     1     141.144 137.283 147.989  1.00  0.00     0.008 C 
ATOM     15  C   UNL     1     141.002 137.084 146.453  1.00  0.00    -0.024 C 
ATOM     16  C   UNL     1     142.258 136.206 145.927  1.00  0.00    -0.024 C 
ATOM     17  C   UNL     1     141.912 134.663 145.844  1.00  0.00     0.008 C 
ATOM     18  C   UNL     1     140.551 134.305 145.257  1.00  0.00     0.007 C 
ATOM     19  C   UNL     1     139.396 134.905 146.076  1.00  0.00    -0.029 C 
ATOM     20  C   UNL     1     139.578 136.459 146.050  1.00  0.00     0.002 C 
ATOM     21  C   UNL     1     138.336 137.139 146.695  1.00  0.00     0.011 C 
ATOM     22  C   UNL     1     136.987 136.786 145.974  1.00  0.00    -0.035 C 
ATOM     23  C   UNL     1     137.158 135.660 144.912  1.00  0.00     0.007 C 
ATOM     24  C   UNL     1     138.031 134.490 145.395  1.00  0.00     0.007 C 
ATOM     25  C   UNL     1     135.934 136.351 147.019  1.00  0.00     0.011 C 
ATOM     26  C   UNL     1     136.446 138.041 145.250  1.00  0.00     0.011 C 
ATOM     27  C   UNL     1     139.378 134.300 147.510  1.00  0.00     0.011 C 
ATOM     28  C   UNL     1     142.615 136.623 144.466  1.00  0.00     0.012 C 
ATOM     29  C   UNL     1     140.994 138.526 145.805  1.00  0.00     0.012 C 
ATOM     30  C   UNL     1     144.381 136.972 149.239  1.00  0.00     0.012 C 
ATOM     31  C   UNL     1     147.152 137.794 147.489  1.00  0.00     0.012 C 
ENDROOT
TORSDOF 0
ENDMDL
MODEL 6
REMARK VINA RESULT:    -5.025      9.394     13.957
REMARK INTER + INTRA:          -5.025
REMARK INTER:                  -5.025
REMARK INTRA:                   0.000
REMARK UNBOUND:                 0.000
REMARK SMILES C[C@@H]1C(=O)CC[C@H]2[C@@]1(C)CC[C@H]1[C@]2(C)CC[C@]2(C)[C@@H]3CC(C)(C)CC[C@@]3(C)CC[C@]12C
REMARK SMILES IDX 1 1 2 2 3 3 4 4 5 5 6 6 7 7 8 8 10 9 11 10 12 11 13 12 15 13
REMARK SMILES IDX 16 14 17 15 30 16 29 17 28 18 26 19 19 20 20 21 21 22 24 23
REMARK SMILES IDX 25 24 22 25 23 26 27 27 31 28 18 29 14 30 9 31
REMARK H PARENT
REMARK Flexibility Score: inf
ROOT
ATOM      1  C   UNL     1     137.573 149.625 144.376  1.00  0.00     0.016 C 
ATOM      2  C   UNL     1     136.392 148.667 144.649  1.00  0.00     0.059 C 
ATOM      3  C   UNL     1     135.055 149.348 144.405  1.00  0.00     0.136 C 
ATOM      4  O   UNL     1     134.992 150.500 144.000  1.00  0.00    -0.299 OA
ATOM      5  C   UNL     1     133.791 148.567 144.616  1.00  0.00     0.076 C 
ATOM      6  C   UNL     1     133.824 147.834 145.963  1.00  0.00     0.012 C 
ATOM      7  C   UNL     1     135.143 147.016 146.125  1.00  0.00     0.002 C 
ATOM      8  C   UNL     1     136.404 147.977 146.071  1.00  0.00    -0.020 C 
ATOM      9  C   UNL     1     137.701 147.137 146.218  1.00  0.00     0.008 C 
ATOM     10  C   UNL     1     137.678 146.148 147.389  1.00  0.00     0.005 C 
ATOM     11  C   UNL     1     136.480 145.153 147.377  1.00  0.00     0.002 C 
ATOM     12  C   UNL     1     135.088 145.909 147.265  1.00  0.00    -0.026 C 
ATOM     13  C   UNL     1     133.907 144.907 146.984  1.00  0.00     0.008 C 
ATOM     14  C   UNL     1     134.264 143.428 147.182  1.00  0.00     0.008 C 
ATOM     15  C   UNL     1     135.390 142.968 146.212  1.00  0.00    -0.024 C 
ATOM     16  C   UNL     1     136.754 143.756 146.592  1.00  0.00    -0.024 C 
ATOM     17  C   UNL     1     137.677 142.913 147.562  1.00  0.00     0.008 C 
ATOM     18  C   UNL     1     137.827 141.431 147.238  1.00  0.00     0.007 C 
ATOM     19  C   UNL     1     136.477 140.695 147.271  1.00  0.00    -0.029 C 
ATOM     20  C   UNL     1     135.564 141.371 146.196  1.00  0.00     0.002 C 
ATOM     21  C   UNL     1     134.250 140.551 146.040  1.00  0.00     0.011 C 
ATOM     22  C   UNL     1     134.493 139.059 145.617  1.00  0.00    -0.035 C 
ATOM     23  C   UNL     1     135.999 138.666 145.664  1.00  0.00     0.007 C 
ATOM     24  C   UNL     1     136.727 139.175 146.919  1.00  0.00     0.007 C 
ATOM     25  C   UNL     1     133.688 138.117 146.542  1.00  0.00     0.011 C 
ATOM     26  C   UNL     1     133.993 138.845 144.170  1.00  0.00     0.011 C 
ATOM     27  C   UNL     1     135.880 140.725 148.709  1.00  0.00     0.011 C 
ATOM     28  C   UNL     1     137.609 143.975 145.304  1.00  0.00     0.012 C 
ATOM     29  C   UNL     1     134.904 143.324 144.750  1.00  0.00     0.012 C 
ATOM     30  C   UNL     1     134.752 146.546 148.658  1.00  0.00     0.012 C 
ATOM     31  C   UNL     1     136.394 149.091 147.162  1.00  0.00     0.012 C 
ENDROOT
TORSDOF 0
ENDMDL
MODEL 7
REMARK VINA RESULT:    -5.020      9.516     11.419
REMARK INTER + INTRA:          -5.020
REMARK INTER:                  -5.020
REMARK INTRA:                   0.000
REMARK UNBOUND:                 0.000
REMARK SMILES C[C@@H]1C(=O)CC[C@H]2[C@@]1(C)CC[C@H]1[C@]2(C)CC[C@]2(C)[C@@H]3CC(C)(C)CC[C@@]3(C)CC[C@]12C
REMARK SMILES IDX 1 1 2 2 3 3 4 4 5 5 6 6 7 7 8 8 10 9 11 10 12 11 13 12 15 13
REMARK SMILES IDX 16 14 17 15 30 16 29 17 28 18 26 19 19 20 20 21 21 22 24 23
REMARK SMILES IDX 25 24 22 25 23 26 27 27 31 28 18 29 14 30 9 31
REMARK H PARENT
REMARK Flexibility Score: inf
ROOT
ATOM      1  C   UNL     1     149.654 144.055 144.356  1.00  0.00     0.016 C 
ATOM      2  C   UNL     1     148.694 145.231 144.640  1.00  0.00     0.059 C 
ATOM      3  C   UNL     1     149.371 146.572 144.404  1.00  0.00     0.136 C 
ATOM      4  O   UNL     1     150.521 146.640 143.995  1.00  0.00    -0.299 OA
ATOM      5  C   UNL     1     148.587 147.832 144.626  1.00  0.00     0.076 C 
ATOM      6  C   UNL     1     147.859 147.787 145.975  1.00  0.00     0.012 C 
ATOM      7  C   UNL     1     147.045 146.465 146.132  1.00  0.00     0.002 C 
ATOM      8  C   UNL     1     148.009 145.207 146.065  1.00  0.00    -0.020 C 
ATOM      9  C   UNL     1     147.174 143.907 146.206  1.00  0.00     0.008 C 
ATOM     10  C   UNL     1     146.189 143.920 147.381  1.00  0.00     0.005 C 
ATOM     11  C   UNL     1     145.190 145.115 147.382  1.00  0.00     0.002 C 
ATOM     12  C   UNL     1     145.942 146.510 147.276  1.00  0.00    -0.026 C 
ATOM     13  C   UNL     1     144.937 147.690 147.007  1.00  0.00     0.008 C 
ATOM     14  C   UNL     1     143.459 147.327 147.208  1.00  0.00     0.008 C 
ATOM     15  C   UNL     1     142.998 146.207 146.232  1.00  0.00    -0.024 C 
ATOM     16  C   UNL     1     143.792 144.843 146.600  1.00  0.00    -0.024 C 
ATOM     17  C   UNL     1     142.955 143.910 147.567  1.00  0.00     0.008 C 
ATOM     18  C   UNL     1     141.472 143.758 147.247  1.00  0.00     0.007 C 
ATOM     19  C   UNL     1     140.732 145.106 147.292  1.00  0.00    -0.029 C 
ATOM     20  C   UNL     1     141.401 146.029 146.221  1.00  0.00     0.002 C 
ATOM     21  C   UNL     1     140.577 147.342 146.077  1.00  0.00     0.011 C 
ATOM     22  C   UNL     1     139.084 147.097 145.659  1.00  0.00    -0.035 C 
ATOM     23  C   UNL     1     138.696 145.590 145.696  1.00  0.00     0.007 C 
ATOM     24  C   UNL     1     139.212 144.855 146.944  1.00  0.00     0.007 C 
ATOM     25  C   UNL     1     138.144 147.893 146.592  1.00  0.00     0.011 C 
ATOM     26  C   UNL     1     138.864 147.607 144.216  1.00  0.00     0.011 C 
ATOM     27  C   UNL     1     140.766 145.693 148.734  1.00  0.00     0.011 C 
ATOM     28  C   UNL     1     144.008 143.997 145.305  1.00  0.00     0.012 C 
ATOM     29  C   UNL     1     143.348 146.703 144.772  1.00  0.00     0.012 C 
ATOM     30  C   UNL     1     146.584 146.838 148.669  1.00  0.00     0.012 C 
ATOM     31  C   UNL     1     149.127 145.213 147.152  1.00  0.00     0.012 C 
ENDROOT
TORSDOF 0
ENDMDL
MODEL 8
REMARK VINA RESULT:    -5.001      4.939      9.609
REMARK INTER + INTRA:          -5.001
REMARK INTER:                  -5.001
REMARK INTRA:                   0.000
REMARK UNBOUND:                 0.000
REMARK SMILES C[C@@H]1C(=O)CC[C@H]2[C@@]1(C)CC[C@H]1[C@]2(C)CC[C@]2(C)[C@@H]3CC(C)(C)CC[C@@]3(C)CC[C@]12C
REMARK SMILES IDX 1 1 2 2 3 3 4 4 5 5 6 6 7 7 8 8 10 9 11 10 12 11 13 12 15 13
REMARK SMILES IDX 16 14 17 15 30 16 29 17 28 18 26 19 19 20 20 21 21 22 24 23
REMARK SMILES IDX 25 24 22 25 23 26 27 27 31 28 18 29 14 30 9 31
REMARK H PARENT
REMARK Flexibility Score: inf
ROOT
ATOM      1  C   UNL     1     131.995 137.625 144.376  1.00  0.00     0.016 C 
ATOM      2  C   UNL     1     132.938 136.436 144.662  1.00  0.00     0.059 C 
ATOM      3  C   UNL     1     132.245 135.104 144.421  1.00  0.00     0.136 C 
ATOM      4  O   UNL     1     131.095 135.051 144.008  1.00  0.00    -0.299 OA
ATOM      5  C   UNL     1     133.012 133.834 144.644  1.00  0.00     0.076 C 
ATOM      6  C   UNL     1     133.736 133.867 145.995  1.00  0.00     0.012 C 
ATOM      7  C   UNL     1     134.566 135.178 146.156  1.00  0.00     0.002 C 
ATOM      8  C   UNL     1     133.619 136.448 146.089  1.00  0.00    -0.020 C 
ATOM      9  C   UNL     1     134.471 137.737 146.234  1.00  0.00     0.008 C 
ATOM     10  C   UNL     1     135.452 137.710 147.412  1.00  0.00     0.005 C 
ATOM     11  C   UNL     1     136.435 136.502 147.414  1.00  0.00     0.002 C 
ATOM     12  C   UNL     1     135.665 135.117 147.303  1.00  0.00    -0.026 C 
ATOM     13  C   UNL     1     136.656 133.924 147.035  1.00  0.00     0.008 C 
ATOM     14  C   UNL     1     138.138 134.268 147.242  1.00  0.00     0.008 C 
ATOM     15  C   UNL     1     138.617 135.383 146.269  1.00  0.00    -0.024 C 
ATOM     16  C   UNL     1     137.839 136.757 146.636  1.00  0.00    -0.024 C 
ATOM     17  C   UNL     1     138.686 137.677 147.607  1.00  0.00     0.008 C 
ATOM     18  C   UNL     1     140.171 137.810 147.292  1.00  0.00     0.007 C 
ATOM     19  C   UNL     1     140.893 136.453 147.338  1.00  0.00    -0.029 C 
ATOM     20  C   UNL     1     140.215 135.541 146.262  1.00  0.00     0.002 C 
ATOM     21  C   UNL     1     141.023 134.217 146.119  1.00  0.00     0.011 C 
ATOM     22  C   UNL     1     142.520 134.443 145.706  1.00  0.00    -0.035 C 
ATOM     23  C   UNL     1     142.927 135.945 145.746  1.00  0.00     0.007 C 
ATOM     24  C   UNL     1     142.418 136.685 146.994  1.00  0.00     0.007 C 
ATOM     25  C   UNL     1     143.447 133.634 146.640  1.00  0.00     0.011 C 
ATOM     26  C   UNL     1     142.738 133.932 144.263  1.00  0.00     0.011 C 
ATOM     27  C   UNL     1     140.847 135.864 148.778  1.00  0.00     0.011 C 
ATOM     28  C   UNL     1     137.639 137.607 145.342  1.00  0.00     0.012 C 
ATOM     29  C   UNL     1     138.265 134.894 144.807  1.00  0.00     0.012 C 
ATOM     30  C   UNL     1     135.016 134.795 148.694  1.00  0.00     0.012 C 
ATOM     31  C   UNL     1     132.498 136.456 147.172  1.00  0.00     0.012 C 
ENDROOT
TORSDOF 0
ENDMDL
MODEL 9
REMARK VINA RESULT:    -4.992      3.585      5.256
REMARK INTER + INTRA:          -4.992
REMARK INTER:                  -4.992
REMARK INTRA:                   0.000
REMARK UNBOUND:                 0.000
REMARK SMILES C[C@@H]1C(=O)CC[C@H]2[C@@]1(C)CC[C@H]1[C@]2(C)CC[C@]2(C)[C@@H]3CC(C)(C)CC[C@@]3(C)CC[C@]12C
REMARK SMILES IDX 1 1 2 2 3 3 4 4 5 5 6 6 7 7 8 8 10 9 11 10 12 11 13 12 15 13
REMARK SMILES IDX 16 14 17 15 30 16 29 17 28 18 26 19 19 20 20 21 21 22 24 23
REMARK SMILES IDX 25 24 22 25 23 26 27 27 31 28 18 29 14 30 9 31
REMARK H PARENT
REMARK Flexibility Score: inf
ROOT
ATOM      1  C   UNL     1     144.033 131.971 144.369  1.00  0.00     0.016 C 
ATOM      2  C   UNL     1     145.215 132.927 144.644  1.00  0.00     0.059 C 
ATOM      3  C   UNL     1     146.551 132.245 144.401  1.00  0.00     0.136 C 
ATOM      4  O   UNL     1     146.613 131.093 143.994  1.00  0.00    -0.299 OA
ATOM      5  C   UNL     1     147.816 133.025 144.614  1.00  0.00     0.076 C 
ATOM      6  C   UNL     1     147.783 133.755 145.962  1.00  0.00     0.012 C 
ATOM      7  C   UNL     1     146.465 134.574 146.125  1.00  0.00     0.002 C 
ATOM      8  C   UNL     1     145.203 133.615 146.068  1.00  0.00    -0.020 C 
ATOM      9  C   UNL     1     143.907 134.456 146.215  1.00  0.00     0.008 C 
ATOM     10  C   UNL     1     143.930 135.443 147.388  1.00  0.00     0.005 C 
ATOM     11  C   UNL     1     145.129 136.437 147.379  1.00  0.00     0.002 C 
ATOM     12  C   UNL     1     146.521 135.680 147.266  1.00  0.00    -0.026 C 
ATOM     13  C   UNL     1     147.703 136.680 146.988  1.00  0.00     0.008 C 
ATOM     14  C   UNL     1     147.347 138.160 147.188  1.00  0.00     0.008 C 
ATOM     15  C   UNL     1     146.223 138.623 146.218  1.00  0.00    -0.024 C 
ATOM     16  C   UNL     1     144.858 137.835 146.596  1.00  0.00    -0.024 C 
ATOM     17  C   UNL     1     143.935 138.678 147.567  1.00  0.00     0.008 C 
ATOM     18  C   UNL     1     143.787 140.160 147.245  1.00  0.00     0.007 C 
ATOM     19  C   UNL     1     145.137 140.895 147.280  1.00  0.00    -0.029 C 
ATOM     20  C   UNL     1     146.051 140.220 146.204  1.00  0.00     0.002 C 
ATOM     21  C   UNL     1     147.366 141.039 146.051  1.00  0.00     0.011 C 
ATOM     22  C   UNL     1     147.125 142.532 145.631  1.00  0.00    -0.035 C 
ATOM     23  C   UNL     1     145.619 142.926 145.676  1.00  0.00     0.007 C 
ATOM     24  C   UNL     1     144.890 142.416 146.930  1.00  0.00     0.007 C 
ATOM     25  C   UNL     1     147.930 143.471 146.557  1.00  0.00     0.011 C 
ATOM     26  C   UNL     1     147.627 142.747 144.184  1.00  0.00     0.011 C 
ATOM     27  C   UNL     1     145.733 140.862 148.718  1.00  0.00     0.011 C 
ATOM     28  C   UNL     1     144.004 137.620 145.306  1.00  0.00     0.012 C 
ATOM     29  C   UNL     1     146.709 138.268 144.756  1.00  0.00     0.012 C 
ATOM     30  C   UNL     1     146.855 135.040 148.659  1.00  0.00     0.012 C 
ATOM     31  C   UNL     1     145.210 132.499 147.157  1.00  0.00     0.012 C 
ENDROOT
TORSDOF 0
ENDMDL
