MODEL 1
REMARK VINA RESULT:    -4.034      0.000      0.000
REMARK INTER + INTRA:          -6.848
REMARK INTER:                  -6.157
REMARK INTRA:                  -0.691
REMARK UNBOUND:                -0.691
REMARK SMILES CCCCCCCCCCC(=O)[O-]
REMARK SMILES IDX 7 1 8 2 9 3 10 4 11 5 12 6 13 7 6 8 5 9 4 10 3 11 2 12 1 13
REMARK H PARENT
REMARK Flexibility Score: inf
ROOT
ATOM      1  C   UNL     1       8.585   4.189   8.963  1.00  0.00     0.000 C 
ENDROOT
BRANCH   1   2
ATOM      2  C   UNL     1       9.490   3.387   8.016  1.00  0.00     0.000 C 
BRANCH   2   3
ATOM      3  C   UNL     1       8.730   2.810   6.808  1.00  0.00     0.006 C 
BRANCH   3   4
ATOM      4  C   UNL     1       8.907   3.610   5.508  1.00  0.00     0.053 C 
BRANCH   4   5
ATOM      5  C   UNL     1       7.772   4.560   5.276  1.00  0.00     0.041 C 
ATOM      6  O   UNL     1       7.947   5.800   5.401  1.00  0.00    -0.550 OA
ATOM      7  O   UNL     1       6.529   4.076   4.888  1.00  0.00    -0.550 OA
ENDBRANCH   4   5
ENDBRANCH   3   4
ENDBRANCH   2   3
ENDBRANCH   1   2
BRANCH   1   8
ATOM      8  C   UNL     1       7.109   3.816   8.755  1.00  0.00     0.000 C 
BRANCH   8   9
ATOM      9  C   UNL     1       6.213   5.045   8.530  1.00  0.00    -0.000 C 
BRANCH   9  10
ATOM     10  C   UNL     1       4.755   4.668   8.228  1.00  0.00    -0.000 C 
BRANCH  10  11
ATOM     11  C   UNL     1       3.788   5.454   9.122  1.00  0.00    -0.000 C 
BRANCH  11  12
ATOM     12  C   UNL     1       2.380   5.484   8.517  1.00  0.00    -0.003 C 
ATOM     13  C   UNL     1       2.121   4.249   7.660  1.00  0.00     0.004 C 
ENDBRANCH  11  12
ENDBRANCH  10  11
ENDBRANCH   9  10
ENDBRANCH   8   9
ENDBRANCH   1   8
TORSDOF 9
ENDMDL
MODEL 2
REMARK VINA RESULT:    -3.975     11.672     14.279
REMARK INTER + INTRA:          -6.758
REMARK INTER:                  -5.582
REMARK INTRA:                  -1.176
REMARK UNBOUND:                -0.691
REMARK SMILES CCCCCCCCCCC(=O)[O-]
REMARK SMILES IDX 7 1 8 2 9 3 10 4 11 5 12 6 13 7 6 8 5 9 4 10 3 11 2 12 1 13
REMARK H PARENT
REMARK Flexibility Score: inf
ROOT
ATOM      1  C   UNL     1      -3.297  -4.993   8.338  1.00  0.00     0.000 C 
ENDROOT
BRANCH   1   2
ATOM      2  C   UNL     1      -4.379  -4.862   9.420  1.00  0.00     0.000 C 
BRANCH   2   3
ATOM      3  C   UNL     1      -5.449  -3.811   9.071  1.00  0.00     0.006 C 
BRANCH   3   4
ATOM      4  C   UNL     1      -6.840  -4.397   8.784  1.00  0.00     0.053 C 
BRANCH   4   5
ATOM      5  C   UNL     1      -6.948  -4.928   7.388  1.00  0.00     0.041 C 
ATOM      6  O   UNL     1      -6.632  -4.204   6.408  1.00  0.00    -0.550 OA
ATOM      7  O   UNL     1      -7.366  -6.235   7.173  1.00  0.00    -0.550 OA
ENDBRANCH   4   5
ENDBRANCH   3   4
ENDBRANCH   2   3
ENDBRANCH   1   2
BRANCH   1   8
ATOM      8  C   UNL     1      -3.276  -3.753   7.431  1.00  0.00     0.000 C 
BRANCH   8   9
ATOM      9  C   UNL     1      -2.080  -2.831   7.714  1.00  0.00    -0.000 C 
BRANCH   9  10
ATOM     10  C   UNL     1      -0.962  -3.535   8.499  1.00  0.00    -0.000 C 
BRANCH  10  11
ATOM     11  C   UNL     1      -0.581  -2.733   9.750  1.00  0.00    -0.000 C 
BRANCH  11  12
ATOM     12  C   UNL     1      -1.293  -3.281  10.992  1.00  0.00    -0.003 C 
ATOM     13  C   UNL     1      -2.449  -2.377  11.410  1.00  0.00     0.004 C 
ENDBRANCH  11  12
ENDBRANCH  10  11
ENDBRANCH   9  10
ENDBRANCH   8   9
ENDBRANCH   1   8
TORSDOF 9
ENDMDL
MODEL 3
REMARK VINA RESULT:    -3.941      1.963      3.580
REMARK INTER + INTRA:          -6.706
REMARK INTER:                  -6.012
REMARK INTRA:                  -0.694
REMARK UNBOUND:                -0.691
REMARK SMILES CCCCCCCCCCC(=O)[O-]
REMARK SMILES IDX 7 1 8 2 9 3 10 4 11 5 12 6 13 7 6 8 5 9 4 10 3 11 2 12 1 13
REMARK H PARENT
REMARK Flexibility Score: inf
ROOT
ATOM      1  C   UNL     1       4.392   5.214   8.792  1.00  0.00     0.000 C 
ENDROOT
BRANCH   1   2
ATOM      2  C   UNL     1       5.165   3.887   8.779  1.00  0.00     0.000 C 
BRANCH   2   3
ATOM      3  C   UNL     1       6.691   4.084   8.721  1.00  0.00     0.006 C 
BRANCH   3   4
ATOM      4  C   UNL     1       7.133   5.424   8.111  1.00  0.00     0.053 C 
BRANCH   4   5
ATOM      5  C   UNL     1       7.656   5.260   6.717  1.00  0.00     0.041 C 
ATOM      6  O   UNL     1       7.625   6.226   5.910  1.00  0.00    -0.550 OA
ATOM      7  O   UNL     1       8.209   4.049   6.321  1.00  0.00    -0.550 OA
ENDBRANCH   4   5
ENDBRANCH   3   4
ENDBRANCH   2   3
ENDBRANCH   1   2
BRANCH   1   8
ATOM      8  C   UNL     1       3.253   5.195   7.762  1.00  0.00     0.000 C 
BRANCH   8   9
ATOM      9  C   UNL     1       1.863   5.289   8.412  1.00  0.00    -0.000 C 
BRANCH   9  10
ATOM     10  C   UNL     1       1.407   3.958   9.029  1.00  0.00    -0.000 C 
BRANCH  10  11
ATOM     11  C   UNL     1       1.182   4.102  10.539  1.00  0.00    -0.000 C 
BRANCH  11  12
ATOM     12  C   UNL     1       2.381   3.561  11.327  1.00  0.00    -0.003 C 
ATOM     13  C   UNL     1       2.307   3.971  12.795  1.00  0.00     0.004 C 
ENDBRANCH  11  12
ENDBRANCH  10  11
ENDBRANCH   9  10
ENDBRANCH   8   9
ENDBRANCH   1   8
TORSDOF 9
ENDMDL
MODEL 4
REMARK VINA RESULT:    -3.934     13.304     16.346
REMARK INTER + INTRA:          -6.696
REMARK INTER:                  -5.972
REMARK INTRA:                  -0.724
REMARK UNBOUND:                -0.691
REMARK SMILES CCCCCCCCCCC(=O)[O-]
REMARK SMILES IDX 7 1 8 2 9 3 10 4 11 5 12 6 13 7 6 8 5 9 4 10 3 11 2 12 1 13
REMARK H PARENT
REMARK Flexibility Score: inf
ROOT
ATOM      1  C   UNL     1      -9.110  -2.716   8.377  1.00  0.00     0.000 C 
ENDROOT
BRANCH   1   2
ATOM      2  C   UNL     1      -8.231  -1.808   7.503  1.00  0.00     0.000 C 
BRANCH   2   3
ATOM      3  C   UNL     1      -8.422  -2.064   5.997  1.00  0.00     0.006 C 
BRANCH   3   4
ATOM      4  C   UNL     1      -8.892  -3.485   5.650  1.00  0.00     0.053 C 
BRANCH   4   5
ATOM      5  C   UNL     1      -7.741  -4.421   5.440  1.00  0.00     0.041 C 
ATOM      6  O   UNL     1      -6.580  -3.968   5.257  1.00  0.00    -0.550 OA
ATOM      7  O   UNL     1      -7.945  -5.794   5.481  1.00  0.00    -0.550 OA
ENDBRANCH   4   5
ENDBRANCH   3   4
ENDBRANCH   2   3
ENDBRANCH   1   2
BRANCH   1   8
ATOM      8  C   UNL     1      -8.248  -3.697   9.187  1.00  0.00     0.000 C 
BRANCH   8   9
ATOM      9  C   UNL     1      -6.741  -3.482   8.969  1.00  0.00    -0.000 C 
BRANCH   9  10
ATOM     10  C   UNL     1      -5.984  -4.797   8.732  1.00  0.00    -0.000 C 
BRANCH  10  11
ATOM     11  C   UNL     1      -4.585  -4.744   9.360  1.00  0.00    -0.000 C 
BRANCH  11  12
ATOM     12  C   UNL     1      -3.496  -4.835   8.285  1.00  0.00    -0.003 C 
ATOM     13  C   UNL     1      -2.119  -4.534   8.867  1.00  0.00     0.004 C 
ENDBRANCH  11  12
ENDBRANCH  10  11
ENDBRANCH   9  10
ENDBRANCH   8   9
ENDBRANCH   1   8
TORSDOF 9
ENDMDL
MODEL 5
REMARK VINA RESULT:    -3.900     12.075     14.386
REMARK INTER + INTRA:          -6.644
REMARK INTER:                  -5.717
REMARK INTRA:                  -0.927
REMARK UNBOUND:                -0.691
REMARK SMILES CCCCCCCCCCC(=O)[O-]
REMARK SMILES IDX 7 1 8 2 9 3 10 4 11 5 12 6 13 7 6 8 5 9 4 10 3 11 2 12 1 13
REMARK H PARENT
REMARK Flexibility Score: inf
ROOT
ATOM      1  C   UNL     1      -3.017  -4.897   8.463  1.00  0.00     0.000 C 
ENDROOT
BRANCH   1   2
ATOM      2  C   UNL     1      -4.261  -4.784   9.357  1.00  0.00     0.000 C 
BRANCH   2   3
ATOM      3  C   UNL     1      -5.479  -4.205   8.615  1.00  0.00     0.006 C 
BRANCH   3   4
ATOM      4  C   UNL     1      -6.734  -5.089   8.672  1.00  0.00     0.053 C 
BRANCH   4   5
ATOM      5  C   UNL     1      -7.434  -5.156   7.350  1.00  0.00     0.041 C 
ATOM      6  O   UNL     1      -7.426  -6.222   6.681  1.00  0.00    -0.550 OA
ATOM      7  O   UNL     1      -8.124  -4.049   6.872  1.00  0.00    -0.550 OA
ENDBRANCH   4   5
ENDBRANCH   3   4
ENDBRANCH   2   3
ENDBRANCH   1   2
BRANCH   1   8
ATOM      8  C   UNL     1      -1.802  -4.234   9.130  1.00  0.00     0.000 C 
BRANCH   8   9
ATOM      9  C   UNL     1      -1.083  -3.242   8.200  1.00  0.00    -0.000 C 
BRANCH   9  10
ATOM     10  C   UNL     1      -1.852  -1.922   8.035  1.00  0.00    -0.000 C 
BRANCH  10  11
ATOM     11  C   UNL     1      -2.103  -1.616   6.552  1.00  0.00    -0.000 C 
BRANCH  11  12
ATOM     12  C   UNL     1      -3.563  -1.889   6.174  1.00  0.00    -0.003 C 
ATOM     13  C   UNL     1      -3.682  -3.130   5.294  1.00  0.00     0.004 C 
ENDBRANCH  11  12
ENDBRANCH  10  11
ENDBRANCH   9  10
ENDBRANCH   8   9
ENDBRANCH   1   8
TORSDOF 9
ENDMDL
MODEL 6
REMARK VINA RESULT:    -3.843      2.201      5.539
REMARK INTER + INTRA:          -6.556
REMARK INTER:                  -6.026
REMARK INTRA:                  -0.530
REMARK UNBOUND:                -0.691
REMARK SMILES CCCCCCCCCCC(=O)[O-]
REMARK SMILES IDX 7 1 8 2 9 3 10 4 11 5 12 6 13 7 6 8 5 9 4 10 3 11 2 12 1 13
REMARK H PARENT
REMARK Flexibility Score: inf
ROOT
ATOM      1  C   UNL     1       4.196   5.445   9.118  1.00  0.00     0.000 C 
ENDROOT
BRANCH   1   2
ATOM      2  C   UNL     1       2.961   4.611   9.488  1.00  0.00     0.000 C 
BRANCH   2   3
ATOM      3  C   UNL     1       2.101   4.243   8.265  1.00  0.00     0.006 C 
BRANCH   3   4
ATOM      4  C   UNL     1       2.466   2.898   7.617  1.00  0.00     0.053 C 
BRANCH   4   5
ATOM      5  C   UNL     1       2.797   3.047   6.164  1.00  0.00     0.041 C 
ATOM      6  O   UNL     1       2.326   2.240   5.320  1.00  0.00    -0.550 OA
ATOM      7  O   UNL     1       3.598   4.099   5.739  1.00  0.00    -0.550 OA
ENDBRANCH   4   5
ENDBRANCH   3   4
ENDBRANCH   2   3
ENDBRANCH   1   2
BRANCH   1   8
ATOM      8  C   UNL     1       5.382   4.536   8.759  1.00  0.00     0.000 C 
BRANCH   8   9
ATOM      9  C   UNL     1       6.648   5.329   8.395  1.00  0.00    -0.000 C 
BRANCH   9  10
ATOM     10  C   UNL     1       7.884   4.430   8.235  1.00  0.00    -0.000 C 
BRANCH  10  11
ATOM     11  C   UNL     1       7.777   3.186   9.126  1.00  0.00    -0.000 C 
BRANCH  11  12
ATOM     12  C   UNL     1       9.082   2.947   9.894  1.00  0.00    -0.003 C 
ATOM     13  C   UNL     1      10.125   4.007   9.554  1.00  0.00     0.004 C 
ENDBRANCH  11  12
ENDBRANCH  10  11
ENDBRANCH   9  10
ENDBRANCH   8   9
ENDBRANCH   1   8
TORSDOF 9
ENDMDL
MODEL 7
REMARK VINA RESULT:    -3.832      2.322      5.481
REMARK INTER + INTRA:          -6.539
REMARK INTER:                  -5.981
REMARK INTRA:                  -0.558
REMARK UNBOUND:                -0.691
REMARK SMILES CCCCCCCCCCC(=O)[O-]
REMARK SMILES IDX 7 1 8 2 9 3 10 4 11 5 12 6 13 7 6 8 5 9 4 10 3 11 2 12 1 13
REMARK H PARENT
REMARK Flexibility Score: inf
ROOT
ATOM      1  C   UNL     1       6.562   4.210   8.593  1.00  0.00     0.000 C 
ENDROOT
BRANCH   1   2
ATOM      2  C   UNL     1       5.640   5.437   8.648  1.00  0.00     0.000 C 
BRANCH   2   3
ATOM      3  C   UNL     1       4.188   5.078   9.014  1.00  0.00     0.006 C 
BRANCH   3   4
ATOM      4  C   UNL     1       3.173   5.318   7.886  1.00  0.00     0.053 C 
BRANCH   4   5
ATOM      5  C   UNL     1       3.037   4.125   6.991  1.00  0.00     0.041 C 
ATOM      6  O   UNL     1       2.289   3.167   7.319  1.00  0.00    -0.550 OA
ATOM      7  O   UNL     1       3.711   4.087   5.777  1.00  0.00    -0.550 OA
ENDBRANCH   4   5
ENDBRANCH   3   4
ENDBRANCH   2   3
ENDBRANCH   1   2
BRANCH   1   8
ATOM      8  C   UNL     1       7.855   4.531   7.828  1.00  0.00     0.000 C 
BRANCH   8   9
ATOM      9  C   UNL     1       9.018   3.603   8.214  1.00  0.00    -0.000 C 
BRANCH   9  10
ATOM     10  C   UNL     1       9.750   4.067   9.483  1.00  0.00    -0.000 C 
BRANCH  10  11
ATOM     11  C   UNL     1       9.800   2.945  10.528  1.00  0.00    -0.000 C 
BRANCH  11  12
ATOM     12  C   UNL     1       8.898   1.774  10.122  1.00  0.00    -0.003 C 
ATOM     13  C   UNL     1       9.305   0.490  10.839  1.00  0.00     0.004 C 
ENDBRANCH  11  12
ENDBRANCH  10  11
ENDBRANCH   9  10
ENDBRANCH   8   9
ENDBRANCH   1   8
TORSDOF 9
ENDMDL
MODEL 8
REMARK VINA RESULT:    -3.823     13.668     15.396
REMARK INTER + INTRA:          -6.526
REMARK INTER:                  -5.477
REMARK INTRA:                  -1.050
REMARK UNBOUND:                -0.691
REMARK SMILES CCCCCCCCCCC(=O)[O-]
REMARK SMILES IDX 7 1 8 2 9 3 10 4 11 5 12 6 13 7 6 8 5 9 4 10 3 11 2 12 1 13
REMARK H PARENT
REMARK Flexibility Score: inf
ROOT
ATOM      1  C   UNL     1      -6.340  -2.134   7.767  1.00  0.00     0.000 C 
ENDROOT
BRANCH   1   2
ATOM      2  C   UNL     1      -5.682  -2.705   9.031  1.00  0.00     0.000 C 
BRANCH   2   3
ATOM      3  C   UNL     1      -5.547  -4.238   8.995  1.00  0.00     0.006 C 
BRANCH   3   4
ATOM      4  C   UNL     1      -4.205  -4.768   9.525  1.00  0.00     0.053 C 
BRANCH   4   5
ATOM      5  C   UNL     1      -3.184  -4.898   8.436  1.00  0.00     0.041 C 
ATOM      6  O   UNL     1      -3.491  -4.634   7.244  1.00  0.00    -0.550 OA
ATOM      7  O   UNL     1      -1.884  -5.278   8.745  1.00  0.00    -0.550 OA
ENDBRANCH   4   5
ENDBRANCH   3   4
ENDBRANCH   2   3
ENDBRANCH   1   2
BRANCH   1   8
ATOM      8  C   UNL     1      -6.890  -3.262   6.880  1.00  0.00     0.000 C 
BRANCH   8   9
ATOM      9  C   UNL     1      -8.425  -3.251   6.790  1.00  0.00    -0.000 C 
BRANCH   9  10
ATOM     10  C   UNL     1      -9.074  -2.355   7.856  1.00  0.00    -0.000 C 
BRANCH  10  11
ATOM     11  C   UNL     1      -9.649  -3.196   9.003  1.00  0.00    -0.000 C 
BRANCH  11  12
ATOM     12  C   UNL     1      -9.450  -2.495  10.352  1.00  0.00    -0.003 C 
ATOM     13  C   UNL     1      -9.000  -1.050  10.161  1.00  0.00     0.004 C 
ENDBRANCH  11  12
ENDBRANCH  10  11
ENDBRANCH   9  10
ENDBRANCH   8   9
ENDBRANCH   1   8
TORSDOF 9
ENDMDL
MODEL 9
REMARK VINA RESULT:    -3.823      2.205      5.100
REMARK INTER + INTRA:          -6.525
REMARK INTER:                  -5.233
REMARK INTRA:                  -1.292
REMARK UNBOUND:                -0.691
REMARK SMILES CCCCCCCCCCC(=O)[O-]
REMARK SMILES IDX 7 1 8 2 9 3 10 4 11 5 12 6 13 7 6 8 5 9 4 10 3 11 2 12 1 13
REMARK H PARENT
REMARK Flexibility Score: inf
ROOT
ATOM      1  C   UNL     1       7.137   4.545   6.008  1.00  0.00     0.000 C 
ENDROOT
BRANCH   1   2
ATOM      2  C   UNL     1       7.500   5.669   6.990  1.00  0.00     0.000 C 
BRANCH   2   3
ATOM      3  C   UNL     1       6.734   5.571   8.321  1.00  0.00     0.006 C 
BRANCH   3   4
ATOM      4  C   UNL     1       5.657   4.474   8.352  1.00  0.00     0.053 C 
BRANCH   4   5
ATOM      5  C   UNL     1       4.274   5.047   8.404  1.00  0.00     0.041 C 
ATOM      6  O   UNL     1       3.748   5.336   9.511  1.00  0.00    -0.550 OA
ATOM      7  O   UNL     1       3.580   5.295   7.226  1.00  0.00    -0.550 OA
ENDBRANCH   4   5
ENDBRANCH   3   4
ENDBRANCH   2   3
ENDBRANCH   1   2
BRANCH   1   8
ATOM      8  C   UNL     1       8.393   3.998   5.313  1.00  0.00     0.000 C 
BRANCH   8   9
ATOM      9  C   UNL     1       9.183   3.022   6.200  1.00  0.00    -0.000 C 
BRANCH   9  10
ATOM     10  C   UNL     1       8.283   1.987   6.890  1.00  0.00    -0.000 C 
BRANCH  10  11
ATOM     11  C   UNL     1       8.596   1.900   8.389  1.00  0.00    -0.000 C 
BRANCH  11  12
ATOM     12  C   UNL     1       9.500   3.057   8.830  1.00  0.00    -0.003 C 
ATOM     13  C   UNL     1       9.621   3.115  10.350  1.00  0.00     0.004 C 
ENDBRANCH  11  12
ENDBRANCH  10  11
ENDBRANCH   9  10
ENDBRANCH   8   9
ENDBRANCH   1   8
TORSDOF 9
ENDMDL
