MODEL 1
REMARK VINA RESULT:    -4.652      0.000      0.000
REMARK INTER + INTRA:          -7.154
REMARK INTER:                  -6.284
REMARK INTRA:                  -0.870
REMARK UNBOUND:                -0.870
REMARK SMILES O=C[C@@H](O)[C@@H](O)[C@H](O)CO
REMARK SMILES IDX 7 1 9 2 10 3 5 5 3 6 2 7 1 8 4 9 6 11 8 13
REMARK H PARENT 10 4 4 10 6 12 8 14
REMARK Flexibility Score: inf
ROOT
ATOM      1  C   UNL     1     -43.529  40.251  10.443  1.00  0.00     0.171 C 
ENDROOT
BRANCH   1   2
ATOM      2  C   UNL     1     -44.423  39.875  11.644  1.00  0.00     0.190 C 
BRANCH   2   3
ATOM      3  O   UNL     1     -44.654  40.998  12.448  1.00  0.00    -0.394 OA
ATOM      4  H   UNL     1     -44.087  41.724  12.080  1.00  0.00     0.210 HD
ENDBRANCH   2   3
ENDBRANCH   1   2
BRANCH   1   5
ATOM      5  C   UNL     1     -42.042  40.516  10.817  1.00  0.00     0.181 C 
BRANCH   5   6
ATOM      6  C   UNL     1     -41.641  42.007  10.686  1.00  0.00     0.209 C 
BRANCH   6   7
ATOM      7  C   UNL     1     -41.679  42.698  12.024  1.00  0.00     0.258 C 
ATOM      8  O   UNL     1     -42.735  43.102  12.485  1.00  0.00    -0.300 OA
ENDBRANCH   6   7
BRANCH   6   9
ATOM      9  O   UNL     1     -40.342  42.111  10.164  1.00  0.00    -0.383 OA
ATOM     10  H   UNL     1     -39.724  42.166  10.939  1.00  0.00     0.211 HD
ENDBRANCH   6   9
ENDBRANCH   5   6
BRANCH   5  11
ATOM     11  O   UNL     1     -41.839  40.102  12.147  1.00  0.00    -0.387 OA
ATOM     12  H   UNL     1     -41.397  40.852  12.624  1.00  0.00     0.211 HD
ENDBRANCH   5  11
ENDBRANCH   1   5
BRANCH   1  13
ATOM     13  O   UNL     1     -44.068  41.378   9.797  1.00  0.00    -0.388 OA
ATOM     14  H   UNL     1     -43.939  41.251   8.819  1.00  0.00     0.211 HD
ENDBRANCH   1  13
TORSDOF 8
ENDMDL
MODEL 2
REMARK VINA RESULT:    -4.396      1.313      1.663
REMARK INTER + INTRA:          -6.808
REMARK INTER:                  -6.309
REMARK INTRA:                  -0.498
REMARK UNBOUND:                -0.870
REMARK SMILES O=C[C@@H](O)[C@@H](O)[C@H](O)CO
REMARK SMILES IDX 7 1 9 2 10 3 5 5 3 6 2 7 1 8 4 9 6 11 8 13
REMARK H PARENT 10 4 4 10 6 12 8 14
REMARK Flexibility Score: inf
ROOT
ATOM      1  C   UNL     1     -43.931  40.225  10.348  1.00  0.00     0.171 C 
ENDROOT
BRANCH   1   2
ATOM      2  C   UNL     1     -45.395  39.875  10.688  1.00  0.00     0.190 C 
BRANCH   2   3
ATOM      3  O   UNL     1     -45.698  40.271  11.997  1.00  0.00    -0.394 OA
ATOM      4  H   UNL     1     -44.953  40.858  12.288  1.00  0.00     0.210 HD
ENDBRANCH   2   3
ENDBRANCH   1   2
BRANCH   1   5
ATOM      5  C   UNL     1     -43.225  41.110  11.416  1.00  0.00     0.181 C 
BRANCH   5   6
ATOM      6  C   UNL     1     -41.688  41.176  11.230  1.00  0.00     0.209 C 
BRANCH   6   7
ATOM      7  C   UNL     1     -41.163  42.555  11.537  1.00  0.00     0.258 C 
ATOM      8  O   UNL     1     -41.308  43.042  12.646  1.00  0.00    -0.300 OA
ENDBRANCH   6   7
BRANCH   6   9
ATOM      9  O   UNL     1     -41.061  40.256  12.083  1.00  0.00    -0.383 OA
ATOM     10  H   UNL     1     -41.080  40.649  12.995  1.00  0.00     0.211 HD
ENDBRANCH   6   9
ENDBRANCH   5   6
BRANCH   5  11
ATOM     11  O   UNL     1     -43.752  42.413  11.330  1.00  0.00    -0.387 OA
ATOM     12  H   UNL     1     -44.741  42.333  11.370  1.00  0.00     0.211 HD
ENDBRANCH   5  11
ENDBRANCH   1   5
BRANCH   1  13
ATOM     13  O   UNL     1     -43.883  40.861   9.095  1.00  0.00    -0.388 OA
ATOM     14  H   UNL     1     -44.534  40.399   8.501  1.00  0.00     0.211 HD
ENDBRANCH   1  13
TORSDOF 8
ENDMDL
MODEL 3
REMARK VINA RESULT:    -4.351      1.093      3.380
REMARK INTER + INTRA:          -6.747
REMARK INTER:                  -6.167
REMARK INTRA:                  -0.580
REMARK UNBOUND:                -0.870
REMARK SMILES O=C[C@@H](O)[C@@H](O)[C@H](O)CO
REMARK SMILES IDX 7 1 9 2 10 3 5 5 3 6 2 7 1 8 4 9 6 11 8 13
REMARK H PARENT 10 4 4 10 6 12 8 14
REMARK Flexibility Score: inf
ROOT
ATOM      1  C   UNL     1     -41.690  42.246  11.191  1.00  0.00     0.171 C 
ENDROOT
BRANCH   1   2
ATOM      2  C   UNL     1     -41.061  43.012  12.373  1.00  0.00     0.190 C 
BRANCH   2   3
ATOM      3  O   UNL     1     -40.359  42.132  13.205  1.00  0.00    -0.394 OA
ATOM      4  H   UNL     1     -39.396  42.278  13.012  1.00  0.00     0.210 HD
ENDBRANCH   2   3
ENDBRANCH   1   2
BRANCH   1   5
ATOM      5  C   UNL     1     -42.590  41.049  11.617  1.00  0.00     0.181 C 
BRANCH   5   6
ATOM      6  C   UNL     1     -43.404  40.454  10.440  1.00  0.00     0.209 C 
BRANCH   6   7
ATOM      7  C   UNL     1     -44.735  39.928  10.912  1.00  0.00     0.258 C 
ATOM      8  O   UNL     1     -45.005  39.899  12.102  1.00  0.00    -0.300 OA
ENDBRANCH   6   7
BRANCH   6   9
ATOM      9  O   UNL     1     -43.630  41.438   9.465  1.00  0.00    -0.383 OA
ATOM     10  H   UNL     1     -42.743  41.820   9.231  1.00  0.00     0.211 HD
ENDBRANCH   6   9
ENDBRANCH   5   6
BRANCH   5  11
ATOM     11  O   UNL     1     -41.765  40.045  12.157  1.00  0.00    -0.387 OA
ATOM     12  H   UNL     1     -40.937  40.486  12.479  1.00  0.00     0.211 HD
ENDBRANCH   5  11
ENDBRANCH   1   5
BRANCH   1  13
ATOM     13  O   UNL     1     -40.671  41.794  10.334  1.00  0.00    -0.388 OA
ATOM     14  H   UNL     1     -40.310  42.587   9.855  1.00  0.00     0.211 HD
ENDBRANCH   1  13
TORSDOF 8
ENDMDL
MODEL 4
REMARK VINA RESULT:    -4.316      1.602      3.664
REMARK INTER + INTRA:          -6.700
REMARK INTER:                  -6.358
REMARK INTRA:                  -0.342
REMARK UNBOUND:                -0.870
REMARK SMILES O=C[C@@H](O)[C@@H](O)[C@H](O)CO
REMARK SMILES IDX 7 1 9 2 10 3 5 5 3 6 2 7 1 8 4 9 6 11 8 13
REMARK H PARENT 10 4 4 10 6 12 8 14
REMARK Flexibility Score: inf
ROOT
ATOM      1  C   UNL     1     -42.335  43.248  12.786  1.00  0.00     0.171 C 
ENDROOT
BRANCH   1   2
ATOM      2  C   UNL     1     -40.875  42.949  12.384  1.00  0.00     0.190 C 
BRANCH   2   3
ATOM      3  O   UNL     1     -40.262  42.137  13.346  1.00  0.00    -0.394 OA
ATOM      4  H   UNL     1     -39.421  42.598  13.601  1.00  0.00     0.210 HD
ENDBRANCH   2   3
ENDBRANCH   1   2
BRANCH   1   5
ATOM      5  C   UNL     1     -43.395  42.487  11.939  1.00  0.00     0.181 C 
BRANCH   5   6
ATOM      6  C   UNL     1     -42.780  41.371  11.058  1.00  0.00     0.209 C 
BRANCH   6   7
ATOM      7  C   UNL     1     -43.491  40.059  11.269  1.00  0.00     0.258 C 
ATOM      8  O   UNL     1     -44.609  39.877  10.812  1.00  0.00    -0.300 OA
ENDBRANCH   6   7
BRANCH   6   9
ATOM      9  O   UNL     1     -42.877  41.721   9.702  1.00  0.00    -0.383 OA
ATOM     10  H   UNL     1     -43.037  42.700   9.668  1.00  0.00     0.211 HD
ENDBRANCH   6   9
ENDBRANCH   5   6
BRANCH   5  11
ATOM     11  O   UNL     1     -44.333  41.911  12.817  1.00  0.00    -0.387 OA
ATOM     12  H   UNL     1     -44.008  41.001  13.040  1.00  0.00     0.211 HD
ENDBRANCH   5  11
ENDBRANCH   1   5
BRANCH   1  13
ATOM     13  O   UNL     1     -42.565  44.633  12.706  1.00  0.00    -0.388 OA
ATOM     14  H   UNL     1     -41.938  45.077  13.336  1.00  0.00     0.211 HD
ENDBRANCH   1  13
TORSDOF 8
ENDMDL
MODEL 5
REMARK VINA RESULT:    -4.308      1.379      3.080
REMARK INTER + INTRA:          -6.689
REMARK INTER:                  -6.227
REMARK INTRA:                  -0.462
REMARK UNBOUND:                -0.870
REMARK SMILES O=C[C@@H](O)[C@@H](O)[C@H](O)CO
REMARK SMILES IDX 7 1 9 2 10 3 5 5 3 6 2 7 1 8 4 9 6 11 8 13
REMARK H PARENT 10 4 4 10 6 12 8 14
REMARK Flexibility Score: inf
ROOT
ATOM      1  C   UNL     1     -40.962  42.595  12.457  1.00  0.00     0.171 C 
ENDROOT
BRANCH   1   2
ATOM      2  C   UNL     1     -42.130  43.567  12.722  1.00  0.00     0.190 C 
BRANCH   2   3
ATOM      3  O   UNL     1     -43.238  42.872  13.224  1.00  0.00    -0.394 OA
ATOM      4  H   UNL     1     -43.977  43.028  12.580  1.00  0.00     0.210 HD
ENDBRANCH   2   3
ENDBRANCH   1   2
BRANCH   1   5
ATOM      5  C   UNL     1     -41.407  41.180  11.986  1.00  0.00     0.181 C 
BRANCH   5   6
ATOM      6  C   UNL     1     -41.557  41.073  10.448  1.00  0.00     0.209 C 
BRANCH   6   7
ATOM      7  C   UNL     1     -43.008  41.110  10.040  1.00  0.00     0.258 C 
ATOM      8  O   UNL     1     -43.890  41.141  10.884  1.00  0.00    -0.300 OA
ENDBRANCH   6   7
BRANCH   6   9
ATOM      9  O   UNL     1     -40.888  42.138   9.824  1.00  0.00    -0.383 OA
ATOM     10  H   UNL     1     -40.245  41.737   9.182  1.00  0.00     0.211 HD
ENDBRANCH   6   9
ENDBRANCH   5   6
BRANCH   5  11
ATOM     11  O   UNL     1     -40.445  40.247  12.417  1.00  0.00    -0.387 OA
ATOM     12  H   UNL     1     -40.932  39.511  12.871  1.00  0.00     0.211 HD
ENDBRANCH   5  11
ENDBRANCH   1   5
BRANCH   1  13
ATOM     13  O   UNL     1     -40.175  42.486  13.618  1.00  0.00    -0.388 OA
ATOM     14  H   UNL     1     -39.276  42.165  13.340  1.00  0.00     0.211 HD
ENDBRANCH   1  13
TORSDOF 8
ENDMDL
MODEL 6
REMARK VINA RESULT:    -4.297      1.191      1.709
REMARK INTER + INTRA:          -6.675
REMARK INTER:                  -6.140
REMARK INTRA:                  -0.535
REMARK UNBOUND:                -0.870
REMARK SMILES O=C[C@@H](O)[C@@H](O)[C@H](O)CO
REMARK SMILES IDX 7 1 9 2 10 3 5 5 3 6 2 7 1 8 4 9 6 11 8 13
REMARK H PARENT 10 4 4 10 6 12 8 14
REMARK Flexibility Score: inf
ROOT
ATOM      1  C   UNL     1     -43.201  40.464  10.275  1.00  0.00     0.171 C 
ENDROOT
BRANCH   1   2
ATOM      2  C   UNL     1     -44.014  39.875  11.447  1.00  0.00     0.190 C 
BRANCH   2   3
ATOM      3  O   UNL     1     -45.314  40.395  11.448  1.00  0.00    -0.394 OA
ATOM      4  H   UNL     1     -45.235  41.336  11.753  1.00  0.00     0.210 HD
ENDBRANCH   2   3
ENDBRANCH   1   2
BRANCH   1   5
ATOM      5  C   UNL     1     -42.114  41.490  10.707  1.00  0.00     0.181 C 
BRANCH   5   6
ATOM      6  C   UNL     1     -42.508  42.293  11.972  1.00  0.00     0.209 C 
BRANCH   6   7
ATOM      7  C   UNL     1     -41.408  43.240  12.379  1.00  0.00     0.258 C 
ATOM      8  O   UNL     1     -40.415  42.827  12.957  1.00  0.00    -0.300 OA
ENDBRANCH   6   7
BRANCH   6   9
ATOM      9  O   UNL     1     -43.672  43.038  11.726  1.00  0.00    -0.383 OA
ATOM     10  H   UNL     1     -44.075  42.675  10.894  1.00  0.00     0.211 HD
ENDBRANCH   6   9
ENDBRANCH   5   6
BRANCH   5  11
ATOM     11  O   UNL     1     -40.921  40.789  10.964  1.00  0.00    -0.387 OA
ATOM     12  H   UNL     1     -40.177  41.443  10.908  1.00  0.00     0.211 HD
ENDBRANCH   5  11
ENDBRANCH   1   5
BRANCH   1  13
ATOM     13  O   UNL     1     -44.080  41.060   9.352  1.00  0.00    -0.388 OA
ATOM     14  H   UNL     1     -44.151  40.450   8.571  1.00  0.00     0.211 HD
ENDBRANCH   1  13
TORSDOF 8
ENDMDL
MODEL 7
REMARK VINA RESULT:    -4.004      1.386      2.694
REMARK INTER + INTRA:          -6.278
REMARK INTER:                  -5.856
REMARK INTRA:                  -0.422
REMARK UNBOUND:                -0.870
REMARK SMILES O=C[C@@H](O)[C@@H](O)[C@H](O)CO
REMARK SMILES IDX 7 1 9 2 10 3 5 5 3 6 2 7 1 8 4 9 6 11 8 13
REMARK H PARENT 10 4 4 10 6 12 8 14
REMARK Flexibility Score: inf
ROOT
ATOM      1  C   UNL     1     -42.939  41.609  10.586  1.00  0.00     0.171 C 
ENDROOT
BRANCH   1   2
ATOM      2  C   UNL     1     -41.902  40.526  10.223  1.00  0.00     0.190 C 
BRANCH   2   3
ATOM      3  O   UNL     1     -40.933  40.424  11.228  1.00  0.00    -0.394 OA
ATOM      4  H   UNL     1     -40.564  39.505  11.164  1.00  0.00     0.210 HD
ENDBRANCH   2   3
ENDBRANCH   1   2
BRANCH   1   5
ATOM      5  C   UNL     1     -43.213  41.740  12.113  1.00  0.00     0.181 C 
BRANCH   5   6
ATOM      6  C   UNL     1     -42.948  43.166  12.656  1.00  0.00     0.209 C 
BRANCH   6   7
ATOM      7  C   UNL     1     -41.534  43.601  12.372  1.00  0.00     0.258 C 
ATOM      8  O   UNL     1     -40.588  42.931  12.757  1.00  0.00    -0.300 OA
ENDBRANCH   6   7
BRANCH   6   9
ATOM      9  O   UNL     1     -43.828  44.081  12.057  1.00  0.00    -0.383 OA
ATOM     10  H   UNL     1     -44.573  43.551  11.668  1.00  0.00     0.211 HD
ENDBRANCH   6   9
ENDBRANCH   5   6
BRANCH   5  11
ATOM     11  O   UNL     1     -44.559  41.403  12.351  1.00  0.00    -0.387 OA
ATOM     12  H   UNL     1     -44.869  40.864  11.578  1.00  0.00     0.211 HD
ENDBRANCH   5  11
ENDBRANCH   1   5
BRANCH   1  13
ATOM     13  O   UNL     1     -44.143  41.349   9.906  1.00  0.00    -0.388 OA
ATOM     14  H   UNL     1     -44.335  40.378  10.002  1.00  0.00     0.211 HD
ENDBRANCH   1  13
TORSDOF 8
ENDMDL
MODEL 8
REMARK VINA RESULT:    -3.889      1.854      3.091
REMARK INTER + INTRA:          -6.123
REMARK INTER:                  -6.002
REMARK INTRA:                  -0.122
REMARK UNBOUND:                -0.870
REMARK SMILES O=C[C@@H](O)[C@@H](O)[C@H](O)CO
REMARK SMILES IDX 7 1 9 2 10 3 5 5 3 6 2 7 1 8 4 9 6 11 8 13
REMARK H PARENT 10 4 4 10 6 12 8 14
REMARK Flexibility Score: inf
ROOT
ATOM      1  C   UNL     1     -44.527  41.031  11.949  1.00  0.00     0.171 C 
ENDROOT
BRANCH   1   2
ATOM      2  C   UNL     1     -45.572  40.227  12.752  1.00  0.00     0.190 C 
BRANCH   2   3
ATOM      3  O   UNL     1     -46.766  40.124  12.029  1.00  0.00    -0.394 OA
ATOM      4  H   UNL     1     -46.845  40.961  11.503  1.00  0.00     0.210 HD
ENDBRANCH   2   3
ENDBRANCH   1   2
BRANCH   1   5
ATOM      5  C   UNL     1     -43.354  40.171  11.395  1.00  0.00     0.181 C 
BRANCH   5   6
ATOM      6  C   UNL     1     -43.302  40.142   9.847  1.00  0.00     0.209 C 
BRANCH   6   7
ATOM      7  C   UNL     1     -44.665  39.875   9.263  1.00  0.00     0.258 C 
ATOM      8  O   UNL     1     -44.901  40.132   8.093  1.00  0.00    -0.300 OA
ENDBRANCH   6   7
BRANCH   6   9
ATOM      9  O   UNL     1     -42.838  41.374   9.358  1.00  0.00    -0.383 OA
ATOM     10  H   UNL     1     -42.143  41.170   8.678  1.00  0.00     0.211 HD
ENDBRANCH   6   9
ENDBRANCH   5   6
BRANCH   5  11
ATOM     11  O   UNL     1     -42.146  40.704  11.883  1.00  0.00    -0.387 OA
ATOM     12  H   UNL     1     -42.360  41.570  12.317  1.00  0.00     0.211 HD
ENDBRANCH   5  11
ENDBRANCH   1   5
BRANCH   1  13
ATOM     13  O   UNL     1     -44.020  42.068  12.752  1.00  0.00    -0.388 OA
ATOM     14  H   UNL     1     -44.156  42.921  12.258  1.00  0.00     0.211 HD
ENDBRANCH   1  13
TORSDOF 8
ENDMDL
