MODEL 1
REMARK VINA RESULT:    -4.655      0.000      0.000
REMARK INTER + INTRA:          -4.791
REMARK INTER:                  -4.791
REMARK INTRA:                   0.000
REMARK UNBOUND:                 0.000
REMARK SMILES Oc1ccc2[nH]ccc2c1
REMARK SMILES IDX 3 1 4 2 5 3 9 4 8 5 7 6 6 7 10 8 2 9 1 11
REMARK H PARENT 6 10 1 12
REMARK Flexibility Score: inf
ROOT
ATOM      1  C   UNL     1       5.597  -3.164   1.190  1.00  0.00     0.048 A 
ATOM      2  C   UNL     1       5.559  -3.515  -0.172  1.00  0.00     0.030 A 
ATOM      3  C   UNL     1       5.189  -2.531  -1.087  1.00  0.00     0.046 A 
ATOM      4  C   UNL     1       4.871  -1.260  -0.688  1.00  0.00     0.003 A 
ATOM      5  C   UNL     1       4.555  -0.541  -1.820  1.00  0.00     0.028 A 
ATOM      6  C   UNL     1       4.701  -1.437  -2.874  1.00  0.00     0.083 A 
ATOM      7  N   UNL     1       5.089  -2.652  -2.421  1.00  0.00    -0.361 N 
ATOM      8  C   UNL     1       4.899  -0.879   0.652  1.00  0.00     0.056 A 
ATOM      9  C   UNL     1       5.270  -1.852   1.604  1.00  0.00     0.116 A 
ATOM     10  H   UNL     1       5.271  -3.505  -2.995  1.00  0.00     0.166 HD
ENDROOT
BRANCH   9  11
ATOM     11  O   UNL     1       5.315  -1.532   2.958  1.00  0.00    -0.508 OA
ATOM     12  H   UNL     1       4.524  -1.106   3.428  1.00  0.00     0.293 HD
ENDBRANCH   9  11
TORSDOF 1
ENDMDL
MODEL 2
REMARK VINA RESULT:    -4.598     13.801     14.582
REMARK INTER + INTRA:          -4.732
REMARK INTER:                  -4.732
REMARK INTRA:                   0.000
REMARK UNBOUND:                 0.000
REMARK SMILES Oc1ccc2[nH]ccc2c1
REMARK SMILES IDX 3 1 4 2 5 3 9 4 8 5 7 6 6 7 10 8 2 9 1 11
REMARK H PARENT 6 10 1 12
REMARK Flexibility Score: inf
ROOT
ATOM      1  C   UNL     1      -9.320   2.754  -0.515  1.00  0.00     0.048 A 
ATOM      2  C   UNL     1      -9.325   4.064  -0.002  1.00  0.00     0.030 A 
ATOM      3  C   UNL     1      -8.262   4.448   0.812  1.00  0.00     0.046 A 
ATOM      4  C   UNL     1      -7.237   3.589   1.111  1.00  0.00     0.003 A 
ATOM      5  C   UNL     1      -6.357   4.267   1.927  1.00  0.00     0.028 A 
ATOM      6  C   UNL     1      -6.908   5.534   2.084  1.00  0.00     0.083 A 
ATOM      7  N   UNL     1      -8.072   5.640   1.401  1.00  0.00    -0.361 N 
ATOM      8  C   UNL     1      -7.201   2.286   0.620  1.00  0.00     0.056 A 
ATOM      9  C   UNL     1      -8.264   1.865  -0.208  1.00  0.00     0.116 A 
ATOM     10  H   UNL     1      -8.692   6.479   1.346  1.00  0.00     0.166 HD
ENDROOT
BRANCH   9  11
ATOM     11  O   UNL     1      -8.283   0.574  -0.728  1.00  0.00    -0.508 OA
ATOM     12  H   UNL     1      -8.821  -0.165  -0.290  1.00  0.00     0.293 HD
ENDBRANCH   9  11
TORSDOF 1
ENDMDL
MODEL 3
REMARK VINA RESULT:    -4.416      1.880      3.220
REMARK INTER + INTRA:          -4.545
REMARK INTER:                  -4.545
REMARK INTRA:                   0.000
REMARK UNBOUND:                 0.000
REMARK SMILES Oc1ccc2[nH]ccc2c1
REMARK SMILES IDX 3 1 4 2 5 3 9 4 8 5 7 6 6 7 10 8 2 9 1 11
REMARK H PARENT 6 10 1 12
REMARK Flexibility Score: inf
ROOT
ATOM      1  C   UNL     1       4.544  -0.768  -2.316  1.00  0.00     0.048 A 
ATOM      2  C   UNL     1       4.685  -2.167  -2.317  1.00  0.00     0.030 A 
ATOM      3  C   UNL     1       5.028  -2.787  -1.117  1.00  0.00     0.046 A 
ATOM      4  C   UNL     1       5.223  -2.070   0.033  1.00  0.00     0.003 A 
ATOM      5  C   UNL     1       5.546  -2.968   1.028  1.00  0.00     0.028 A 
ATOM      6  C   UNL     1       5.529  -4.215   0.412  1.00  0.00     0.083 A 
ATOM      7  N   UNL     1       5.212  -4.100  -0.898  1.00  0.00    -0.361 N 
ATOM      8  C   UNL     1       5.091  -0.683   0.069  1.00  0.00     0.056 A 
ATOM      9  C   UNL     1       4.745  -0.025  -1.130  1.00  0.00     0.116 A 
ATOM     10  H   UNL     1       5.129  -4.875  -1.593  1.00  0.00     0.166 HD
ENDROOT
BRANCH   9  11
ATOM     11  O   UNL     1       4.599   1.360  -1.157  1.00  0.00    -0.508 OA
ATOM     12  H   UNL     1       3.830   1.820  -0.682  1.00  0.00     0.293 HD
ENDBRANCH   9  11
TORSDOF 1
ENDMDL
MODEL 4
REMARK VINA RESULT:    -4.385     13.845     14.570
REMARK INTER + INTRA:          -4.514
REMARK INTER:                  -4.514
REMARK INTRA:                   0.000
REMARK UNBOUND:                 0.000
REMARK SMILES Oc1ccc2[nH]ccc2c1
REMARK SMILES IDX 3 1 4 2 5 3 9 4 8 5 7 6 6 7 10 8 2 9 1 11
REMARK H PARENT 6 10 1 12
REMARK Flexibility Score: inf
ROOT
ATOM      1  C   UNL     1      -8.430   6.149   1.355  1.00  0.00     0.048 A 
ATOM      2  C   UNL     1      -8.990   5.213   0.466  1.00  0.00     0.030 A 
ATOM      3  C   UNL     1      -8.384   3.962   0.372  1.00  0.00     0.046 A 
ATOM      4  C   UNL     1      -7.279   3.639   1.115  1.00  0.00     0.003 A 
ATOM      5  C   UNL     1      -6.931   2.345   0.794  1.00  0.00     0.028 A 
ATOM      6  C   UNL     1      -7.867   1.940  -0.152  1.00  0.00     0.083 A 
ATOM      7  N   UNL     1      -8.753   2.931  -0.406  1.00  0.00    -0.361 N 
ATOM      8  C   UNL     1      -6.700   4.542   2.004  1.00  0.00     0.056 A 
ATOM      9  C   UNL     1      -7.289   5.819   2.123  1.00  0.00     0.116 A 
ATOM     10  H   UNL     1      -9.557   2.897  -1.072  1.00  0.00     0.166 HD
ENDROOT
BRANCH   9  11
ATOM     11  O   UNL     1      -6.755   6.764   2.994  1.00  0.00    -0.508 OA
ATOM     12  H   UNL     1      -6.980   7.749   2.910  1.00  0.00     0.293 HD
ENDBRANCH   9  11
TORSDOF 1
ENDMDL
MODEL 5
REMARK VINA RESULT:    -4.365     14.126     14.758
REMARK INTER + INTRA:          -4.492
REMARK INTER:                  -4.492
REMARK INTRA:                   0.000
REMARK UNBOUND:                 0.000
REMARK SMILES Oc1ccc2[nH]ccc2c1
REMARK SMILES IDX 3 1 4 2 5 3 9 4 8 5 7 6 6 7 10 8 2 9 1 11
REMARK H PARENT 6 10 1 12
REMARK Flexibility Score: inf
ROOT
ATOM      1  C   UNL     1      -6.321   4.866   2.204  1.00  0.00     0.048 A 
ATOM      2  C   UNL     1      -6.602   3.755   1.387  1.00  0.00     0.030 A 
ATOM      3  C   UNL     1      -7.777   3.780   0.638  1.00  0.00     0.046 A 
ATOM      4  C   UNL     1      -8.638   4.845   0.685  1.00  0.00     0.003 A 
ATOM      5  C   UNL     1      -9.689   4.561  -0.160  1.00  0.00     0.028 A 
ATOM      6  C   UNL     1      -9.403   3.307  -0.689  1.00  0.00     0.083 A 
ATOM      7  N   UNL     1      -8.233   2.834  -0.199  1.00  0.00    -0.361 N 
ATOM      8  C   UNL     1      -8.389   5.959   1.483  1.00  0.00     0.056 A 
ATOM      9  C   UNL     1      -7.208   5.966   2.254  1.00  0.00     0.116 A 
ATOM     10  H   UNL     1      -7.782   1.920  -0.427  1.00  0.00     0.166 HD
ENDROOT
BRANCH   9  11
ATOM     11  O   UNL     1      -6.905   7.052   3.071  1.00  0.00    -0.508 OA
ATOM     12  H   UNL     1      -7.524   7.852   3.138  1.00  0.00     0.293 HD
ENDBRANCH   9  11
TORSDOF 1
ENDMDL
MODEL 6
REMARK VINA RESULT:    -4.346      0.831      2.203
REMARK INTER + INTRA:          -4.473
REMARK INTER:                  -4.473
REMARK INTRA:                   0.000
REMARK UNBOUND:                 0.000
REMARK SMILES Oc1ccc2[nH]ccc2c1
REMARK SMILES IDX 3 1 4 2 5 3 9 4 8 5 7 6 6 7 10 8 2 9 1 11
REMARK H PARENT 6 10 1 12
REMARK Flexibility Score: inf
ROOT
ATOM      1  C   UNL     1       4.803  -0.794   0.539  1.00  0.00     0.048 A 
ATOM      2  C   UNL     1       4.664  -1.056  -0.836  1.00  0.00     0.030 A 
ATOM      3  C   UNL     1       4.987  -2.333  -1.290  1.00  0.00     0.046 A 
ATOM      4  C   UNL     1       5.426  -3.311  -0.437  1.00  0.00     0.003 A 
ATOM      5  C   UNL     1       5.656  -4.442  -1.191  1.00  0.00     0.028 A 
ATOM      6  C   UNL     1       5.336  -4.080  -2.496  1.00  0.00     0.083 A 
ATOM      7  N   UNL     1       4.928  -2.791  -2.551  1.00  0.00    -0.361 N 
ATOM      8  C   UNL     1       5.575  -3.084   0.929  1.00  0.00     0.056 A 
ATOM      9  C   UNL     1       5.255  -1.801   1.422  1.00  0.00     0.116 A 
ATOM     10  H   UNL     1       4.629  -2.265  -3.402  1.00  0.00     0.166 HD
ENDROOT
BRANCH   9  11
ATOM     11  O   UNL     1       5.384  -1.515   2.779  1.00  0.00    -0.508 OA
ATOM     12  H   UNL     1       6.168  -0.979   3.134  1.00  0.00     0.293 HD
ENDBRANCH   9  11
TORSDOF 1
ENDMDL
MODEL 7
REMARK VINA RESULT:    -4.257      2.126      3.275
REMARK INTER + INTRA:          -4.382
REMARK INTER:                  -4.382
REMARK INTRA:                   0.000
REMARK UNBOUND:                 0.000
REMARK SMILES Oc1ccc2[nH]ccc2c1
REMARK SMILES IDX 3 1 4 2 5 3 9 4 8 5 7 6 6 7 10 8 2 9 1 11
REMARK H PARENT 6 10 1 12
REMARK Flexibility Score: inf
ROOT
ATOM      1  C   UNL     1       4.926  -0.771   0.594  1.00  0.00     0.048 A 
ATOM      2  C   UNL     1       5.228  -1.973   1.258  1.00  0.00     0.030 A 
ATOM      3  C   UNL     1       5.511  -3.094   0.479  1.00  0.00     0.046 A 
ATOM      4  C   UNL     1       5.499  -3.040  -0.889  1.00  0.00     0.003 A 
ATOM      5  C   UNL     1       5.817  -4.299  -1.353  1.00  0.00     0.028 A 
ATOM      6  C   UNL     1       6.010  -5.070  -0.210  1.00  0.00     0.083 A 
ATOM      7  N   UNL     1       5.822  -4.329   0.906  1.00  0.00    -0.361 N 
ATOM      8  C   UNL     1       5.204  -1.866  -1.579  1.00  0.00     0.056 A 
ATOM      9  C   UNL     1       4.913  -0.713  -0.819  1.00  0.00     0.116 A 
ATOM     10  H   UNL     1       5.903  -4.655   1.895  1.00  0.00     0.166 HD
ENDROOT
BRANCH   9  11
ATOM     11  O   UNL     1       4.611   0.490  -1.452  1.00  0.00    -0.508 OA
ATOM     12  H   UNL     1       4.589   1.365  -0.941  1.00  0.00     0.293 HD
ENDBRANCH   9  11
TORSDOF 1
ENDMDL
MODEL 8
REMARK VINA RESULT:    -4.162      2.441      3.148
REMARK INTER + INTRA:          -4.284
REMARK INTER:                  -4.284
REMARK INTRA:                   0.000
REMARK UNBOUND:                 0.000
REMARK SMILES Oc1ccc2[nH]ccc2c1
REMARK SMILES IDX 3 1 4 2 5 3 9 4 8 5 7 6 6 7 10 8 2 9 1 11
REMARK H PARENT 6 10 1 12
REMARK Flexibility Score: inf
ROOT
ATOM      1  C   UNL     1       4.532  -1.293  -1.848  1.00  0.00     0.048 A 
ATOM      2  C   UNL     1       5.231  -1.692  -3.002  1.00  0.00     0.030 A 
ATOM      3  C   UNL     1       6.617  -1.805  -2.917  1.00  0.00     0.046 A 
ATOM      4  C   UNL     1       7.291  -1.539  -1.754  1.00  0.00     0.003 A 
ATOM      5  C   UNL     1       8.631  -1.742  -2.001  1.00  0.00     0.028 A 
ATOM      6  C   UNL     1       8.702  -2.131  -3.334  1.00  0.00     0.083 A 
ATOM      7  N   UNL     1       7.468  -2.168  -3.890  1.00  0.00    -0.361 N 
ATOM      8  C   UNL     1       6.630  -1.140  -0.594  1.00  0.00     0.056 A 
ATOM      9  C   UNL     1       5.225  -1.017  -0.646  1.00  0.00     0.116 A 
ATOM     10  H   UNL     1       7.232  -2.427  -4.874  1.00  0.00     0.166 HD
ENDROOT
BRANCH   9  11
ATOM     11  O   UNL     1       4.510  -0.622   0.481  1.00  0.00    -0.508 OA
ATOM     12  H   UNL     1       4.933  -0.620   1.402  1.00  0.00     0.293 HD
ENDBRANCH   9  11
TORSDOF 1
ENDMDL
MODEL 9
REMARK VINA RESULT:    -4.161     11.141     11.421
REMARK INTER + INTRA:          -4.283
REMARK INTER:                  -4.283
REMARK INTRA:                   0.000
REMARK UNBOUND:                 0.000
REMARK SMILES Oc1ccc2[nH]ccc2c1
REMARK SMILES IDX 3 1 4 2 5 3 9 4 8 5 7 6 6 7 10 8 2 9 1 11
REMARK H PARENT 6 10 1 12
REMARK Flexibility Score: inf
ROOT
ATOM      1  C   UNL     1      -4.227  -5.875   1.890  1.00  0.00     0.048 A 
ATOM      2  C   UNL     1      -4.316  -5.795   0.488  1.00  0.00     0.030 A 
ATOM      3  C   UNL     1      -4.662  -6.951  -0.209  1.00  0.00     0.046 A 
ATOM      4  C   UNL     1      -4.910  -8.134   0.437  1.00  0.00     0.003 A 
ATOM      5  C   UNL     1      -5.221  -9.070  -0.526  1.00  0.00     0.028 A 
ATOM      6  C   UNL     1      -5.143  -8.388  -1.736  1.00  0.00     0.083 A 
ATOM      7  N   UNL     1      -4.802  -7.094  -1.537  1.00  0.00    -0.361 N 
ATOM      8  C   UNL     1      -4.830  -8.248   1.823  1.00  0.00     0.056 A 
ATOM      9  C   UNL     1      -4.483  -7.095   2.559  1.00  0.00     0.116 A 
ATOM     10  H   UNL     1      -4.674  -6.360  -2.269  1.00  0.00     0.166 HD
ENDROOT
BRANCH   9  11
ATOM     11  O   UNL     1      -4.387  -7.147   3.947  1.00  0.00    -0.508 OA
ATOM     12  H   UNL     1      -3.729  -7.764   4.409  1.00  0.00     0.293 HD
ENDBRANCH   9  11
TORSDOF 1
ENDMDL
