MODEL 1
REMARK VINA RESULT:    -6.119      0.000      0.000
REMARK INTER + INTRA:          -6.656
REMARK INTER:                  -6.656
REMARK INTRA:                   0.000
REMARK UNBOUND:                 0.000
REMARK SMILES Cc1cc(O)c2c(c1)C(=O)c1cc(O)cc(O)c1C2=O
REMARK SMILES IDX 1 1 2 2 8 3 7 4 6 5 4 6 3 7 19 8 20 9 18 10 11 11 9 12 10 13
REMARK SMILES IDX 12 14 13 15 15 16 16 17 5 18 17 20 14 22
REMARK H PARENT 5 19 17 21 14 23
REMARK Flexibility Score: inf
ROOT
ATOM      1  C   UNL     1     201.109 201.076 170.108  1.00  0.00     0.044 C 
ATOM      2  C   UNL     1     201.860 202.364 169.934  1.00  0.00    -0.047 A 
ATOM      3  C   UNL     1     203.185 202.350 169.486  1.00  0.00     0.016 A 
ATOM      4  C   UNL     1     203.890 203.551 169.295  1.00  0.00     0.038 A 
ATOM      5  C   UNL     1     203.258 204.789 169.556  1.00  0.00     0.076 A 
ATOM      6  C   UNL     1     201.883 204.795 169.913  1.00  0.00     0.127 A 
ATOM      7  C   UNL     1     201.212 203.587 170.122  1.00  0.00     0.050 A 
ATOM      8  C   UNL     1     204.079 206.030 169.496  1.00  0.00     0.201 C 
ATOM      9  O   UNL     1     203.701 207.069 170.102  1.00  0.00    -0.288 OA
ATOM     10  C   UNL     1     205.402 206.019 168.821  1.00  0.00     0.076 A 
ATOM     11  C   UNL     1     205.999 204.781 168.501  1.00  0.00     0.041 A 
ATOM     12  C   UNL     1     205.291 203.519 168.809  1.00  0.00     0.194 C 
ATOM     13  O   UNL     1     205.874 202.413 168.639  1.00  0.00    -0.289 OA
ATOM     14  C   UNL     1     207.268 204.753 167.895  1.00  0.00     0.059 A 
ATOM     15  C   UNL     1     207.940 205.940 167.599  1.00  0.00     0.120 A 
ATOM     16  C   UNL     1     207.348 207.168 167.906  1.00  0.00     0.093 A 
ATOM     17  C   UNL     1     206.087 207.218 168.511  1.00  0.00     0.131 A 
ENDROOT
BRANCH   6  18
ATOM     18  O   UNL     1     201.133 205.969 170.033  1.00  0.00    -0.507 OA
ATOM     19  H   UNL     1     201.308 206.677 170.733  1.00  0.00     0.293 HD
ENDBRANCH   6  18
BRANCH  17  20
ATOM     20  O   UNL     1     205.513 208.458 168.795  1.00  0.00    -0.507 OA
ATOM     21  H   UNL     1     205.561 209.230 168.141  1.00  0.00     0.293 HD
ENDBRANCH  17  20
BRANCH  15  22
ATOM     22  O   UNL     1     209.195 205.886 166.998  1.00  0.00    -0.508 OA
ATOM     23  H   UNL     1     209.544 205.035 166.574  1.00  0.00     0.293 HD
ENDBRANCH  15  22
TORSDOF 3
ENDMDL
MODEL 2
REMARK VINA RESULT:    -6.094     15.305     18.228
REMARK INTER + INTRA:          -6.629
REMARK INTER:                  -6.629
REMARK INTRA:                   0.000
REMARK UNBOUND:                 0.000
REMARK SMILES Cc1cc(O)c2c(c1)C(=O)c1cc(O)cc(O)c1C2=O
REMARK SMILES IDX 1 1 2 2 8 3 7 4 6 5 4 6 3 7 19 8 20 9 18 10 11 11 9 12 10 13
REMARK SMILES IDX 12 14 13 15 15 16 16 17 5 18 17 20 14 22
REMARK H PARENT 5 19 17 21 14 23
REMARK Flexibility Score: inf
ROOT
ATOM      1  C   UNL     1     213.618 203.822 157.635  1.00  0.00     0.044 C 
ATOM      2  C   UNL     1     213.351 204.439 156.293  1.00  0.00    -0.047 A 
ATOM      3  C   UNL     1     213.394 205.828 156.136  1.00  0.00     0.016 A 
ATOM      4  C   UNL     1     213.170 206.415 154.879  1.00  0.00     0.038 A 
ATOM      5  C   UNL     1     212.898 205.598 153.757  1.00  0.00     0.076 A 
ATOM      6  C   UNL     1     212.956 204.186 153.907  1.00  0.00     0.127 A 
ATOM      7  C   UNL     1     213.154 203.627 155.173  1.00  0.00     0.050 A 
ATOM      8  C   UNL     1     212.510 206.256 152.478  1.00  0.00     0.201 C 
ATOM      9  O   UNL     1     211.873 205.611 151.603  1.00  0.00    -0.288 OA
ATOM     10  C   UNL     1     212.769 207.705 152.275  1.00  0.00     0.076 A 
ATOM     11  C   UNL     1     213.107 208.505 153.388  1.00  0.00     0.041 A 
ATOM     12  C   UNL     1     213.232 207.889 154.728  1.00  0.00     0.194 C 
ATOM     13  O   UNL     1     213.410 208.620 155.741  1.00  0.00    -0.289 OA
ATOM     14  C   UNL     1     213.318 209.884 153.218  1.00  0.00     0.059 A 
ATOM     15  C   UNL     1     213.205 210.470 151.956  1.00  0.00     0.120 A 
ATOM     16  C   UNL     1     212.879 209.680 150.850  1.00  0.00     0.093 A 
ATOM     17  C   UNL     1     212.662 208.305 150.998  1.00  0.00     0.131 A 
ENDROOT
BRANCH   6  18
ATOM     18  O   UNL     1     212.861 203.302 152.828  1.00  0.00    -0.507 OA
ATOM     19  H   UNL     1     213.406 203.390 151.982  1.00  0.00     0.293 HD
ENDBRANCH   6  18
BRANCH  17  20
ATOM     20  O   UNL     1     212.351 207.537 149.875  1.00  0.00    -0.507 OA
ATOM     21  H   UNL     1     211.404 207.230 149.685  1.00  0.00     0.293 HD
ENDBRANCH  17  20
BRANCH  15  22
ATOM     22  O   UNL     1     213.419 211.839 151.813  1.00  0.00    -0.508 OA
ATOM     23  H   UNL     1     212.715 212.446 151.410  1.00  0.00     0.293 HD
ENDBRANCH  15  22
TORSDOF 3
ENDMDL
MODEL 3
REMARK VINA RESULT:    -5.968     16.026     17.824
REMARK INTER + INTRA:          -6.491
REMARK INTER:                  -6.491
REMARK INTRA:                   0.000
REMARK UNBOUND:                 0.000
REMARK SMILES Cc1cc(O)c2c(c1)C(=O)c1cc(O)cc(O)c1C2=O
REMARK SMILES IDX 1 1 2 2 8 3 7 4 6 5 4 6 3 7 19 8 20 9 18 10 11 11 9 12 10 13
REMARK SMILES IDX 12 14 13 15 15 16 16 17 5 18 17 20 14 22
REMARK H PARENT 5 19 17 21 14 23
REMARK Flexibility Score: inf
ROOT
ATOM      1  C   UNL     1     212.802 210.463 153.613  1.00  0.00     0.044 C 
ATOM      2  C   UNL     1     212.894 208.965 153.568  1.00  0.00    -0.047 A 
ATOM      3  C   UNL     1     213.502 208.266 154.614  1.00  0.00     0.016 A 
ATOM      4  C   UNL     1     213.571 206.862 154.594  1.00  0.00     0.038 A 
ATOM      5  C   UNL     1     213.021 206.144 153.507  1.00  0.00     0.076 A 
ATOM      6  C   UNL     1     212.317 206.858 152.500  1.00  0.00     0.127 A 
ATOM      7  C   UNL     1     212.286 208.255 152.529  1.00  0.00     0.050 A 
ATOM      8  C   UNL     1     213.250 204.674 153.440  1.00  0.00     0.201 C 
ATOM      9  O   UNL     1     213.158 204.069 152.338  1.00  0.00    -0.288 OA
ATOM     10  C   UNL     1     213.700 203.932 154.646  1.00  0.00     0.076 A 
ATOM     11  C   UNL     1     214.186 204.656 155.756  1.00  0.00     0.041 A 
ATOM     12  C   UNL     1     214.210 206.136 155.718  1.00  0.00     0.194 C 
ATOM     13  O   UNL     1     214.757 206.779 156.656  1.00  0.00    -0.289 OA
ATOM     14  C   UNL     1     214.651 203.967 156.890  1.00  0.00     0.059 A 
ATOM     15  C   UNL     1     214.628 202.572 156.932  1.00  0.00     0.120 A 
ATOM     16  C   UNL     1     214.140 201.852 155.839  1.00  0.00     0.093 A 
ATOM     17  C   UNL     1     213.675 202.519 154.699  1.00  0.00     0.131 A 
ENDROOT
BRANCH   6  18
ATOM     18  O   UNL     1     211.605 206.227 151.477  1.00  0.00    -0.507 OA
ATOM     19  H   UNL     1     211.300 205.264 151.517  1.00  0.00     0.293 HD
ENDBRANCH   6  18
BRANCH  17  20
ATOM     20  O   UNL     1     213.180 201.775 153.626  1.00  0.00    -0.507 OA
ATOM     21  H   UNL     1     212.185 201.661 153.471  1.00  0.00     0.293 HD
ENDBRANCH  17  20
BRANCH  15  22
ATOM     22  O   UNL     1     215.094 201.912 158.067  1.00  0.00    -0.508 OA
ATOM     23  H   UNL     1     215.966 201.397 158.060  1.00  0.00     0.293 HD
ENDBRANCH  15  22
TORSDOF 3
ENDMDL
MODEL 4
REMARK VINA RESULT:    -5.776     15.449     18.496
REMARK INTER + INTRA:          -6.282
REMARK INTER:                  -6.282
REMARK INTRA:                   0.000
REMARK UNBOUND:                 0.000
REMARK SMILES Cc1cc(O)c2c(c1)C(=O)c1cc(O)cc(O)c1C2=O
REMARK SMILES IDX 1 1 2 2 8 3 7 4 6 5 4 6 3 7 19 8 20 9 18 10 11 11 9 12 10 13
REMARK SMILES IDX 12 14 13 15 15 16 16 17 5 18 17 20 14 22
REMARK H PARENT 5 19 17 21 14 23
REMARK Flexibility Score: inf
ROOT
ATOM      1  C   UNL     1     214.555 205.441 158.446  1.00  0.00     0.044 C 
ATOM      2  C   UNL     1     214.225 205.455 156.981  1.00  0.00    -0.047 A 
ATOM      3  C   UNL     1     213.857 206.650 156.355  1.00  0.00     0.016 A 
ATOM      4  C   UNL     1     213.570 206.680 154.979  1.00  0.00     0.038 A 
ATOM      5  C   UNL     1     213.652 205.493 154.216  1.00  0.00     0.076 A 
ATOM      6  C   UNL     1     214.123 204.306 154.840  1.00  0.00     0.127 A 
ATOM      7  C   UNL     1     214.376 204.296 156.215  1.00  0.00     0.050 A 
ATOM      8  C   UNL     1     213.190 205.527 152.800  1.00  0.00     0.201 C 
ATOM      9  O   UNL     1     212.853 204.461 152.218  1.00  0.00    -0.288 OA
ATOM     10  C   UNL     1     213.013 206.828 152.103  1.00  0.00     0.076 A 
ATOM     11  C   UNL     1     212.999 208.017 152.863  1.00  0.00     0.041 A 
ATOM     12  C   UNL     1     213.194 207.959 154.329  1.00  0.00     0.194 C 
ATOM     13  O   UNL     1     213.058 209.004 155.023  1.00  0.00    -0.289 OA
ATOM     14  C   UNL     1     212.795 209.252 152.223  1.00  0.00     0.059 A 
ATOM     15  C   UNL     1     212.614 209.314 150.840  1.00  0.00     0.120 A 
ATOM     16  C   UNL     1     212.636 208.140 150.084  1.00  0.00     0.093 A 
ATOM     17  C   UNL     1     212.835 206.899 150.702  1.00  0.00     0.131 A 
ENDROOT
BRANCH   6  18
ATOM     18  O   UNL     1     214.390 203.130 154.135  1.00  0.00    -0.507 OA
ATOM     19  H   UNL     1     214.436 203.079 153.127  1.00  0.00     0.293 HD
ENDBRANCH   6  18
BRANCH  17  20
ATOM     20  O   UNL     1     212.865 205.743 149.921  1.00  0.00    -0.507 OA
ATOM     21  H   UNL     1     212.883 204.819 150.337  1.00  0.00     0.293 HD
ENDBRANCH  17  20
BRANCH  15  22
ATOM     22  O   UNL     1     212.415 210.550 150.229  1.00  0.00    -0.508 OA
ATOM     23  H   UNL     1     211.557 210.763 149.733  1.00  0.00     0.293 HD
ENDBRANCH  15  22
TORSDOF 3
ENDMDL
MODEL 5
REMARK VINA RESULT:    -5.756     14.919     17.234
REMARK INTER + INTRA:          -6.261
REMARK INTER:                  -6.261
REMARK INTRA:                   0.000
REMARK UNBOUND:                 0.000
REMARK SMILES Cc1cc(O)c2c(c1)C(=O)c1cc(O)cc(O)c1C2=O
REMARK SMILES IDX 1 1 2 2 8 3 7 4 6 5 4 6 3 7 19 8 20 9 18 10 11 11 9 12 10 13
REMARK SMILES IDX 12 14 13 15 15 16 16 17 5 18 17 20 14 22
REMARK H PARENT 5 19 17 21 14 23
REMARK Flexibility Score: inf
ROOT
ATOM      1  C   UNL     1     214.119 201.858 158.028  1.00  0.00     0.044 C 
ATOM      2  C   UNL     1     214.000 203.158 157.286  1.00  0.00    -0.047 A 
ATOM      3  C   UNL     1     213.611 203.168 155.943  1.00  0.00     0.016 A 
ATOM      4  C   UNL     1     213.472 204.381 155.246  1.00  0.00     0.038 A 
ATOM      5  C   UNL     1     213.727 205.606 155.904  1.00  0.00     0.076 A 
ATOM      6  C   UNL     1     214.023 205.589 157.294  1.00  0.00     0.127 A 
ATOM      7  C   UNL     1     214.182 204.369 157.958  1.00  0.00     0.050 A 
ATOM      8  C   UNL     1     213.724 206.858 155.097  1.00  0.00     0.201 C 
ATOM      9  O   UNL     1     214.332 207.880 155.514  1.00  0.00    -0.288 OA
ATOM     10  C   UNL     1     213.107 206.875 153.746  1.00  0.00     0.076 A 
ATOM     11  C   UNL     1     212.792 205.649 153.119  1.00  0.00     0.041 A 
ATOM     12  C   UNL     1     213.047 204.373 153.825  1.00  0.00     0.194 C 
ATOM     13  O   UNL     1     212.883 203.278 153.221  1.00  0.00    -0.289 OA
ATOM     14  C   UNL     1     212.243 205.647 151.825  1.00  0.00     0.059 A 
ATOM     15  C   UNL     1     211.997 206.848 151.156  1.00  0.00     0.120 A 
ATOM     16  C   UNL     1     212.300 208.063 151.776  1.00  0.00     0.093 A 
ATOM     17  C   UNL     1     212.850 208.087 153.063  1.00  0.00     0.131 A 
ENDROOT
BRANCH   6  18
ATOM     18  O   UNL     1     214.131 206.751 158.063  1.00  0.00    -0.507 OA
ATOM     19  H   UNL     1     213.498 206.987 158.815  1.00  0.00     0.293 HD
ENDBRANCH   6  18
BRANCH  17  20
ATOM     20  O   UNL     1     213.130 209.315 153.664  1.00  0.00    -0.507 OA
ATOM     21  H   UNL     1     213.179 209.416 154.671  1.00  0.00     0.293 HD
ENDBRANCH  17  20
BRANCH  15  22
ATOM     22  O   UNL     1     211.451 206.820 149.875  1.00  0.00    -0.508 OA
ATOM     23  H   UNL     1     211.955 207.186 149.076  1.00  0.00     0.293 HD
ENDBRANCH  15  22
TORSDOF 3
ENDMDL
MODEL 6
REMARK VINA RESULT:    -5.601     16.270     18.115
REMARK INTER + INTRA:          -6.092
REMARK INTER:                  -6.092
REMARK INTRA:                   0.000
REMARK UNBOUND:                 0.000
REMARK SMILES Cc1cc(O)c2c(c1)C(=O)c1cc(O)cc(O)c1C2=O
REMARK SMILES IDX 1 1 2 2 8 3 7 4 6 5 4 6 3 7 19 8 20 9 18 10 11 11 9 12 10 13
REMARK SMILES IDX 12 14 13 15 15 16 16 17 5 18 17 20 14 22
REMARK H PARENT 5 19 17 21 14 23
REMARK Flexibility Score: inf
ROOT
ATOM      1  C   UNL     1     214.346 200.766 154.286  1.00  0.00     0.044 C 
ATOM      2  C   UNL     1     214.130 202.247 154.399  1.00  0.00    -0.047 A 
ATOM      3  C   UNL     1     213.800 202.998 153.266  1.00  0.00     0.016 A 
ATOM      4  C   UNL     1     213.571 204.381 153.364  1.00  0.00     0.038 A 
ATOM      5  C   UNL     1     213.674 205.026 154.617  1.00  0.00     0.076 A 
ATOM      6  C   UNL     1     213.911 204.239 155.777  1.00  0.00     0.127 A 
ATOM      7  C   UNL     1     214.161 202.869 155.650  1.00  0.00     0.050 A 
ATOM      8  C   UNL     1     213.582 206.512 154.660  1.00  0.00     0.201 C 
ATOM      9  O   UNL     1     214.066 207.149 155.635  1.00  0.00    -0.288 OA
ATOM     10  C   UNL     1     213.025 207.260 153.503  1.00  0.00     0.076 A 
ATOM     11  C   UNL     1     212.860 206.593 152.270  1.00  0.00     0.041 A 
ATOM     12  C   UNL     1     213.210 205.159 152.154  1.00  0.00     0.194 C 
ATOM     13  O   UNL     1     213.182 204.595 151.026  1.00  0.00    -0.289 OA
ATOM     14  C   UNL     1     212.369 207.296 151.156  1.00  0.00     0.059 A 
ATOM     15  C   UNL     1     212.034 208.647 151.260  1.00  0.00     0.120 A 
ATOM     16  C   UNL     1     212.188 209.309 152.481  1.00  0.00     0.093 A 
ATOM     17  C   UNL     1     212.677 208.627 153.602  1.00  0.00     0.131 A 
ENDROOT
BRANCH   6  18
ATOM     18  O   UNL     1     213.870 204.761 157.073  1.00  0.00    -0.507 OA
ATOM     19  H   UNL     1     214.663 204.766 157.700  1.00  0.00     0.293 HD
ENDBRANCH   6  18
BRANCH  17  20
ATOM     20  O   UNL     1     212.809 209.309 154.813  1.00  0.00    -0.507 OA
ATOM     21  H   UNL     1     212.007 209.518 155.396  1.00  0.00     0.293 HD
ENDBRANCH  17  20
BRANCH  15  22
ATOM     22  O   UNL     1     211.549 209.322 150.143  1.00  0.00    -0.508 OA
ATOM     23  H   UNL     1     210.620 209.144 149.779  1.00  0.00     0.293 HD
ENDBRANCH  15  22
TORSDOF 3
ENDMDL
MODEL 7
REMARK VINA RESULT:    -5.515     14.816     16.976
REMARK INTER + INTRA:          -5.998
REMARK INTER:                  -5.998
REMARK INTRA:                   0.000
REMARK UNBOUND:                 0.000
REMARK SMILES Cc1cc(O)c2c(c1)C(=O)c1cc(O)cc(O)c1C2=O
REMARK SMILES IDX 1 1 2 2 8 3 7 4 6 5 4 6 3 7 19 8 20 9 18 10 11 11 9 12 10 13
REMARK SMILES IDX 12 14 13 15 15 16 16 17 5 18 17 20 14 22
REMARK H PARENT 5 19 17 21 14 23
REMARK Flexibility Score: inf
ROOT
ATOM      1  C   UNL     1     214.772 202.201 159.140  1.00  0.00     0.044 C 
ATOM      2  C   UNL     1     214.347 202.824 157.842  1.00  0.00    -0.047 A 
ATOM      3  C   UNL     1     214.146 204.206 157.759  1.00  0.00     0.016 A 
ATOM      4  C   UNL     1     213.772 204.804 156.543  1.00  0.00     0.038 A 
ATOM      5  C   UNL     1     213.596 204.006 155.389  1.00  0.00     0.076 A 
ATOM      6  C   UNL     1     213.900 202.619 155.461  1.00  0.00     0.127 A 
ATOM      7  C   UNL     1     214.244 202.044 156.688  1.00  0.00     0.050 A 
ATOM      8  C   UNL     1     213.048 204.646 154.161  1.00  0.00     0.201 C 
ATOM      9  O   UNL     1     212.493 203.942 153.274  1.00  0.00    -0.288 OA
ATOM     10  C   UNL     1     213.046 206.125 154.027  1.00  0.00     0.076 A 
ATOM     11  C   UNL     1     213.290 206.919 155.169  1.00  0.00     0.041 A 
ATOM     12  C   UNL     1     213.575 206.272 156.469  1.00  0.00     0.194 C 
ATOM     13  O   UNL     1     213.669 206.974 157.513  1.00  0.00    -0.289 OA
ATOM     14  C   UNL     1     213.255 208.320 155.066  1.00  0.00     0.059 A 
ATOM     15  C   UNL     1     212.990 208.936 153.841  1.00  0.00     0.120 A 
ATOM     16  C   UNL     1     212.757 208.155 152.707  1.00  0.00     0.093 A 
ATOM     17  C   UNL     1     212.785 206.757 152.788  1.00  0.00     0.131 A 
ENDROOT
BRANCH   6  18
ATOM     18  O   UNL     1     213.912 201.784 154.341  1.00  0.00    -0.507 OA
ATOM     19  H   UNL     1     213.079 201.504 153.841  1.00  0.00     0.293 HD
ENDBRANCH   6  18
BRANCH  17  20
ATOM     20  O   UNL     1     212.562 206.001 151.637  1.00  0.00    -0.507 OA
ATOM     21  H   UNL     1     212.631 204.990 151.642  1.00  0.00     0.293 HD
ENDBRANCH  17  20
BRANCH  15  22
ATOM     22  O   UNL     1     212.962 210.327 153.765  1.00  0.00    -0.508 OA
ATOM     23  H   UNL     1     212.134 210.854 154.017  1.00  0.00     0.293 HD
ENDBRANCH  15  22
TORSDOF 3
ENDMDL
MODEL 8
REMARK VINA RESULT:    -5.512     15.228     17.405
REMARK INTER + INTRA:          -5.996
REMARK INTER:                  -5.996
REMARK INTRA:                   0.000
REMARK UNBOUND:                 0.000
REMARK SMILES Cc1cc(O)c2c(c1)C(=O)c1cc(O)cc(O)c1C2=O
REMARK SMILES IDX 1 1 2 2 8 3 7 4 6 5 4 6 3 7 19 8 20 9 18 10 11 11 9 12 10 13
REMARK SMILES IDX 12 14 13 15 15 16 16 17 5 18 17 20 14 22
REMARK H PARENT 5 19 17 21 14 23
REMARK Flexibility Score: inf
ROOT
ATOM      1  C   UNL     1     211.899 206.814 149.876  1.00  0.00     0.044 C 
ATOM      2  C   UNL     1     212.319 206.833 151.317  1.00  0.00    -0.047 A 
ATOM      3  C   UNL     1     212.511 205.633 152.010  1.00  0.00     0.016 A 
ATOM      4  C   UNL     1     212.929 205.639 153.352  1.00  0.00     0.038 A 
ATOM      5  C   UNL     1     213.158 206.867 154.014  1.00  0.00     0.076 A 
ATOM      6  C   UNL     1     213.057 208.076 153.273  1.00  0.00     0.127 A 
ATOM      7  C   UNL     1     212.615 208.045 151.947  1.00  0.00     0.050 A 
ATOM      8  C   UNL     1     213.445 206.842 155.475  1.00  0.00     0.201 C 
ATOM      9  O   UNL     1     213.248 207.871 156.177  1.00  0.00    -0.288 OA
ATOM     10  C   UNL     1     213.852 205.574 156.135  1.00  0.00     0.076 A 
ATOM     11  C   UNL     1     213.684 204.355 155.443  1.00  0.00     0.041 A 
ATOM     12  C   UNL     1     213.139 204.357 154.067  1.00  0.00     0.194 C 
ATOM     13  O   UNL     1     212.872 203.264 153.496  1.00  0.00    -0.289 OA
ATOM     14  C   UNL     1     214.030 203.144 156.068  1.00  0.00     0.059 A 
ATOM     15  C   UNL     1     214.548 203.137 157.365  1.00  0.00     0.120 A 
ATOM     16  C   UNL     1     214.724 204.342 158.049  1.00  0.00     0.093 A 
ATOM     17  C   UNL     1     214.383 205.559 157.446  1.00  0.00     0.131 A 
ENDROOT
BRANCH   6  18
ATOM     18  O   UNL     1     213.420 209.321 153.794  1.00  0.00    -0.507 OA
ATOM     19  H   UNL     1     212.928 209.776 154.551  1.00  0.00     0.293 HD
ENDBRANCH   6  18
BRANCH  17  20
ATOM     20  O   UNL     1     214.582 206.749 158.148  1.00  0.00    -0.507 OA
ATOM     21  H   UNL     1     215.217 206.803 158.935  1.00  0.00     0.293 HD
ENDBRANCH  17  20
BRANCH  15  22
ATOM     22  O   UNL     1     214.884 201.924 157.962  1.00  0.00    -0.508 OA
ATOM     23  H   UNL     1     214.316 201.521 158.698  1.00  0.00     0.293 HD
ENDBRANCH  15  22
TORSDOF 3
ENDMDL
MODEL 9
REMARK VINA RESULT:    -5.095      1.215      5.483
REMARK INTER + INTRA:          -5.542
REMARK INTER:                  -5.542
REMARK INTRA:                   0.000
REMARK UNBOUND:                 0.000
REMARK SMILES Cc1cc(O)c2c(c1)C(=O)c1cc(O)cc(O)c1C2=O
REMARK SMILES IDX 1 1 2 2 8 3 7 4 6 5 4 6 3 7 19 8 20 9 18 10 11 11 9 12 10 13
REMARK SMILES IDX 12 14 13 15 15 16 16 17 5 18 17 20 14 22
REMARK H PARENT 5 19 17 21 14 23
REMARK Flexibility Score: inf
ROOT
ATOM      1  C   UNL     1     209.732 205.598 167.569  1.00  0.00     0.044 C 
ATOM      2  C   UNL     1     208.290 205.714 167.969  1.00  0.00    -0.047 A 
ATOM      3  C   UNL     1     207.492 204.569 168.063  1.00  0.00     0.016 A 
ATOM      4  C   UNL     1     206.147 204.664 168.461  1.00  0.00     0.038 A 
ATOM      5  C   UNL     1     205.590 205.926 168.771  1.00  0.00     0.076 A 
ATOM      6  C   UNL     1     206.436 207.068 168.770  1.00  0.00     0.127 A 
ATOM      7  C   UNL     1     207.763 206.952 168.345  1.00  0.00     0.050 A 
ATOM      8  C   UNL     1     204.127 206.010 169.035  1.00  0.00     0.201 C 
ATOM      9  O   UNL     1     203.522 207.108 168.905  1.00  0.00    -0.288 OA
ATOM     10  C   UNL     1     203.351 204.779 169.339  1.00  0.00     0.076 A 
ATOM     11  C   UNL     1     203.937 203.519 169.090  1.00  0.00     0.041 A 
ATOM     12  C   UNL     1     205.319 203.439 168.566  1.00  0.00     0.194 C 
ATOM     13  O   UNL     1     205.797 202.321 168.227  1.00  0.00    -0.289 OA
ATOM     14  C   UNL     1     203.202 202.346 169.337  1.00  0.00     0.059 A 
ATOM     15  C   UNL     1     201.899 202.416 169.835  1.00  0.00     0.120 A 
ATOM     16  C   UNL     1     201.319 203.661 170.090  1.00  0.00     0.093 A 
ATOM     17  C   UNL     1     202.033 204.841 169.849  1.00  0.00     0.131 A 
ENDROOT
BRANCH   6  18
ATOM     18  O   UNL     1     206.018 208.325 169.217  1.00  0.00    -0.507 OA
ATOM     19  H   UNL     1     205.489 208.973 168.650  1.00  0.00     0.293 HD
ENDBRANCH   6  18
BRANCH  17  20
ATOM     20  O   UNL     1     201.434 206.072 170.125  1.00  0.00    -0.507 OA
ATOM     21  H   UNL     1     200.703 206.164 170.820  1.00  0.00     0.293 HD
ENDBRANCH  17  20
BRANCH  15  22
ATOM     22  O   UNL     1     201.192 201.240 170.072  1.00  0.00    -0.508 OA
ATOM     23  H   UNL     1     200.615 200.815 169.356  1.00  0.00     0.293 HD
ENDBRANCH  15  22
TORSDOF 3
ENDMDL
