MODEL 1
REMARK VINA RESULT:     0.033      0.000      0.000
REMARK INTER + INTRA:          -0.553
REMARK INTER:                   0.058
REMARK INTRA:                  -0.611
REMARK UNBOUND:                -0.611
REMARK SMILES CCCCCCC=CCCCCCCCC(=O)[O-]
REMARK SMILES IDX 10 1 11 2 12 3 13 4 14 5 15 6 16 7 17 8 18 9 9 10 8 11 7 12
REMARK SMILES IDX 6 13 5 14 4 15 3 16 2 17 1 18
REMARK H PARENT
REMARK Flexibility Score: inf
ROOT
ATOM      1  C   UNL     1     136.463 127.342 128.899  1.00  0.00     0.004 C 
ENDROOT
BRANCH   1   2
ATOM      2  C   UNL     1     135.309 128.101 129.584  1.00  0.00     0.000 C 
BRANCH   2   3
ATOM      3  C   UNL     1     134.145 128.496 128.658  1.00  0.00     0.000 C 
BRANCH   3   4
ATOM      4  C   UNL     1     133.989 130.017 128.510  1.00  0.00     0.000 C 
BRANCH   4   5
ATOM      5  C   UNL     1     133.639 130.395 127.065  1.00  0.00     0.006 C 
BRANCH   5   6
ATOM      6  C   UNL     1     132.301 129.777 126.646  1.00  0.00     0.053 C 
BRANCH   6   7
ATOM      7  C   UNL     1     131.692 130.559 125.524  1.00  0.00     0.041 C 
ATOM      8  O   UNL     1     132.200 131.654 125.167  1.00  0.00    -0.550 OA
ATOM      9  O   UNL     1     130.535 130.104 124.907  1.00  0.00    -0.550 OA
ENDBRANCH   6   7
ENDBRANCH   5   6
ENDBRANCH   4   5
ENDBRANCH   3   4
ENDBRANCH   2   3
ENDBRANCH   1   2
BRANCH   1  10
ATOM     10  C   UNL     1     137.492 126.732 129.867  1.00  0.00     0.027 C 
BRANCH  10  11
ATOM     11  C   UNL     1     137.801 127.654 131.021  1.00  0.00    -0.031 C 
ATOM     12  C   UNL     1     138.939 128.360 131.156  1.00  0.00    -0.031 C 
BRANCH  12  13
ATOM     13  C   UNL     1     140.127 128.262 130.231  1.00  0.00     0.027 C 
BRANCH  13  14
ATOM     14  C   UNL     1     141.455 128.348 130.996  1.00  0.00     0.004 C 
BRANCH  14  15
ATOM     15  C   UNL     1     142.653 127.932 130.125  1.00  0.00     0.000 C 
BRANCH  15  16
ATOM     16  C   UNL     1     142.547 128.442 128.676  1.00  0.00    -0.000 C 
BRANCH  16  17
ATOM     17  C   UNL     1     143.876 128.470 127.903  1.00  0.00    -0.003 C 
ATOM     18  C   UNL     1     143.711 128.887 126.441  1.00  0.00     0.004 C 
ENDBRANCH  16  17
ENDBRANCH  15  16
ENDBRANCH  14  15
ENDBRANCH  13  14
ENDBRANCH  12  13
ENDBRANCH  10  11
ENDBRANCH   1  10
TORSDOF 13
ENDMDL
MODEL 2
REMARK VINA RESULT:     0.227      4.622      7.783
REMARK INTER + INTRA:          -0.211
REMARK INTER:                   1.076
REMARK INTRA:                  -1.286
REMARK UNBOUND:                -0.611
REMARK SMILES CCCCCCC=CCCCCCCCC(=O)[O-]
REMARK SMILES IDX 10 1 11 2 12 3 13 4 14 5 15 6 16 7 17 8 18 9 9 10 8 11 7 12
REMARK SMILES IDX 6 13 5 14 4 15 3 16 2 17 1 18
REMARK H PARENT
REMARK Flexibility Score: inf
ROOT
ATOM      1  C   UNL     1     139.586 129.124 130.810  1.00  0.00     0.004 C 
ENDROOT
BRANCH   1   2
ATOM      2  C   UNL     1     140.655 128.479 129.904  1.00  0.00     0.000 C 
BRANCH   2   3
ATOM      3  C   UNL     1     142.026 128.256 130.566  1.00  0.00     0.000 C 
BRANCH   3   4
ATOM      4  C   UNL     1     143.137 127.945 129.552  1.00  0.00     0.000 C 
BRANCH   4   5
ATOM      5  C   UNL     1     142.849 128.614 128.202  1.00  0.00     0.006 C 
BRANCH   5   6
ATOM      6  C   UNL     1     144.099 128.622 127.316  1.00  0.00     0.053 C 
BRANCH   6   7
ATOM      7  C   UNL     1     143.741 128.986 125.909  1.00  0.00     0.041 C 
ATOM      8  O   UNL     1     143.796 130.186 125.533  1.00  0.00    -0.550 OA
ATOM      9  O   UNL     1     143.300 128.008 125.028  1.00  0.00    -0.550 OA
ENDBRANCH   6   7
ENDBRANCH   5   6
ENDBRANCH   4   5
ENDBRANCH   3   4
ENDBRANCH   2   3
ENDBRANCH   1   2
BRANCH   1  10
ATOM     10  C   UNL     1     138.666 128.121 131.527  1.00  0.00     0.027 C 
BRANCH  10  11
ATOM     11  C   UNL     1     138.432 126.877 130.706  1.00  0.00    -0.031 C 
ATOM     12  C   UNL     1     137.295 126.599 130.039  1.00  0.00    -0.031 C 
BRANCH  12  13
ATOM     13  C   UNL     1     136.040 127.436 130.094  1.00  0.00     0.027 C 
BRANCH  13  14
ATOM     14  C   UNL     1     135.815 128.214 128.790  1.00  0.00     0.004 C 
BRANCH  14  15
ATOM     15  C   UNL     1     136.859 127.861 127.717  1.00  0.00     0.000 C 
BRANCH  15  16
ATOM     16  C   UNL     1     137.861 129.002 127.458  1.00  0.00    -0.000 C 
BRANCH  16  17
ATOM     17  C   UNL     1     137.506 129.914 126.271  1.00  0.00    -0.003 C 
ATOM     18  C   UNL     1     138.381 129.669 125.042  1.00  0.00     0.004 C 
ENDBRANCH  16  17
ENDBRANCH  15  16
ENDBRANCH  14  15
ENDBRANCH  13  14
ENDBRANCH  12  13
ENDBRANCH  10  11
ENDBRANCH   1  10
TORSDOF 13
ENDMDL
MODEL 3
REMARK VINA RESULT:     0.231      1.821      3.626
REMARK INTER + INTRA:          -0.204
REMARK INTER:                   0.561
REMARK INTRA:                  -0.765
REMARK UNBOUND:                -0.611
REMARK SMILES CCCCCCC=CCCCCCCCC(=O)[O-]
REMARK SMILES IDX 10 1 11 2 12 3 13 4 14 5 15 6 16 7 17 8 18 9 9 10 8 11 7 12
REMARK SMILES IDX 6 13 5 14 4 15 3 16 2 17 1 18
REMARK H PARENT
REMARK Flexibility Score: inf
ROOT
ATOM      1  C   UNL     1     138.917 128.304 131.505  1.00  0.00     0.004 C 
ENDROOT
BRANCH   1   2
ATOM      2  C   UNL     1     137.577 127.582 131.253  1.00  0.00     0.000 C 
BRANCH   2   3
ATOM      3  C   UNL     1     137.530 126.714 129.984  1.00  0.00     0.000 C 
BRANCH   3   4
ATOM      4  C   UNL     1     136.524 127.230 128.944  1.00  0.00     0.000 C 
BRANCH   4   5
ATOM      5  C   UNL     1     135.410 128.042 129.615  1.00  0.00     0.006 C 
BRANCH   5   6
ATOM      6  C   UNL     1     134.315 128.408 128.608  1.00  0.00     0.053 C 
BRANCH   6   7
ATOM      7  C   UNL     1     134.027 129.875 128.656  1.00  0.00     0.041 C 
ATOM      8  O   UNL     1     134.168 130.582 127.624  1.00  0.00    -0.550 OA
ATOM      9  O   UNL     1     133.652 130.472 129.853  1.00  0.00    -0.550 OA
ENDBRANCH   6   7
ENDBRANCH   5   6
ENDBRANCH   4   5
ENDBRANCH   3   4
ENDBRANCH   2   3
ENDBRANCH   1   2
BRANCH   1  10
ATOM     10  C   UNL     1     139.924 128.204 130.346  1.00  0.00     0.027 C 
BRANCH  10  11
ATOM     11  C   UNL     1     141.350 128.144 130.837  1.00  0.00    -0.031 C 
ATOM     12  C   UNL     1     142.438 128.250 130.052  1.00  0.00    -0.031 C 
BRANCH  12  13
ATOM     13  C   UNL     1     142.406 128.339 128.545  1.00  0.00     0.027 C 
BRANCH  13  14
ATOM     14  C   UNL     1     143.816 128.466 127.950  1.00  0.00     0.004 C 
BRANCH  14  15
ATOM     15  C   UNL     1     143.997 127.590 126.698  1.00  0.00     0.000 C 
BRANCH  15  16
ATOM     16  C   UNL     1     144.033 128.409 125.395  1.00  0.00    -0.000 C 
BRANCH  16  17
ATOM     17  C   UNL     1     144.093 129.934 125.592  1.00  0.00    -0.003 C 
ATOM     18  C   UNL     1     142.963 130.676 124.878  1.00  0.00     0.004 C 
ENDBRANCH  16  17
ENDBRANCH  15  16
ENDBRANCH  14  15
ENDBRANCH  13  14
ENDBRANCH  12  13
ENDBRANCH  10  11
ENDBRANCH   1  10
TORSDOF 13
ENDMDL
MODEL 4
REMARK VINA RESULT:     0.235      3.807      8.336
REMARK INTER + INTRA:          -0.197
REMARK INTER:                   0.465
REMARK INTRA:                  -0.662
REMARK UNBOUND:                -0.611
REMARK SMILES CCCCCCC=CCCCCCCCC(=O)[O-]
REMARK SMILES IDX 10 1 11 2 12 3 13 4 14 5 15 6 16 7 17 8 18 9 9 10 8 11 7 12
REMARK SMILES IDX 6 13 5 14 4 15 3 16 2 17 1 18
REMARK H PARENT
REMARK Flexibility Score: inf
ROOT
ATOM      1  C   UNL     1     141.347 128.111 130.612  1.00  0.00     0.004 C 
ENDROOT
BRANCH   1   2
ATOM      2  C   UNL     1     141.753 128.456 129.164  1.00  0.00     0.000 C 
BRANCH   2   3
ATOM      3  C   UNL     1     143.222 128.167 128.811  1.00  0.00     0.000 C 
BRANCH   3   4
ATOM      4  C   UNL     1     143.670 128.854 127.512  1.00  0.00     0.000 C 
BRANCH   4   5
ATOM      5  C   UNL     1     144.067 127.818 126.453  1.00  0.00     0.006 C 
BRANCH   5   6
ATOM      6  C   UNL     1     144.120 128.451 125.059  1.00  0.00     0.053 C 
BRANCH   6   7
ATOM      7  C   UNL     1     143.057 129.494 124.917  1.00  0.00     0.041 C 
ATOM      8  O   UNL     1     143.368 130.714 124.880  1.00  0.00    -0.550 OA
ATOM      9  O   UNL     1     141.720 129.123 124.875  1.00  0.00    -0.550 OA
ENDBRANCH   6   7
ENDBRANCH   5   6
ENDBRANCH   4   5
ENDBRANCH   3   4
ENDBRANCH   2   3
ENDBRANCH   1   2
BRANCH   1  10
ATOM     10  C   UNL     1     139.840 128.229 130.899  1.00  0.00     0.027 C 
BRANCH  10  11
ATOM     11  C   UNL     1     139.057 128.626 129.672  1.00  0.00    -0.031 C 
ATOM     12  C   UNL     1     138.050 127.910 129.138  1.00  0.00    -0.031 C 
BRANCH  12  13
ATOM     13  C   UNL     1     137.615 126.547 129.619  1.00  0.00     0.027 C 
BRANCH  13  14
ATOM     14  C   UNL     1     136.631 126.644 130.795  1.00  0.00     0.004 C 
BRANCH  14  15
ATOM     15  C   UNL     1     136.020 128.050 130.924  1.00  0.00     0.000 C 
BRANCH  15  16
ATOM     16  C   UNL     1     134.562 128.117 130.435  1.00  0.00    -0.000 C 
BRANCH  16  17
ATOM     17  C   UNL     1     134.273 129.235 129.418  1.00  0.00    -0.003 C 
ATOM     18  C   UNL     1     133.838 128.707 128.051  1.00  0.00     0.004 C 
ENDBRANCH  16  17
ENDBRANCH  15  16
ENDBRANCH  14  15
ENDBRANCH  13  14
ENDBRANCH  12  13
ENDBRANCH  10  11
ENDBRANCH   1  10
TORSDOF 13
ENDMDL
MODEL 5
REMARK VINA RESULT:     0.328      4.359      9.161
REMARK INTER + INTRA:          -0.033
REMARK INTER:                   0.495
REMARK INTRA:                  -0.528
REMARK UNBOUND:                -0.611
REMARK SMILES CCCCCCC=CCCCCCCCC(=O)[O-]
REMARK SMILES IDX 10 1 11 2 12 3 13 4 14 5 15 6 16 7 17 8 18 9 9 10 8 11 7 12
REMARK SMILES IDX 6 13 5 14 4 15 3 16 2 17 1 18
REMARK H PARENT
REMARK Flexibility Score: inf
ROOT
ATOM      1  C   UNL     1     138.336 128.135 131.261  1.00  0.00     0.004 C 
ENDROOT
BRANCH   1   2
ATOM      2  C   UNL     1     139.524 128.091 130.278  1.00  0.00     0.000 C 
BRANCH   2   3
ATOM      3  C   UNL     1     140.822 128.740 130.793  1.00  0.00     0.000 C 
BRANCH   3   4
ATOM      4  C   UNL     1     142.087 128.071 130.234  1.00  0.00     0.000 C 
BRANCH   4   5
ATOM      5  C   UNL     1     142.354 128.520 128.792  1.00  0.00     0.006 C 
BRANCH   5   6
ATOM      6  C   UNL     1     143.768 128.131 128.349  1.00  0.00     0.053 C 
BRANCH   6   7
ATOM      7  C   UNL     1     143.976 128.470 126.907  1.00  0.00     0.041 C 
ATOM      8  O   UNL     1     144.073 127.554 126.048  1.00  0.00    -0.550 OA
ATOM      9  O   UNL     1     144.113 129.796 126.516  1.00  0.00    -0.550 OA
ENDBRANCH   6   7
ENDBRANCH   5   6
ENDBRANCH   4   5
ENDBRANCH   3   4
ENDBRANCH   2   3
ENDBRANCH   1   2
BRANCH   1  10
ATOM     10  C   UNL     1     137.151 127.233 130.872  1.00  0.00     0.027 C 
BRANCH  10  11
ATOM     11  C   UNL     1     136.974 127.142 129.376  1.00  0.00    -0.031 C 
ATOM     12  C   UNL     1     135.922 127.635 128.696  1.00  0.00    -0.031 C 
BRANCH  12  13
ATOM     13  C   UNL     1     134.705 128.263 129.331  1.00  0.00     0.027 C 
BRANCH  13  14
ATOM     14  C   UNL     1     134.218 129.487 128.543  1.00  0.00     0.004 C 
BRANCH  14  15
ATOM     15  C   UNL     1     133.109 129.126 127.540  1.00  0.00     0.000 C 
BRANCH  15  16
ATOM     16  C   UNL     1     132.623 130.337 126.722  1.00  0.00    -0.000 C 
BRANCH  16  17
ATOM     17  C   UNL     1     131.749 129.985 125.505  1.00  0.00    -0.003 C 
ATOM     18  C   UNL     1     131.048 131.201 124.898  1.00  0.00     0.004 C 
ENDBRANCH  16  17
ENDBRANCH  15  16
ENDBRANCH  14  15
ENDBRANCH  13  14
ENDBRANCH  12  13
ENDBRANCH  10  11
ENDBRANCH   1  10
TORSDOF 13
ENDMDL
MODEL 6
REMARK VINA RESULT:     0.770      3.047      3.947
REMARK INTER + INTRA:           0.744
REMARK INTER:                   1.782
REMARK INTRA:                  -1.038
REMARK UNBOUND:                -0.611
REMARK SMILES CCCCCCC=CCCCCCCCC(=O)[O-]
REMARK SMILES IDX 10 1 11 2 12 3 13 4 14 5 15 6 16 7 17 8 18 9 9 10 8 11 7 12
REMARK SMILES IDX 6 13 5 14 4 15 3 16 2 17 1 18
REMARK H PARENT
REMARK Flexibility Score: inf
ROOT
ATOM      1  C   UNL     1     138.431 127.545 131.899  1.00  0.00     0.004 C 
ENDROOT
BRANCH   1   2
ATOM      2  C   UNL     1     137.276 127.763 130.900  1.00  0.00     0.000 C 
BRANCH   2   3
ATOM      3  C   UNL     1     137.185 126.722 129.770  1.00  0.00     0.000 C 
BRANCH   3   4
ATOM      4  C   UNL     1     136.280 127.173 128.613  1.00  0.00     0.000 C 
BRANCH   4   5
ATOM      5  C   UNL     1     136.681 128.568 128.116  1.00  0.00     0.006 C 
BRANCH   5   6
ATOM      6  C   UNL     1     137.825 128.480 127.100  1.00  0.00     0.053 C 
BRANCH   6   7
ATOM      7  C   UNL     1     137.801 129.661 126.181  1.00  0.00     0.041 C 
ATOM      8  O   UNL     1     137.025 130.626 126.410  1.00  0.00    -0.550 OA
ATOM      9  O   UNL     1     138.600 129.675 125.046  1.00  0.00    -0.550 OA
ENDBRANCH   6   7
ENDBRANCH   5   6
ENDBRANCH   4   5
ENDBRANCH   3   4
ENDBRANCH   2   3
ENDBRANCH   1   2
BRANCH   1  10
ATOM     10  C   UNL     1     139.699 128.362 131.600  1.00  0.00     0.027 C 
BRANCH  10  11
ATOM     11  C   UNL     1     139.932 128.527 130.118  1.00  0.00    -0.031 C 
ATOM     12  C   UNL     1     141.129 128.423 129.512  1.00  0.00    -0.031 C 
BRANCH  12  13
ATOM     13  C   UNL     1     142.443 128.230 130.230  1.00  0.00     0.027 C 
BRANCH  13  14
ATOM     14  C   UNL     1     143.610 128.056 129.249  1.00  0.00     0.004 C 
BRANCH  14  15
ATOM     15  C   UNL     1     143.289 128.633 127.859  1.00  0.00     0.000 C 
BRANCH  15  16
ATOM     16  C   UNL     1     144.027 127.903 126.722  1.00  0.00    -0.000 C 
BRANCH  16  17
ATOM     17  C   UNL     1     144.111 128.685 125.400  1.00  0.00    -0.003 C 
ATOM     18  C   UNL     1     142.797 129.371 125.024  1.00  0.00     0.004 C 
ENDBRANCH  16  17
ENDBRANCH  15  16
ENDBRANCH  14  15
ENDBRANCH  13  14
ENDBRANCH  12  13
ENDBRANCH  10  11
ENDBRANCH   1  10
TORSDOF 13
ENDMDL
MODEL 7
REMARK VINA RESULT:     0.857      4.341      8.839
REMARK INTER + INTRA:           0.897
REMARK INTER:                   1.782
REMARK INTRA:                  -0.885
REMARK UNBOUND:                -0.611
REMARK SMILES CCCCCCC=CCCCCCCCC(=O)[O-]
REMARK SMILES IDX 10 1 11 2 12 3 13 4 14 5 15 6 16 7 17 8 18 9 9 10 8 11 7 12
REMARK SMILES IDX 6 13 5 14 4 15 3 16 2 17 1 18
REMARK H PARENT
REMARK Flexibility Score: inf
ROOT
ATOM      1  C   UNL     1     137.184 126.630 130.411  1.00  0.00     0.004 C 
ENDROOT
BRANCH   1   2
ATOM      2  C   UNL     1     137.408 127.374 131.743  1.00  0.00     0.000 C 
BRANCH   2   3
ATOM      3  C   UNL     1     138.872 127.735 132.052  1.00  0.00     0.000 C 
BRANCH   3   4
ATOM      4  C   UNL     1     139.214 129.192 131.706  1.00  0.00     0.000 C 
BRANCH   4   5
ATOM      5  C   UNL     1     139.641 129.321 130.238  1.00  0.00     0.006 C 
BRANCH   5   6
ATOM      6  C   UNL     1     140.366 128.057 129.765  1.00  0.00     0.053 C 
BRANCH   6   7
ATOM      7  C   UNL     1     141.839 128.179 129.998  1.00  0.00     0.041 C 
ATOM      8  O   UNL     1     142.310 128.040 131.157  1.00  0.00    -0.550 OA
ATOM      9  O   UNL     1     142.686 128.495 128.944  1.00  0.00    -0.550 OA
ENDBRANCH   6   7
ENDBRANCH   5   6
ENDBRANCH   4   5
ENDBRANCH   3   4
ENDBRANCH   2   3
ENDBRANCH   1   2
BRANCH   1  10
ATOM     10  C   UNL     1     136.111 127.256 129.502  1.00  0.00     0.027 C 
BRANCH  10  11
ATOM     11  C   UNL     1     135.186 128.172 130.263  1.00  0.00    -0.031 C 
ATOM     12  C   UNL     1     134.166 128.861 129.717  1.00  0.00    -0.031 C 
BRANCH  12  13
ATOM     13  C   UNL     1     133.854 128.910 128.241  1.00  0.00     0.027 C 
BRANCH  13  14
ATOM     14  C   UNL     1     132.663 128.011 127.880  1.00  0.00     0.004 C 
BRANCH  14  15
ATOM     15  C   UNL     1     131.958 128.473 126.593  1.00  0.00     0.000 C 
BRANCH  15  16
ATOM     16  C   UNL     1     132.090 129.987 126.348  1.00  0.00    -0.000 C 
BRANCH  16  17
ATOM     17  C   UNL     1     131.749 130.442 124.919  1.00  0.00    -0.003 C 
ATOM     18  C   UNL     1     130.684 131.538 124.875  1.00  0.00     0.004 C 
ENDBRANCH  16  17
ENDBRANCH  15  16
ENDBRANCH  14  15
ENDBRANCH  13  14
ENDBRANCH  12  13
ENDBRANCH  10  11
ENDBRANCH   1  10
TORSDOF 13
ENDMDL
