MODEL 1
REMARK VINA RESULT:    -4.020      0.000      0.000
REMARK INTER + INTRA:          -5.627
REMARK INTER:                  -5.430
REMARK INTRA:                  -0.197
REMARK UNBOUND:                -0.197
REMARK SMILES [NH3+]CCCC[C@H]([NH3+])C(=O)[O-]
REMARK SMILES IDX 4 1 3 2 2 3 1 4 5 8 6 9 7 10 8 14 9 15 10 16
REMARK H PARENT 1 5 1 6 1 7 7 11 7 12 7 13
REMARK Flexibility Score: inf
ROOT
ATOM      1  C   UNL     1     112.901 110.314 123.989  1.00  0.00     0.012 C 
ENDROOT
BRANCH   1   2
ATOM      2  C   UNL     1     113.951 109.847 125.007  1.00  0.00     0.061 C 
BRANCH   2   3
ATOM      3  C   UNL     1     114.314 110.975 125.981  1.00  0.00     0.258 C 
BRANCH   3   4
ATOM      4  N   UNL     1     113.282 112.011 125.989  1.00  0.00    -0.358 N 
ATOM      5  H   UNL     1     113.647 112.885 125.543  1.00  0.00     0.344 HD
ATOM      6  H   UNL     1     113.016 112.223 126.978  1.00  0.00     0.344 HD
ATOM      7  H   UNL     1     112.435 111.679 125.473  1.00  0.00     0.344 HD
ENDBRANCH   3   4
ENDBRANCH   2   3
ENDBRANCH   1   2
BRANCH   1   8
ATOM      8  C   UNL     1     112.249 109.158 123.202  1.00  0.00     0.072 C 
BRANCH   8   9
ATOM      9  C   UNL     1     110.870 108.664 123.713  1.00  0.00     0.227 C 
BRANCH   9  10
ATOM     10  N   UNL     1     110.320 109.544 124.756  1.00  0.00    -0.350 N 
ATOM     11  H   UNL     1     109.879 110.394 124.338  1.00  0.00     0.345 HD
ATOM     12  H   UNL     1     111.088 109.846 125.399  1.00  0.00     0.345 HD
ATOM     13  H   UNL     1     109.609 109.025 125.322  1.00  0.00     0.345 HD
ENDBRANCH   9  10
BRANCH   9  14
ATOM     14  C   UNL     1     110.907 107.220 124.151  1.00  0.00     0.099 C 
ATOM     15  O   UNL     1     109.844 106.566 124.325  1.00  0.00    -0.544 OA
ATOM     16  O   UNL     1     112.131 106.584 124.329  1.00  0.00    -0.544 OA
ENDBRANCH   9  14
ENDBRANCH   8   9
ENDBRANCH   1   8
TORSDOF 7
ENDMDL
MODEL 2
REMARK VINA RESULT:    -3.979      2.334      4.081
REMARK INTER + INTRA:          -5.572
REMARK INTER:                  -5.208
REMARK INTRA:                  -0.364
REMARK UNBOUND:                -0.197
REMARK SMILES [NH3+]CCCC[C@H]([NH3+])C(=O)[O-]
REMARK SMILES IDX 4 1 3 2 2 3 1 4 5 8 6 9 7 10 8 14 9 15 10 16
REMARK H PARENT 1 5 1 6 1 7 7 11 7 12 7 13
REMARK Flexibility Score: inf
ROOT
ATOM      1  C   UNL     1     112.029 108.795 121.323  1.00  0.00     0.012 C 
ENDROOT
BRANCH   1   2
ATOM      2  C   UNL     1     112.892 107.569 120.994  1.00  0.00     0.061 C 
BRANCH   2   3
ATOM      3  C   UNL     1     112.083 106.515 120.226  1.00  0.00     0.258 C 
BRANCH   3   4
ATOM      4  N   UNL     1     110.904 106.103 120.987  1.00  0.00    -0.358 N 
ATOM      5  H   UNL     1     110.319 105.448 120.418  1.00  0.00     0.344 HD
ATOM      6  H   UNL     1     110.334 106.948 121.221  1.00  0.00     0.344 HD
ATOM      7  H   UNL     1     111.196 105.635 121.876  1.00  0.00     0.344 HD
ENDBRANCH   3   4
ENDBRANCH   2   3
ENDBRANCH   1   2
BRANCH   1   8
ATOM      8  C   UNL     1     112.024 109.159 122.822  1.00  0.00     0.072 C 
BRANCH   8   9
ATOM      9  C   UNL     1     110.839 108.615 123.663  1.00  0.00     0.227 C 
BRANCH   9  10
ATOM     10  N   UNL     1     110.454 109.541 124.739  1.00  0.00    -0.350 N 
ATOM     11  H   UNL     1     111.078 109.435 125.570  1.00  0.00     0.345 HD
ATOM     12  H   UNL     1     109.469 109.346 125.032  1.00  0.00     0.345 HD
ATOM     13  H   UNL     1     110.499 110.528 124.394  1.00  0.00     0.345 HD
ENDBRANCH   9  10
BRANCH   9  14
ATOM     14  C   UNL     1     111.099 107.221 124.181  1.00  0.00     0.099 C 
ATOM     15  O   UNL     1     112.209 106.915 124.694  1.00  0.00    -0.544 OA
ATOM     16  O   UNL     1     110.090 106.266 124.128  1.00  0.00    -0.544 OA
ENDBRANCH   9  14
ENDBRANCH   8   9
ENDBRANCH   1   8
TORSDOF 7
ENDMDL
MODEL 3
REMARK VINA RESULT:    -3.964      2.412      3.176
REMARK INTER + INTRA:          -5.552
REMARK INTER:                  -5.304
REMARK INTRA:                  -0.248
REMARK UNBOUND:                -0.197
REMARK SMILES [NH3+]CCCC[C@H]([NH3+])C(=O)[O-]
REMARK SMILES IDX 4 1 3 2 2 3 1 4 5 8 6 9 7 10 8 14 9 15 10 16
REMARK H PARENT 1 5 1 6 1 7 7 11 7 12 7 13
REMARK Flexibility Score: inf
ROOT
ATOM      1  C   UNL     1     112.033 108.442 121.409  1.00  0.00     0.012 C 
ENDROOT
BRANCH   1   2
ATOM      2  C   UNL     1     113.236 107.503 121.234  1.00  0.00     0.061 C 
BRANCH   2   3
ATOM      3  C   UNL     1     114.368 107.872 122.202  1.00  0.00     0.258 C 
BRANCH   3   4
ATOM      4  N   UNL     1     115.375 106.812 122.257  1.00  0.00    -0.358 N 
ATOM      5  H   UNL     1     116.280 107.155 121.858  1.00  0.00     0.344 HD
ATOM      6  H   UNL     1     115.045 105.996 121.692  1.00  0.00     0.344 HD
ATOM      7  H   UNL     1     115.519 106.504 123.246  1.00  0.00     0.344 HD
ENDBRANCH   3   4
ENDBRANCH   2   3
ENDBRANCH   1   2
BRANCH   1   8
ATOM      8  C   UNL     1     111.928 109.049 122.823  1.00  0.00     0.072 C 
BRANCH   8   9
ATOM      9  C   UNL     1     110.716 108.599 123.680  1.00  0.00     0.227 C 
BRANCH   9  10
ATOM     10  N   UNL     1     110.398 109.568 124.739  1.00  0.00    -0.350 N 
ATOM     11  H   UNL     1     109.787 109.141 125.472  1.00  0.00     0.345 HD
ATOM     12  H   UNL     1     109.899 110.389 124.324  1.00  0.00     0.345 HD
ATOM     13  H   UNL     1     111.280 109.916 125.182  1.00  0.00     0.345 HD
ENDBRANCH   9  10
BRANCH   9  14
ATOM     14  C   UNL     1     110.888 107.201 124.224  1.00  0.00     0.099 C 
ATOM     15  O   UNL     1     109.906 106.416 124.321  1.00  0.00    -0.544 OA
ATOM     16  O   UNL     1     112.153 106.753 124.588  1.00  0.00    -0.544 OA
ENDBRANCH   9  14
ENDBRANCH   8   9
ENDBRANCH   1   8
TORSDOF 7
ENDMDL
MODEL 4
REMARK VINA RESULT:    -3.847      4.551      4.989
REMARK INTER + INTRA:          -5.394
REMARK INTER:                  -4.932
REMARK INTRA:                  -0.462
REMARK UNBOUND:                -0.197
REMARK SMILES [NH3+]CCCC[C@H]([NH3+])C(=O)[O-]
REMARK SMILES IDX 4 1 3 2 2 3 1 4 5 8 6 9 7 10 8 14 9 15 10 16
REMARK H PARENT 1 5 1 6 1 7 7 11 7 12 7 13
REMARK Flexibility Score: inf
ROOT
ATOM      1  C   UNL     1     113.692 108.774 122.168  1.00  0.00     0.012 C 
ENDROOT
BRANCH   1   2
ATOM      2  C   UNL     1     114.749 109.516 121.338  1.00  0.00     0.061 C 
BRANCH   2   3
ATOM      3  C   UNL     1     114.099 110.578 120.440  1.00  0.00     0.258 C 
BRANCH   3   4
ATOM      4  N   UNL     1     114.601 110.481 119.070  1.00  0.00    -0.358 N 
ATOM      5  H   UNL     1     113.837 110.706 118.390  1.00  0.00     0.344 HD
ATOM      6  H   UNL     1     114.932 109.505 118.894  1.00  0.00     0.344 HD
ATOM      7  H   UNL     1     115.401 111.140 118.933  1.00  0.00     0.344 HD
ENDBRANCH   3   4
ENDBRANCH   2   3
ENDBRANCH   1   2
BRANCH   1   8
ATOM      8  C   UNL     1     113.311 107.396 121.588  1.00  0.00     0.072 C 
BRANCH   8   9
ATOM      9  C   UNL     1     112.054 107.351 120.681  1.00  0.00     0.227 C 
BRANCH   9  10
ATOM     10  N   UNL     1     111.051 106.394 121.173  1.00  0.00    -0.350 N 
ATOM     11  H   UNL     1     110.640 105.840 120.388  1.00  0.00     0.345 HD
ATOM     12  H   UNL     1     110.281 106.912 121.657  1.00  0.00     0.345 HD
ATOM     13  H   UNL     1     111.488 105.744 121.866  1.00  0.00     0.345 HD
ENDBRANCH   9  10
BRANCH   9  14
ATOM     14  C   UNL     1     112.403 107.110 119.232  1.00  0.00     0.099 C 
ATOM     15  O   UNL     1     112.692 108.068 118.465  1.00  0.00    -0.544 OA
ATOM     16  O   UNL     1     112.447 105.811 118.739  1.00  0.00    -0.544 OA
ENDBRANCH   9  14
ENDBRANCH   8   9
ENDBRANCH   1   8
TORSDOF 7
ENDMDL
MODEL 5
REMARK VINA RESULT:    -3.816      3.146      4.276
REMARK INTER + INTRA:          -5.352
REMARK INTER:                  -5.104
REMARK INTRA:                  -0.248
REMARK UNBOUND:                -0.197
REMARK SMILES [NH3+]CCCC[C@H]([NH3+])C(=O)[O-]
REMARK SMILES IDX 4 1 3 2 2 3 1 4 5 8 6 9 7 10 8 14 9 15 10 16
REMARK H PARENT 1 5 1 6 1 7 7 11 7 12 7 13
REMARK Flexibility Score: inf
ROOT
ATOM      1  C   UNL     1     112.209 106.949 124.262  1.00  0.00     0.012 C 
ENDROOT
BRANCH   1   2
ATOM      2  C   UNL     1     110.817 107.492 123.907  1.00  0.00     0.061 C 
BRANCH   2   3
ATOM      3  C   UNL     1     110.857 109.010 123.690  1.00  0.00     0.258 C 
BRANCH   3   4
ATOM      4  N   UNL     1     110.141 109.710 124.757  1.00  0.00    -0.358 N 
ATOM      5  H   UNL     1     109.165 109.931 124.450  1.00  0.00     0.344 HD
ATOM      6  H   UNL     1     110.638 110.603 124.975  1.00  0.00     0.344 HD
ATOM      7  H   UNL     1     110.114 109.118 125.619  1.00  0.00     0.344 HD
ENDBRANCH   3   4
ENDBRANCH   2   3
ENDBRANCH   1   2
BRANCH   1   8
ATOM      8  C   UNL     1     113.350 107.611 123.461  1.00  0.00     0.072 C 
BRANCH   8   9
ATOM      9  C   UNL     1     113.921 106.797 122.270  1.00  0.00     0.227 C 
BRANCH   9  10
ATOM     10  N   UNL     1     115.373 106.981 122.122  1.00  0.00    -0.350 N 
ATOM     11  H   UNL     1     115.898 106.430 122.838  1.00  0.00     0.345 HD
ATOM     12  H   UNL     1     115.611 107.993 122.237  1.00  0.00     0.345 HD
ATOM     13  H   UNL     1     115.675 106.685 121.165  1.00  0.00     0.345 HD
ENDBRANCH   9  10
BRANCH   9  14
ATOM     14  C   UNL     1     113.181 107.072 120.983  1.00  0.00     0.099 C 
ATOM     15  O   UNL     1     112.981 106.156 120.141  1.00  0.00    -0.544 OA
ATOM     16  O   UNL     1     112.676 108.343 120.735  1.00  0.00    -0.544 OA
ENDBRANCH   9  14
ENDBRANCH   8   9
ENDBRANCH   1   8
TORSDOF 7
ENDMDL
MODEL 6
REMARK VINA RESULT:    -3.798      5.168      6.083
REMARK INTER + INTRA:          -5.327
REMARK INTER:                  -4.903
REMARK INTRA:                  -0.424
REMARK UNBOUND:                -0.197
REMARK SMILES [NH3+]CCCC[C@H]([NH3+])C(=O)[O-]
REMARK SMILES IDX 4 1 3 2 2 3 1 4 5 8 6 9 7 10 8 14 9 15 10 16
REMARK H PARENT 1 5 1 6 1 7 7 11 7 12 7 13
REMARK Flexibility Score: inf
ROOT
ATOM      1  C   UNL     1     113.142 109.121 120.090  1.00  0.00     0.012 C 
ENDROOT
BRANCH   1   2
ATOM      2  C   UNL     1     112.122 109.827 119.185  1.00  0.00     0.061 C 
BRANCH   2   3
ATOM      3  C   UNL     1     112.761 110.243 117.854  1.00  0.00     0.258 C 
BRANCH   3   4
ATOM      4  N   UNL     1     112.794 109.120 116.917  1.00  0.00    -0.358 N 
ATOM      5  H   UNL     1     113.620 108.509 117.116  1.00  0.00     0.344 HD
ATOM      6  H   UNL     1     112.875 109.489 115.942  1.00  0.00     0.344 HD
ATOM      7  H   UNL     1     111.914 108.560 116.995  1.00  0.00     0.344 HD
ENDBRANCH   3   4
ENDBRANCH   2   3
ENDBRANCH   1   2
BRANCH   1   8
ATOM      8  C   UNL     1     112.532 107.983 120.934  1.00  0.00     0.072 C 
BRANCH   8   9
ATOM      9  C   UNL     1     111.514 107.059 120.217  1.00  0.00     0.227 C 
BRANCH   9  10
ATOM     10  N   UNL     1     110.849 106.138 121.152  1.00  0.00    -0.350 N 
ATOM     11  H   UNL     1     110.338 105.384 120.640  1.00  0.00     0.345 HD
ATOM     12  H   UNL     1     110.164 106.669 121.737  1.00  0.00     0.345 HD
ATOM     13  H   UNL     1     111.555 105.707 121.792  1.00  0.00     0.345 HD
ENDBRANCH   9  10
BRANCH   9  14
ATOM     14  C   UNL     1     112.129 106.331 119.046  1.00  0.00     0.099 C 
ATOM     15  O   UNL     1     113.112 105.558 119.205  1.00  0.00    -0.544 OA
ATOM     16  O   UNL     1     111.584 106.482 117.776  1.00  0.00    -0.544 OA
ENDBRANCH   9  14
ENDBRANCH   8   9
ENDBRANCH   1   8
TORSDOF 7
ENDMDL
MODEL 7
REMARK VINA RESULT:    -3.789      2.528      3.187
REMARK INTER + INTRA:          -5.316
REMARK INTER:                  -4.784
REMARK INTRA:                  -0.532
REMARK UNBOUND:                -0.197
REMARK SMILES [NH3+]CCCC[C@H]([NH3+])C(=O)[O-]
REMARK SMILES IDX 4 1 3 2 2 3 1 4 5 8 6 9 7 10 8 14 9 15 10 16
REMARK H PARENT 1 5 1 6 1 7 7 11 7 12 7 13
REMARK Flexibility Score: inf
ROOT
ATOM      1  C   UNL     1     112.340 109.801 121.806  1.00  0.00     0.012 C 
ENDROOT
BRANCH   1   2
ATOM      2  C   UNL     1     111.021 110.299 122.415  1.00  0.00     0.061 C 
BRANCH   2   3
ATOM      3  C   UNL     1     111.150 110.484 123.933  1.00  0.00     0.258 C 
BRANCH   3   4
ATOM      4  N   UNL     1     110.323 109.513 124.649  1.00  0.00    -0.358 N 
ATOM      5  H   UNL     1     110.583 109.497 125.663  1.00  0.00     0.344 HD
ATOM      6  H   UNL     1     110.482 108.562 124.245  1.00  0.00     0.344 HD
ATOM      7  H   UNL     1     109.311 109.759 124.548  1.00  0.00     0.344 HD
ENDBRANCH   3   4
ENDBRANCH   2   3
ENDBRANCH   1   2
BRANCH   1   8
ATOM      8  C   UNL     1     112.193 108.488 121.011  1.00  0.00     0.072 C 
BRANCH   8   9
ATOM      9  C   UNL     1     112.212 107.174 121.836  1.00  0.00     0.227 C 
BRANCH   9  10
ATOM     10  N   UNL     1     110.855 106.692 122.138  1.00  0.00    -0.350 N 
ATOM     11  H   UNL     1     110.236 107.475 122.445  1.00  0.00     0.345 HD
ATOM     12  H   UNL     1     110.900 105.980 122.903  1.00  0.00     0.345 HD
ATOM     13  H   UNL     1     110.443 106.233 121.293  1.00  0.00     0.345 HD
ENDBRANCH   9  10
BRANCH   9  14
ATOM     14  C   UNL     1     113.062 107.291 123.078  1.00  0.00     0.099 C 
ATOM     15  O   UNL     1     112.538 107.320 124.224  1.00  0.00    -0.544 OA
ATOM     16  O   UNL     1     114.447 107.330 122.965  1.00  0.00    -0.544 OA
ENDBRANCH   9  14
ENDBRANCH   8   9
ENDBRANCH   1   8
TORSDOF 7
ENDMDL
MODEL 8
REMARK VINA RESULT:    -3.745      3.764      4.538
REMARK INTER + INTRA:          -5.256
REMARK INTER:                  -5.105
REMARK INTRA:                  -0.151
REMARK UNBOUND:                -0.197
REMARK SMILES [NH3+]CCCC[C@H]([NH3+])C(=O)[O-]
REMARK SMILES IDX 4 1 3 2 2 3 1 4 5 8 6 9 7 10 8 14 9 15 10 16
REMARK H PARENT 1 5 1 6 1 7 7 11 7 12 7 13
REMARK Flexibility Score: inf
ROOT
ATOM      1  C   UNL     1     112.773 108.792 122.450  1.00  0.00     0.012 C 
ENDROOT
BRANCH   1   2
ATOM      2  C   UNL     1     111.575 109.691 122.112  1.00  0.00     0.061 C 
BRANCH   2   3
ATOM      3  C   UNL     1     110.827 110.114 123.384  1.00  0.00     0.258 C 
BRANCH   3   4
ATOM      4  N   UNL     1     109.395 109.846 123.262  1.00  0.00    -0.358 N 
ATOM      5  H   UNL     1     108.872 110.741 123.117  1.00  0.00     0.344 HD
ATOM      6  H   UNL     1     109.054 109.395 124.142  1.00  0.00     0.344 HD
ATOM      7  H   UNL     1     109.217 109.199 122.459  1.00  0.00     0.344 HD
ENDBRANCH   3   4
ENDBRANCH   2   3
ENDBRANCH   1   2
BRANCH   1   8
ATOM      8  C   UNL     1     112.941 107.602 121.483  1.00  0.00     0.072 C 
BRANCH   8   9
ATOM      9  C   UNL     1     111.694 107.207 120.648  1.00  0.00     0.227 C 
BRANCH   9  10
ATOM     10  N   UNL     1     110.859 106.213 121.339  1.00  0.00    -0.350 N 
ATOM     11  H   UNL     1     109.963 106.638 121.670  1.00  0.00     0.345 HD
ATOM     12  H   UNL     1     111.377 105.836 122.166  1.00  0.00     0.345 HD
ATOM     13  H   UNL     1     110.649 105.415 120.697  1.00  0.00     0.345 HD
ENDBRANCH   9  10
BRANCH   9  14
ATOM     14  C   UNL     1     112.059 106.768 119.250  1.00  0.00     0.099 C 
ATOM     15  O   UNL     1     112.414 107.606 118.378  1.00  0.00    -0.544 OA
ATOM     16  O   UNL     1     112.041 105.417 118.925  1.00  0.00    -0.544 OA
ENDBRANCH   9  14
ENDBRANCH   8   9
ENDBRANCH   1   8
TORSDOF 7
ENDMDL
MODEL 9
REMARK VINA RESULT:    -3.718      3.782      4.897
REMARK INTER + INTRA:          -5.220
REMARK INTER:                  -4.629
REMARK INTRA:                  -0.592
REMARK UNBOUND:                -0.197
REMARK SMILES [NH3+]CCCC[C@H]([NH3+])C(=O)[O-]
REMARK SMILES IDX 4 1 3 2 2 3 1 4 5 8 6 9 7 10 8 14 9 15 10 16
REMARK H PARENT 1 5 1 6 1 7 7 11 7 12 7 13
REMARK Flexibility Score: inf
ROOT
ATOM      1  C   UNL     1     112.733 108.491 122.765  1.00  0.00     0.012 C 
ENDROOT
BRANCH   1   2
ATOM      2  C   UNL     1     112.372 107.178 123.475  1.00  0.00     0.061 C 
BRANCH   2   3
ATOM      3  C   UNL     1     110.858 106.932 123.443  1.00  0.00     0.258 C 
BRANCH   3   4
ATOM      4  N   UNL     1     110.480 106.158 122.261  1.00  0.00    -0.358 N 
ATOM      5  H   UNL     1     110.705 106.695 121.391  1.00  0.00     0.344 HD
ATOM      6  H   UNL     1     109.451 105.973 122.287  1.00  0.00     0.344 HD
ATOM      7  H   UNL     1     110.989 105.244 122.253  1.00  0.00     0.344 HD
ENDBRANCH   3   4
ENDBRANCH   2   3
ENDBRANCH   1   2
BRANCH   1   8
ATOM      8  C   UNL     1     113.429 108.283 121.404  1.00  0.00     0.072 C 
BRANCH   8   9
ATOM      9  C   UNL     1     112.567 108.535 120.140  1.00  0.00     0.227 C 
BRANCH   9  10
ATOM     10  N   UNL     1     111.322 109.252 120.454  1.00  0.00    -0.350 N 
ATOM     11  H   UNL     1     111.496 110.275 120.579  1.00  0.00     0.345 HD
ATOM     12  H   UNL     1     110.913 108.872 121.339  1.00  0.00     0.345 HD
ATOM     13  H   UNL     1     110.624 109.109 119.689  1.00  0.00     0.345 HD
ENDBRANCH   9  10
BRANCH   9  14
ATOM     14  C   UNL     1     112.310 107.268 119.361  1.00  0.00     0.099 C 
ATOM     15  O   UNL     1     112.450 106.135 119.898  1.00  0.00    -0.544 OA
ATOM     16  O   UNL     1     111.875 107.344 118.043  1.00  0.00    -0.544 OA
ENDBRANCH   9  14
ENDBRANCH   8   9
ENDBRANCH   1   8
TORSDOF 7
ENDMDL
