MODEL 1
REMARK VINA RESULT:    -4.823      0.000      0.000
REMARK INTER + INTRA:         -10.912
REMARK INTER:                  -8.770
REMARK INTRA:                  -2.142
REMARK UNBOUND:                -2.142
REMARK SMILES CCCCCCCCCCCCCC[C@@H](C)C(=O)[O-]
REMARK SMILES IDX 9 1 10 2 11 3 12 4 13 5 14 6 15 7 16 8 17 9 18 10 19 11 8 12
REMARK SMILES IDX 7 13 6 14 5 15 4 16 3 17 2 18 1 19
REMARK H PARENT
REMARK Flexibility Score: inf
ROOT
ATOM      1  C   UNL     1     -24.628 -29.149   4.330  1.00  0.00     0.000 C 
ENDROOT
BRANCH   1   2
ATOM      2  C   UNL     1     -23.138 -29.515   4.405  1.00  0.00     0.000 C 
BRANCH   2   3
ATOM      3  C   UNL     1     -22.941 -30.865   5.112  1.00  0.00     0.000 C 
BRANCH   3   4
ATOM      4  C   UNL     1     -23.690 -30.948   6.451  1.00  0.00     0.000 C 
BRANCH   4   5
ATOM      5  C   UNL     1     -22.747 -31.148   7.647  1.00  0.00     0.001 C 
BRANCH   5   6
ATOM      6  C   UNL     1     -22.621 -32.637   8.006  1.00  0.00     0.009 C 
BRANCH   6   7
ATOM      7  C   UNL     1     -21.448 -32.923   8.969  1.00  0.00     0.032 C 
ATOM      8  C   UNL     1     -20.334 -31.873   8.858  1.00  0.00     0.014 C 
BRANCH   7   9
ATOM      9  C   UNL     1     -21.955 -32.969  10.384  1.00  0.00     0.044 C 
ATOM     10  O   UNL     1     -21.274 -32.468  11.317  1.00  0.00    -0.550 OA
ATOM     11  O   UNL     1     -23.177 -33.566  10.673  1.00  0.00    -0.550 OA
ENDBRANCH   7   9
ENDBRANCH   6   7
ENDBRANCH   5   6
ENDBRANCH   4   5
ENDBRANCH   3   4
ENDBRANCH   2   3
ENDBRANCH   1   2
BRANCH   1  12
ATOM     12  C   UNL     1     -24.938 -27.767   4.932  1.00  0.00     0.000 C 
BRANCH  12  13
ATOM     13  C   UNL     1     -23.703 -26.940   5.335  1.00  0.00    -0.000 C 
BRANCH  13  14
ATOM     14  C   UNL     1     -23.789 -26.394   6.768  1.00  0.00    -0.000 C 
BRANCH  14  15
ATOM     15  C   UNL     1     -23.863 -27.539   7.788  1.00  0.00    -0.000 C 
BRANCH  15  16
ATOM     16  C   UNL     1     -25.160 -27.522   8.618  1.00  0.00    -0.000 C 
BRANCH  16  17
ATOM     17  C   UNL     1     -25.962 -28.836   8.598  1.00  0.00    -0.000 C 
BRANCH  17  18
ATOM     18  C   UNL     1     -27.313 -28.699   7.883  1.00  0.00    -0.003 C 
ATOM     19  C   UNL     1     -27.424 -29.688   6.726  1.00  0.00     0.004 C 
ENDBRANCH  17  18
ENDBRANCH  16  17
ENDBRANCH  15  16
ENDBRANCH  14  15
ENDBRANCH  13  14
ENDBRANCH  12  13
ENDBRANCH   1  12
TORSDOF 14
ENDMDL
MODEL 2
REMARK VINA RESULT:    -4.798      7.620      9.468
REMARK INTER + INTRA:         -10.868
REMARK INTER:                  -9.586
REMARK INTRA:                  -1.282
REMARK UNBOUND:                -2.142
REMARK SMILES CCCCCCCCCCCCCC[C@@H](C)C(=O)[O-]
REMARK SMILES IDX 9 1 10 2 11 3 12 4 13 5 14 6 15 7 16 8 17 9 18 10 19 11 8 12
REMARK SMILES IDX 7 13 6 14 5 15 4 16 3 17 2 18 1 19
REMARK H PARENT
REMARK Flexibility Score: inf
ROOT
ATOM      1  C   UNL     1     -20.401 -24.601  14.177  1.00  0.00     0.000 C 
ENDROOT
BRANCH   1   2
ATOM      2  C   UNL     1     -18.892 -24.855  14.298  1.00  0.00     0.000 C 
BRANCH   2   3
ATOM      3  C   UNL     1     -18.602 -25.938  15.348  1.00  0.00     0.000 C 
BRANCH   3   4
ATOM      4  C   UNL     1     -19.878 -26.473  16.017  1.00  0.00     0.000 C 
BRANCH   4   5
ATOM      5  C   UNL     1     -20.059 -27.986  15.824  1.00  0.00     0.001 C 
BRANCH   5   6
ATOM      6  C   UNL     1     -21.526 -28.331  15.519  1.00  0.00     0.009 C 
BRANCH   6   7
ATOM      7  C   UNL     1     -22.189 -29.163  16.638  1.00  0.00     0.032 C 
ATOM      8  C   UNL     1     -21.163 -29.941  17.472  1.00  0.00     0.014 C 
BRANCH   7   9
ATOM      9  C   UNL     1     -22.985 -28.258  17.538  1.00  0.00     0.044 C 
ATOM     10  O   UNL     1     -23.133 -28.546  18.754  1.00  0.00    -0.550 OA
ATOM     11  O   UNL     1     -23.562 -27.098  17.034  1.00  0.00    -0.550 OA
ENDBRANCH   7   9
ENDBRANCH   6   7
ENDBRANCH   5   6
ENDBRANCH   4   5
ENDBRANCH   3   4
ENDBRANCH   2   3
ENDBRANCH   1   2
BRANCH   1  12
ATOM     12  C   UNL     1     -20.745 -23.501  13.155  1.00  0.00     0.000 C 
BRANCH  12  13
ATOM     13  C   UNL     1     -19.545 -22.947  12.367  1.00  0.00    -0.000 C 
BRANCH  13  14
ATOM     14  C   UNL     1     -19.600 -21.424  12.182  1.00  0.00    -0.000 C 
BRANCH  14  15
ATOM     15  C   UNL     1     -19.288 -21.035  10.730  1.00  0.00    -0.000 C 
BRANCH  15  16
ATOM     16  C   UNL     1     -19.659 -22.137   9.720  1.00  0.00    -0.000 C 
BRANCH  16  17
ATOM     17  C   UNL     1     -20.661 -21.711   8.632  1.00  0.00    -0.000 C 
BRANCH  17  18
ATOM     18  C   UNL     1     -22.074 -22.262   8.872  1.00  0.00    -0.003 C 
ATOM     19  C   UNL     1     -22.022 -23.625   9.557  1.00  0.00     0.004 C 
ENDBRANCH  17  18
ENDBRANCH  16  17
ENDBRANCH  15  16
ENDBRANCH  14  15
ENDBRANCH  13  14
ENDBRANCH  12  13
ENDBRANCH   1  12
TORSDOF 14
ENDMDL
MODEL 3
REMARK VINA RESULT:    -4.775      7.895      9.714
REMARK INTER + INTRA:         -10.825
REMARK INTER:                  -9.047
REMARK INTRA:                  -1.778
REMARK UNBOUND:                -2.142
REMARK SMILES CCCCCCCCCCCCCC[C@@H](C)C(=O)[O-]
REMARK SMILES IDX 9 1 10 2 11 3 12 4 13 5 14 6 15 7 16 8 17 9 18 10 19 11 8 12
REMARK SMILES IDX 7 13 6 14 5 15 4 16 3 17 2 18 1 19
REMARK H PARENT
REMARK Flexibility Score: inf
ROOT
ATOM      1  C   UNL     1     -18.272 -25.393  14.747  1.00  0.00     0.000 C 
ENDROOT
BRANCH   1   2
ATOM      2  C   UNL     1     -18.542 -26.633  13.883  1.00  0.00     0.000 C 
BRANCH   2   3
ATOM      3  C   UNL     1     -17.596 -26.673  12.673  1.00  0.00     0.000 C 
BRANCH   3   4
ATOM      4  C   UNL     1     -16.490 -25.608  12.748  1.00  0.00     0.000 C 
BRANCH   4   5
ATOM      5  C   UNL     1     -15.568 -25.622  11.521  1.00  0.00     0.001 C 
BRANCH   5   6
ATOM      6  C   UNL     1     -16.361 -25.924  10.239  1.00  0.00     0.009 C 
BRANCH   6   7
ATOM      7  C   UNL     1     -15.818 -27.151   9.476  1.00  0.00     0.032 C 
ATOM      8  C   UNL     1     -16.795 -28.334   9.505  1.00  0.00     0.014 C 
BRANCH   7   9
ATOM      9  C   UNL     1     -15.531 -26.773   8.048  1.00  0.00     0.044 C 
ATOM     10  O   UNL     1     -15.742 -27.598   7.121  1.00  0.00    -0.550 OA
ATOM     11  O   UNL     1     -15.032 -25.512   7.743  1.00  0.00    -0.550 OA
ENDBRANCH   7   9
ENDBRANCH   6   7
ENDBRANCH   5   6
ENDBRANCH   4   5
ENDBRANCH   3   4
ENDBRANCH   2   3
ENDBRANCH   1   2
BRANCH   1  12
ATOM     12  C   UNL     1     -19.512 -24.495  14.914  1.00  0.00     0.000 C 
BRANCH  12  13
ATOM     13  C   UNL     1     -20.672 -24.802  13.950  1.00  0.00    -0.000 C 
BRANCH  13  14
ATOM     14  C   UNL     1     -20.952 -23.658  12.965  1.00  0.00    -0.000 C 
BRANCH  14  15
ATOM     15  C   UNL     1     -19.779 -22.669  12.924  1.00  0.00    -0.000 C 
BRANCH  15  16
ATOM     16  C   UNL     1     -18.879 -22.856  11.688  1.00  0.00    -0.000 C 
BRANCH  16  17
ATOM     17  C   UNL     1     -19.628 -22.938  10.346  1.00  0.00    -0.000 C 
BRANCH  17  18
ATOM     18  C   UNL     1     -20.029 -21.561   9.800  1.00  0.00    -0.003 C 
ATOM     19  C   UNL     1     -21.017 -21.694   8.645  1.00  0.00     0.004 C 
ENDBRANCH  17  18
ENDBRANCH  16  17
ENDBRANCH  15  16
ENDBRANCH  14  15
ENDBRANCH  13  14
ENDBRANCH  12  13
ENDBRANCH   1  12
TORSDOF 14
ENDMDL
MODEL 4
REMARK VINA RESULT:    -4.767      5.142      7.088
REMARK INTER + INTRA:         -10.810
REMARK INTER:                  -9.238
REMARK INTRA:                  -1.572
REMARK UNBOUND:                -2.142
REMARK SMILES CCCCCCCCCCCCCC[C@@H](C)C(=O)[O-]
REMARK SMILES IDX 9 1 10 2 11 3 12 4 13 5 14 6 15 7 16 8 17 9 18 10 19 11 8 12
REMARK SMILES IDX 7 13 6 14 5 15 4 16 3 17 2 18 1 19
REMARK H PARENT
REMARK Flexibility Score: inf
ROOT
ATOM      1  C   UNL     1     -22.874 -25.696   3.702  1.00  0.00     0.000 C 
ENDROOT
BRANCH   1   2
ATOM      2  C   UNL     1     -23.366 -24.953   2.451  1.00  0.00     0.000 C 
BRANCH   2   3
ATOM      3  C   UNL     1     -22.197 -24.640   1.505  1.00  0.00     0.000 C 
BRANCH   3   4
ATOM      4  C   UNL     1     -22.189 -25.537   0.256  1.00  0.00     0.000 C 
BRANCH   4   5
ATOM      5  C   UNL     1     -21.420 -26.849   0.473  1.00  0.00     0.001 C 
BRANCH   5   6
ATOM      6  C   UNL     1     -19.903 -26.604   0.472  1.00  0.00     0.009 C 
BRANCH   6   7
ATOM      7  C   UNL     1     -19.253 -26.877   1.845  1.00  0.00     0.032 C 
ATOM      8  C   UNL     1     -20.013 -27.940   2.649  1.00  0.00     0.014 C 
BRANCH   7   9
ATOM      9  C   UNL     1     -17.827 -27.318   1.652  1.00  0.00     0.044 C 
ATOM     10  O   UNL     1     -17.532 -28.113   0.721  1.00  0.00    -0.550 OA
ATOM     11  O   UNL     1     -16.828 -26.851   2.497  1.00  0.00    -0.550 OA
ENDBRANCH   7   9
ENDBRANCH   6   7
ENDBRANCH   5   6
ENDBRANCH   4   5
ENDBRANCH   3   4
ENDBRANCH   2   3
ENDBRANCH   1   2
BRANCH   1  12
ATOM     12  C   UNL     1     -23.843 -26.799   4.166  1.00  0.00     0.000 C 
BRANCH  12  13
ATOM     13  C   UNL     1     -23.612 -28.180   3.526  1.00  0.00    -0.000 C 
BRANCH  13  14
ATOM     14  C   UNL     1     -24.530 -29.268   4.100  1.00  0.00    -0.000 C 
BRANCH  14  15
ATOM     15  C   UNL     1     -23.916 -29.897   5.359  1.00  0.00    -0.000 C 
BRANCH  15  16
ATOM     16  C   UNL     1     -24.543 -29.368   6.662  1.00  0.00    -0.000 C 
BRANCH  16  17
ATOM     17  C   UNL     1     -25.925 -28.711   6.498  1.00  0.00    -0.000 C 
BRANCH  17  18
ATOM     18  C   UNL     1     -27.084 -29.696   6.705  1.00  0.00    -0.003 C 
ATOM     19  C   UNL     1     -28.377 -29.158   6.101  1.00  0.00     0.004 C 
ENDBRANCH  17  18
ENDBRANCH  16  17
ENDBRANCH  15  16
ENDBRANCH  14  15
ENDBRANCH  13  14
ENDBRANCH  12  13
ENDBRANCH   1  12
TORSDOF 14
ENDMDL
MODEL 5
REMARK VINA RESULT:    -4.663      3.548      5.925
REMARK INTER + INTRA:         -10.622
REMARK INTER:                  -8.350
REMARK INTRA:                  -2.272
REMARK UNBOUND:                -2.142
REMARK SMILES CCCCCCCCCCCCCC[C@@H](C)C(=O)[O-]
REMARK SMILES IDX 9 1 10 2 11 3 12 4 13 5 14 6 15 7 16 8 17 9 18 10 19 11 8 12
REMARK SMILES IDX 7 13 6 14 5 15 4 16 3 17 2 18 1 19
REMARK H PARENT
REMARK Flexibility Score: inf
ROOT
ATOM      1  C   UNL     1     -22.604 -26.277   2.994  1.00  0.00     0.000 C 
ENDROOT
BRANCH   1   2
ATOM      2  C   UNL     1     -23.398 -27.226   3.903  1.00  0.00     0.000 C 
BRANCH   2   3
ATOM      3  C   UNL     1     -23.708 -28.546   3.179  1.00  0.00     0.000 C 
BRANCH   3   4
ATOM      4  C   UNL     1     -24.367 -29.586   4.100  1.00  0.00     0.000 C 
BRANCH   4   5
ATOM      5  C   UNL     1     -23.925 -29.447   5.564  1.00  0.00     0.001 C 
BRANCH   5   6
ATOM      6  C   UNL     1     -25.068 -29.821   6.522  1.00  0.00     0.009 C 
BRANCH   6   7
ATOM      7  C   UNL     1     -26.160 -28.733   6.602  1.00  0.00     0.032 C 
ATOM      8  C   UNL     1     -27.541 -29.261   6.191  1.00  0.00     0.014 C 
BRANCH   7   9
ATOM      9  C   UNL     1     -26.228 -28.187   8.002  1.00  0.00     0.044 C 
ATOM     10  O   UNL     1     -27.239 -28.410   8.719  1.00  0.00    -0.550 OA
ATOM     11  O   UNL     1     -25.179 -27.433   8.513  1.00  0.00    -0.550 OA
ENDBRANCH   7   9
ENDBRANCH   6   7
ENDBRANCH   5   6
ENDBRANCH   4   5
ENDBRANCH   3   4
ENDBRANCH   2   3
ENDBRANCH   1   2
BRANCH   1  12
ATOM     12  C   UNL     1     -22.132 -26.948   1.691  1.00  0.00     0.000 C 
BRANCH  12  13
ATOM     13  C   UNL     1     -20.662 -26.682   1.318  1.00  0.00    -0.000 C 
BRANCH  13  14
ATOM     14  C   UNL     1     -19.669 -27.362   2.272  1.00  0.00    -0.000 C 
BRANCH  14  15
ATOM     15  C   UNL     1     -20.034 -28.838   2.482  1.00  0.00    -0.000 C 
BRANCH  15  16
ATOM     16  C   UNL     1     -20.176 -29.216   3.968  1.00  0.00    -0.000 C 
BRANCH  16  17
ATOM     17  C   UNL     1     -20.731 -30.628   4.229  1.00  0.00    -0.000 C 
BRANCH  17  18
ATOM     18  C   UNL     1     -21.146 -31.354   2.942  1.00  0.00    -0.003 C 
ATOM     19  C   UNL     1     -22.245 -32.376   3.218  1.00  0.00     0.004 C 
ENDBRANCH  17  18
ENDBRANCH  16  17
ENDBRANCH  15  16
ENDBRANCH  14  15
ENDBRANCH  13  14
ENDBRANCH  12  13
ENDBRANCH   1  12
TORSDOF 14
ENDMDL
MODEL 6
REMARK VINA RESULT:    -4.661      8.357     11.042
REMARK INTER + INTRA:         -10.618
REMARK INTER:                  -8.053
REMARK INTRA:                  -2.565
REMARK UNBOUND:                -2.142
REMARK SMILES CCCCCCCCCCCCCC[C@@H](C)C(=O)[O-]
REMARK SMILES IDX 9 1 10 2 11 3 12 4 13 5 14 6 15 7 16 8 17 9 18 10 19 11 8 12
REMARK SMILES IDX 7 13 6 14 5 15 4 16 3 17 2 18 1 19
REMARK H PARENT
REMARK Flexibility Score: inf
ROOT
ATOM      1  C   UNL     1     -19.654 -26.320  15.838  1.00  0.00     0.000 C 
ENDROOT
BRANCH   1   2
ATOM      2  C   UNL     1     -21.149 -26.379  15.494  1.00  0.00     0.000 C 
BRANCH   2   3
ATOM      3  C   UNL     1     -21.561 -25.175  14.633  1.00  0.00     0.000 C 
BRANCH   3   4
ATOM      4  C   UNL     1     -20.372 -24.273  14.267  1.00  0.00     0.000 C 
BRANCH   4   5
ATOM      5  C   UNL     1     -20.613 -23.464  12.984  1.00  0.00     0.001 C 
BRANCH   5   6
ATOM      6  C   UNL     1     -19.337 -22.725  12.551  1.00  0.00     0.009 C 
BRANCH   6   7
ATOM      7  C   UNL     1     -19.373 -22.290  11.070  1.00  0.00     0.032 C 
ATOM      8  C   UNL     1     -20.469 -23.012  10.276  1.00  0.00     0.014 C 
BRANCH   7   9
ATOM      9  C   UNL     1     -19.587 -20.803  10.985  1.00  0.00     0.044 C 
ATOM     10  O   UNL     1     -19.367 -20.074  11.988  1.00  0.00    -0.550 OA
ATOM     11  O   UNL     1     -20.029 -20.225   9.801  1.00  0.00    -0.550 OA
ENDBRANCH   7   9
ENDBRANCH   6   7
ENDBRANCH   5   6
ENDBRANCH   4   5
ENDBRANCH   3   4
ENDBRANCH   2   3
ENDBRANCH   1   2
BRANCH   1  12
ATOM     12  C   UNL     1     -18.902 -27.614  15.474  1.00  0.00     0.000 C 
BRANCH  12  13
ATOM     13  C   UNL     1     -17.422 -27.421  15.097  1.00  0.00    -0.000 C 
BRANCH  13  14
ATOM     14  C   UNL     1     -17.013 -25.944  15.006  1.00  0.00    -0.000 C 
BRANCH  14  15
ATOM     15  C   UNL     1     -16.130 -25.693  13.775  1.00  0.00    -0.000 C 
BRANCH  15  16
ATOM     16  C   UNL     1     -16.937 -25.276  12.532  1.00  0.00    -0.000 C 
BRANCH  16  17
ATOM     17  C   UNL     1     -17.483 -26.444  11.690  1.00  0.00    -0.000 C 
BRANCH  17  18
ATOM     18  C   UNL     1     -18.998 -26.359  11.462  1.00  0.00    -0.003 C 
ATOM     19  C   UNL     1     -19.692 -27.648  11.891  1.00  0.00     0.004 C 
ENDBRANCH  17  18
ENDBRANCH  16  17
ENDBRANCH  15  16
ENDBRANCH  14  15
ENDBRANCH  13  14
ENDBRANCH  12  13
ENDBRANCH   1  12
TORSDOF 14
ENDMDL
MODEL 7
REMARK VINA RESULT:    -4.655      8.642     10.602
REMARK INTER + INTRA:         -10.606
REMARK INTER:                  -9.348
REMARK INTRA:                  -1.259
REMARK UNBOUND:                -2.142
REMARK SMILES CCCCCCCCCCCCCC[C@@H](C)C(=O)[O-]
REMARK SMILES IDX 9 1 10 2 11 3 12 4 13 5 14 6 15 7 16 8 17 9 18 10 19 11 8 12
REMARK SMILES IDX 7 13 6 14 5 15 4 16 3 17 2 18 1 19
REMARK H PARENT
REMARK Flexibility Score: inf
ROOT
ATOM      1  C   UNL     1     -19.974 -27.638  15.664  1.00  0.00     0.000 C 
ENDROOT
BRANCH   1   2
ATOM      2  C   UNL     1     -21.472 -27.791  15.364  1.00  0.00     0.000 C 
BRANCH   2   3
ATOM      3  C   UNL     1     -22.139 -28.740  16.371  1.00  0.00     0.000 C 
BRANCH   3   4
ATOM      4  C   UNL     1     -22.506 -28.043  17.690  1.00  0.00     0.000 C 
BRANCH   4   5
ATOM      5  C   UNL     1     -22.965 -26.591  17.486  1.00  0.00     0.001 C 
BRANCH   5   6
ATOM      6  C   UNL     1     -24.489 -26.517  17.294  1.00  0.00     0.009 C 
BRANCH   6   7
ATOM      7  C   UNL     1     -24.926 -25.300  16.451  1.00  0.00     0.032 C 
ATOM      8  C   UNL     1     -24.038 -25.098  15.216  1.00  0.00     0.014 C 
BRANCH   7   9
ATOM      9  C   UNL     1     -26.356 -25.473  16.018  1.00  0.00     0.044 C 
ATOM     10  O   UNL     1     -26.721 -25.094  14.874  1.00  0.00    -0.550 OA
ATOM     11  O   UNL     1     -27.285 -26.051  16.876  1.00  0.00    -0.550 OA
ENDBRANCH   7   9
ENDBRANCH   6   7
ENDBRANCH   5   6
ENDBRANCH   4   5
ENDBRANCH   3   4
ENDBRANCH   2   3
ENDBRANCH   1   2
BRANCH   1  12
ATOM     12  C   UNL     1     -19.511 -26.170  15.679  1.00  0.00     0.000 C 
BRANCH  12  13
ATOM     13  C   UNL     1     -20.331 -25.220  14.786  1.00  0.00    -0.000 C 
BRANCH  13  14
ATOM     14  C   UNL     1     -19.465 -24.171  14.073  1.00  0.00    -0.000 C 
BRANCH  14  15
ATOM     15  C   UNL     1     -20.335 -23.202  13.260  1.00  0.00    -0.000 C 
BRANCH  15  16
ATOM     16  C   UNL     1     -19.784 -22.942  11.846  1.00  0.00    -0.000 C 
BRANCH  16  17
ATOM     17  C   UNL     1     -19.252 -21.517  11.608  1.00  0.00    -0.000 C 
BRANCH  17  18
ATOM     18  C   UNL     1     -19.538 -21.002  10.190  1.00  0.00    -0.003 C 
ATOM     19  C   UNL     1     -19.889 -22.150   9.249  1.00  0.00     0.004 C 
ENDBRANCH  17  18
ENDBRANCH  16  17
ENDBRANCH  15  16
ENDBRANCH  14  15
ENDBRANCH  13  14
ENDBRANCH  12  13
ENDBRANCH   1  12
TORSDOF 14
ENDMDL
MODEL 8
REMARK VINA RESULT:    -4.635      8.122     10.186
REMARK INTER + INTRA:         -10.571
REMARK INTER:                  -8.845
REMARK INTRA:                  -1.726
REMARK UNBOUND:                -2.142
REMARK SMILES CCCCCCCCCCCCCC[C@@H](C)C(=O)[O-]
REMARK SMILES IDX 9 1 10 2 11 3 12 4 13 5 14 6 15 7 16 8 17 9 18 10 19 11 8 12
REMARK SMILES IDX 7 13 6 14 5 15 4 16 3 17 2 18 1 19
REMARK H PARENT
REMARK Flexibility Score: inf
ROOT
ATOM      1  C   UNL     1     -21.291 -24.507  14.013  1.00  0.00     0.000 C 
ENDROOT
BRANCH   1   2
ATOM      2  C   UNL     1     -19.835 -24.021  14.064  1.00  0.00     0.000 C 
BRANCH   2   3
ATOM      3  C   UNL     1     -19.341 -23.624  12.664  1.00  0.00     0.000 C 
BRANCH   3   4
ATOM      4  C   UNL     1     -18.013 -24.301  12.290  1.00  0.00     0.000 C 
BRANCH   4   5
ATOM      5  C   UNL     1     -17.854 -25.689  12.928  1.00  0.00     0.001 C 
BRANCH   5   6
ATOM      6  C   UNL     1     -16.630 -25.731  13.857  1.00  0.00     0.009 C 
BRANCH   6   7
ATOM      7  C   UNL     1     -17.011 -25.931  15.339  1.00  0.00     0.032 C 
ATOM      8  C   UNL     1     -18.083 -27.012  15.525  1.00  0.00     0.014 C 
BRANCH   7   9
ATOM      9  C   UNL     1     -15.786 -26.297  16.132  1.00  0.00     0.044 C 
ATOM     10  O   UNL     1     -14.967 -25.405  16.478  1.00  0.00    -0.550 OA
ATOM     11  O   UNL     1     -15.549 -27.619  16.488  1.00  0.00    -0.550 OA
ENDBRANCH   7   9
ENDBRANCH   6   7
ENDBRANCH   5   6
ENDBRANCH   4   5
ENDBRANCH   3   4
ENDBRANCH   2   3
ENDBRANCH   1   2
BRANCH   1  12
ATOM     12  C   UNL     1     -21.485 -25.893  14.654  1.00  0.00     0.000 C 
BRANCH  12  13
ATOM     13  C   UNL     1     -22.713 -26.018  15.574  1.00  0.00    -0.000 C 
BRANCH  13  14
ATOM     14  C   UNL     1     -22.367 -26.575  16.963  1.00  0.00    -0.000 C 
BRANCH  14  15
ATOM     15  C   UNL     1     -21.438 -27.792  16.851  1.00  0.00    -0.000 C 
BRANCH  15  16
ATOM     16  C   UNL     1     -22.145 -29.119  17.184  1.00  0.00    -0.000 C 
BRANCH  16  17
ATOM     17  C   UNL     1     -22.132 -30.164  16.053  1.00  0.00    -0.000 C 
BRANCH  17  18
ATOM     18  C   UNL     1     -21.287 -29.728  14.848  1.00  0.00    -0.003 C 
ATOM     19  C   UNL     1     -21.562 -30.614  13.636  1.00  0.00     0.004 C 
ENDBRANCH  17  18
ENDBRANCH  16  17
ENDBRANCH  15  16
ENDBRANCH  14  15
ENDBRANCH  13  14
ENDBRANCH  12  13
ENDBRANCH   1  12
TORSDOF 14
ENDMDL
MODEL 9
REMARK VINA RESULT:    -4.635      5.741      8.113
REMARK INTER + INTRA:         -10.570
REMARK INTER:                  -9.078
REMARK INTRA:                  -1.492
REMARK UNBOUND:                -2.142
REMARK SMILES CCCCCCCCCCCCCC[C@@H](C)C(=O)[O-]
REMARK SMILES IDX 9 1 10 2 11 3 12 4 13 5 14 6 15 7 16 8 17 9 18 10 19 11 8 12
REMARK SMILES IDX 7 13 6 14 5 15 4 16 3 17 2 18 1 19
REMARK H PARENT
REMARK Flexibility Score: inf
ROOT
ATOM      1  C   UNL     1     -20.200 -28.509   2.820  1.00  0.00     0.000 C 
ENDROOT
BRANCH   1   2
ATOM      2  C   UNL     1     -19.383 -28.262   1.544  1.00  0.00     0.000 C 
BRANCH   2   3
ATOM      3  C   UNL     1     -18.885 -26.810   1.486  1.00  0.00     0.000 C 
BRANCH   3   4
ATOM      4  C   UNL     1     -19.395 -26.057   0.247  1.00  0.00     0.000 C 
BRANCH   4   5
ATOM      5  C   UNL     1     -20.924 -26.110   0.109  1.00  0.00     0.001 C 
BRANCH   5   6
ATOM      6  C   UNL     1     -21.555 -24.750   0.445  1.00  0.00     0.009 C 
BRANCH   6   7
ATOM      7  C   UNL     1     -22.787 -24.874   1.368  1.00  0.00     0.032 C 
ATOM      8  C   UNL     1     -22.487 -25.688   2.633  1.00  0.00     0.014 C 
BRANCH   7   9
ATOM      9  C   UNL     1     -23.269 -23.503   1.755  1.00  0.00     0.044 C 
ATOM     10  O   UNL     1     -24.497 -23.294   1.944  1.00  0.00    -0.550 OA
ATOM     11  O   UNL     1     -22.366 -22.458   1.907  1.00  0.00    -0.550 OA
ENDBRANCH   7   9
ENDBRANCH   6   7
ENDBRANCH   5   6
ENDBRANCH   4   5
ENDBRANCH   3   4
ENDBRANCH   2   3
ENDBRANCH   1   2
BRANCH   1  12
ATOM     12  C   UNL     1     -21.493 -29.305   2.561  1.00  0.00     0.000 C 
BRANCH  12  13
ATOM     13  C   UNL     1     -21.791 -30.413   3.587  1.00  0.00    -0.000 C 
BRANCH  13  14
ATOM     14  C   UNL     1     -23.233 -30.371   4.113  1.00  0.00    -0.000 C 
BRANCH  14  15
ATOM     15  C   UNL     1     -24.002 -29.186   3.512  1.00  0.00    -0.000 C 
BRANCH  15  16
ATOM     16  C   UNL     1     -24.484 -28.181   4.575  1.00  0.00    -0.000 C 
BRANCH  16  17
ATOM     17  C   UNL     1     -25.877 -28.475   5.161  1.00  0.00    -0.000 C 
BRANCH  17  18
ATOM     18  C   UNL     1     -25.816 -29.102   6.561  1.00  0.00    -0.003 C 
ATOM     19  C   UNL     1     -27.191 -29.598   7.001  1.00  0.00     0.004 C 
ENDBRANCH  17  18
ENDBRANCH  16  17
ENDBRANCH  15  16
ENDBRANCH  14  15
ENDBRANCH  13  14
ENDBRANCH  12  13
ENDBRANCH   1  12
TORSDOF 14
ENDMDL
