MODEL 1
REMARK VINA RESULT:    -2.735      0.000      0.000
REMARK INTER + INTRA:          -2.815
REMARK INTER:                  -2.815
REMARK INTRA:                   0.000
REMARK UNBOUND:                 0.000
REMARK SMILES CC1(C)[C@@H]2CC[C@@](C)(C2)[C@H]1O
REMARK SMILES IDX 1 1 2 2 4 3 5 4 6 5 7 6 9 7 10 8 8 9 3 10 11 11
REMARK H PARENT 11 12
REMARK Flexibility Score: inf
ROOT
ATOM      1  C   UNL     1     122.072 116.419 108.742  1.00  0.00     0.014 C 
ATOM      2  C   UNL     1     121.860 117.921 108.427  1.00  0.00    -0.006 C 
ATOM      3  C   UNL     1     122.590 118.393 107.122  1.00  0.00    -0.002 C 
ATOM      4  C   UNL     1     124.064 117.936 107.103  1.00  0.00     0.005 C 
ATOM      5  C   UNL     1     124.699 118.782 108.217  1.00  0.00     0.010 C 
ATOM      6  C   UNL     1     123.529 119.687 108.671  1.00  0.00    -0.006 C 
ATOM      7  C   UNL     1     122.781 119.880 107.367  1.00  0.00     0.013 C 
ATOM      8  C   UNL     1     122.537 118.827 109.512  1.00  0.00     0.126 C 
ATOM      9  C   UNL     1     123.998 120.987 109.337  1.00  0.00     0.014 C 
ATOM     10  C   UNL     1     120.331 118.145 108.286  1.00  0.00     0.014 C 
ENDROOT
BRANCH   8  11
ATOM     11  O   UNL     1     121.617 119.597 110.255  1.00  0.00    -0.392 OA
ATOM     12  H   UNL     1     120.699 119.288 110.050  1.00  0.00     0.211 HD
ENDBRANCH   8  11
TORSDOF 1
ENDMDL
MODEL 2
REMARK VINA RESULT:    -2.734     12.422     14.955
REMARK INTER + INTRA:          -2.814
REMARK INTER:                  -2.814
REMARK INTRA:                   0.000
REMARK UNBOUND:                 0.000
REMARK SMILES CC1(C)[C@@H]2CC[C@@](C)(C2)[C@H]1O
REMARK SMILES IDX 1 1 2 2 4 3 5 4 6 5 7 6 9 7 10 8 8 9 3 10 11 11
REMARK H PARENT 11 12
REMARK Flexibility Score: inf
ROOT
ATOM      1  C   UNL     1     109.932 115.574 108.734  1.00  0.00     0.014 C 
ATOM      2  C   UNL     1     110.145 114.071 108.427  1.00  0.00    -0.006 C 
ATOM      3  C   UNL     1     109.423 113.593 107.120  1.00  0.00    -0.002 C 
ATOM      4  C   UNL     1     107.949 114.051 107.089  1.00  0.00     0.005 C 
ATOM      5  C   UNL     1     107.306 113.211 108.203  1.00  0.00     0.010 C 
ATOM      6  C   UNL     1     108.473 112.307 108.669  1.00  0.00    -0.006 C 
ATOM      7  C   UNL     1     109.228 112.107 107.371  1.00  0.00     0.013 C 
ATOM      8  C   UNL     1     109.460 113.170 109.512  1.00  0.00     0.126 C 
ATOM      9  C   UNL     1     107.999 111.010 109.338  1.00  0.00     0.014 C 
ATOM     10  C   UNL     1     111.675 113.845 108.296  1.00  0.00     0.014 C 
ENDROOT
BRANCH   8  11
ATOM     11  O   UNL     1     110.375 112.403 110.264  1.00  0.00    -0.392 OA
ATOM     12  H   UNL     1     111.123 112.983 110.552  1.00  0.00     0.211 HD
ENDBRANCH   8  11
TORSDOF 1
ENDMDL
MODEL 3
REMARK VINA RESULT:    -2.707      8.816     10.635
REMARK INTER + INTRA:          -2.786
REMARK INTER:                  -2.786
REMARK INTRA:                   0.000
REMARK UNBOUND:                 0.000
REMARK SMILES CC1(C)[C@@H]2CC[C@@](C)(C2)[C@H]1O
REMARK SMILES IDX 1 1 2 2 4 3 5 4 6 5 7 6 9 7 10 8 8 9 3 10 11 11
REMARK H PARENT 11 12
REMARK Flexibility Score: inf
ROOT
ATOM      1  C   UNL     1     115.473 122.023 108.798  1.00  0.00     0.014 C 
ATOM      2  C   UNL     1     113.968 121.872 108.462  1.00  0.00    -0.006 C 
ATOM      3  C   UNL     1     113.563 122.537 107.102  1.00  0.00    -0.002 C 
ATOM      4  C   UNL     1     114.103 123.980 106.996  1.00  0.00     0.005 C 
ATOM      5  C   UNL     1     113.271 124.734 108.046  1.00  0.00     0.010 C 
ATOM      6  C   UNL     1     112.293 123.647 108.555  1.00  0.00    -0.006 C 
ATOM      7  C   UNL     1     112.084 122.826 107.299  1.00  0.00     0.013 C 
ATOM      8  C   UNL     1     113.080 122.669 109.480  1.00  0.00     0.126 C 
ATOM      9  C   UNL     1     111.009 124.230 109.158  1.00  0.00     0.014 C 
ATOM     10  C   UNL     1     113.662 120.351 108.417  1.00  0.00     0.014 C 
ENDROOT
BRANCH   8  11
ATOM     11  O   UNL     1     112.245 121.844 110.263  1.00  0.00    -0.392 OA
ATOM     12  H   UNL     1     112.782 121.437 110.988  1.00  0.00     0.211 HD
ENDBRANCH   8  11
TORSDOF 1
ENDMDL
MODEL 4
REMARK VINA RESULT:    -2.706      8.682     10.618
REMARK INTER + INTRA:          -2.785
REMARK INTER:                  -2.785
REMARK INTRA:                   0.000
REMARK UNBOUND:                 0.000
REMARK SMILES CC1(C)[C@@H]2CC[C@@](C)(C2)[C@H]1O
REMARK SMILES IDX 1 1 2 2 4 3 5 4 6 5 7 6 9 7 10 8 8 9 3 10 11 11
REMARK H PARENT 11 12
REMARK Flexibility Score: inf
ROOT
ATOM      1  C   UNL     1     116.523 109.973 108.799  1.00  0.00     0.014 C 
ATOM      2  C   UNL     1     118.027 110.129 108.462  1.00  0.00    -0.006 C 
ATOM      3  C   UNL     1     118.433 109.464 107.101  1.00  0.00    -0.002 C 
ATOM      4  C   UNL     1     117.898 108.020 106.997  1.00  0.00     0.005 C 
ATOM      5  C   UNL     1     118.733 107.270 108.046  1.00  0.00     0.010 C 
ATOM      6  C   UNL     1     119.708 108.359 108.554  1.00  0.00    -0.006 C 
ATOM      7  C   UNL     1     119.913 109.181 107.297  1.00  0.00     0.013 C 
ATOM      8  C   UNL     1     118.918 109.335 109.479  1.00  0.00     0.126 C 
ATOM      9  C   UNL     1     120.995 107.781 109.156  1.00  0.00     0.014 C 
ATOM     10  C   UNL     1     118.328 111.650 108.416  1.00  0.00     0.014 C 
ENDROOT
BRANCH   8  11
ATOM     11  O   UNL     1     119.751 110.164 110.261  1.00  0.00    -0.392 OA
ATOM     12  H   UNL     1     120.182 110.834 109.674  1.00  0.00     0.211 HD
ENDBRANCH   8  11
TORSDOF 1
ENDMDL
MODEL 5
REMARK VINA RESULT:    -2.696     12.331     14.080
REMARK INTER + INTRA:          -2.774
REMARK INTER:                  -2.774
REMARK INTRA:                   0.000
REMARK UNBOUND:                 0.000
REMARK SMILES CC1(C)[C@@H]2CC[C@@](C)(C2)[C@H]1O
REMARK SMILES IDX 1 1 2 2 4 3 5 4 6 5 7 6 9 7 10 8 8 9 3 10 11 11
REMARK H PARENT 11 12
REMARK Flexibility Score: inf
ROOT
ATOM      1  C   UNL     1     107.595 114.896 107.612  1.00  0.00     0.014 C 
ATOM      2  C   UNL     1     109.079 114.528 107.363  1.00  0.00    -0.006 C 
ATOM      3  C   UNL     1     109.319 112.988 107.193  1.00  0.00    -0.002 C 
ATOM      4  C   UNL     1     108.638 112.183 108.320  1.00  0.00     0.005 C 
ATOM      5  C   UNL     1     109.468 112.559 109.558  1.00  0.00     0.010 C 
ATOM      6  C   UNL     1     110.579 113.459 108.967  1.00  0.00    -0.006 C 
ATOM      7  C   UNL     1     110.774 112.830 107.602  1.00  0.00     0.013 C 
ATOM      8  C   UNL     1     109.958 114.847 108.621  1.00  0.00     0.126 C 
ATOM      9  C   UNL     1     111.842 113.504 109.836  1.00  0.00     0.014 C 
ATOM     10  C   UNL     1     109.525 115.276 106.078  1.00  0.00     0.014 C 
ENDROOT
BRANCH   8  11
ATOM     11  O   UNL     1     110.922 115.852 108.393  1.00  0.00    -0.392 OA
ATOM     12  H   UNL     1     110.460 116.709 108.217  1.00  0.00     0.211 HD
ENDBRANCH   8  11
TORSDOF 1
ENDMDL
MODEL 6
REMARK VINA RESULT:    -2.694      8.536     10.040
REMARK INTER + INTRA:          -2.773
REMARK INTER:                  -2.773
REMARK INTRA:                   0.000
REMARK UNBOUND:                 0.000
REMARK SMILES CC1(C)[C@@H]2CC[C@@](C)(C2)[C@H]1O
REMARK SMILES IDX 1 1 2 2 4 3 5 4 6 5 7 6 9 7 10 8 8 9 3 10 11 11
REMARK H PARENT 11 12
REMARK Flexibility Score: inf
ROOT
ATOM      1  C   UNL     1     115.011 124.361 107.625  1.00  0.00     0.014 C 
ATOM      2  C   UNL     1     114.602 122.890 107.362  1.00  0.00    -0.006 C 
ATOM      3  C   UNL     1     113.058 122.698 107.163  1.00  0.00    -0.002 C 
ATOM      4  C   UNL     1     112.255 123.398 108.280  1.00  0.00     0.005 C 
ATOM      5  C   UNL     1     112.583 122.551 109.520  1.00  0.00     0.010 C 
ATOM      6  C   UNL     1     113.459 121.415 108.938  1.00  0.00    -0.006 C 
ATOM      7  C   UNL     1     112.849 121.247 107.562  1.00  0.00     0.013 C 
ATOM      8  C   UNL     1     114.872 121.995 108.620  1.00  0.00     0.126 C 
ATOM      9  C   UNL     1     113.450 120.147 109.801  1.00  0.00     0.014 C 
ATOM     10  C   UNL     1     115.358 122.428 106.088  1.00  0.00     0.014 C 
ENDROOT
BRANCH   8  11
ATOM     11  O   UNL     1     115.850 121.001 108.404  1.00  0.00    -0.392 OA
ATOM     12  H   UNL     1     116.662 121.229 108.922  1.00  0.00     0.211 HD
ENDBRANCH   8  11
TORSDOF 1
ENDMDL
MODEL 7
REMARK VINA RESULT:    -2.694      1.633      2.737
REMARK INTER + INTRA:          -2.773
REMARK INTER:                  -2.773
REMARK INTRA:                   0.000
REMARK UNBOUND:                 0.000
REMARK SMILES CC1(C)[C@@H]2CC[C@@](C)(C2)[C@H]1O
REMARK SMILES IDX 1 1 2 2 4 3 5 4 6 5 7 6 9 7 10 8 8 9 3 10 11 11
REMARK H PARENT 11 12
REMARK Flexibility Score: inf
ROOT
ATOM      1  C   UNL     1     124.389 116.983 107.708  1.00  0.00     0.014 C 
ATOM      2  C   UNL     1     122.924 117.396 107.418  1.00  0.00    -0.006 C 
ATOM      3  C   UNL     1     122.739 118.941 107.220  1.00  0.00    -0.002 C 
ATOM      4  C   UNL     1     123.419 119.740 108.352  1.00  0.00     0.005 C 
ATOM      5  C   UNL     1     122.549 119.410 109.574  1.00  0.00     0.010 C 
ATOM      6  C   UNL     1     121.422 118.538 108.969  1.00  0.00    -0.006 C 
ATOM      7  C   UNL     1     121.281 119.152 107.591  1.00  0.00     0.013 C 
ATOM      8  C   UNL     1     122.005 117.125 108.659  1.00  0.00     0.126 C 
ATOM      9  C   UNL     1     120.138 118.548 109.808  1.00  0.00     0.014 C 
ATOM     10  C   UNL     1     122.485 116.644 106.134  1.00  0.00     0.014 C 
ENDROOT
BRANCH   8  11
ATOM     11  O   UNL     1     121.014 116.150 108.421  1.00  0.00    -0.392 OA
ATOM     12  H   UNL     1     121.451 115.308 108.139  1.00  0.00     0.211 HD
ENDBRANCH   8  11
TORSDOF 1
ENDMDL
MODEL 8
REMARK VINA RESULT:    -2.694      8.660     10.244
REMARK INTER + INTRA:          -2.772
REMARK INTER:                  -2.772
REMARK INTRA:                   0.000
REMARK UNBOUND:                 0.000
REMARK SMILES CC1(C)[C@@H]2CC[C@@](C)(C2)[C@H]1O
REMARK SMILES IDX 1 1 2 2 4 3 5 4 6 5 7 6 9 7 10 8 8 9 3 10 11 11
REMARK H PARENT 11 12
REMARK Flexibility Score: inf
ROOT
ATOM      1  C   UNL     1     116.991 107.605 107.676  1.00  0.00     0.014 C 
ATOM      2  C   UNL     1     117.419 109.069 107.409  1.00  0.00    -0.006 C 
ATOM      3  C   UNL     1     118.967 109.246 107.236  1.00  0.00    -0.002 C 
ATOM      4  C   UNL     1     119.745 108.547 108.372  1.00  0.00     0.005 C 
ATOM      5  C   UNL     1     119.403 109.406 109.599  1.00  0.00     0.010 C 
ATOM      6  C   UNL     1     118.548 110.545 108.994  1.00  0.00    -0.006 C 
ATOM      7  C   UNL     1     119.183 110.698 107.627  1.00  0.00     0.013 C 
ATOM      8  C   UNL     1     117.136 109.976 108.657  1.00  0.00     0.126 C 
ATOM      9  C   UNL     1     118.554 111.820 109.848  1.00  0.00     0.014 C 
ATOM     10  C   UNL     1     116.688 109.529 106.119  1.00  0.00     0.014 C 
ENDROOT
BRANCH   8  11
ATOM     11  O   UNL     1     116.170 110.977 108.416  1.00  0.00    -0.392 OA
ATOM     12  H   UNL     1     116.150 111.179 107.447  1.00  0.00     0.211 HD
ENDBRANCH   8  11
TORSDOF 1
ENDMDL
MODEL 9
REMARK VINA RESULT:    -2.555      9.345     10.789
REMARK INTER + INTRA:          -2.629
REMARK INTER:                  -2.629
REMARK INTRA:                   0.000
REMARK UNBOUND:                 0.000
REMARK SMILES CC1(C)[C@@H]2CC[C@@](C)(C2)[C@H]1O
REMARK SMILES IDX 1 1 2 2 4 3 5 4 6 5 7 6 9 7 10 8 8 9 3 10 11 11
REMARK H PARENT 11 12
REMARK Flexibility Score: inf
ROOT
ATOM      1  C   UNL     1     121.028 107.473 107.253  1.00  0.00     0.014 C 
ATOM      2  C   UNL     1     119.717 107.720 108.040  1.00  0.00    -0.006 C 
ATOM      3  C   UNL     1     118.532 108.213 107.139  1.00  0.00    -0.002 C 
ATOM      4  C   UNL     1     118.964 109.382 106.228  1.00  0.00     0.005 C 
ATOM      5  C   UNL     1     119.181 110.530 107.227  1.00  0.00     0.010 C 
ATOM      6  C   UNL     1     118.753 109.900 108.574  1.00  0.00    -0.006 C 
ATOM      7  C   UNL     1     117.652 108.961 108.125  1.00  0.00     0.013 C 
ATOM      8  C   UNL     1     119.874 108.920 109.037  1.00  0.00     0.126 C 
ATOM      9  C   UNL     1     118.322 110.941 109.614  1.00  0.00     0.014 C 
ATOM     10  C   UNL     1     119.337 106.380 108.724  1.00  0.00     0.014 C 
ENDROOT
BRANCH   8  11
ATOM     11  O   UNL     1     119.764 108.542 110.392  1.00  0.00    -0.392 OA
ATOM     12  H   UNL     1     119.359 109.286 110.903  1.00  0.00     0.211 HD
ENDBRANCH   8  11
TORSDOF 1
ENDMDL
