MODEL 1
REMARK VINA RESULT:    -3.819      0.000      0.000
REMARK INTER + INTRA:          -8.616
REMARK INTER:                  -7.392
REMARK INTRA:                  -1.224
REMARK UNBOUND:                -1.224
REMARK SMILES CCCCCC=CCC=CCCCCCCCCOC(C)=O
REMARK SMILES IDX 12 1 11 2 10 3 9 4 8 5 7 6 6 7 5 8 4 9 3 10 2 11 1 12 13 13
REMARK SMILES IDX 14 14 15 15 16 16 17 17 18 18 19 19 20 20 22 21 21 22
REMARK H PARENT
REMARK Flexibility Score: inf
ROOT
ATOM      1  C   UNL     1       3.340  -4.750 -14.977  1.00  0.00     0.004 C 
ENDROOT
BRANCH   1   2
ATOM      2  C   UNL     1       3.425  -3.908 -13.694  1.00  0.00     0.027 C 
BRANCH   2   3
ATOM      3  C   UNL     1       4.327  -2.714 -13.853  1.00  0.00    -0.031 C 
ATOM      4  C   UNL     1       5.610  -2.743 -13.461  1.00  0.00    -0.027 C 
BRANCH   4   5
ATOM      5  C   UNL     1       6.511  -1.557 -13.645  1.00  0.00     0.054 C 
BRANCH   5   6
ATOM      6  C   UNL     1       7.926  -2.019 -13.895  1.00  0.00    -0.027 C 
ATOM      7  C   UNL     1       8.830  -1.369 -14.650  1.00  0.00    -0.031 C 
BRANCH   7   8
ATOM      8  C   UNL     1       8.599  -0.040 -15.325  1.00  0.00     0.027 C 
BRANCH   8   9
ATOM      9  C   UNL     1       9.042  -0.050 -16.797  1.00  0.00     0.004 C 
BRANCH   9  10
ATOM     10  C   UNL     1       8.664   1.254 -17.521  1.00  0.00     0.000 C 
BRANCH  10  11
ATOM     11  C   UNL     1       9.536   2.441 -17.087  1.00  0.00    -0.003 C 
ATOM     12  C   UNL     1       8.754   3.497 -16.307  1.00  0.00     0.004 C 
ENDBRANCH  10  11
ENDBRANCH   9  10
ENDBRANCH   8   9
ENDBRANCH   7   8
ENDBRANCH   5   6
ENDBRANCH   4   5
ENDBRANCH   2   3
ENDBRANCH   1   2
BRANCH   1  13
ATOM     13  C   UNL     1       3.695  -6.227 -14.724  1.00  0.00     0.000 C 
BRANCH  13  14
ATOM     14  C   UNL     1       4.045  -6.506 -13.250  1.00  0.00     0.000 C 
BRANCH  14  15
ATOM     15  C   UNL     1       5.551  -6.685 -12.983  1.00  0.00     0.000 C 
BRANCH  15  16
ATOM     16  C   UNL     1       5.833  -7.401 -11.650  1.00  0.00     0.003 C 
BRANCH  16  17
ATOM     17  C   UNL     1       5.227  -8.814 -11.587  1.00  0.00     0.042 C 
BRANCH  17  18
ATOM     18  C   UNL     1       4.141  -8.970 -10.512  1.00  0.00     0.233 C 
BRANCH  18  19
ATOM     19  O   UNL     1       3.674  -7.702 -10.051  1.00  0.00    -0.466 OA
BRANCH  19  20
ATOM     20  C   UNL     1       2.326  -7.327 -10.056  1.00  0.00     0.302 C 
ATOM     21  O   UNL     1       1.971  -6.197 -10.490  1.00  0.00    -0.253 OA
ATOM     22  C   UNL     1       1.295  -8.298  -9.592  1.00  0.00     0.139 C 
ENDBRANCH  19  20
ENDBRANCH  18  19
ENDBRANCH  17  18
ENDBRANCH  16  17
ENDBRANCH  15  16
ENDBRANCH  14  15
ENDBRANCH  13  14
ENDBRANCH   1  13
TORSDOF 16
ENDMDL
MODEL 2
REMARK VINA RESULT:    -3.769      2.206      2.885
REMARK INTER + INTRA:          -8.518
REMARK INTER:                  -7.613
REMARK INTRA:                  -0.905
REMARK UNBOUND:                -1.224
REMARK SMILES CCCCCC=CCC=CCCCCCCCCOC(C)=O
REMARK SMILES IDX 12 1 11 2 10 3 9 4 8 5 7 6 6 7 5 8 4 9 3 10 2 11 1 12 13 13
REMARK SMILES IDX 14 14 15 15 16 16 17 17 18 18 19 19 20 20 22 21 21 22
REMARK H PARENT
REMARK Flexibility Score: inf
ROOT
ATOM      1  C   UNL     1       7.162  -5.991 -13.401  1.00  0.00     0.004 C 
ENDROOT
BRANCH   1   2
ATOM      2  C   UNL     1       8.673  -6.077 -13.667  1.00  0.00     0.027 C 
BRANCH   2   3
ATOM      3  C   UNL     1       9.281  -4.732 -13.959  1.00  0.00    -0.031 C 
ATOM      4  C   UNL     1       8.592  -3.594 -13.779  1.00  0.00    -0.027 C 
BRANCH   4   5
ATOM      5  C   UNL     1       9.211  -2.254 -14.048  1.00  0.00     0.054 C 
BRANCH   5   6
ATOM      6  C   UNL     1       8.139  -1.248 -14.381  1.00  0.00    -0.027 C 
ATOM      7  C   UNL     1       8.232  -0.303 -15.335  1.00  0.00    -0.031 C 
BRANCH   7   8
ATOM      8  C   UNL     1       9.403  -0.132 -16.271  1.00  0.00     0.027 C 
BRANCH   8   9
ATOM      9  C   UNL     1       8.963   0.308 -17.677  1.00  0.00     0.004 C 
BRANCH   9  10
ATOM     10  C   UNL     1       8.493   1.773 -17.701  1.00  0.00     0.000 C 
BRANCH  10  11
ATOM     11  C   UNL     1       9.427   2.704 -16.913  1.00  0.00    -0.003 C 
ATOM     12  C   UNL     1       8.675   3.791 -16.148  1.00  0.00     0.004 C 
ENDBRANCH  10  11
ENDBRANCH   9  10
ENDBRANCH   8   9
ENDBRANCH   7   8
ENDBRANCH   5   6
ENDBRANCH   4   5
ENDBRANCH   2   3
ENDBRANCH   1   2
BRANCH   1  13
ATOM     13  C   UNL     1       6.787  -6.542 -12.013  1.00  0.00     0.000 C 
BRANCH  13  14
ATOM     14  C   UNL     1       5.419  -7.251 -12.009  1.00  0.00     0.000 C 
BRANCH  14  15
ATOM     15  C   UNL     1       5.317  -8.418 -11.011  1.00  0.00     0.000 C 
BRANCH  15  16
ATOM     16  C   UNL     1       3.884  -8.623 -10.487  1.00  0.00     0.003 C 
BRANCH  16  17
ATOM     17  C   UNL     1       3.587  -7.808  -9.216  1.00  0.00     0.042 C 
BRANCH  17  18
ATOM     18  C   UNL     1       2.652  -8.526  -8.231  1.00  0.00     0.233 C 
BRANCH  18  19
ATOM     19  O   UNL     1       1.325  -8.007  -8.294  1.00  0.00    -0.466 OA
BRANCH  19  20
ATOM     20  C   UNL     1       0.537  -8.039  -9.450  1.00  0.00     0.302 C 
ATOM     21  O   UNL     1       0.343  -9.119 -10.071  1.00  0.00    -0.253 OA
ATOM     22  C   UNL     1      -0.123  -6.788  -9.919  1.00  0.00     0.139 C 
ENDBRANCH  19  20
ENDBRANCH  18  19
ENDBRANCH  17  18
ENDBRANCH  16  17
ENDBRANCH  15  16
ENDBRANCH  14  15
ENDBRANCH  13  14
ENDBRANCH   1  13
TORSDOF 16
ENDMDL
MODEL 3
REMARK VINA RESULT:    -3.766      1.661      3.366
REMARK INTER + INTRA:          -8.512
REMARK INTER:                  -7.459
REMARK INTRA:                  -1.053
REMARK UNBOUND:                -1.224
REMARK SMILES CCCCCC=CCC=CCCCCCCCCOC(C)=O
REMARK SMILES IDX 12 1 11 2 10 3 9 4 8 5 7 6 6 7 5 8 4 9 3 10 2 11 1 12 13 13
REMARK SMILES IDX 14 14 15 15 16 16 17 17 18 18 19 19 20 20 22 21 21 22
REMARK H PARENT
REMARK Flexibility Score: inf
ROOT
ATOM      1  C   UNL     1       7.253  -5.723 -12.614  1.00  0.00     0.004 C 
ENDROOT
BRANCH   1   2
ATOM      2  C   UNL     1       8.445  -5.934 -13.561  1.00  0.00     0.027 C 
BRANCH   2   3
ATOM      3  C   UNL     1       9.139  -4.643 -13.903  1.00  0.00    -0.031 C 
ATOM      4  C   UNL     1       8.488  -3.469 -13.892  1.00  0.00    -0.027 C 
BRANCH   4   5
ATOM      5  C   UNL     1       9.191  -2.182 -14.210  1.00  0.00     0.054 C 
BRANCH   5   6
ATOM      6  C   UNL     1       8.181  -1.085 -14.438  1.00  0.00    -0.027 C 
ATOM      7  C   UNL     1       8.250  -0.158 -15.411  1.00  0.00    -0.031 C 
BRANCH   7   8
ATOM      8  C   UNL     1       9.319  -0.099 -16.474  1.00  0.00     0.027 C 
BRANCH   8   9
ATOM      9  C   UNL     1       8.745   0.247 -17.857  1.00  0.00     0.004 C 
BRANCH   9  10
ATOM     10  C   UNL     1       8.535   1.761 -18.031  1.00  0.00     0.000 C 
BRANCH  10  11
ATOM     11  C   UNL     1       9.458   2.591 -17.126  1.00  0.00    -0.003 C 
ATOM     12  C   UNL     1       8.690   3.506 -16.174  1.00  0.00     0.004 C 
ENDBRANCH  10  11
ENDBRANCH   9  10
ENDBRANCH   8   9
ENDBRANCH   7   8
ENDBRANCH   5   6
ENDBRANCH   4   5
ENDBRANCH   2   3
ENDBRANCH   1   2
BRANCH   1  13
ATOM     13  C   UNL     1       6.278  -6.914 -12.638  1.00  0.00     0.000 C 
BRANCH  13  14
ATOM     14  C   UNL     1       6.124  -7.581 -11.257  1.00  0.00     0.000 C 
BRANCH  14  15
ATOM     15  C   UNL     1       4.756  -8.248 -11.029  1.00  0.00     0.000 C 
BRANCH  15  16
ATOM     16  C   UNL     1       4.009  -7.663  -9.817  1.00  0.00     0.003 C 
BRANCH  16  17
ATOM     17  C   UNL     1       2.860  -6.722 -10.216  1.00  0.00     0.042 C 
BRANCH  17  18
ATOM     18  C   UNL     1       2.626  -6.647 -11.733  1.00  0.00     0.233 C 
BRANCH  18  19
ATOM     19  O   UNL     1       3.095  -5.413 -12.276  1.00  0.00    -0.466 OA
BRANCH  19  20
ATOM     20  C   UNL     1       3.270  -5.188 -13.645  1.00  0.00     0.302 C 
ATOM     21  O   UNL     1       3.514  -6.143 -14.432  1.00  0.00    -0.253 OA
ATOM     22  C   UNL     1       3.111  -3.808 -14.185  1.00  0.00     0.139 C 
ENDBRANCH  19  20
ENDBRANCH  18  19
ENDBRANCH  17  18
ENDBRANCH  16  17
ENDBRANCH  15  16
ENDBRANCH  14  15
ENDBRANCH  13  14
ENDBRANCH   1  13
TORSDOF 16
ENDMDL
MODEL 4
REMARK VINA RESULT:    -3.711      3.784      9.965
REMARK INTER + INTRA:          -8.406
REMARK INTER:                  -7.267
REMARK INTRA:                  -1.139
REMARK UNBOUND:                -1.224
REMARK SMILES CCCCCC=CCC=CCCCCCCCCOC(C)=O
REMARK SMILES IDX 12 1 11 2 10 3 9 4 8 5 7 6 6 7 5 8 4 9 3 10 2 11 1 12 13 13
REMARK SMILES IDX 14 14 15 15 16 16 17 17 18 18 19 19 20 20 22 21 21 22
REMARK H PARENT
REMARK Flexibility Score: inf
ROOT
ATOM      1  C   UNL     1       3.243  -4.499 -13.826  1.00  0.00     0.004 C 
ENDROOT
BRANCH   1   2
ATOM      2  C   UNL     1       4.089  -5.691 -14.299  1.00  0.00     0.027 C 
BRANCH   2   3
ATOM      3  C   UNL     1       4.490  -6.594 -13.163  1.00  0.00    -0.031 C 
ATOM      4  C   UNL     1       5.756  -6.649 -12.720  1.00  0.00    -0.027 C 
BRANCH   4   5
ATOM      5  C   UNL     1       6.144  -7.532 -11.571  1.00  0.00     0.054 C 
BRANCH   5   6
ATOM      6  C   UNL     1       5.068  -8.559 -11.322  1.00  0.00    -0.027 C 
ATOM      7  C   UNL     1       4.124  -8.476 -10.366  1.00  0.00    -0.031 C 
BRANCH   7   8
ATOM      8  C   UNL     1       3.950  -7.312  -9.422  1.00  0.00     0.027 C 
BRANCH   8   9
ATOM      9  C   UNL     1       3.185  -7.707  -8.148  1.00  0.00     0.004 C 
BRANCH   9  10
ATOM     10  C   UNL     1       2.228  -8.886  -8.394  1.00  0.00     0.000 C 
BRANCH  10  11
ATOM     11  C   UNL     1       0.755  -8.451  -8.426  1.00  0.00    -0.003 C 
ATOM     12  C   UNL     1       0.330  -7.893  -9.783  1.00  0.00     0.004 C 
ENDBRANCH  10  11
ENDBRANCH   9  10
ENDBRANCH   8   9
ENDBRANCH   7   8
ENDBRANCH   5   6
ENDBRANCH   4   5
ENDBRANCH   2   3
ENDBRANCH   1   2
BRANCH   1  13
ATOM     13  C   UNL     1       3.969  -3.157 -14.034  1.00  0.00     0.000 C 
BRANCH  13  14
ATOM     14  C   UNL     1       5.256  -3.045 -13.193  1.00  0.00     0.000 C 
BRANCH  14  15
ATOM     15  C   UNL     1       6.253  -1.990 -13.706  1.00  0.00     0.000 C 
BRANCH  15  16
ATOM     16  C   UNL     1       7.678  -2.552 -13.860  1.00  0.00     0.003 C 
BRANCH  16  17
ATOM     17  C   UNL     1       8.732  -1.458 -14.102  1.00  0.00     0.042 C 
BRANCH  17  18
ATOM     18  C   UNL     1       8.366  -0.492 -15.240  1.00  0.00     0.233 C 
BRANCH  18  19
ATOM     19  O   UNL     1       9.458  -0.302 -16.138  1.00  0.00    -0.466 OA
BRANCH  19  20
ATOM     20  C   UNL     1       9.554   0.779 -17.021  1.00  0.00     0.302 C 
ATOM     21  O   UNL     1      10.424   1.676 -16.853  1.00  0.00    -0.253 OA
ATOM     22  C   UNL     1       8.650   0.839 -18.204  1.00  0.00     0.139 C 
ENDBRANCH  19  20
ENDBRANCH  18  19
ENDBRANCH  17  18
ENDBRANCH  16  17
ENDBRANCH  15  16
ENDBRANCH  14  15
ENDBRANCH  13  14
ENDBRANCH   1  13
TORSDOF 16
ENDMDL
MODEL 5
REMARK VINA RESULT:    -3.606      3.767      9.170
REMARK INTER + INTRA:          -8.202
REMARK INTER:                  -6.848
REMARK INTRA:                  -1.354
REMARK UNBOUND:                -1.224
REMARK SMILES CCCCCC=CCC=CCCCCCCCCOC(C)=O
REMARK SMILES IDX 12 1 11 2 10 3 9 4 8 5 7 6 6 7 5 8 4 9 3 10 2 11 1 12 13 13
REMARK SMILES IDX 14 14 15 15 16 16 17 17 18 18 19 19 20 20 22 21 21 22
REMARK H PARENT
REMARK Flexibility Score: inf
ROOT
ATOM      1  C   UNL     1       7.292  -5.863 -12.914  1.00  0.00     0.004 C 
ENDROOT
BRANCH   1   2
ATOM      2  C   UNL     1       7.315  -6.928 -11.806  1.00  0.00     0.027 C 
BRANCH   2   3
ATOM      3  C   UNL     1       5.935  -7.270 -11.313  1.00  0.00    -0.031 C 
ATOM      4  C   UNL     1       5.511  -8.541 -11.232  1.00  0.00    -0.027 C 
BRANCH   4   5
ATOM      5  C   UNL     1       4.143  -8.877 -10.716  1.00  0.00     0.054 C 
BRANCH   5   6
ATOM      6  C   UNL     1       3.716  -7.860  -9.687  1.00  0.00    -0.027 C 
ATOM      7  C   UNL     1       2.866  -6.840  -9.911  1.00  0.00    -0.031 C 
BRANCH   7   8
ATOM      8  C   UNL     1       2.153  -6.580 -11.215  1.00  0.00     0.027 C 
BRANCH   8   9
ATOM      9  C   UNL     1       2.919  -5.592 -12.109  1.00  0.00     0.004 C 
BRANCH   9  10
ATOM     10  C   UNL     1       3.393  -6.249 -13.417  1.00  0.00     0.000 C 
BRANCH  10  11
ATOM     11  C   UNL     1       3.599  -5.228 -14.547  1.00  0.00    -0.003 C 
ATOM     12  C   UNL     1       2.969  -3.870 -14.241  1.00  0.00     0.004 C 
ENDBRANCH  10  11
ENDBRANCH   9  10
ENDBRANCH   8   9
ENDBRANCH   7   8
ENDBRANCH   5   6
ENDBRANCH   4   5
ENDBRANCH   2   3
ENDBRANCH   1   2
BRANCH   1  13
ATOM     13  C   UNL     1       8.540  -5.937 -13.812  1.00  0.00     0.000 C 
BRANCH  13  14
ATOM     14  C   UNL     1       9.257  -4.579 -13.941  1.00  0.00     0.000 C 
BRANCH  14  15
ATOM     15  C   UNL     1       8.318  -3.362 -13.862  1.00  0.00     0.000 C 
BRANCH  15  16
ATOM     16  C   UNL     1       9.068  -2.027 -14.021  1.00  0.00     0.003 C 
BRANCH  16  17
ATOM     17  C   UNL     1       8.182  -0.903 -14.587  1.00  0.00     0.042 C 
BRANCH  17  18
ATOM     18  C   UNL     1       8.864  -0.081 -15.692  1.00  0.00     0.233 C 
BRANCH  18  19
ATOM     19  O   UNL     1       7.909   0.617 -16.491  1.00  0.00    -0.466 OA
BRANCH  19  20
ATOM     20  C   UNL     1       8.254   1.419 -17.583  1.00  0.00     0.302 C 
ATOM     21  O   UNL     1       7.664   1.294 -18.690  1.00  0.00    -0.253 OA
ATOM     22  C   UNL     1       9.297   2.472 -17.416  1.00  0.00     0.139 C 
ENDBRANCH  19  20
ENDBRANCH  18  19
ENDBRANCH  17  18
ENDBRANCH  16  17
ENDBRANCH  15  16
ENDBRANCH  14  15
ENDBRANCH  13  14
ENDBRANCH   1  13
TORSDOF 16
ENDMDL
MODEL 6
REMARK VINA RESULT:    -3.405      4.171     10.717
REMARK INTER + INTRA:          -7.813
REMARK INTER:                  -7.683
REMARK INTRA:                  -0.129
REMARK UNBOUND:                -1.224
REMARK SMILES CCCCCC=CCC=CCCCCCCCCOC(C)=O
REMARK SMILES IDX 12 1 11 2 10 3 9 4 8 5 7 6 6 7 5 8 4 9 3 10 2 11 1 12 13 13
REMARK SMILES IDX 14 14 15 15 16 16 17 17 18 18 19 19 20 20 22 21 21 22
REMARK H PARENT
REMARK Flexibility Score: inf
ROOT
ATOM      1  C   UNL     1       9.278  -4.140 -14.224  1.00  0.00     0.004 C 
ENDROOT
BRANCH   1   2
ATOM      2  C   UNL     1       9.022  -5.471 -13.500  1.00  0.00     0.027 C 
BRANCH   2   3
ATOM      3  C   UNL     1       7.554  -5.777 -13.369  1.00  0.00    -0.031 C 
ATOM      4  C   UNL     1       7.079  -6.535 -12.368  1.00  0.00    -0.027 C 
BRANCH   4   5
ATOM      5  C   UNL     1       5.612  -6.816 -12.228  1.00  0.00     0.054 C 
BRANCH   5   6
ATOM      6  C   UNL     1       5.403  -8.193 -11.650  1.00  0.00    -0.027 C 
ATOM      7  C   UNL     1       4.628  -8.478 -10.587  1.00  0.00    -0.031 C 
BRANCH   7   8
ATOM      8  C   UNL     1       3.792  -7.474  -9.833  1.00  0.00     0.027 C 
BRANCH   8   9
ATOM      9  C   UNL     1       2.860  -8.145  -8.810  1.00  0.00     0.004 C 
BRANCH   9  10
ATOM     10  C   UNL     1       1.624  -8.769  -9.481  1.00  0.00     0.000 C 
BRANCH  10  11
ATOM     11  C   UNL     1       0.317  -8.076  -9.067  1.00  0.00    -0.003 C 
ATOM     12  C   UNL     1      -0.013  -6.864  -9.936  1.00  0.00     0.004 C 
ENDBRANCH  10  11
ENDBRANCH   9  10
ENDBRANCH   8   9
ENDBRANCH   7   8
ENDBRANCH   5   6
ENDBRANCH   4   5
ENDBRANCH   2   3
ENDBRANCH   1   2
BRANCH   1  13
ATOM     13  C   UNL     1       8.212  -3.083 -13.885  1.00  0.00     0.000 C 
BRANCH  13  14
ATOM     14  C   UNL     1       8.782  -1.651 -13.874  1.00  0.00     0.000 C 
BRANCH  14  15
ATOM     15  C   UNL     1       8.256  -0.755 -15.010  1.00  0.00     0.000 C 
BRANCH  15  16
ATOM     16  C   UNL     1       9.391  -0.103 -15.819  1.00  0.00     0.003 C 
BRANCH  16  17
ATOM     17  C   UNL     1       8.982   0.231 -17.264  1.00  0.00     0.042 C 
BRANCH  17  18
ATOM     18  C   UNL     1       7.590   0.873 -17.377  1.00  0.00     0.233 C 
BRANCH  18  19
ATOM     19  O   UNL     1       7.562   2.171 -16.785  1.00  0.00    -0.466 OA
BRANCH  19  20
ATOM     20  C   UNL     1       8.671   3.020 -16.732  1.00  0.00     0.302 C 
ATOM     21  O   UNL     1       9.625   2.891 -17.547  1.00  0.00    -0.253 OA
ATOM     22  C   UNL     1       8.699   4.126 -15.733  1.00  0.00     0.139 C 
ENDBRANCH  19  20
ENDBRANCH  18  19
ENDBRANCH  17  18
ENDBRANCH  16  17
ENDBRANCH  15  16
ENDBRANCH  14  15
ENDBRANCH  13  14
ENDBRANCH   1  13
TORSDOF 16
ENDMDL
MODEL 7
REMARK VINA RESULT:    -3.339      4.160     10.511
REMARK INTER + INTRA:          -7.686
REMARK INTER:                  -7.145
REMARK INTRA:                  -0.542
REMARK UNBOUND:                -1.224
REMARK SMILES CCCCCC=CCC=CCCCCCCCCOC(C)=O
REMARK SMILES IDX 12 1 11 2 10 3 9 4 8 5 7 6 6 7 5 8 4 9 3 10 2 11 1 12 13 13
REMARK SMILES IDX 14 14 15 15 16 16 17 17 18 18 19 19 20 20 22 21 21 22
REMARK H PARENT
REMARK Flexibility Score: inf
ROOT
ATOM      1  C   UNL     1       9.331  -3.857 -14.229  1.00  0.00     0.004 C 
ENDROOT
BRANCH   1   2
ATOM      2  C   UNL     1       9.191  -5.298 -13.713  1.00  0.00     0.027 C 
BRANCH   2   3
ATOM      3  C   UNL     1       7.754  -5.696 -13.510  1.00  0.00    -0.031 C 
ATOM      4  C   UNL     1       7.361  -6.392 -12.432  1.00  0.00    -0.027 C 
BRANCH   4   5
ATOM      5  C   UNL     1       5.923  -6.764 -12.223  1.00  0.00     0.054 C 
BRANCH   5   6
ATOM      6  C   UNL     1       5.827  -7.963 -11.313  1.00  0.00    -0.027 C 
ATOM      7  C   UNL     1       4.741  -8.307 -10.595  1.00  0.00    -0.031 C 
BRANCH   7   8
ATOM      8  C   UNL     1       3.418  -7.582 -10.628  1.00  0.00     0.027 C 
BRANCH   8   9
ATOM      9  C   UNL     1       2.757  -7.517  -9.242  1.00  0.00     0.004 C 
BRANCH   9  10
ATOM     10  C   UNL     1       1.734  -8.649  -9.039  1.00  0.00     0.000 C 
BRANCH  10  11
ATOM     11  C   UNL     1       0.419  -8.396  -9.793  1.00  0.00    -0.003 C 
ATOM     12  C   UNL     1      -0.015  -6.931  -9.751  1.00  0.00     0.004 C 
ENDBRANCH  10  11
ENDBRANCH   9  10
ENDBRANCH   8   9
ENDBRANCH   7   8
ENDBRANCH   5   6
ENDBRANCH   4   5
ENDBRANCH   2   3
ENDBRANCH   1   2
BRANCH   1  13
ATOM     13  C   UNL     1       8.132  -2.979 -13.824  1.00  0.00     0.000 C 
BRANCH  13  14
ATOM     14  C   UNL     1       8.445  -1.473 -13.915  1.00  0.00     0.000 C 
BRANCH  14  15
ATOM     15  C   UNL     1       8.925  -1.012 -15.304  1.00  0.00     0.000 C 
BRANCH  15  16
ATOM     16  C   UNL     1       8.457   0.414 -15.645  1.00  0.00     0.003 C 
BRANCH  16  17
ATOM     17  C   UNL     1       9.416   1.149 -16.597  1.00  0.00     0.042 C 
BRANCH  17  18
ATOM     18  C   UNL     1       8.699   1.933 -17.707  1.00  0.00     0.233 C 
BRANCH  18  19
ATOM     19  O   UNL     1       7.467   1.314 -18.074  1.00  0.00    -0.466 OA
BRANCH  19  20
ATOM     20  C   UNL     1       7.382   0.201 -18.916  1.00  0.00     0.302 C 
ATOM     21  O   UNL     1       6.300  -0.096 -19.490  1.00  0.00    -0.253 OA
ATOM     22  C   UNL     1       8.604  -0.613 -19.177  1.00  0.00     0.139 C 
ENDBRANCH  19  20
ENDBRANCH  18  19
ENDBRANCH  17  18
ENDBRANCH  16  17
ENDBRANCH  15  16
ENDBRANCH  14  15
ENDBRANCH  13  14
ENDBRANCH   1  13
TORSDOF 16
ENDMDL
MODEL 8
REMARK VINA RESULT:    -3.271     10.948     13.851
REMARK INTER + INTRA:          -7.555
REMARK INTER:                  -6.714
REMARK INTRA:                  -0.841
REMARK UNBOUND:                -1.224
REMARK SMILES CCCCCC=CCC=CCCCCCCCCOC(C)=O
REMARK SMILES IDX 12 1 11 2 10 3 9 4 8 5 7 6 6 7 5 8 4 9 3 10 2 11 1 12 13 13
REMARK SMILES IDX 14 14 15 15 16 16 17 17 18 18 19 19 20 20 22 21 21 22
REMARK H PARENT
REMARK Flexibility Score: inf
ROOT
ATOM      1  C   UNL     1       1.137   4.309 -13.665  1.00  0.00     0.004 C 
ENDROOT
BRANCH   1   2
ATOM      2  C   UNL     1       0.854   3.726 -12.272  1.00  0.00     0.027 C 
BRANCH   2   3
ATOM      3  C   UNL     1       1.792   4.264 -11.226  1.00  0.00    -0.031 C 
ATOM      4  C   UNL     1       2.208   5.540 -11.241  1.00  0.00    -0.027 C 
BRANCH   4   5
ATOM      5  C   UNL     1       3.124   6.077 -10.181  1.00  0.00     0.054 C 
BRANCH   5   6
ATOM      6  C   UNL     1       2.412   7.132  -9.371  1.00  0.00    -0.027 C 
ATOM      7  C   UNL     1       1.262   7.736  -9.725  1.00  0.00    -0.031 C 
BRANCH   7   8
ATOM      8  C   UNL     1       0.462   7.414 -10.962  1.00  0.00     0.027 C 
BRANCH   8   9
ATOM      9  C   UNL     1      -0.018   8.680 -11.690  1.00  0.00     0.004 C 
BRANCH   9  10
ATOM     10  C   UNL     1       0.101   8.545 -13.218  1.00  0.00     0.000 C 
BRANCH  10  11
ATOM     11  C   UNL     1       1.539   8.256 -13.672  1.00  0.00    -0.003 C 
ATOM     12  C   UNL     1       2.027   9.225 -14.748  1.00  0.00     0.004 C 
ENDBRANCH  10  11
ENDBRANCH   9  10
ENDBRANCH   8   9
ENDBRANCH   7   8
ENDBRANCH   5   6
ENDBRANCH   4   5
ENDBRANCH   2   3
ENDBRANCH   1   2
BRANCH   1  13
ATOM     13  C   UNL     1      -0.125   4.916 -14.306  1.00  0.00     0.000 C 
BRANCH  13  14
ATOM     14  C   UNL     1       0.032   5.142 -15.822  1.00  0.00     0.000 C 
BRANCH  14  15
ATOM     15  C   UNL     1      -0.004   6.621 -16.245  1.00  0.00     0.000 C 
BRANCH  15  16
ATOM     16  C   UNL     1       0.327   6.816 -17.736  1.00  0.00     0.003 C 
BRANCH  16  17
ATOM     17  C   UNL     1       0.382   8.296 -18.151  1.00  0.00     0.042 C 
BRANCH  17  18
ATOM     18  C   UNL     1       1.577   8.638 -19.053  1.00  0.00     0.233 C 
BRANCH  18  19
ATOM     19  O   UNL     1       2.234   7.460 -19.522  1.00  0.00    -0.466 OA
BRANCH  19  20
ATOM     20  C   UNL     1       2.468   7.193 -20.874  1.00  0.00     0.302 C 
ATOM     21  O   UNL     1       2.739   6.025 -21.265  1.00  0.00    -0.253 OA
ATOM     22  C   UNL     1       2.342   8.294 -21.870  1.00  0.00     0.139 C 
ENDBRANCH  19  20
ENDBRANCH  18  19
ENDBRANCH  17  18
ENDBRANCH  16  17
ENDBRANCH  15  16
ENDBRANCH  14  15
ENDBRANCH  13  14
ENDBRANCH   1  13
TORSDOF 16
ENDMDL
MODEL 9
REMARK VINA RESULT:    -3.191      3.824      9.720
REMARK INTER + INTRA:          -7.399
REMARK INTER:                  -5.930
REMARK INTRA:                  -1.469
REMARK UNBOUND:                -1.224
REMARK SMILES CCCCCC=CCC=CCCCCCCCCOC(C)=O
REMARK SMILES IDX 12 1 11 2 10 3 9 4 8 5 7 6 6 7 5 8 4 9 3 10 2 11 1 12 13 13
REMARK SMILES IDX 14 14 15 15 16 16 17 17 18 18 19 19 20 20 22 21 21 22
REMARK H PARENT
REMARK Flexibility Score: inf
ROOT
ATOM      1  C   UNL     1       4.062  -2.385 -13.869  1.00  0.00     0.004 C 
ENDROOT
BRANCH   1   2
ATOM      2  C   UNL     1       3.153  -3.554 -14.284  1.00  0.00     0.027 C 
BRANCH   2   3
ATOM      3  C   UNL     1       3.481  -4.823 -13.544  1.00  0.00    -0.031 C 
ATOM      4  C   UNL     1       3.923  -5.916 -14.184  1.00  0.00    -0.027 C 
BRANCH   4   5
ATOM      5  C   UNL     1       4.271  -7.171 -13.437  1.00  0.00     0.054 C 
BRANCH   5   6
ATOM      6  C   UNL     1       5.539  -6.965 -12.646  1.00  0.00    -0.027 C 
ATOM      7  C   UNL     1       5.827  -7.562 -11.474  1.00  0.00    -0.031 C 
BRANCH   7   8
ATOM      8  C   UNL     1       4.955  -8.583 -10.787  1.00  0.00     0.027 C 
BRANCH   8   9
ATOM      9  C   UNL     1       3.970  -7.936  -9.800  1.00  0.00     0.004 C 
BRANCH   9  10
ATOM     10  C   UNL     1       2.613  -8.662  -9.783  1.00  0.00     0.000 C 
BRANCH  10  11
ATOM     11  C   UNL     1       1.425  -7.689  -9.820  1.00  0.00    -0.003 C 
ATOM     12  C   UNL     1       1.732  -6.408 -10.594  1.00  0.00     0.004 C 
ENDBRANCH  10  11
ENDBRANCH   9  10
ENDBRANCH   8   9
ENDBRANCH   7   8
ENDBRANCH   5   6
ENDBRANCH   4   5
ENDBRANCH   2   3
ENDBRANCH   1   2
BRANCH   1  13
ATOM     13  C   UNL     1       5.457  -2.866 -13.431  1.00  0.00     0.000 C 
BRANCH  13  14
ATOM     14  C   UNL     1       6.573  -1.879 -13.825  1.00  0.00     0.000 C 
BRANCH  14  15
ATOM     15  C   UNL     1       7.982  -2.499 -13.850  1.00  0.00     0.000 C 
BRANCH  15  16
ATOM     16  C   UNL     1       9.067  -1.481 -14.247  1.00  0.00     0.003 C 
BRANCH  16  17
ATOM     17  C   UNL     1       8.558  -0.413 -15.229  1.00  0.00     0.042 C 
BRANCH  17  18
ATOM     18  C   UNL     1       9.371  -0.337 -16.531  1.00  0.00     0.233 C 
BRANCH  18  19
ATOM     19  O   UNL     1       9.734   1.007 -16.845  1.00  0.00    -0.466 OA
BRANCH  19  20
ATOM     20  C   UNL     1       8.808   1.999 -17.183  1.00  0.00     0.302 C 
ATOM     21  O   UNL     1       7.973   1.816 -18.110  1.00  0.00    -0.253 OA
ATOM     22  C   UNL     1       8.776   3.266 -16.399  1.00  0.00     0.139 C 
ENDBRANCH  19  20
ENDBRANCH  18  19
ENDBRANCH  17  18
ENDBRANCH  16  17
ENDBRANCH  15  16
ENDBRANCH  14  15
ENDBRANCH  13  14
ENDBRANCH   1  13
TORSDOF 16
ENDMDL
