MODEL 1
REMARK VINA RESULT:    -2.804      0.000      0.000
REMARK INTER + INTRA:          -3.258
REMARK INTER:                  -3.295
REMARK INTRA:                   0.037
REMARK UNBOUND:                 0.037
REMARK SMILES COc1cc2ccc(=O)oc2c(OC)c1OC
REMARK SMILES IDX 3 1 15 2 12 3 11 4 5 5 4 6 6 7 7 8 8 9 9 10 10 11 2 12 1 13
REMARK SMILES IDX 16 14 17 15 13 16 14 17
REMARK H PARENT
REMARK Flexibility Score: inf
ROOT
ATOM      1  C   UNL     1      -9.174  -7.621   2.228  1.00  0.00     0.165 A 
ATOM      2  C   UNL     1      -8.710  -7.638   3.573  1.00  0.00     0.207 A 
ATOM      3  C   UNL     1      -8.729  -6.436   4.334  1.00  0.00     0.208 A 
ATOM      4  C   UNL     1      -9.202  -5.253   3.752  1.00  0.00     0.184 A 
ATOM      5  C   UNL     1      -9.660  -5.243   2.422  1.00  0.00     0.025 A 
ATOM      6  C   UNL     1      -9.644  -6.416   1.670  1.00  0.00     0.062 A 
ATOM      7  C   UNL     1     -10.124  -4.039   1.881  1.00  0.00     0.020 A 
ATOM      8  C   UNL     1     -10.123  -2.888   2.666  1.00  0.00     0.094 A 
ATOM      9  C   UNL     1      -9.655  -2.969   3.980  1.00  0.00     0.336 A 
ATOM     10  O   UNL     1      -9.644  -1.942   4.709  1.00  0.00    -0.246 OA
ATOM     11  O   UNL     1      -9.219  -4.127   4.468  1.00  0.00    -0.419 OA
ENDROOT
BRANCH   1  12
ATOM     12  O   UNL     1      -9.160  -8.799   1.465  1.00  0.00    -0.493 OA
ATOM     13  C   UNL     1      -9.881  -9.988   1.775  1.00  0.00     0.278 C 
ENDBRANCH   1  12
BRANCH   2  14
ATOM     14  O   UNL     1      -8.226  -8.808   4.190  1.00  0.00    -0.490 OA
ATOM     15  C   UNL     1      -7.027  -9.513   3.888  1.00  0.00     0.278 C 
ENDBRANCH   2  14
BRANCH   3  16
ATOM     16  O   UNL     1      -8.293  -6.342   5.672  1.00  0.00    -0.490 OA
ATOM     17  C   UNL     1      -6.980  -6.032   6.125  1.00  0.00     0.278 C 
ENDBRANCH   3  16
TORSDOF 3
ENDMDL
MODEL 2
REMARK VINA RESULT:    -0.977     20.648     22.009
REMARK INTER + INTRA:          -1.112
REMARK INTER:                  -1.613
REMARK INTRA:                   0.501
REMARK UNBOUND:                 0.037
REMARK SMILES COc1cc2ccc(=O)oc2c(OC)c1OC
REMARK SMILES IDX 3 1 15 2 12 3 11 4 5 5 4 6 6 7 7 8 8 9 9 10 10 11 2 12 1 13
REMARK SMILES IDX 16 14 17 15 13 16 14 17
REMARK H PARENT
REMARK Flexibility Score: inf
ROOT
ATOM      1  C   UNL     1       7.136  -5.676 -11.988  1.00  0.00     0.165 A 
ATOM      2  C   UNL     1       7.168  -6.858 -12.778  1.00  0.00     0.207 A 
ATOM      3  C   UNL     1       6.408  -7.991 -12.370  1.00  0.00     0.208 A 
ATOM      4  C   UNL     1       5.642  -7.929 -11.199  1.00  0.00     0.184 A 
ATOM      5  C   UNL     1       5.615  -6.756 -10.423  1.00  0.00     0.025 A 
ATOM      6  C   UNL     1       6.356  -5.643 -10.816  1.00  0.00     0.062 A 
ATOM      7  C   UNL     1       4.835  -6.738  -9.261  1.00  0.00     0.020 A 
ATOM      8  C   UNL     1       4.110  -7.872  -8.904  1.00  0.00     0.094 A 
ATOM      9  C   UNL     1       4.182  -9.003  -9.721  1.00  0.00     0.336 A 
ATOM     10  O   UNL     1       3.535 -10.041  -9.418  1.00  0.00    -0.246 OA
ATOM     11  O   UNL     1       4.931  -8.992 -10.820  1.00  0.00    -0.419 OA
ENDROOT
BRANCH   1  12
ATOM     12  O   UNL     1       7.880  -4.550 -12.377  1.00  0.00    -0.493 OA
ATOM     13  C   UNL     1       8.294  -4.260 -13.708  1.00  0.00     0.278 C 
ENDBRANCH   1  12
BRANCH   2  14
ATOM     14  O   UNL     1       7.927  -6.957 -13.959  1.00  0.00    -0.490 OA
ATOM     15  C   UNL     1       9.190  -7.591 -14.125  1.00  0.00     0.278 C 
ENDBRANCH   2  14
BRANCH   3  16
ATOM     16  O   UNL     1       6.369  -9.210 -13.078  1.00  0.00    -0.490 OA
ATOM     17  C   UNL     1       5.468  -9.566 -14.120  1.00  0.00     0.278 C 
ENDBRANCH   3  16
TORSDOF 3
ENDMDL
MODEL 3
REMARK VINA RESULT:    -0.545     20.629     21.750
REMARK INTER + INTRA:          -0.604
REMARK INTER:                  -0.549
REMARK INTRA:                  -0.055
REMARK UNBOUND:                 0.037
REMARK SMILES COc1cc2ccc(=O)oc2c(OC)c1OC
REMARK SMILES IDX 3 1 15 2 12 3 11 4 5 5 4 6 6 7 7 8 8 9 9 10 10 11 2 12 1 13
REMARK SMILES IDX 16 14 17 15 13 16 14 17
REMARK H PARENT
REMARK Flexibility Score: inf
ROOT
ATOM      1  C   UNL     1       6.749  -8.441 -13.018  1.00  0.00     0.165 A 
ATOM      2  C   UNL     1       7.175  -7.091 -12.873  1.00  0.00     0.207 A 
ATOM      3  C   UNL     1       6.739  -6.339 -11.746  1.00  0.00     0.208 A 
ATOM      4  C   UNL     1       5.897  -6.933 -10.797  1.00  0.00     0.184 A 
ATOM      5  C   UNL     1       5.480  -8.268 -10.947  1.00  0.00     0.025 A 
ATOM      6  C   UNL     1       5.903  -9.012 -12.047  1.00  0.00     0.062 A 
ATOM      7  C   UNL     1       4.640  -8.822  -9.974  1.00  0.00     0.020 A 
ATOM      8  C   UNL     1       4.240  -8.045  -8.889  1.00  0.00     0.094 A 
ATOM      9  C   UNL     1       4.692  -6.726  -8.803  1.00  0.00     0.336 A 
ATOM     10  O   UNL     1       4.344  -6.003  -7.831  1.00  0.00    -0.246 OA
ATOM     11  O   UNL     1       5.491  -6.226  -9.742  1.00  0.00    -0.419 OA
ENDROOT
BRANCH   1  12
ATOM     12  O   UNL     1       7.170  -9.196 -14.124  1.00  0.00    -0.493 OA
ATOM     13  C   UNL     1       8.257 -10.117 -14.125  1.00  0.00     0.278 C 
ENDBRANCH   1  12
BRANCH   2  14
ATOM     14  O   UNL     1       8.019  -6.462 -13.807  1.00  0.00    -0.490 OA
ATOM     15  C   UNL     1       9.412  -6.682 -14.000  1.00  0.00     0.278 C 
ENDBRANCH   2  14
BRANCH   3  16
ATOM     16  O   UNL     1       7.101  -4.998 -11.506  1.00  0.00    -0.490 OA
ATOM     17  C   UNL     1       6.283  -3.846 -11.680  1.00  0.00     0.278 C 
ENDBRANCH   3  16
TORSDOF 3
ENDMDL
MODEL 4
REMARK VINA RESULT:     0.191     20.803     22.100
REMARK INTER + INTRA:           0.262
REMARK INTER:                  -0.373
REMARK INTRA:                   0.634
REMARK UNBOUND:                 0.037
REMARK SMILES COc1cc2ccc(=O)oc2c(OC)c1OC
REMARK SMILES IDX 3 1 15 2 12 3 11 4 5 5 4 6 6 7 7 8 8 9 9 10 10 11 2 12 1 13
REMARK SMILES IDX 16 14 17 15 13 16 14 17
REMARK H PARENT
REMARK Flexibility Score: inf
ROOT
ATOM      1  C   UNL     1       7.597  -6.157 -13.059  1.00  0.00     0.165 A 
ATOM      2  C   UNL     1       7.084  -5.531 -11.888  1.00  0.00     0.207 A 
ATOM      3  C   UNL     1       6.177  -6.245 -11.056  1.00  0.00     0.208 A 
ATOM      4  C   UNL     1       5.799  -7.550 -11.397  1.00  0.00     0.184 A 
ATOM      5  C   UNL     1       6.311  -8.162 -12.556  1.00  0.00     0.025 A 
ATOM      6  C   UNL     1       7.200  -7.470 -13.376  1.00  0.00     0.062 A 
ATOM      7  C   UNL     1       5.908  -9.468 -12.859  1.00  0.00     0.020 A 
ATOM      8  C   UNL     1       5.017 -10.125 -12.013  1.00  0.00     0.094 A 
ATOM      9  C   UNL     1       4.549  -9.457 -10.879  1.00  0.00     0.336 A 
ATOM     10  O   UNL     1       3.743 -10.031 -10.099  1.00  0.00    -0.246 OA
ATOM     11  O   UNL     1       4.949  -8.216 -10.616  1.00  0.00    -0.419 OA
ENDROOT
BRANCH   1  12
ATOM     12  O   UNL     1       8.493  -5.465 -13.890  1.00  0.00    -0.493 OA
ATOM     13  C   UNL     1       9.848  -5.832 -14.124  1.00  0.00     0.278 C 
ENDBRANCH   1  12
BRANCH   2  14
ATOM     14  O   UNL     1       7.440  -4.221 -11.514  1.00  0.00    -0.490 OA
ATOM     15  C   UNL     1       6.609  -3.066 -11.515  1.00  0.00     0.278 C 
ENDBRANCH   2  14
BRANCH   3  16
ATOM     16  O   UNL     1       5.610  -5.721  -9.876  1.00  0.00    -0.490 OA
ATOM     17  C   UNL     1       5.258  -6.443  -8.701  1.00  0.00     0.278 C 
ENDBRANCH   3  16
TORSDOF 3
ENDMDL
