MODEL 1
REMARK VINA RESULT:    -3.704      0.000      0.000
REMARK INTER + INTRA:         -12.103
REMARK INTER:                  -8.034
REMARK INTRA:                  -4.068
REMARK UNBOUND:                -4.068
REMARK SMILES CCCCCCCCCCCCCCCCCCCCCC(=O)[O-]
REMARK SMILES IDX 12 1 11 2 10 3 9 4 8 5 7 6 6 7 5 8 4 9 3 10 2 11 1 12 13 13
REMARK SMILES IDX 14 14 15 15 16 16 17 17 18 18 19 19 20 20 21 21 22 22 23 23
REMARK SMILES IDX 24 24
REMARK H PARENT
REMARK Flexibility Score: inf
ROOT
ATOM      1  C   UNL     1       1.979   6.337  -2.861  1.00  0.00     0.000 C 
ENDROOT
BRANCH   1   2
ATOM      2  C   UNL     1       3.444   6.412  -3.339  1.00  0.00     0.000 C 
BRANCH   2   3
ATOM      3  C   UNL     1       4.503   6.011  -2.291  1.00  0.00     0.000 C 
BRANCH   3   4
ATOM      4  C   UNL     1       5.622   7.043  -2.072  1.00  0.00    -0.000 C 
BRANCH   4   5
ATOM      5  C   UNL     1       5.311   8.405  -2.720  1.00  0.00    -0.000 C 
BRANCH   5   6
ATOM      6  C   UNL     1       5.089   9.518  -1.682  1.00  0.00    -0.000 C 
BRANCH   6   7
ATOM      7  C   UNL     1       3.615   9.896  -1.433  1.00  0.00    -0.000 C 
BRANCH   7   8
ATOM      8  C   UNL     1       3.138   9.619   0.007  1.00  0.00    -0.000 C 
BRANCH   8   9
ATOM      9  C   UNL     1       3.008   8.113   0.298  1.00  0.00    -0.000 C 
BRANCH   9  10
ATOM     10  C   UNL     1       4.002   7.620   1.366  1.00  0.00    -0.000 C 
BRANCH  10  11
ATOM     11  C   UNL     1       4.001   6.100   1.600  1.00  0.00    -0.003 C 
ATOM     12  C   UNL     1       5.369   5.462   1.372  1.00  0.00     0.004 C 
ENDBRANCH  10  11
ENDBRANCH   9  10
ENDBRANCH   8   9
ENDBRANCH   7   8
ENDBRANCH   6   7
ENDBRANCH   5   6
ENDBRANCH   4   5
ENDBRANCH   3   4
ENDBRANCH   2   3
ENDBRANCH   1   2
BRANCH   1  13
ATOM     13  C   UNL     1       1.196   7.659  -2.946  1.00  0.00     0.000 C 
BRANCH  13  14
ATOM     14  C   UNL     1       0.070   7.754  -1.901  1.00  0.00     0.000 C 
BRANCH  14  15
ATOM     15  C   UNL     1      -0.567   9.151  -1.839  1.00  0.00     0.000 C 
BRANCH  15  16
ATOM     16  C   UNL     1      -0.604   9.731  -0.414  1.00  0.00     0.000 C 
BRANCH  16  17
ATOM     17  C   UNL     1      -0.619   8.638   0.670  1.00  0.00     0.000 C 
BRANCH  17  18
ATOM     18  C   UNL     1      -0.214   9.108   2.081  1.00  0.00     0.000 C 
BRANCH  18  19
ATOM     19  C   UNL     1       0.380   8.016   2.989  1.00  0.00     0.000 C 
BRANCH  19  20
ATOM     20  C   UNL     1       0.391   6.631   2.321  1.00  0.00     0.006 C 
BRANCH  20  21
ATOM     21  C   UNL     1      -0.277   5.560   3.194  1.00  0.00     0.053 C 
BRANCH  21  22
ATOM     22  C   UNL     1       0.181   4.182   2.826  1.00  0.00     0.041 C 
ATOM     23  O   UNL     1      -0.649   3.321   2.433  1.00  0.00    -0.550 OA
ATOM     24  O   UNL     1       1.531   3.857   2.885  1.00  0.00    -0.550 OA
ENDBRANCH  21  22
ENDBRANCH  20  21
ENDBRANCH  19  20
ENDBRANCH  18  19
ENDBRANCH  17  18
ENDBRANCH  16  17
ENDBRANCH  15  16
ENDBRANCH  14  15
ENDBRANCH  13  14
ENDBRANCH   1  13
TORSDOF 20
ENDMDL
MODEL 2
REMARK VINA RESULT:    -3.543      2.003      5.077
REMARK INTER + INTRA:         -11.754
REMARK INTER:                  -8.584
REMARK INTRA:                  -3.171
REMARK UNBOUND:                -4.068
REMARK SMILES CCCCCCCCCCCCCCCCCCCCCC(=O)[O-]
REMARK SMILES IDX 12 1 11 2 10 3 9 4 8 5 7 6 6 7 5 8 4 9 3 10 2 11 1 12 13 13
REMARK SMILES IDX 14 14 15 15 16 16 17 17 18 18 19 19 20 20 21 21 22 22 23 23
REMARK SMILES IDX 24 24
REMARK H PARENT
REMARK Flexibility Score: inf
ROOT
ATOM      1  C   UNL     1       1.597   5.992  -3.092  1.00  0.00     0.000 C 
ENDROOT
BRANCH   1   2
ATOM      2  C   UNL     1       1.137   6.763  -1.837  1.00  0.00     0.000 C 
BRANCH   2   3
ATOM      3  C   UNL     1       0.543   8.162  -2.102  1.00  0.00     0.000 C 
BRANCH   3   4
ATOM      4  C   UNL     1      -0.897   8.361  -1.600  1.00  0.00    -0.000 C 
BRANCH   4   5
ATOM      5  C   UNL     1      -1.024   9.525  -0.601  1.00  0.00    -0.000 C 
BRANCH   5   6
ATOM      6  C   UNL     1       0.244   9.717   0.250  1.00  0.00    -0.000 C 
BRANCH   6   7
ATOM      7  C   UNL     1      -0.001   9.848   1.766  1.00  0.00    -0.000 C 
BRANCH   7   8
ATOM      8  C   UNL     1      -0.627   8.591   2.406  1.00  0.00    -0.000 C 
BRANCH   8   9
ATOM      9  C   UNL     1       0.217   7.329   2.156  1.00  0.00    -0.000 C 
BRANCH   9  10
ATOM     10  C   UNL     1      -0.205   6.139   3.038  1.00  0.00    -0.000 C 
BRANCH  10  11
ATOM     11  C   UNL     1       0.269   4.763   2.541  1.00  0.00    -0.003 C 
ATOM     12  C   UNL     1      -0.716   3.641   2.864  1.00  0.00     0.004 C 
ENDBRANCH  10  11
ENDBRANCH   9  10
ENDBRANCH   8   9
ENDBRANCH   7   8
ENDBRANCH   6   7
ENDBRANCH   5   6
ENDBRANCH   4   5
ENDBRANCH   3   4
ENDBRANCH   2   3
ENDBRANCH   1   2
BRANCH   1  13
ATOM     13  C   UNL     1       2.879   6.528  -3.754  1.00  0.00     0.000 C 
BRANCH  13  14
ATOM     14  C   UNL     1       4.097   6.491  -2.814  1.00  0.00     0.000 C 
BRANCH  14  15
ATOM     15  C   UNL     1       4.832   7.839  -2.741  1.00  0.00     0.000 C 
BRANCH  15  16
ATOM     16  C   UNL     1       5.135   8.279  -1.298  1.00  0.00     0.000 C 
BRANCH  16  17
ATOM     17  C   UNL     1       3.877   8.750  -0.546  1.00  0.00     0.000 C 
BRANCH  17  18
ATOM     18  C   UNL     1       3.635   8.070   0.816  1.00  0.00     0.000 C 
BRANCH  18  19
ATOM     19  C   UNL     1       3.648   6.531   0.791  1.00  0.00     0.000 C 
BRANCH  19  20
ATOM     20  C   UNL     1       4.216   5.922   2.084  1.00  0.00     0.006 C 
BRANCH  20  21
ATOM     21  C   UNL     1       5.750   5.891   2.086  1.00  0.00     0.053 C 
BRANCH  21  22
ATOM     22  C   UNL     1       6.288   5.060   0.962  1.00  0.00     0.041 C 
ATOM     23  O   UNL     1       6.747   5.611  -0.072  1.00  0.00    -0.550 OA
ATOM     24  O   UNL     1       6.312   3.675   1.071  1.00  0.00    -0.550 OA
ENDBRANCH  21  22
ENDBRANCH  20  21
ENDBRANCH  19  20
ENDBRANCH  18  19
ENDBRANCH  17  18
ENDBRANCH  16  17
ENDBRANCH  15  16
ENDBRANCH  14  15
ENDBRANCH  13  14
ENDBRANCH   1  13
TORSDOF 20
ENDMDL
MODEL 3
REMARK VINA RESULT:    -3.539      1.156      2.062
REMARK INTER + INTRA:         -11.746
REMARK INTER:                  -8.691
REMARK INTRA:                  -3.055
REMARK UNBOUND:                -4.068
REMARK SMILES CCCCCCCCCCCCCCCCCCCCCC(=O)[O-]
REMARK SMILES IDX 12 1 11 2 10 3 9 4 8 5 7 6 6 7 5 8 4 9 3 10 2 11 1 12 13 13
REMARK SMILES IDX 14 14 15 15 16 16 17 17 18 18 19 19 20 20 21 21 22 22 23 23
REMARK SMILES IDX 24 24
REMARK H PARENT
REMARK Flexibility Score: inf
ROOT
ATOM      1  C   UNL     1       2.132   6.668  -3.664  1.00  0.00     0.000 C 
ENDROOT
BRANCH   1   2
ATOM      2  C   UNL     1       3.646   6.369  -3.700  1.00  0.00     0.000 C 
BRANCH   2   3
ATOM      3  C   UNL     1       4.292   6.065  -2.333  1.00  0.00     0.000 C 
BRANCH   3   4
ATOM      4  C   UNL     1       3.672   6.814  -1.141  1.00  0.00    -0.000 C 
BRANCH   4   5
ATOM      5  C   UNL     1       4.263   8.223  -0.951  1.00  0.00    -0.000 C 
BRANCH   5   6
ATOM      6  C   UNL     1       5.659   8.370  -1.581  1.00  0.00    -0.000 C 
BRANCH   6   7
ATOM      7  C   UNL     1       6.837   8.256  -0.594  1.00  0.00    -0.000 C 
BRANCH   7   8
ATOM      8  C   UNL     1       7.363   6.817  -0.417  1.00  0.00    -0.000 C 
BRANCH   8   9
ATOM      9  C   UNL     1       7.053   6.251   0.980  1.00  0.00    -0.000 C 
BRANCH   9  10
ATOM     10  C   UNL     1       6.224   4.954   0.932  1.00  0.00    -0.000 C 
BRANCH  10  11
ATOM     11  C   UNL     1       4.952   4.965   1.797  1.00  0.00    -0.003 C 
ATOM     12  C   UNL     1       4.684   6.322   2.445  1.00  0.00     0.004 C 
ENDBRANCH  10  11
ENDBRANCH   9  10
ENDBRANCH   8   9
ENDBRANCH   7   8
ENDBRANCH   6   7
ENDBRANCH   5   6
ENDBRANCH   4   5
ENDBRANCH   3   4
ENDBRANCH   2   3
ENDBRANCH   1   2
BRANCH   1  13
ATOM     13  C   UNL     1       1.741   8.105  -4.054  1.00  0.00     0.000 C 
BRANCH  13  14
ATOM     14  C   UNL     1       1.022   8.857  -2.921  1.00  0.00     0.000 C 
BRANCH  14  15
ATOM     15  C   UNL     1       0.208   7.923  -2.011  1.00  0.00     0.000 C 
BRANCH  15  16
ATOM     16  C   UNL     1      -1.020   8.610  -1.390  1.00  0.00     0.000 C 
BRANCH  16  17
ATOM     17  C   UNL     1      -0.799   8.997   0.084  1.00  0.00     0.000 C 
BRANCH  17  18
ATOM     18  C   UNL     1       0.303   8.204   0.813  1.00  0.00     0.000 C 
BRANCH  18  19
ATOM     19  C   UNL     1       0.093   8.034   2.328  1.00  0.00     0.000 C 
BRANCH  19  20
ATOM     20  C   UNL     1       0.664   6.709   2.860  1.00  0.00     0.006 C 
BRANCH  20  21
ATOM     21  C   UNL     1      -0.416   5.631   3.015  1.00  0.00     0.053 C 
BRANCH  21  22
ATOM     22  C   UNL     1       0.124   4.261   2.738  1.00  0.00     0.041 C 
ATOM     23  O   UNL     1      -0.659   3.308   2.488  1.00  0.00    -0.550 OA
ATOM     24  O   UNL     1       1.497   4.045   2.723  1.00  0.00    -0.550 OA
ENDBRANCH  21  22
ENDBRANCH  20  21
ENDBRANCH  19  20
ENDBRANCH  18  19
ENDBRANCH  17  18
ENDBRANCH  16  17
ENDBRANCH  15  16
ENDBRANCH  14  15
ENDBRANCH  13  14
ENDBRANCH   1  13
TORSDOF 20
ENDMDL
MODEL 4
REMARK VINA RESULT:    -3.528      1.654      2.560
REMARK INTER + INTRA:         -11.721
REMARK INTER:                  -8.993
REMARK INTRA:                  -2.728
REMARK UNBOUND:                -4.068
REMARK SMILES CCCCCCCCCCCCCCCCCCCCCC(=O)[O-]
REMARK SMILES IDX 12 1 11 2 10 3 9 4 8 5 7 6 6 7 5 8 4 9 3 10 2 11 1 12 13 13
REMARK SMILES IDX 14 14 15 15 16 16 17 17 18 18 19 19 20 20 21 21 22 22 23 23
REMARK SMILES IDX 24 24
REMARK H PARENT
REMARK Flexibility Score: inf
ROOT
ATOM      1  C   UNL     1       1.094   8.496  -2.413  1.00  0.00     0.000 C 
ENDROOT
BRANCH   1   2
ATOM      2  C   UNL     1       0.893   7.023  -1.998  1.00  0.00     0.000 C 
BRANCH   2   3
ATOM      3  C   UNL     1       1.695   5.990  -2.817  1.00  0.00     0.000 C 
BRANCH   3   4
ATOM      4  C   UNL     1       2.567   6.586  -3.936  1.00  0.00    -0.000 C 
BRANCH   4   5
ATOM      5  C   UNL     1       4.072   6.360  -3.700  1.00  0.00    -0.000 C 
BRANCH   5   6
ATOM      6  C   UNL     1       4.624   7.207  -2.540  1.00  0.00    -0.000 C 
BRANCH   6   7
ATOM      7  C   UNL     1       5.178   6.401  -1.349  1.00  0.00    -0.000 C 
BRANCH   7   8
ATOM      8  C   UNL     1       4.306   6.490  -0.079  1.00  0.00    -0.000 C 
BRANCH   8   9
ATOM      9  C   UNL     1       5.046   7.167   1.088  1.00  0.00    -0.000 C 
BRANCH   9  10
ATOM     10  C   UNL     1       4.698   6.552   2.457  1.00  0.00    -0.000 C 
BRANCH  10  11
ATOM     11  C   UNL     1       4.526   5.024   2.456  1.00  0.00    -0.003 C 
ATOM     12  C   UNL     1       3.886   4.496   3.739  1.00  0.00     0.004 C 
ENDBRANCH  10  11
ENDBRANCH   9  10
ENDBRANCH   8   9
ENDBRANCH   7   8
ENDBRANCH   6   7
ENDBRANCH   5   6
ENDBRANCH   4   5
ENDBRANCH   3   4
ENDBRANCH   2   3
ENDBRANCH   1   2
BRANCH   1  13
ATOM     13  C   UNL     1      -0.131   9.404  -2.206  1.00  0.00     0.000 C 
BRANCH  13  14
ATOM     14  C   UNL     1      -1.047   8.921  -1.068  1.00  0.00     0.000 C 
BRANCH  14  15
ATOM     15  C   UNL     1      -0.729   9.593   0.277  1.00  0.00     0.000 C 
BRANCH  15  16
ATOM     16  C   UNL     1      -0.552   8.585   1.425  1.00  0.00     0.000 C 
BRANCH  16  17
ATOM     17  C   UNL     1       0.878   8.019   1.501  1.00  0.00     0.000 C 
BRANCH  17  18
ATOM     18  C   UNL     1       0.979   6.482   1.458  1.00  0.00     0.000 C 
BRANCH  18  19
ATOM     19  C   UNL     1       0.876   5.781   2.824  1.00  0.00     0.000 C 
BRANCH  19  20
ATOM     20  C   UNL     1      -0.488   5.106   3.043  1.00  0.00     0.006 C 
BRANCH  20  21
ATOM     21  C   UNL     1      -0.390   3.575   3.014  1.00  0.00     0.053 C 
BRANCH  21  22
ATOM     22  C   UNL     1      -0.370   2.996   4.396  1.00  0.00     0.041 C 
ATOM     23  O   UNL     1      -0.565   1.765   4.571  1.00  0.00    -0.550 OA
ATOM     24  O   UNL     1      -0.104   3.812   5.488  1.00  0.00    -0.550 OA
ENDBRANCH  21  22
ENDBRANCH  20  21
ENDBRANCH  19  20
ENDBRANCH  18  19
ENDBRANCH  17  18
ENDBRANCH  16  17
ENDBRANCH  15  16
ENDBRANCH  14  15
ENDBRANCH  13  14
ENDBRANCH   1  13
TORSDOF 20
ENDMDL
MODEL 5
REMARK VINA RESULT:    -3.518      1.557      4.420
REMARK INTER + INTRA:         -11.701
REMARK INTER:                  -8.590
REMARK INTRA:                  -3.110
REMARK UNBOUND:                -4.068
REMARK SMILES CCCCCCCCCCCCCCCCCCCCCC(=O)[O-]
REMARK SMILES IDX 12 1 11 2 10 3 9 4 8 5 7 6 6 7 5 8 4 9 3 10 2 11 1 12 13 13
REMARK SMILES IDX 14 14 15 15 16 16 17 17 18 18 19 19 20 20 21 21 22 22 23 23
REMARK SMILES IDX 24 24
REMARK H PARENT
REMARK Flexibility Score: inf
ROOT
ATOM      1  C   UNL     1       5.061   5.005   3.016  1.00  0.00     0.000 C 
ENDROOT
BRANCH   1   2
ATOM      2  C   UNL     1       6.338   4.548   2.281  1.00  0.00     0.000 C 
BRANCH   2   3
ATOM      3  C   UNL     1       6.318   4.725   0.749  1.00  0.00     0.000 C 
BRANCH   3   4
ATOM      4  C   UNL     1       6.971   6.020   0.237  1.00  0.00    -0.000 C 
BRANCH   4   5
ATOM      5  C   UNL     1       6.135   6.718  -0.852  1.00  0.00    -0.000 C 
BRANCH   5   6
ATOM      6  C   UNL     1       5.112   5.775  -1.508  1.00  0.00    -0.000 C 
BRANCH   6   7
ATOM      7  C   UNL     1       3.785   6.440  -1.925  1.00  0.00    -0.000 C 
BRANCH   7   8
ATOM      8  C   UNL     1       3.535   6.426  -3.447  1.00  0.00    -0.000 C 
BRANCH   8   9
ATOM      9  C   UNL     1       2.052   6.643  -3.796  1.00  0.00    -0.000 C 
BRANCH   9  10
ATOM     10  C   UNL     1       1.174   6.893  -2.555  1.00  0.00    -0.000 C 
BRANCH  10  11
ATOM     11  C   UNL     1       0.761   8.359  -2.337  1.00  0.00    -0.003 C 
ATOM     12  C   UNL     1      -0.670   8.505  -1.825  1.00  0.00     0.004 C 
ENDBRANCH  10  11
ENDBRANCH   9  10
ENDBRANCH   8   9
ENDBRANCH   7   8
ENDBRANCH   6   7
ENDBRANCH   5   6
ENDBRANCH   4   5
ENDBRANCH   3   4
ENDBRANCH   2   3
ENDBRANCH   1   2
BRANCH   1  13
ATOM     13  C   UNL     1       5.089   6.454   3.535  1.00  0.00     0.000 C 
BRANCH  13  14
ATOM     14  C   UNL     1       4.310   7.427   2.633  1.00  0.00     0.000 C 
BRANCH  14  15
ATOM     15  C   UNL     1       3.300   6.713   1.721  1.00  0.00     0.000 C 
BRANCH  15  16
ATOM     16  C   UNL     1       2.283   7.674   1.083  1.00  0.00     0.000 C 
BRANCH  16  17
ATOM     17  C   UNL     1       0.835   7.163   1.193  1.00  0.00     0.000 C 
BRANCH  17  18
ATOM     18  C   UNL     1      -0.056   7.927   2.192  1.00  0.00     0.000 C 
BRANCH  18  19
ATOM     19  C   UNL     1      -0.748   7.053   3.253  1.00  0.00     0.000 C 
BRANCH  19  20
ATOM     20  C   UNL     1       0.241   6.467   4.275  1.00  0.00     0.006 C 
BRANCH  20  21
ATOM     21  C   UNL     1      -0.001   4.973   4.527  1.00  0.00     0.053 C 
BRANCH  21  22
ATOM     22  C   UNL     1       0.099   4.175   3.263  1.00  0.00     0.041 C 
ATOM     23  O   UNL     1       1.216   4.004   2.707  1.00  0.00    -0.550 OA
ATOM     24  O   UNL     1      -1.038   3.593   2.716  1.00  0.00    -0.550 OA
ENDBRANCH  21  22
ENDBRANCH  20  21
ENDBRANCH  19  20
ENDBRANCH  18  19
ENDBRANCH  17  18
ENDBRANCH  16  17
ENDBRANCH  15  16
ENDBRANCH  14  15
ENDBRANCH  13  14
ENDBRANCH   1  13
TORSDOF 20
ENDMDL
MODEL 6
REMARK VINA RESULT:    -3.473      1.461      4.705
REMARK INTER + INTRA:         -11.602
REMARK INTER:                  -7.920
REMARK INTRA:                  -3.682
REMARK UNBOUND:                -4.068
REMARK SMILES CCCCCCCCCCCCCCCCCCCCCC(=O)[O-]
REMARK SMILES IDX 12 1 11 2 10 3 9 4 8 5 7 6 6 7 5 8 4 9 3 10 2 11 1 12 13 13
REMARK SMILES IDX 14 14 15 15 16 16 17 17 18 18 19 19 20 20 21 21 22 22 23 23
REMARK SMILES IDX 24 24
REMARK H PARENT
REMARK Flexibility Score: inf
ROOT
ATOM      1  C   UNL     1       1.045   7.044  -1.925  1.00  0.00     0.000 C 
ENDROOT
BRANCH   1   2
ATOM      2  C   UNL     1       0.633   8.389  -2.561  1.00  0.00     0.000 C 
BRANCH   2   3
ATOM      3  C   UNL     1       1.074   9.649  -1.787  1.00  0.00     0.000 C 
BRANCH   3   4
ATOM      4  C   UNL     1       2.235   9.431  -0.801  1.00  0.00    -0.000 C 
BRANCH   4   5
ATOM      5  C   UNL     1       1.840   9.727   0.657  1.00  0.00    -0.000 C 
BRANCH   5   6
ATOM      6  C   UNL     1       0.317   9.826   0.850  1.00  0.00    -0.000 C 
BRANCH   6   7
ATOM      7  C   UNL     1      -0.344   8.586   1.485  1.00  0.00    -0.000 C 
BRANCH   7   8
ATOM      8  C   UNL     1       0.617   7.745   2.350  1.00  0.00    -0.000 C 
BRANCH   8   9
ATOM      9  C   UNL     1      -0.086   6.537   2.993  1.00  0.00    -0.000 C 
BRANCH   9  10
ATOM     10  C   UNL     1       0.250   5.205   2.297  1.00  0.00    -0.000 C 
BRANCH  10  11
ATOM     11  C   UNL     1      -0.381   3.959   2.940  1.00  0.00    -0.003 C 
ATOM     12  C   UNL     1       0.048   3.755   4.392  1.00  0.00     0.004 C 
ENDBRANCH  10  11
ENDBRANCH   9  10
ENDBRANCH   8   9
ENDBRANCH   7   8
ENDBRANCH   6   7
ENDBRANCH   5   6
ENDBRANCH   4   5
ENDBRANCH   3   4
ENDBRANCH   2   3
ENDBRANCH   1   2
BRANCH   1  13
ATOM     13  C   UNL     1       1.699   6.039  -2.890  1.00  0.00     0.000 C 
BRANCH  13  14
ATOM     14  C   UNL     1       2.798   6.675  -3.759  1.00  0.00     0.000 C 
BRANCH  14  15
ATOM     15  C   UNL     1       4.213   6.373  -3.242  1.00  0.00     0.000 C 
BRANCH  15  16
ATOM     16  C   UNL     1       4.929   7.618  -2.690  1.00  0.00     0.000 C 
BRANCH  16  17
ATOM     17  C   UNL     1       5.209   7.519  -1.179  1.00  0.00     0.000 C 
BRANCH  17  18
ATOM     18  C   UNL     1       4.744   6.211  -0.510  1.00  0.00     0.000 C 
BRANCH  18  19
ATOM     19  C   UNL     1       3.700   6.384   0.608  1.00  0.00     0.000 C 
BRANCH  19  20
ATOM     20  C   UNL     1       4.303   6.964   1.898  1.00  0.00     0.006 C 
BRANCH  20  21
ATOM     21  C   UNL     1       4.890   5.875   2.806  1.00  0.00     0.053 C 
BRANCH  21  22
ATOM     22  C   UNL     1       3.816   5.103   3.509  1.00  0.00     0.041 C 
ATOM     23  O   UNL     1       3.293   5.557   4.560  1.00  0.00    -0.550 OA
ATOM     24  O   UNL     1       3.369   3.896   2.985  1.00  0.00    -0.550 OA
ENDBRANCH  21  22
ENDBRANCH  20  21
ENDBRANCH  19  20
ENDBRANCH  18  19
ENDBRANCH  17  18
ENDBRANCH  16  17
ENDBRANCH  15  16
ENDBRANCH  14  15
ENDBRANCH  13  14
ENDBRANCH   1  13
TORSDOF 20
ENDMDL
MODEL 7
REMARK VINA RESULT:    -3.471      1.642      3.527
REMARK INTER + INTRA:         -11.597
REMARK INTER:                  -7.918
REMARK INTRA:                  -3.680
REMARK UNBOUND:                -4.068
REMARK SMILES CCCCCCCCCCCCCCCCCCCCCC(=O)[O-]
REMARK SMILES IDX 12 1 11 2 10 3 9 4 8 5 7 6 6 7 5 8 4 9 3 10 2 11 1 12 13 13
REMARK SMILES IDX 14 14 15 15 16 16 17 17 18 18 19 19 20 20 21 21 22 22 23 23
REMARK SMILES IDX 24 24
REMARK H PARENT
REMARK Flexibility Score: inf
ROOT
ATOM      1  C   UNL     1       5.101   6.131   0.466  1.00  0.00     0.000 C 
ENDROOT
BRANCH   1   2
ATOM      2  C   UNL     1       5.863   6.053  -0.874  1.00  0.00     0.000 C 
BRANCH   2   3
ATOM      3  C   UNL     1       4.996   5.728  -2.109  1.00  0.00     0.000 C 
BRANCH   3   4
ATOM      4  C   UNL     1       5.055   6.774  -3.235  1.00  0.00    -0.000 C 
BRANCH   4   5
ATOM      5  C   UNL     1       6.004   7.943  -2.913  1.00  0.00    -0.000 C 
BRANCH   5   6
ATOM      6  C   UNL     1       5.255   9.202  -2.442  1.00  0.00    -0.000 C 
BRANCH   6   7
ATOM      7  C   UNL     1       3.728   9.170  -2.651  1.00  0.00    -0.000 C 
BRANCH   7   8
ATOM      8  C   UNL     1       2.945  10.035  -1.642  1.00  0.00    -0.000 C 
BRANCH   8   9
ATOM      9  C   UNL     1       1.481   9.582  -1.499  1.00  0.00    -0.000 C 
BRANCH   9  10
ATOM     10  C   UNL     1       1.080   8.513  -2.532  1.00  0.00    -0.000 C 
BRANCH  10  11
ATOM     11  C   UNL     1       0.905   7.094  -1.962  1.00  0.00    -0.003 C 
ATOM     12  C   UNL     1       1.508   6.014  -2.858  1.00  0.00     0.004 C 
ENDBRANCH  10  11
ENDBRANCH   9  10
ENDBRANCH   8   9
ENDBRANCH   7   8
ENDBRANCH   6   7
ENDBRANCH   5   6
ENDBRANCH   4   5
ENDBRANCH   3   4
ENDBRANCH   2   3
ENDBRANCH   1   2
BRANCH   1  13
ATOM     13  C   UNL     1       3.714   6.792   0.390  1.00  0.00     0.000 C 
BRANCH  13  14
ATOM     14  C   UNL     1       3.618   8.076   1.232  1.00  0.00     0.000 C 
BRANCH  14  15
ATOM     15  C   UNL     1       2.520   8.003   2.305  1.00  0.00     0.000 C 
BRANCH  15  16
ATOM     16  C   UNL     1       1.134   7.676   1.724  1.00  0.00     0.000 C 
BRANCH  16  17
ATOM     17  C   UNL     1       0.027   7.676   2.795  1.00  0.00     0.000 C 
BRANCH  17  18
ATOM     18  C   UNL     1      -0.489   6.283   3.205  1.00  0.00     0.000 C 
BRANCH  18  19
ATOM     19  C   UNL     1       0.040   5.113   2.356  1.00  0.00     0.000 C 
BRANCH  19  20
ATOM     20  C   UNL     1       0.787   4.062   3.194  1.00  0.00     0.006 C 
BRANCH  20  21
ATOM     21  C   UNL     1       2.309   4.255   3.146  1.00  0.00     0.053 C 
BRANCH  21  22
ATOM     22  C   UNL     1       2.821   4.922   4.386  1.00  0.00     0.041 C 
ATOM     23  O   UNL     1       3.931   5.515   4.375  1.00  0.00    -0.550 OA
ATOM     24  O   UNL     1       2.057   4.916   5.546  1.00  0.00    -0.550 OA
ENDBRANCH  21  22
ENDBRANCH  20  21
ENDBRANCH  19  20
ENDBRANCH  18  19
ENDBRANCH  17  18
ENDBRANCH  16  17
ENDBRANCH  15  16
ENDBRANCH  14  15
ENDBRANCH  13  14
ENDBRANCH   1  13
TORSDOF 20
ENDMDL
MODEL 8
REMARK VINA RESULT:    -3.435      1.337      2.743
REMARK INTER + INTRA:         -11.521
REMARK INTER:                  -8.377
REMARK INTRA:                  -3.144
REMARK UNBOUND:                -4.068
REMARK SMILES CCCCCCCCCCCCCCCCCCCCCC(=O)[O-]
REMARK SMILES IDX 12 1 11 2 10 3 9 4 8 5 7 6 6 7 5 8 4 9 3 10 2 11 1 12 13 13
REMARK SMILES IDX 14 14 15 15 16 16 17 17 18 18 19 19 20 20 21 21 22 22 23 23
REMARK SMILES IDX 24 24
REMARK H PARENT
REMARK Flexibility Score: inf
ROOT
ATOM      1  C   UNL     1       1.047   7.010  -1.823  1.00  0.00     0.000 C 
ENDROOT
BRANCH   1   2
ATOM      2  C   UNL     1       1.372   6.025  -2.965  1.00  0.00     0.000 C 
BRANCH   2   3
ATOM      3  C   UNL     1       2.611   6.382  -3.813  1.00  0.00     0.000 C 
BRANCH   3   4
ATOM      4  C   UNL     1       3.584   7.374  -3.153  1.00  0.00    -0.000 C 
BRANCH   4   5
ATOM      5  C   UNL     1       4.978   6.767  -2.909  1.00  0.00    -0.000 C 
BRANCH   5   6
ATOM      6  C   UNL     1       4.952   5.616  -1.888  1.00  0.00    -0.000 C 
BRANCH   6   7
ATOM      7  C   UNL     1       5.510   5.966  -0.495  1.00  0.00    -0.000 C 
BRANCH   7   8
ATOM      8  C   UNL     1       4.459   6.565   0.463  1.00  0.00    -0.000 C 
BRANCH   8   9
ATOM      9  C   UNL     1       5.052   7.660   1.367  1.00  0.00    -0.000 C 
BRANCH   9  10
ATOM     10  C   UNL     1       4.406   9.040   1.143  1.00  0.00    -0.000 C 
BRANCH  10  11
ATOM     11  C   UNL     1       4.450   9.549  -0.308  1.00  0.00    -0.003 C 
ATOM     12  C   UNL     1       3.116  10.125  -0.778  1.00  0.00     0.004 C 
ENDBRANCH  10  11
ENDBRANCH   9  10
ENDBRANCH   8   9
ENDBRANCH   7   8
ENDBRANCH   6   7
ENDBRANCH   5   6
ENDBRANCH   4   5
ENDBRANCH   3   4
ENDBRANCH   2   3
ENDBRANCH   1   2
BRANCH   1  13
ATOM     13  C   UNL     1       0.270   8.269  -2.248  1.00  0.00     0.000 C 
BRANCH  13  14
ATOM     14  C   UNL     1      -0.929   8.569  -1.331  1.00  0.00     0.000 C 
BRANCH  14  15
ATOM     15  C   UNL     1      -0.549   9.432  -0.118  1.00  0.00     0.000 C 
BRANCH  15  16
ATOM     16  C   UNL     1      -0.522   8.637   1.199  1.00  0.00     0.000 C 
BRANCH  16  17
ATOM     17  C   UNL     1       0.909   8.391   1.712  1.00  0.00     0.000 C 
BRANCH  17  18
ATOM     18  C   UNL     1       1.165   6.986   2.291  1.00  0.00     0.000 C 
BRANCH  18  19
ATOM     19  C   UNL     1      -0.096   6.213   2.717  1.00  0.00     0.000 C 
BRANCH  19  20
ATOM     20  C   UNL     1       0.090   4.688   2.645  1.00  0.00     0.006 C 
BRANCH  20  21
ATOM     21  C   UNL     1       0.379   4.072   4.020  1.00  0.00     0.053 C 
BRANCH  21  22
ATOM     22  C   UNL     1       1.808   4.266   4.424  1.00  0.00     0.041 C 
ATOM     23  O   UNL     1       2.093   4.668   5.582  1.00  0.00    -0.550 OA
ATOM     24  O   UNL     1       2.830   3.970   3.529  1.00  0.00    -0.550 OA
ENDBRANCH  21  22
ENDBRANCH  20  21
ENDBRANCH  19  20
ENDBRANCH  18  19
ENDBRANCH  17  18
ENDBRANCH  16  17
ENDBRANCH  15  16
ENDBRANCH  14  15
ENDBRANCH  13  14
ENDBRANCH   1  13
TORSDOF 20
ENDMDL
MODEL 9
REMARK VINA RESULT:    -3.421      2.495      4.166
REMARK INTER + INTRA:         -11.489
REMARK INTER:                  -8.718
REMARK INTRA:                  -2.771
REMARK UNBOUND:                -4.068
REMARK SMILES CCCCCCCCCCCCCCCCCCCCCC(=O)[O-]
REMARK SMILES IDX 12 1 11 2 10 3 9 4 8 5 7 6 6 7 5 8 4 9 3 10 2 11 1 12 13 13
REMARK SMILES IDX 14 14 15 15 16 16 17 17 18 18 19 19 20 20 21 21 22 22 23 23
REMARK SMILES IDX 24 24
REMARK H PARENT
REMARK Flexibility Score: inf
ROOT
ATOM      1  C   UNL     1       1.010   6.891  -0.197  1.00  0.00     0.000 C 
ENDROOT
BRANCH   1   2
ATOM      2  C   UNL     1       0.296   7.458  -1.441  1.00  0.00     0.000 C 
BRANCH   2   3
ATOM      3  C   UNL     1       1.202   7.720  -2.662  1.00  0.00     0.000 C 
BRANCH   3   4
ATOM      4  C   UNL     1       1.804   6.459  -3.305  1.00  0.00    -0.000 C 
BRANCH   4   5
ATOM      5  C   UNL     1       3.337   6.529  -3.431  1.00  0.00    -0.000 C 
BRANCH   5   6
ATOM      6  C   UNL     1       3.949   7.663  -2.591  1.00  0.00    -0.000 C 
BRANCH   6   7
ATOM      7  C   UNL     1       5.113   7.241  -1.673  1.00  0.00    -0.000 C 
BRANCH   7   8
ATOM      8  C   UNL     1       5.171   5.724  -1.401  1.00  0.00    -0.000 C 
BRANCH   8   9
ATOM      9  C   UNL     1       5.538   5.408   0.060  1.00  0.00    -0.000 C 
BRANCH   9  10
ATOM     10  C   UNL     1       4.963   6.430   1.058  1.00  0.00    -0.000 C 
BRANCH  10  11
ATOM     11  C   UNL     1       4.855   5.929   2.509  1.00  0.00    -0.003 C 
ATOM     12  C   UNL     1       3.849   4.792   2.673  1.00  0.00     0.004 C 
ENDBRANCH  10  11
ENDBRANCH   9  10
ENDBRANCH   8   9
ENDBRANCH   7   8
ENDBRANCH   6   7
ENDBRANCH   5   6
ENDBRANCH   4   5
ENDBRANCH   3   4
ENDBRANCH   2   3
ENDBRANCH   1   2
BRANCH   1  13
ATOM     13  C   UNL     1       1.663   7.944   0.717  1.00  0.00     0.000 C 
BRANCH  13  14
ATOM     14  C   UNL     1       1.510   7.614   2.212  1.00  0.00     0.000 C 
BRANCH  14  15
ATOM     15  C   UNL     1       0.041   7.541   2.657  1.00  0.00     0.000 C 
BRANCH  15  16
ATOM     16  C   UNL     1      -0.244   6.354   3.595  1.00  0.00     0.000 C 
BRANCH  16  17
ATOM     17  C   UNL     1      -0.266   5.005   2.853  1.00  0.00     0.000 C 
BRANCH  17  18
ATOM     18  C   UNL     1       0.180   3.790   3.689  1.00  0.00     0.000 C 
BRANCH  18  19
ATOM     19  C   UNL     1       0.828   4.129   5.044  1.00  0.00     0.000 C 
BRANCH  19  20
ATOM     20  C   UNL     1      -0.113   3.873   6.232  1.00  0.00     0.006 C 
BRANCH  20  21
ATOM     21  C   UNL     1      -0.170   5.066   7.197  1.00  0.00     0.053 C 
BRANCH  21  22
ATOM     22  C   UNL     1      -1.581   5.464   7.502  1.00  0.00     0.041 C 
ATOM     23  O   UNL     1      -2.027   6.574   7.109  1.00  0.00    -0.550 OA
ATOM     24  O   UNL     1      -2.415   4.594   8.193  1.00  0.00    -0.550 OA
ENDBRANCH  21  22
ENDBRANCH  20  21
ENDBRANCH  19  20
ENDBRANCH  18  19
ENDBRANCH  17  18
ENDBRANCH  16  17
ENDBRANCH  15  16
ENDBRANCH  14  15
ENDBRANCH  13  14
ENDBRANCH   1  13
TORSDOF 20
ENDMDL
