MODEL 1
REMARK VINA RESULT:    13.540      0.000      0.000
REMARK INTER + INTRA:          14.700
REMARK INTER:                  14.728
REMARK INTRA:                  -0.027
REMARK UNBOUND:                -0.027
REMARK SMILES O=C([O-])c1ccc(O)cc1
REMARK SMILES IDX 4 1 5 2 10 3 6 4 9 5 7 6 2 7 1 8 3 9 8 10
REMARK H PARENT 8 11
REMARK Flexibility Score: inf
ROOT
ATOM      1  C   UNL     1     -13.839  -7.567 -22.223  1.00  0.00    -0.003 A 
ATOM      2  C   UNL     1     -14.291  -6.876 -21.084  1.00  0.00     0.014 A 
ATOM      3  C   UNL     1     -12.824  -8.530 -22.078  1.00  0.00     0.014 A 
ATOM      4  C   UNL     1     -13.738  -7.143 -19.827  1.00  0.00     0.047 A 
ATOM      5  C   UNL     1     -12.275  -8.795 -20.820  1.00  0.00     0.047 A 
ATOM      6  C   UNL     1     -12.731  -8.102 -19.691  1.00  0.00     0.115 A 
ENDROOT
BRANCH   1   7
ATOM      7  C   UNL     1     -14.419  -7.289 -23.555  1.00  0.00     0.071 C 
ATOM      8  O   UNL     1     -15.236  -8.092 -24.079  1.00  0.00    -0.545 OA
ATOM      9  O   UNL     1     -14.070  -6.136 -24.249  1.00  0.00    -0.545 OA
ENDBRANCH   1   7
BRANCH   6  10
ATOM     10  O   UNL     1     -12.190  -8.358 -18.433  1.00  0.00    -0.508 OA
ATOM     11  H   UNL     1     -12.596  -7.965 -17.593  1.00  0.00     0.293 HD
ENDBRANCH   6  10
TORSDOF 2
ENDMDL
MODEL 2
REMARK VINA RESULT:    14.115      0.925      4.536
REMARK INTER + INTRA:          15.326
REMARK INTER:                  15.353
REMARK INTRA:                  -0.027
REMARK UNBOUND:                -0.027
REMARK SMILES O=C([O-])c1ccc(O)cc1
REMARK SMILES IDX 4 1 5 2 10 3 6 4 9 5 7 6 2 7 1 8 3 9 8 10
REMARK H PARENT 8 11
REMARK Flexibility Score: inf
ROOT
ATOM      1  C   UNL     1     -13.070  -8.020 -20.492  1.00  0.00    -0.003 A 
ATOM      2  C   UNL     1     -12.671  -8.819 -21.580  1.00  0.00     0.014 A 
ATOM      3  C   UNL     1     -14.126  -7.108 -20.668  1.00  0.00     0.014 A 
ATOM      4  C   UNL     1     -13.317  -8.707 -22.815  1.00  0.00     0.047 A 
ATOM      5  C   UNL     1     -14.769  -7.000 -21.905  1.00  0.00     0.047 A 
ATOM      6  C   UNL     1     -14.366  -7.800 -22.981  1.00  0.00     0.115 A 
ENDROOT
BRANCH   1   7
ATOM      7  C   UNL     1     -12.391  -8.133 -19.183  1.00  0.00     0.071 C 
ATOM      8  O   UNL     1     -11.393  -7.411 -18.914  1.00  0.00    -0.545 OA
ATOM      9  O   UNL     1     -12.843  -9.037 -18.229  1.00  0.00    -0.545 OA
ENDBRANCH   1   7
BRANCH   6  10
ATOM     10  O   UNL     1     -15.000  -7.699 -24.218  1.00  0.00    -0.508 OA
ATOM     11  H   UNL     1     -15.297  -8.522 -24.729  1.00  0.00     0.293 HD
ENDBRANCH   6  10
TORSDOF 2
ENDMDL
MODEL 3
REMARK VINA RESULT:    14.689     22.301     23.210
REMARK INTER + INTRA:          15.950
REMARK INTER:                  15.986
REMARK INTRA:                  -0.036
REMARK UNBOUND:                -0.027
REMARK SMILES O=C([O-])c1ccc(O)cc1
REMARK SMILES IDX 4 1 5 2 10 3 6 4 9 5 7 6 2 7 1 8 3 9 8 10
REMARK H PARENT 8 11
REMARK Flexibility Score: inf
ROOT
ATOM      1  C   UNL     1     -29.050 -19.701  -8.508  1.00  0.00    -0.003 A 
ATOM      2  C   UNL     1     -28.427 -19.664  -9.770  1.00  0.00     0.014 A 
ATOM      3  C   UNL     1     -28.295 -19.379  -7.366  1.00  0.00     0.014 A 
ATOM      4  C   UNL     1     -27.078 -19.314  -9.884  1.00  0.00     0.047 A 
ATOM      5  C   UNL     1     -26.946 -19.028  -7.485  1.00  0.00     0.047 A 
ATOM      6  C   UNL     1     -26.335 -18.994  -8.744  1.00  0.00     0.115 A 
ENDROOT
BRANCH   1   7
ATOM      7  C   UNL     1     -30.476 -20.072  -8.380  1.00  0.00     0.071 C 
ATOM      8  O   UNL     1     -31.123 -20.483  -9.380  1.00  0.00    -0.545 OA
ATOM      9  O   UNL     1     -31.123 -19.972  -7.154  1.00  0.00    -0.545 OA
ENDBRANCH   1   7
BRANCH   6  10
ATOM     10  O   UNL     1     -24.992 -18.647  -8.874  1.00  0.00    -0.508 OA
ATOM     11  H   UNL     1     -24.574 -18.478  -9.781  1.00  0.00     0.293 HD
ENDBRANCH   6  10
TORSDOF 2
ENDMDL
MODEL 4
REMARK VINA RESULT:    16.237     11.248     12.113
REMARK INTER + INTRA:          17.634
REMARK INTER:                  17.662
REMARK INTRA:                  -0.028
REMARK UNBOUND:                -0.027
REMARK SMILES O=C([O-])c1ccc(O)cc1
REMARK SMILES IDX 4 1 5 2 10 3 6 4 9 5 7 6 2 7 1 8 3 9 8 10
REMARK H PARENT 8 11
REMARK Flexibility Score: inf
ROOT
ATOM      1  C   UNL     1     -19.273 -17.189 -16.229  1.00  0.00    -0.003 A 
ATOM      2  C   UNL     1     -18.409 -16.700 -15.232  1.00  0.00     0.014 A 
ATOM      3  C   UNL     1     -18.952 -16.963 -17.580  1.00  0.00     0.014 A 
ATOM      4  C   UNL     1     -17.249 -16.001 -15.581  1.00  0.00     0.047 A 
ATOM      5  C   UNL     1     -17.790 -16.265 -17.924  1.00  0.00     0.047 A 
ATOM      6  C   UNL     1     -16.936 -15.783 -16.925  1.00  0.00     0.115 A 
ENDROOT
BRANCH   1   7
ATOM      7  C   UNL     1     -20.503 -17.928 -15.868  1.00  0.00     0.071 C 
ATOM      8  O   UNL     1     -20.646 -19.134 -16.202  1.00  0.00    -0.545 OA
ATOM      9  O   UNL     1     -21.518 -17.302 -15.154  1.00  0.00    -0.545 OA
ENDBRANCH   1   7
BRANCH   6  10
ATOM     10  O   UNL     1     -15.776 -15.085 -17.257  1.00  0.00    -0.508 OA
ATOM     11  H   UNL     1     -15.121 -14.780 -16.547  1.00  0.00     0.293 HD
ENDBRANCH   6  10
TORSDOF 2
ENDMDL
MODEL 5
REMARK VINA RESULT:    16.481     16.786     17.769
REMARK INTER + INTRA:          17.899
REMARK INTER:                  17.934
REMARK INTRA:                  -0.035
REMARK UNBOUND:                -0.027
REMARK SMILES O=C([O-])c1ccc(O)cc1
REMARK SMILES IDX 4 1 5 2 10 3 6 4 9 5 7 6 2 7 1 8 3 9 8 10
REMARK H PARENT 8 11
REMARK Flexibility Score: inf
ROOT
ATOM      1  C   UNL     1     -27.959  -4.935 -10.956  1.00  0.00    -0.003 A 
ATOM      2  C   UNL     1     -27.970  -6.250 -10.456  1.00  0.00     0.014 A 
ATOM      3  C   UNL     1     -26.783  -4.442 -11.551  1.00  0.00     0.014 A 
ATOM      4  C   UNL     1     -26.829  -7.054 -10.549  1.00  0.00     0.047 A 
ATOM      5  C   UNL     1     -25.645  -5.250 -11.644  1.00  0.00     0.047 A 
ATOM      6  C   UNL     1     -25.666  -6.558 -11.144  1.00  0.00     0.115 A 
ENDROOT
BRANCH   1   7
ATOM      7  C   UNL     1     -29.161  -4.079 -10.860  1.00  0.00     0.071 C 
ATOM      8  O   UNL     1     -30.068  -4.340 -10.024  1.00  0.00    -0.545 OA
ATOM      9  O   UNL     1     -29.309  -2.975 -11.690  1.00  0.00    -0.545 OA
ENDBRANCH   1   7
BRANCH   6  10
ATOM     10  O   UNL     1     -24.537  -7.370 -11.230  1.00  0.00    -0.508 OA
ATOM     11  H   UNL     1     -24.512  -8.179 -11.839  1.00  0.00     0.293 HD
ENDBRANCH   6  10
TORSDOF 2
ENDMDL
MODEL 6
REMARK VINA RESULT:    16.489     16.858     18.083
REMARK INTER + INTRA:          17.908
REMARK INTER:                  17.940
REMARK INTRA:                  -0.032
REMARK UNBOUND:                -0.027
REMARK SMILES O=C([O-])c1ccc(O)cc1
REMARK SMILES IDX 4 1 5 2 10 3 6 4 9 5 7 6 2 7 1 8 3 9 8 10
REMARK H PARENT 8 11
REMARK Flexibility Score: inf
ROOT
ATOM      1  C   UNL     1     -27.089  -6.187 -10.881  1.00  0.00    -0.003 A 
ATOM      2  C   UNL     1     -26.778  -5.040 -11.634  1.00  0.00     0.014 A 
ATOM      3  C   UNL     1     -28.283  -6.212 -10.138  1.00  0.00     0.014 A 
ATOM      4  C   UNL     1     -27.645  -3.943 -11.644  1.00  0.00     0.047 A 
ATOM      5  C   UNL     1     -29.148  -5.113 -10.152  1.00  0.00     0.047 A 
ATOM      6  C   UNL     1     -28.831  -3.976 -10.905  1.00  0.00     0.115 A 
ENDROOT
BRANCH   1   7
ATOM      7  C   UNL     1     -26.176  -7.351 -10.865  1.00  0.00     0.071 C 
ATOM      8  O   UNL     1     -26.635  -8.525 -10.857  1.00  0.00    -0.545 OA
ATOM      9  O   UNL     1     -24.799  -7.167 -10.859  1.00  0.00    -0.545 OA
ENDBRANCH   1   7
BRANCH   6  10
ATOM     10  O   UNL     1     -29.685  -2.875 -10.925  1.00  0.00    -0.508 OA
ATOM     11  H   UNL     1     -29.662  -2.201 -11.681  1.00  0.00     0.293 HD
ENDBRANCH   6  10
TORSDOF 2
ENDMDL
