MODEL 1
REMARK VINA RESULT:    -3.527      0.000      0.000
REMARK INTER + INTRA:          -3.954
REMARK INTER:                  -3.939
REMARK INTRA:                  -0.015
REMARK UNBOUND:                -0.015
REMARK SMILES CCCC(=O)[O-]
REMARK SMILES IDX 3 1 4 2 5 3 6 4 2 5 1 6
REMARK H PARENT
REMARK Flexibility Score: inf
ROOT
ATOM      1  C   UNL     1      -4.780 -27.811  27.253  1.00  0.00     0.052 C 
ENDROOT
BRANCH   1   2
ATOM      2  C   UNL     1      -4.234 -28.432  28.499  1.00  0.00     0.041 C 
ATOM      3  O   UNL     1      -2.994 -28.426  28.720  1.00  0.00    -0.550 OA
ATOM      4  O   UNL     1      -5.089 -29.063  29.393  1.00  0.00    -0.550 OA
ENDBRANCH   1   2
BRANCH   1   5
ATOM      5  C   UNL     1      -3.703 -27.752  26.167  1.00  0.00     0.003 C 
ATOM      6  C   UNL     1      -4.282 -28.095  24.798  1.00  0.00     0.004 C 
ENDBRANCH   1   5
TORSDOF 2
ENDMDL
MODEL 2
REMARK VINA RESULT:    -3.442      0.551      1.426
REMARK INTER + INTRA:          -3.859
REMARK INTER:                  -3.851
REMARK INTRA:                  -0.008
REMARK UNBOUND:                -0.015
REMARK SMILES CCCC(=O)[O-]
REMARK SMILES IDX 3 1 4 2 5 3 6 4 2 5 1 6
REMARK H PARENT
REMARK Flexibility Score: inf
ROOT
ATOM      1  C   UNL     1      -5.078 -27.813  27.260  1.00  0.00     0.052 C 
ENDROOT
BRANCH   1   2
ATOM      2  C   UNL     1      -4.258 -28.371  28.380  1.00  0.00     0.041 C 
ATOM      3  O   UNL     1      -4.814 -28.991  29.324  1.00  0.00    -0.550 OA
ATOM      4  O   UNL     1      -2.885 -28.162  28.407  1.00  0.00    -0.550 OA
ENDBRANCH   1   2
BRANCH   1   5
ATOM      5  C   UNL     1      -4.266 -27.789  25.962  1.00  0.00     0.003 C 
ATOM      6  C   UNL     1      -5.166 -27.540  24.755  1.00  0.00     0.004 C 
ENDBRANCH   1   5
TORSDOF 2
ENDMDL
MODEL 3
REMARK VINA RESULT:    -2.958      2.019      2.647
REMARK INTER + INTRA:          -3.318
REMARK INTER:                  -3.295
REMARK INTRA:                  -0.024
REMARK UNBOUND:                -0.015
REMARK SMILES CCCC(=O)[O-]
REMARK SMILES IDX 3 1 4 2 5 3 6 4 2 5 1 6
REMARK H PARENT
REMARK Flexibility Score: inf
ROOT
ATOM      1  C   UNL     1      -5.086 -27.645  26.625  1.00  0.00     0.052 C 
ENDROOT
BRANCH   1   2
ATOM      2  C   UNL     1      -3.593 -27.660  26.707  1.00  0.00     0.041 C 
ATOM      3  O   UNL     1      -3.021 -27.922  27.797  1.00  0.00    -0.550 OA
ATOM      4  O   UNL     1      -2.833 -27.336  25.590  1.00  0.00    -0.550 OA
ENDBRANCH   1   2
BRANCH   1   5
ATOM      5  C   UNL     1      -5.542 -27.306  25.204  1.00  0.00     0.003 C 
ATOM      6  C   UNL     1      -6.633 -26.239  25.214  1.00  0.00     0.004 C 
ENDBRANCH   1   5
TORSDOF 2
ENDMDL
MODEL 4
REMARK VINA RESULT:    -2.867      1.968      2.427
REMARK INTER + INTRA:          -3.217
REMARK INTER:                  -3.203
REMARK INTRA:                  -0.014
REMARK UNBOUND:                -0.015
REMARK SMILES CCCC(=O)[O-]
REMARK SMILES IDX 3 1 4 2 5 3 6 4 2 5 1 6
REMARK H PARENT
REMARK Flexibility Score: inf
ROOT
ATOM      1  C   UNL     1      -5.111 -27.639  26.688  1.00  0.00     0.052 C 
ENDROOT
BRANCH   1   2
ATOM      2  C   UNL     1      -3.619 -27.669  26.780  1.00  0.00     0.041 C 
ATOM      3  O   UNL     1      -2.916 -27.356  25.783  1.00  0.00    -0.550 OA
ATOM      4  O   UNL     1      -3.003 -28.092  27.951  1.00  0.00    -0.550 OA
ENDBRANCH   1   2
BRANCH   1   5
ATOM      5  C   UNL     1      -5.554 -27.252  25.275  1.00  0.00     0.003 C 
ATOM      6  C   UNL     1      -7.006 -26.784  25.261  1.00  0.00     0.004 C 
ENDBRANCH   1   5
TORSDOF 2
ENDMDL
MODEL 5
REMARK VINA RESULT:    -2.702      2.969      3.747
REMARK INTER + INTRA:          -3.032
REMARK INTER:                  -3.022
REMARK INTRA:                  -0.010
REMARK UNBOUND:                -0.015
REMARK SMILES CCCC(=O)[O-]
REMARK SMILES IDX 3 1 4 2 5 3 6 4 2 5 1 6
REMARK H PARENT
REMARK Flexibility Score: inf
ROOT
ATOM      1  C   UNL     1      -5.248 -27.620  26.861  1.00  0.00     0.052 C 
ENDROOT
BRANCH   1   2
ATOM      2  C   UNL     1      -5.638 -27.178  25.486  1.00  0.00     0.041 C 
ATOM      3  O   UNL     1      -6.814 -26.795  25.254  1.00  0.00    -0.550 OA
ATOM      4  O   UNL     1      -4.715 -27.236  24.450  1.00  0.00    -0.550 OA
ENDBRANCH   1   2
BRANCH   1   5
ATOM      5  C   UNL     1      -3.744 -27.894  26.929  1.00  0.00     0.003 C 
ATOM      6  C   UNL     1      -3.330 -28.353  28.325  1.00  0.00     0.004 C 
ENDBRANCH   1   5
TORSDOF 2
ENDMDL
MODEL 6
REMARK VINA RESULT:    -2.490     20.845     21.296
REMARK INTER + INTRA:          -2.796
REMARK INTER:                  -2.762
REMARK INTRA:                  -0.034
REMARK UNBOUND:                -0.015
REMARK SMILES CCCC(=O)[O-]
REMARK SMILES IDX 3 1 4 2 5 3 6 4 2 5 1 6
REMARK H PARENT
REMARK Flexibility Score: inf
ROOT
ATOM      1  C   UNL     1     -17.935 -13.262  23.208  1.00  0.00     0.052 C 
ENDROOT
BRANCH   1   2
ATOM      2  C   UNL     1     -18.864 -12.188  23.676  1.00  0.00     0.041 C 
ATOM      3  O   UNL     1     -18.605 -11.538  24.723  1.00  0.00    -0.550 OA
ATOM      4  O   UNL     1     -20.042 -11.938  22.984  1.00  0.00    -0.550 OA
ENDBRANCH   1   2
BRANCH   1   5
ATOM      5  C   UNL     1     -16.971 -13.663  24.327  1.00  0.00     0.003 C 
ATOM      6  C   UNL     1     -17.264 -15.075  24.827  1.00  0.00     0.004 C 
ENDBRANCH   1   5
TORSDOF 2
ENDMDL
MODEL 7
REMARK VINA RESULT:    -2.432     19.771     20.259
REMARK INTER + INTRA:          -2.731
REMARK INTER:                  -2.688
REMARK INTRA:                  -0.043
REMARK UNBOUND:                -0.015
REMARK SMILES CCCC(=O)[O-]
REMARK SMILES IDX 3 1 4 2 5 3 6 4 2 5 1 6
REMARK H PARENT
REMARK Flexibility Score: inf
ROOT
ATOM      1  C   UNL     1     -17.154 -13.539  24.537  1.00  0.00     0.052 C 
ENDROOT
BRANCH   1   2
ATOM      2  C   UNL     1     -18.327 -12.849  25.160  1.00  0.00     0.041 C 
ATOM      3  O   UNL     1     -18.444 -11.599  25.077  1.00  0.00    -0.550 OA
ATOM      4  O   UNL     1     -19.264 -13.583  25.876  1.00  0.00    -0.550 OA
ENDBRANCH   1   2
BRANCH   1   5
ATOM      5  C   UNL     1     -16.899 -14.885  25.220  1.00  0.00     0.003 C 
ATOM      6  C   UNL     1     -15.943 -14.732  26.399  1.00  0.00     0.004 C 
ENDBRANCH   1   5
TORSDOF 2
ENDMDL
MODEL 8
REMARK VINA RESULT:    -2.426     20.848     21.249
REMARK INTER + INTRA:          -2.724
REMARK INTER:                  -2.676
REMARK INTRA:                  -0.048
REMARK UNBOUND:                -0.015
REMARK SMILES CCCC(=O)[O-]
REMARK SMILES IDX 3 1 4 2 5 3 6 4 2 5 1 6
REMARK H PARENT
REMARK Flexibility Score: inf
ROOT
ATOM      1  C   UNL     1     -17.534 -13.375  23.590  1.00  0.00     0.052 C 
ENDROOT
BRANCH   1   2
ATOM      2  C   UNL     1     -18.563 -12.690  24.433  1.00  0.00     0.041 C 
ATOM      3  O   UNL     1     -19.114 -13.306  25.383  1.00  0.00    -0.550 OA
ATOM      4  O   UNL     1     -18.949 -11.390  24.138  1.00  0.00    -0.550 OA
ENDBRANCH   1   2
BRANCH   1   5
ATOM      5  C   UNL     1     -18.196 -14.386  22.651  1.00  0.00     0.003 C 
ATOM      6  C   UNL     1     -18.567 -13.741  21.319  1.00  0.00     0.004 C 
ENDBRANCH   1   5
TORSDOF 2
ENDMDL
MODEL 9
REMARK VINA RESULT:    -2.271     11.617     12.175
REMARK INTER + INTRA:          -2.551
REMARK INTER:                  -2.544
REMARK INTRA:                  -0.007
REMARK UNBOUND:                -0.015
REMARK SMILES CCCC(=O)[O-]
REMARK SMILES IDX 3 1 4 2 5 3 6 4 2 5 1 6
REMARK H PARENT
REMARK Flexibility Score: inf
ROOT
ATOM      1  C   UNL     1     -11.861 -21.306  21.757  1.00  0.00     0.052 C 
ENDROOT
BRANCH   1   2
ATOM      2  C   UNL     1     -12.706 -21.223  22.989  1.00  0.00     0.041 C 
ATOM      3  O   UNL     1     -13.753 -20.524  22.993  1.00  0.00    -0.550 OA
ATOM      4  O   UNL     1     -12.311 -21.879  24.147  1.00  0.00    -0.550 OA
ENDBRANCH   1   2
BRANCH   1   5
ATOM      5  C   UNL     1     -11.583 -19.907  21.203  1.00  0.00     0.003 C 
ATOM      6  C   UNL     1     -10.242 -19.859  20.476  1.00  0.00     0.004 C 
ENDBRANCH   1   5
TORSDOF 2
ENDMDL
