MODEL 1
REMARK VINA RESULT:    -5.674      0.000      0.000
REMARK INTER + INTRA:          -6.080
REMARK INTER:                  -6.172
REMARK INTRA:                   0.092
REMARK UNBOUND:                 0.092
REMARK SMILES C=C(C)[C@@H]1CC[C@@H](C)C[C@H]1O
REMARK SMILES IDX 8 1 7 2 6 3 5 4 4 5 10 6 9 7 11 8 2 10 1 11 3 12
REMARK H PARENT 11 9
REMARK Flexibility Score: inf
ROOT
ATOM      1  C   UNL     1     137.409 123.002 137.333  1.00  0.00     0.008 C 
ATOM      2  C   UNL     1     136.670 122.882 138.670  1.00  0.00    -0.012 C 
ATOM      3  C   UNL     1     135.484 123.862 138.720  1.00  0.00     0.004 C 
ATOM      4  C   UNL     1     134.747 123.762 140.062  1.00  0.00     0.011 C 
ATOM      5  C   UNL     1     135.709 124.017 141.241  1.00  0.00     0.043 C 
ATOM      6  C   UNL     1     136.905 123.039 141.197  1.00  0.00     0.121 C 
ATOM      7  C   UNL     1     137.635 123.140 139.845  1.00  0.00     0.035 C 
ENDROOT
BRANCH   6   8
ATOM      8  O   UNL     1     137.799 123.349 142.236  1.00  0.00    -0.392 OA
ATOM      9  H   UNL     1     137.756 122.600 142.886  1.00  0.00     0.210 HD
ENDBRANCH   6   8
BRANCH   5  10
ATOM     10  C   UNL     1     134.970 123.945 142.573  1.00  0.00    -0.075 C 
ATOM     11  C   UNL     1     133.832 123.243 142.705  1.00  0.00     0.008 C 
ATOM     12  C   UNL     1     135.516 124.670 143.778  1.00  0.00     0.039 C 
ENDBRANCH   5  10
TORSDOF 2
ENDMDL
MODEL 2
REMARK VINA RESULT:    -5.401      1.795      2.878
REMARK INTER + INTRA:          -5.782
REMARK INTER:                  -5.793
REMARK INTRA:                   0.011
REMARK UNBOUND:                 0.092
REMARK SMILES C=C(C)[C@@H]1CC[C@@H](C)C[C@H]1O
REMARK SMILES IDX 8 1 7 2 6 3 5 4 4 5 10 6 9 7 11 8 2 10 1 11 3 12
REMARK H PARENT 11 9
REMARK Flexibility Score: inf
ROOT
ATOM      1  C   UNL     1     135.448 122.060 140.046  1.00  0.00     0.008 C 
ATOM      2  C   UNL     1     135.538 122.610 141.473  1.00  0.00    -0.012 C 
ATOM      3  C   UNL     1     134.409 123.624 141.733  1.00  0.00     0.004 C 
ATOM      4  C   UNL     1     134.500 124.194 143.154  1.00  0.00     0.011 C 
ATOM      5  C   UNL     1     135.877 124.843 143.401  1.00  0.00     0.043 C 
ATOM      6  C   UNL     1     137.018 123.833 143.140  1.00  0.00     0.121 C 
ATOM      7  C   UNL     1     136.915 123.261 141.715  1.00  0.00     0.035 C 
ENDROOT
BRANCH   6   8
ATOM      8  O   UNL     1     138.257 124.478 143.298  1.00  0.00    -0.392 OA
ATOM      9  H   UNL     1     138.468 124.911 142.431  1.00  0.00     0.210 HD
ENDBRANCH   6   8
BRANCH   5  10
ATOM     10  C   UNL     1     135.958 125.435 144.804  1.00  0.00    -0.075 C 
ATOM     11  C   UNL     1     136.416 124.714 145.842  1.00  0.00     0.008 C 
ATOM     12  C   UNL     1     135.521 126.856 145.051  1.00  0.00     0.039 C 
ENDBRANCH   5  10
TORSDOF 2
ENDMDL
MODEL 3
REMARK VINA RESULT:    -5.186      1.275      4.058
REMARK INTER + INTRA:          -5.549
REMARK INTER:                  -5.367
REMARK INTRA:                  -0.182
REMARK UNBOUND:                 0.092
REMARK SMILES C=C(C)[C@@H]1CC[C@@H](C)C[C@H]1O
REMARK SMILES IDX 8 1 7 2 6 3 5 4 4 5 10 6 9 7 11 8 2 10 1 11 3 12
REMARK H PARENT 11 9
REMARK Flexibility Score: inf
ROOT
ATOM      1  C   UNL     1     135.773 124.476 144.591  1.00  0.00     0.008 C 
ATOM      2  C   UNL     1     135.724 124.443 143.060  1.00  0.00    -0.012 C 
ATOM      3  C   UNL     1     134.402 123.822 142.575  1.00  0.00     0.004 C 
ATOM      4  C   UNL     1     134.350 123.768 141.043  1.00  0.00     0.011 C 
ATOM      5  C   UNL     1     135.553 122.988 140.477  1.00  0.00     0.043 C 
ATOM      6  C   UNL     1     136.887 123.604 140.960  1.00  0.00     0.121 C 
ATOM      7  C   UNL     1     136.928 123.660 142.498  1.00  0.00     0.035 C 
ENDROOT
BRANCH   6   8
ATOM      8  O   UNL     1     137.957 122.824 140.490  1.00  0.00    -0.392 OA
ATOM      9  H   UNL     1     137.707 122.509 139.583  1.00  0.00     0.210 HD
ENDBRANCH   6   8
BRANCH   5  10
ATOM     10  C   UNL     1     135.486 122.911 138.955  1.00  0.00    -0.075 C 
ATOM     11  C   UNL     1     135.454 121.729 138.316  1.00  0.00     0.008 C 
ATOM     12  C   UNL     1     135.454 124.176 138.135  1.00  0.00     0.039 C 
ENDBRANCH   5  10
TORSDOF 2
ENDMDL
MODEL 4
REMARK VINA RESULT:    -5.102      1.789      4.461
REMARK INTER + INTRA:          -5.457
REMARK INTER:                  -5.312
REMARK INTRA:                  -0.145
REMARK UNBOUND:                 0.092
REMARK SMILES C=C(C)[C@@H]1CC[C@@H](C)C[C@H]1O
REMARK SMILES IDX 8 1 7 2 6 3 5 4 4 5 10 6 9 7 11 8 2 10 1 11 3 12
REMARK H PARENT 11 9
REMARK Flexibility Score: inf
ROOT
ATOM      1  C   UNL     1     133.420 123.420 142.738  1.00  0.00     0.008 C 
ATOM      2  C   UNL     1     134.009 123.317 141.327  1.00  0.00    -0.012 C 
ATOM      3  C   UNL     1     134.837 122.027 141.181  1.00  0.00     0.004 C 
ATOM      4  C   UNL     1     135.445 121.922 139.777  1.00  0.00     0.011 C 
ATOM      5  C   UNL     1     136.308 123.158 139.454  1.00  0.00     0.043 C 
ATOM      6  C   UNL     1     135.485 124.459 139.600  1.00  0.00     0.121 C 
ATOM      7  C   UNL     1     134.874 124.554 141.010  1.00  0.00     0.035 C 
ENDROOT
BRANCH   6   8
ATOM      8  O   UNL     1     136.320 125.567 139.376  1.00  0.00    -0.392 OA
ATOM      9  H   UNL     1     135.808 126.203 138.813  1.00  0.00     0.210 HD
ENDBRANCH   6   8
BRANCH   5  10
ATOM     10  C   UNL     1     136.935 123.041 138.069  1.00  0.00    -0.075 C 
ATOM     11  C   UNL     1     136.213 122.648 137.006  1.00  0.00     0.008 C 
ATOM     12  C   UNL     1     138.392 123.369 137.870  1.00  0.00     0.039 C 
ENDBRANCH   5  10
TORSDOF 2
ENDMDL
MODEL 5
REMARK VINA RESULT:    -5.088      1.118      4.024
REMARK INTER + INTRA:          -5.441
REMARK INTER:                  -5.630
REMARK INTRA:                   0.189
REMARK UNBOUND:                 0.092
REMARK SMILES C=C(C)[C@@H]1CC[C@@H](C)C[C@H]1O
REMARK SMILES IDX 8 1 7 2 6 3 5 4 4 5 10 6 9 7 11 8 2 10 1 11 3 12
REMARK H PARENT 11 9
REMARK Flexibility Score: inf
ROOT
ATOM      1  C   UNL     1     132.588 123.367 142.613  1.00  0.00     0.008 C 
ATOM      2  C   UNL     1     133.864 123.649 141.812  1.00  0.00    -0.012 C 
ATOM      3  C   UNL     1     134.091 122.553 140.755  1.00  0.00     0.004 C 
ATOM      4  C   UNL     1     135.375 122.817 139.958  1.00  0.00     0.011 C 
ATOM      5  C   UNL     1     136.594 122.926 140.896  1.00  0.00     0.043 C 
ATOM      6  C   UNL     1     136.374 124.023 141.962  1.00  0.00     0.121 C 
ATOM      7  C   UNL     1     135.081 123.754 142.753  1.00  0.00     0.035 C 
ENDROOT
BRANCH   6   8
ATOM      8  O   UNL     1     137.468 124.041 142.845  1.00  0.00    -0.392 OA
ATOM      9  H   UNL     1     137.198 124.592 143.625  1.00  0.00     0.210 HD
ENDBRANCH   6   8
BRANCH   5  10
ATOM     10  C   UNL     1     137.875 123.160 140.101  1.00  0.00    -0.075 C 
ATOM     11  C   UNL     1     139.083 122.897 140.628  1.00  0.00     0.008 C 
ATOM     12  C   UNL     1     137.803 123.696 138.694  1.00  0.00     0.039 C 
ENDBRANCH   5  10
TORSDOF 2
ENDMDL
MODEL 6
REMARK VINA RESULT:    -5.072      1.783      4.382
REMARK INTER + INTRA:          -5.425
REMARK INTER:                  -5.429
REMARK INTRA:                   0.004
REMARK UNBOUND:                 0.092
REMARK SMILES C=C(C)[C@@H]1CC[C@@H](C)C[C@H]1O
REMARK SMILES IDX 8 1 7 2 6 3 5 4 4 5 10 6 9 7 11 8 2 10 1 11 3 12
REMARK H PARENT 11 9
REMARK Flexibility Score: inf
ROOT
ATOM      1  C   UNL     1     132.701 123.372 142.627  1.00  0.00     0.008 C 
ATOM      2  C   UNL     1     134.113 123.088 142.104  1.00  0.00    -0.012 C 
ATOM      3  C   UNL     1     134.968 124.368 142.138  1.00  0.00     0.004 C 
ATOM      4  C   UNL     1     136.380 124.099 141.601  1.00  0.00     0.011 C 
ATOM      5  C   UNL     1     136.326 123.522 140.172  1.00  0.00     0.043 C 
ATOM      6  C   UNL     1     135.467 122.237 140.127  1.00  0.00     0.121 C 
ATOM      7  C   UNL     1     134.055 122.515 140.674  1.00  0.00     0.035 C 
ENDROOT
BRANCH   6   8
ATOM      8  O   UNL     1     135.375 121.784 138.800  1.00  0.00    -0.392 OA
ATOM      9  H   UNL     1     134.416 121.599 138.625  1.00  0.00     0.210 HD
ENDBRANCH   6   8
BRANCH   5  10
ATOM     10  C   UNL     1     137.730 123.281 139.627  1.00  0.00    -0.075 C 
ATOM     11  C   UNL     1     138.749 122.955 140.440  1.00  0.00     0.008 C 
ATOM     12  C   UNL     1     137.998 123.405 138.149  1.00  0.00     0.039 C 
ENDBRANCH   5  10
TORSDOF 2
ENDMDL
MODEL 7
REMARK VINA RESULT:    -4.920      1.714      2.418
REMARK INTER + INTRA:          -5.259
REMARK INTER:                  -5.065
REMARK INTRA:                  -0.194
REMARK UNBOUND:                 0.092
REMARK SMILES C=C(C)[C@@H]1CC[C@@H](C)C[C@H]1O
REMARK SMILES IDX 8 1 7 2 6 3 5 4 4 5 10 6 9 7 11 8 2 10 1 11 3 12
REMARK H PARENT 11 9
REMARK Flexibility Score: inf
ROOT
ATOM      1  C   UNL     1     139.429 122.667 138.958  1.00  0.00     0.008 C 
ATOM      2  C   UNL     1     138.309 123.336 139.760  1.00  0.00    -0.012 C 
ATOM      3  C   UNL     1     138.171 122.679 141.146  1.00  0.00     0.004 C 
ATOM      4  C   UNL     1     137.040 123.330 141.952  1.00  0.00     0.011 C 
ATOM      5  C   UNL     1     135.704 123.261 141.185  1.00  0.00     0.043 C 
ATOM      6  C   UNL     1     135.833 123.917 139.791  1.00  0.00     0.121 C 
ATOM      7  C   UNL     1     136.974 123.262 138.992  1.00  0.00     0.035 C 
ENDROOT
BRANCH   6   8
ATOM      8  O   UNL     1     134.624 123.767 139.092  1.00  0.00    -0.392 OA
ATOM      9  H   UNL     1     133.910 124.145 139.667  1.00  0.00     0.210 HD
ENDBRANCH   6   8
BRANCH   5  10
ATOM     10  C   UNL     1     134.575 123.884 141.999  1.00  0.00    -0.075 C 
ATOM     11  C   UNL     1     133.543 123.145 142.442  1.00  0.00     0.008 C 
ATOM     12  C   UNL     1     134.600 125.355 142.324  1.00  0.00     0.039 C 
ENDBRANCH   5  10
TORSDOF 2
ENDMDL
MODEL 8
REMARK VINA RESULT:    -4.875      1.989      4.647
REMARK INTER + INTRA:          -5.210
REMARK INTER:                  -5.031
REMARK INTRA:                  -0.178
REMARK UNBOUND:                 0.092
REMARK SMILES C=C(C)[C@@H]1CC[C@@H](C)C[C@H]1O
REMARK SMILES IDX 8 1 7 2 6 3 5 4 4 5 10 6 9 7 11 8 2 10 1 11 3 12
REMARK H PARENT 11 9
REMARK Flexibility Score: inf
ROOT
ATOM      1  C   UNL     1     136.889 125.248 145.618  1.00  0.00     0.008 C 
ATOM      2  C   UNL     1     136.369 124.367 144.477  1.00  0.00    -0.012 C 
ATOM      3  C   UNL     1     137.482 124.109 143.446  1.00  0.00     0.004 C 
ATOM      4  C   UNL     1     136.967 123.241 142.290  1.00  0.00     0.011 C 
ATOM      5  C   UNL     1     135.744 123.892 141.614  1.00  0.00     0.043 C 
ATOM      6  C   UNL     1     134.621 124.158 142.642  1.00  0.00     0.121 C 
ATOM      7  C   UNL     1     135.148 125.024 143.802  1.00  0.00     0.035 C 
ENDROOT
BRANCH   6   8
ATOM      8  O   UNL     1     133.556 124.821 142.009  1.00  0.00    -0.392 OA
ATOM      9  H   UNL     1     133.225 125.506 142.646  1.00  0.00     0.210 HD
ENDBRANCH   6   8
BRANCH   5  10
ATOM     10  C   UNL     1     135.249 123.043 140.447  1.00  0.00    -0.075 C 
ATOM     11  C   UNL     1     134.995 121.732 140.594  1.00  0.00     0.008 C 
ATOM     12  C   UNL     1     135.035 123.672 139.094  1.00  0.00     0.039 C 
ENDBRANCH   5  10
TORSDOF 2
ENDMDL
MODEL 9
REMARK VINA RESULT:    -4.631      1.859      2.853
REMARK INTER + INTRA:          -4.944
REMARK INTER:                  -5.081
REMARK INTRA:                   0.137
REMARK UNBOUND:                 0.092
REMARK SMILES C=C(C)[C@@H]1CC[C@@H](C)C[C@H]1O
REMARK SMILES IDX 8 1 7 2 6 3 5 4 4 5 10 6 9 7 11 8 2 10 1 11 3 12
REMARK H PARENT 11 9
REMARK Flexibility Score: inf
ROOT
ATOM      1  C   UNL     1     135.457 122.053 138.970  1.00  0.00     0.008 C 
ATOM      2  C   UNL     1     135.624 123.066 140.107  1.00  0.00    -0.012 C 
ATOM      3  C   UNL     1     136.985 122.878 140.802  1.00  0.00     0.004 C 
ATOM      4  C   UNL     1     137.156 123.878 141.953  1.00  0.00     0.011 C 
ATOM      5  C   UNL     1     136.006 123.747 142.972  1.00  0.00     0.043 C 
ATOM      6  C   UNL     1     134.634 123.932 142.283  1.00  0.00     0.121 C 
ATOM      7  C   UNL     1     134.474 122.930 141.126  1.00  0.00     0.035 C 
ENDROOT
BRANCH   6   8
ATOM      8  O   UNL     1     133.609 123.730 143.223  1.00  0.00    -0.392 OA
ATOM      9  H   UNL     1     133.821 122.887 143.702  1.00  0.00     0.210 HD
ENDBRANCH   6   8
BRANCH   5  10
ATOM     10  C   UNL     1     136.191 124.721 144.131  1.00  0.00    -0.075 C 
ATOM     11  C   UNL     1     135.501 125.873 144.193  1.00  0.00     0.008 C 
ATOM     12  C   UNL     1     137.160 124.400 145.240  1.00  0.00     0.039 C 
ENDBRANCH   5  10
TORSDOF 2
ENDMDL
