MODEL 1
REMARK VINA RESULT:    -4.778      0.000      0.000
REMARK INTER + INTRA:          -7.255
REMARK INTER:                  -7.013
REMARK INTRA:                  -0.243
REMARK UNBOUND:                -0.243
REMARK SMILES O=C([O-])CCCCCCCC(=O)[O-]
REMARK SMILES IDX 7 1 6 2 5 3 4 4 2 5 1 6 3 7 8 8 9 9 10 10 11 11 12 12 13 13
REMARK H PARENT
REMARK Flexibility Score: inf
ROOT
ATOM      1  C   UNL     1      -1.540  10.735  -8.818  1.00  0.00     0.000 C 
ENDROOT
BRANCH   1   2
ATOM      2  C   UNL     1      -0.636  11.908  -8.419  1.00  0.00     0.000 C 
BRANCH   2   3
ATOM      3  C   UNL     1       0.703  11.408  -7.865  1.00  0.00     0.006 C 
BRANCH   3   4
ATOM      4  C   UNL     1       1.053  10.030  -8.434  1.00  0.00     0.053 C 
BRANCH   4   5
ATOM      5  C   UNL     1       2.517   9.943  -8.733  1.00  0.00     0.041 C 
ATOM      6  O   UNL     1       3.358  10.423  -7.927  1.00  0.00    -0.550 OA
ATOM      7  O   UNL     1       2.951   9.376  -9.924  1.00  0.00    -0.550 OA
ENDBRANCH   4   5
ENDBRANCH   3   4
ENDBRANCH   2   3
ENDBRANCH   1   2
BRANCH   1   8
ATOM      8  C   UNL     1      -2.675  11.205  -9.741  1.00  0.00     0.000 C 
BRANCH   8   9
ATOM      9  C   UNL     1      -3.873  10.243  -9.742  1.00  0.00     0.006 C 
BRANCH   9  10
ATOM     10  C   UNL     1      -3.839   9.259 -10.919  1.00  0.00     0.053 C 
BRANCH  10  11
ATOM     11  C   UNL     1      -5.109   8.471 -10.977  1.00  0.00     0.041 C 
ATOM     12  O   UNL     1      -5.094   7.270 -11.353  1.00  0.00    -0.550 OA
ATOM     13  O   UNL     1      -6.305   9.050 -10.569  1.00  0.00    -0.550 OA
ENDBRANCH  10  11
ENDBRANCH   9  10
ENDBRANCH   8   9
ENDBRANCH   1   8
TORSDOF 8
ENDMDL
MODEL 2
REMARK VINA RESULT:    -4.732      0.468      6.733
REMARK INTER + INTRA:          -7.188
REMARK INTER:                  -6.887
REMARK INTRA:                  -0.301
REMARK UNBOUND:                -0.243
REMARK SMILES O=C([O-])CCCCCCCC(=O)[O-]
REMARK SMILES IDX 7 1 6 2 5 3 4 4 2 5 1 6 3 7 8 8 9 9 10 10 11 11 12 12 13 13
REMARK H PARENT
REMARK Flexibility Score: inf
ROOT
ATOM      1  C   UNL     1      -1.525  10.942  -9.067  1.00  0.00     0.000 C 
ENDROOT
BRANCH   1   2
ATOM      2  C   UNL     1      -2.855  11.589  -9.471  1.00  0.00     0.000 C 
BRANCH   2   3
ATOM      3  C   UNL     1      -3.496  10.844 -10.648  1.00  0.00     0.006 C 
BRANCH   3   4
ATOM      4  C   UNL     1      -3.549   9.337 -10.382  1.00  0.00     0.053 C 
BRANCH   4   5
ATOM      5  C   UNL     1      -4.862   8.772 -10.827  1.00  0.00     0.041 C 
ATOM      6  O   UNL     1      -4.924   7.601 -11.287  1.00  0.00    -0.550 OA
ATOM      7  O   UNL     1      -6.007   9.556 -10.781  1.00  0.00    -0.550 OA
ENDBRANCH   4   5
ENDBRANCH   3   4
ENDBRANCH   2   3
ENDBRANCH   1   2
BRANCH   1   8
ATOM      8  C   UNL     1      -0.614  11.955  -8.356  1.00  0.00     0.000 C 
BRANCH   8   9
ATOM      9  C   UNL     1       0.636  11.300  -7.748  1.00  0.00     0.006 C 
BRANCH   9  10
ATOM     10  C   UNL     1       0.986   9.963  -8.415  1.00  0.00     0.053 C 
BRANCH  10  11
ATOM     11  C   UNL     1       2.445   9.907  -8.739  1.00  0.00     0.041 C 
ATOM     12  O   UNL     1       3.288  10.423  -7.958  1.00  0.00    -0.550 OA
ATOM     13  O   UNL     1       2.879   9.243  -9.878  1.00  0.00    -0.550 OA
ENDBRANCH  10  11
ENDBRANCH   9  10
ENDBRANCH   8   9
ENDBRANCH   1   8
TORSDOF 8
ENDMDL
MODEL 3
REMARK VINA RESULT:    -4.718      0.898      1.534
REMARK INTER + INTRA:          -7.167
REMARK INTER:                  -6.891
REMARK INTRA:                  -0.276
REMARK UNBOUND:                -0.243
REMARK SMILES O=C([O-])CCCCCCCC(=O)[O-]
REMARK SMILES IDX 7 1 6 2 5 3 4 4 2 5 1 6 3 7 8 8 9 9 10 10 11 11 12 12 13 13
REMARK H PARENT
REMARK Flexibility Score: inf
ROOT
ATOM      1  C   UNL     1      -1.779  12.285  -8.634  1.00  0.00     0.000 C 
ENDROOT
BRANCH   1   2
ATOM      2  C   UNL     1      -0.961  11.103  -8.097  1.00  0.00     0.000 C 
BRANCH   2   3
ATOM      3  C   UNL     1       0.529  11.277  -8.409  1.00  0.00     0.006 C 
BRANCH   3   4
ATOM      4  C   UNL     1       1.230   9.919  -8.519  1.00  0.00     0.053 C 
BRANCH   4   5
ATOM      5  C   UNL     1       2.714  10.098  -8.573  1.00  0.00     0.041 C 
ATOM      6  O   UNL     1       3.369   9.661  -9.556  1.00  0.00    -0.550 OA
ATOM      7  O   UNL     1       3.381  10.703  -7.516  1.00  0.00    -0.550 OA
ENDBRANCH   4   5
ENDBRANCH   3   4
ENDBRANCH   2   3
ENDBRANCH   1   2
BRANCH   1   8
ATOM      8  C   UNL     1      -3.160  11.821  -9.121  1.00  0.00     0.000 C 
BRANCH   8   9
ATOM      9  C   UNL     1      -3.074  10.874 -10.328  1.00  0.00     0.006 C 
BRANCH   9  10
ATOM     10  C   UNL     1      -4.441  10.616 -10.975  1.00  0.00     0.053 C 
BRANCH  10  11
ATOM     11  C   UNL     1      -4.838   9.185 -10.803  1.00  0.00     0.041 C 
ATOM     12  O   UNL     1      -6.054   8.868 -10.725  1.00  0.00    -0.550 OA
ATOM     13  O   UNL     1      -3.867   8.192 -10.778  1.00  0.00    -0.550 OA
ENDBRANCH  10  11
ENDBRANCH   9  10
ENDBRANCH   8   9
ENDBRANCH   1   8
TORSDOF 8
ENDMDL
MODEL 4
REMARK VINA RESULT:    -4.707      0.700      6.889
REMARK INTER + INTRA:          -7.152
REMARK INTER:                  -6.827
REMARK INTRA:                  -0.325
REMARK UNBOUND:                -0.243
REMARK SMILES O=C([O-])CCCCCCCC(=O)[O-]
REMARK SMILES IDX 7 1 6 2 5 3 4 4 2 5 1 6 3 7 8 8 9 9 10 10 11 11 12 12 13 13
REMARK H PARENT
REMARK Flexibility Score: inf
ROOT
ATOM      1  C   UNL     1      -1.767  11.858  -8.754  1.00  0.00     0.000 C 
ENDROOT
BRANCH   1   2
ATOM      2  C   UNL     1      -2.967  11.504  -9.641  1.00  0.00     0.000 C 
BRANCH   2   3
ATOM      3  C   UNL     1      -3.259  10.000  -9.599  1.00  0.00     0.006 C 
BRANCH   3   4
ATOM      4  C   UNL     1      -3.761   9.499 -10.957  1.00  0.00     0.053 C 
BRANCH   4   5
ATOM      5  C   UNL     1      -5.201   9.103 -10.869  1.00  0.00     0.041 C 
ATOM      6  O   UNL     1      -6.083   9.970 -10.628  1.00  0.00    -0.550 OA
ATOM      7  O   UNL     1      -5.565   7.770 -11.006  1.00  0.00    -0.550 OA
ENDBRANCH   4   5
ENDBRANCH   3   4
ENDBRANCH   2   3
ENDBRANCH   1   2
BRANCH   1   8
ATOM      8  C   UNL     1      -0.956  10.602  -8.399  1.00  0.00     0.000 C 
BRANCH   8   9
ATOM      9  C   UNL     1       0.554  10.877  -8.319  1.00  0.00     0.006 C 
BRANCH   9  10
ATOM     10  C   UNL     1       1.398   9.667  -8.741  1.00  0.00     0.053 C 
BRANCH  10  11
ATOM     11  C   UNL     1       2.855   9.996  -8.668  1.00  0.00     0.041 C 
ATOM     12  O   UNL     1       3.629   9.660  -9.603  1.00  0.00    -0.550 OA
ATOM     13  O   UNL     1       3.351  10.719  -7.591  1.00  0.00    -0.550 OA
ENDBRANCH  10  11
ENDBRANCH   9  10
ENDBRANCH   8   9
ENDBRANCH   1   8
TORSDOF 8
ENDMDL
MODEL 5
REMARK VINA RESULT:    -4.606      2.412      6.752
REMARK INTER + INTRA:          -7.002
REMARK INTER:                  -6.525
REMARK INTRA:                  -0.477
REMARK UNBOUND:                -0.243
REMARK SMILES O=C([O-])CCCCCCCC(=O)[O-]
REMARK SMILES IDX 7 1 6 2 5 3 4 4 2 5 1 6 3 7 8 8 9 9 10 10 11 11 12 12 13 13
REMARK H PARENT
REMARK Flexibility Score: inf
ROOT
ATOM      1  C   UNL     1      -1.028  10.205  -8.432  1.00  0.00     0.000 C 
ENDROOT
BRANCH   1   2
ATOM      2  C   UNL     1      -1.464  11.666  -8.592  1.00  0.00     0.000 C 
BRANCH   2   3
ATOM      3  C   UNL     1      -2.670  11.783  -9.530  1.00  0.00     0.006 C 
BRANCH   3   4
ATOM      4  C   UNL     1      -3.637  10.611  -9.330  1.00  0.00     0.053 C 
BRANCH   4   5
ATOM      5  C   UNL     1      -4.122  10.101 -10.651  1.00  0.00     0.041 C 
ATOM      6  O   UNL     1      -4.898  10.801 -11.353  1.00  0.00    -0.550 OA
ATOM      7  O   UNL     1      -3.757   8.833 -11.082  1.00  0.00    -0.550 OA
ENDBRANCH   4   5
ENDBRANCH   3   4
ENDBRANCH   2   3
ENDBRANCH   1   2
BRANCH   1   8
ATOM      8  C   UNL     1       0.504  10.088  -8.395  1.00  0.00     0.000 C 
BRANCH   8   9
ATOM      9  C   UNL     1       1.193  11.434  -8.122  1.00  0.00     0.006 C 
BRANCH   9  10
ATOM     10  C   UNL     1       1.950  11.450  -6.787  1.00  0.00     0.053 C 
BRANCH  10  11
ATOM     11  C   UNL     1       1.242  12.318  -5.796  1.00  0.00     0.041 C 
ATOM     12  O   UNL     1       0.570  13.309  -6.186  1.00  0.00    -0.550 OA
ATOM     13  O   UNL     1       1.282  12.004  -4.443  1.00  0.00    -0.550 OA
ENDBRANCH  10  11
ENDBRANCH   9  10
ENDBRANCH   8   9
ENDBRANCH   1   8
TORSDOF 8
ENDMDL
MODEL 6
REMARK VINA RESULT:    -4.537      2.466      3.384
REMARK INTER + INTRA:          -6.901
REMARK INTER:                  -6.531
REMARK INTRA:                  -0.370
REMARK UNBOUND:                -0.243
REMARK SMILES O=C([O-])CCCCCCCC(=O)[O-]
REMARK SMILES IDX 7 1 6 2 5 3 4 4 2 5 1 6 3 7 8 8 9 9 10 10 11 11 12 12 13 13
REMARK H PARENT
REMARK Flexibility Score: inf
ROOT
ATOM      1  C   UNL     1      -3.115  10.655 -10.541  1.00  0.00     0.000 C 
ENDROOT
BRANCH   1   2
ATOM      2  C   UNL     1      -2.739  10.449  -9.069  1.00  0.00     0.000 C 
BRANCH   2   3
ATOM      3  C   UNL     1      -1.369  11.063  -8.759  1.00  0.00     0.006 C 
BRANCH   3   4
ATOM      4  C   UNL     1      -0.395  10.001  -8.240  1.00  0.00     0.053 C 
BRANCH   4   5
ATOM      5  C   UNL     1       1.020  10.444  -8.440  1.00  0.00     0.041 C 
ATOM      6  O   UNL     1       1.833   9.709  -9.061  1.00  0.00    -0.550 OA
ATOM      7  O   UNL     1       1.455  11.647  -7.899  1.00  0.00    -0.550 OA
ENDBRANCH   4   5
ENDBRANCH   3   4
ENDBRANCH   2   3
ENDBRANCH   1   2
BRANCH   1   8
ATOM      8  C   UNL     1      -4.480  10.023 -10.854  1.00  0.00     0.000 C 
BRANCH   8   9
ATOM      9  C   UNL     1      -5.584  11.073 -11.062  1.00  0.00     0.006 C 
BRANCH   9  10
ATOM     10  C   UNL     1      -6.494  11.224  -9.836  1.00  0.00     0.053 C 
BRANCH  10  11
ATOM     11  C   UNL     1      -6.270  12.550  -9.180  1.00  0.00     0.041 C 
ATOM     12  O   UNL     1      -7.123  13.013  -8.378  1.00  0.00    -0.550 OA
ATOM     13  O   UNL     1      -5.095  13.252  -9.417  1.00  0.00    -0.550 OA
ENDBRANCH  10  11
ENDBRANCH   9  10
ENDBRANCH   8   9
ENDBRANCH   1   8
TORSDOF 8
ENDMDL
MODEL 7
REMARK VINA RESULT:    -4.495      1.731      2.357
REMARK INTER + INTRA:          -6.840
REMARK INTER:                  -6.501
REMARK INTRA:                  -0.339
REMARK UNBOUND:                -0.243
REMARK SMILES O=C([O-])CCCCCCCC(=O)[O-]
REMARK SMILES IDX 7 1 6 2 5 3 4 4 2 5 1 6 3 7 8 8 9 9 10 10 11 11 12 12 13 13
REMARK H PARENT
REMARK Flexibility Score: inf
ROOT
ATOM      1  C   UNL     1      -1.716  11.552  -9.036  1.00  0.00     0.000 C 
ENDROOT
BRANCH   1   2
ATOM      2  C   UNL     1      -1.334  10.180  -8.466  1.00  0.00     0.000 C 
BRANCH   2   3
ATOM      3  C   UNL     1       0.128  10.161  -8.007  1.00  0.00     0.006 C 
BRANCH   3   4
ATOM      4  C   UNL     1       0.785  11.531  -8.207  1.00  0.00     0.053 C 
BRANCH   4   5
ATOM      5  C   UNL     1       1.313  12.054  -6.908  1.00  0.00     0.041 C 
ATOM      6  O   UNL     1       2.368  11.575  -6.414  1.00  0.00    -0.550 OA
ATOM      7  O   UNL     1       0.613  13.035  -6.218  1.00  0.00    -0.550 OA
ENDBRANCH   4   5
ENDBRANCH   3   4
ENDBRANCH   2   3
ENDBRANCH   1   2
BRANCH   1   8
ATOM      8  C   UNL     1      -3.189  11.575  -9.473  1.00  0.00     0.000 C 
BRANCH   8   9
ATOM      9  C   UNL     1      -3.449  10.718 -10.721  1.00  0.00     0.006 C 
BRANCH   9  10
ATOM     10  C   UNL     1      -4.932  10.684 -11.115  1.00  0.00     0.053 C 
BRANCH  10  11
ATOM     11  C   UNL     1      -5.569   9.418 -10.638  1.00  0.00     0.041 C 
ATOM     12  O   UNL     1      -6.816   9.357 -10.477  1.00  0.00    -0.550 OA
ATOM     13  O   UNL     1      -4.792   8.288 -10.419  1.00  0.00    -0.550 OA
ENDBRANCH  10  11
ENDBRANCH   9  10
ENDBRANCH   8   9
ENDBRANCH   1   8
TORSDOF 8
ENDMDL
MODEL 8
REMARK VINA RESULT:    -4.352      3.131      3.821
REMARK INTER + INTRA:          -6.630
REMARK INTER:                  -6.021
REMARK INTRA:                  -0.608
REMARK UNBOUND:                -0.243
REMARK SMILES O=C([O-])CCCCCCCC(=O)[O-]
REMARK SMILES IDX 7 1 6 2 5 3 4 4 2 5 1 6 3 7 8 8 9 9 10 10 11 11 12 12 13 13
REMARK H PARENT
REMARK Flexibility Score: inf
ROOT
ATOM      1  C   UNL     1      -0.022  10.197  -8.413  1.00  0.00     0.000 C 
ENDROOT
BRANCH   1   2
ATOM      2  C   UNL     1       0.735  11.505  -8.155  1.00  0.00     0.000 C 
BRANCH   2   3
ATOM      3  C   UNL     1       1.032  11.686  -6.662  1.00  0.00     0.006 C 
BRANCH   3   4
ATOM      4  C   UNL     1       0.656  13.094  -6.193  1.00  0.00     0.053 C 
BRANCH   4   5
ATOM      5  C   UNL     1      -0.831  13.238  -6.107  1.00  0.00     0.041 C 
ATOM      6  O   UNL     1      -1.491  12.528  -5.303  1.00  0.00    -0.550 OA
ATOM      7  O   UNL     1      -1.494  14.121  -6.950  1.00  0.00    -0.550 OA
ENDBRANCH   4   5
ENDBRANCH   3   4
ENDBRANCH   2   3
ENDBRANCH   1   2
BRANCH   1   8
ATOM      8  C   UNL     1      -1.533  10.387  -8.211  1.00  0.00     0.000 C 
BRANCH   8   9
ATOM      9  C   UNL     1      -2.136  11.407  -9.189  1.00  0.00     0.006 C 
BRANCH   9  10
ATOM     10  C   UNL     1      -2.992  10.747 -10.279  1.00  0.00     0.053 C 
BRANCH  10  11
ATOM     11  C   UNL     1      -4.386  11.287 -10.247  1.00  0.00     0.041 C 
ATOM     12  O   UNL     1      -4.706  12.167  -9.405  1.00  0.00    -0.550 OA
ATOM     13  O   UNL     1      -5.320  10.855 -11.180  1.00  0.00    -0.550 OA
ENDBRANCH  10  11
ENDBRANCH   9  10
ENDBRANCH   8   9
ENDBRANCH   1   8
TORSDOF 8
ENDMDL
MODEL 9
REMARK VINA RESULT:    -4.352      1.514      2.242
REMARK INTER + INTRA:          -6.629
REMARK INTER:                  -6.053
REMARK INTRA:                  -0.576
REMARK UNBOUND:                -0.243
REMARK SMILES O=C([O-])CCCCCCCC(=O)[O-]
REMARK SMILES IDX 7 1 6 2 5 3 4 4 2 5 1 6 3 7 8 8 9 9 10 10 11 11 12 12 13 13
REMARK H PARENT
REMARK Flexibility Score: inf
ROOT
ATOM      1  C   UNL     1      -4.276  11.112  -8.645  1.00  0.00     0.000 C 
ENDROOT
BRANCH   1   2
ATOM      2  C   UNL     1      -3.088  11.920  -8.111  1.00  0.00     0.000 C 
BRANCH   2   3
ATOM      3  C   UNL     1      -1.852  11.735  -8.999  1.00  0.00     0.006 C 
BRANCH   3   4
ATOM      4  C   UNL     1      -1.090  10.460  -8.622  1.00  0.00     0.053 C 
BRANCH   4   5
ATOM      5  C   UNL     1       0.356  10.764  -8.386  1.00  0.00     0.041 C 
ATOM      6  O   UNL     1       0.701  11.884  -7.924  1.00  0.00    -0.550 OA
ATOM      7  O   UNL     1       1.326   9.829  -8.721  1.00  0.00    -0.550 OA
ENDBRANCH   4   5
ENDBRANCH   3   4
ENDBRANCH   2   3
ENDBRANCH   1   2
BRANCH   1   8
ATOM      8  C   UNL     1      -4.853  11.756  -9.916  1.00  0.00     0.000 C 
BRANCH   8   9
ATOM      9  C   UNL     1      -5.192  10.722 -11.001  1.00  0.00     0.006 C 
BRANCH   9  10
ATOM     10  C   UNL     1      -4.229   9.527 -11.000  1.00  0.00     0.053 C 
BRANCH  10  11
ATOM     11  C   UNL     1      -4.986   8.247 -10.837  1.00  0.00     0.041 C 
ATOM     12  O   UNL     1      -6.229   8.266 -10.641  1.00  0.00    -0.550 OA
ATOM     13  O   UNL     1      -4.326   7.030 -10.952  1.00  0.00    -0.550 OA
ENDBRANCH  10  11
ENDBRANCH   9  10
ENDBRANCH   8   9
ENDBRANCH   1   8
TORSDOF 8
ENDMDL
