MODEL 1
REMARK VINA RESULT:    -6.361      0.000      0.000
REMARK INTER + INTRA:         -10.315
REMARK INTER:                  -8.406
REMARK INTRA:                  -1.908
REMARK UNBOUND:                -1.908
REMARK SMILES CC[C@@H](C=C[C@@H](C)[C@@H]1CC[C@@H]2[C@H]3CC[C@H]4C[C@H](O)CC[C@]4(C)[C@@H]3CC[C@@]21C)C(C)C
REMARK SMILES IDX 6 1 7 2 5 3 4 4 3 5 2 6 1 7 28 8 29 9 30 10 8 11 9 12 26 13
REMARK SMILES IDX 10 14 11 15 25 16 27 17 12 18 24 19 23 20 13 21 21 22 14 23
REMARK SMILES IDX 15 24 20 25 22 26 16 27 19 28 17 29 18 30
REMARK H PARENT 18 31
REMARK Flexibility Score: inf
ROOT
ATOM      1  C   UNL     1     114.256 124.341 123.626  1.00  0.00     0.012 C 
ATOM      2  C   UNL     1     114.611 125.515 124.561  1.00  0.00     0.012 C 
ENDROOT
BRANCH   1   3
ATOM      3  C   UNL     1     114.484 123.005 124.312  1.00  0.00    -0.028 C 
ATOM      4  C   UNL     1     113.619 121.975 124.265  1.00  0.00    -0.027 C 
BRANCH   4   5
ATOM      5  C   UNL     1     113.869 120.668 124.994  1.00  0.00     0.014 C 
BRANCH   5   6
ATOM      6  C   UNL     1     115.027 119.881 124.324  1.00  0.00     0.004 C 
ATOM      7  C   UNL     1     116.312 119.893 125.157  1.00  0.00     0.004 C 
ENDBRANCH   5   6
BRANCH   5   8
ATOM      8  C   UNL     1     112.559 119.825 125.114  1.00  0.00    -0.011 C 
ATOM      9  C   UNL     1     112.795 118.541 125.932  1.00  0.00     0.008 C 
ATOM     10  C   UNL     1     111.986 119.440 123.739  1.00  0.00     0.008 C 
ENDBRANCH   5   8
ENDBRANCH   4   5
ENDBRANCH   1   3
BRANCH   1  11
ATOM     11  C   UNL     1     114.916 124.378 122.194  1.00  0.00     0.002 C 
ATOM     12  C   UNL     1     114.067 123.714 121.102  1.00  0.00     0.005 C 
ATOM     13  C   UNL     1     116.362 123.757 122.018  1.00  0.00    -0.026 C 
ATOM     14  C   UNL     1     114.660 122.338 120.890  1.00  0.00     0.005 C 
ATOM     15  C   UNL     1     116.166 122.507 121.089  1.00  0.00    -0.001 C 
ATOM     16  C   UNL     1     117.081 123.376 123.357  1.00  0.00     0.007 C 
ATOM     17  C   UNL     1     117.251 124.806 121.291  1.00  0.00     0.012 C 
ATOM     18  C   UNL     1     116.854 121.224 121.626  1.00  0.00    -0.004 C 
ATOM     19  C   UNL     1     118.366 122.530 123.183  1.00  0.00     0.005 C 
ATOM     20  C   UNL     1     118.345 121.566 121.962  1.00  0.00    -0.001 C 
ATOM     21  C   UNL     1     116.726 120.030 120.655  1.00  0.00     0.004 C 
ATOM     22  C   UNL     1     119.297 120.288 122.054  1.00  0.00    -0.026 C 
ATOM     23  C   UNL     1     117.405 118.748 121.198  1.00  0.00     0.004 C 
ATOM     24  C   UNL     1     118.398 119.037 122.347  1.00  0.00    -0.002 C 
ATOM     25  C   UNL     1     120.446 120.396 123.133  1.00  0.00     0.010 C 
ATOM     26  C   UNL     1     120.030 120.127 120.683  1.00  0.00     0.012 C 
ATOM     27  C   UNL     1     119.214 117.796 122.749  1.00  0.00     0.036 C 
ATOM     28  C   UNL     1     120.199 119.541 124.384  1.00  0.00     0.032 C 
ATOM     29  C   UNL     1     120.075 118.046 124.018  1.00  0.00     0.114 C 
BRANCH  29  30
ATOM     30  O   UNL     1     119.531 117.361 125.117  1.00  0.00    -0.393 OA
ATOM     31  H   UNL     1     119.151 116.513 124.767  1.00  0.00     0.210 HD
ENDBRANCH  29  30
ENDBRANCH   1  11
TORSDOF 6
ENDMDL
MODEL 2
REMARK VINA RESULT:    -6.272      1.702      2.861
REMARK INTER + INTRA:         -10.197
REMARK INTER:                  -8.525
REMARK INTRA:                  -1.672
REMARK UNBOUND:                -1.908
REMARK SMILES CC[C@@H](C=C[C@@H](C)[C@@H]1CC[C@@H]2[C@H]3CC[C@H]4C[C@H](O)CC[C@]4(C)[C@@H]3CC[C@@]21C)C(C)C
REMARK SMILES IDX 6 1 7 2 5 3 4 4 3 5 2 6 1 7 28 8 29 9 30 10 8 11 9 12 26 13
REMARK SMILES IDX 10 14 11 15 25 16 27 17 12 18 24 19 23 20 13 21 21 22 14 23
REMARK SMILES IDX 15 24 20 25 22 26 16 27 19 28 17 29 18 30
REMARK H PARENT 18 31
REMARK Flexibility Score: inf
ROOT
ATOM      1  C   UNL     1     114.169 124.112 121.113  1.00  0.00     0.012 C 
ATOM      2  C   UNL     1     113.308 125.278 121.639  1.00  0.00     0.012 C 
ENDROOT
BRANCH   1   3
ATOM      3  C   UNL     1     113.915 122.841 121.906  1.00  0.00    -0.028 C 
ATOM      4  C   UNL     1     113.499 121.682 121.363  1.00  0.00    -0.027 C 
BRANCH   4   5
ATOM      5  C   UNL     1     113.223 120.445 122.197  1.00  0.00     0.014 C 
BRANCH   5   6
ATOM      6  C   UNL     1     111.795 119.905 121.920  1.00  0.00     0.004 C 
ATOM      7  C   UNL     1     111.115 120.603 120.738  1.00  0.00     0.004 C 
ENDBRANCH   5   6
BRANCH   5   8
ATOM      8  C   UNL     1     113.482 120.713 123.714  1.00  0.00    -0.011 C 
ATOM      9  C   UNL     1     114.611 119.815 124.255  1.00  0.00     0.008 C 
ATOM     10  C   UNL     1     112.221 120.494 124.568  1.00  0.00     0.008 C 
ENDBRANCH   5   8
ENDBRANCH   4   5
ENDBRANCH   1   3
BRANCH   1  11
ATOM     11  C   UNL     1     115.711 124.405 120.968  1.00  0.00     0.002 C 
ATOM     12  C   UNL     1     116.343 123.802 119.706  1.00  0.00     0.005 C 
ATOM     13  C   UNL     1     116.673 123.972 122.149  1.00  0.00    -0.026 C 
ATOM     14  C   UNL     1     117.044 122.537 120.153  1.00  0.00     0.005 C 
ATOM     15  C   UNL     1     117.581 122.840 121.551  1.00  0.00    -0.001 C 
ATOM     16  C   UNL     1     115.942 123.499 123.452  1.00  0.00     0.007 C 
ATOM     17  C   UNL     1     117.555 125.196 122.525  1.00  0.00     0.012 C 
ATOM     18  C   UNL     1     117.671 121.580 122.452  1.00  0.00    -0.004 C 
ATOM     19  C   UNL     1     116.860 122.827 124.501  1.00  0.00     0.005 C 
ATOM     20  C   UNL     1     118.055 122.034 123.900  1.00  0.00    -0.001 C 
ATOM     21  C   UNL     1     118.639 120.515 121.890  1.00  0.00     0.004 C 
ATOM     22  C   UNL     1     118.655 120.865 124.807  1.00  0.00    -0.026 C 
ATOM     23  C   UNL     1     118.720 119.255 122.785  1.00  0.00     0.004 C 
ATOM     24  C   UNL     1     118.173 119.497 124.211  1.00  0.00    -0.002 C 
ATOM     25  C   UNL     1     118.275 120.954 126.338  1.00  0.00     0.010 C 
ATOM     26  C   UNL     1     120.214 120.964 124.761  1.00  0.00     0.012 C 
ATOM     27  C   UNL     1     118.435 118.309 125.153  1.00  0.00     0.036 C 
ATOM     28  C   UNL     1     117.226 119.921 126.774  1.00  0.00     0.032 C 
ATOM     29  C   UNL     1     117.727 118.483 126.526  1.00  0.00     0.114 C 
BRANCH  29  30
ATOM     30  O   UNL     1     116.635 117.605 126.624  1.00  0.00    -0.393 OA
ATOM     31  H   UNL     1     117.009 116.691 126.728  1.00  0.00     0.210 HD
ENDBRANCH  29  30
ENDBRANCH   1  11
TORSDOF 6
ENDMDL
MODEL 3
REMARK VINA RESULT:    -6.233      6.735     11.440
REMARK INTER + INTRA:         -10.146
REMARK INTER:                  -8.793
REMARK INTRA:                  -1.353
REMARK UNBOUND:                -1.908
REMARK SMILES CC[C@@H](C=C[C@@H](C)[C@@H]1CC[C@@H]2[C@H]3CC[C@H]4C[C@H](O)CC[C@]4(C)[C@@H]3CC[C@@]21C)C(C)C
REMARK SMILES IDX 6 1 7 2 5 3 4 4 3 5 2 6 1 7 28 8 29 9 30 10 8 11 9 12 26 13
REMARK SMILES IDX 10 14 11 15 25 16 27 17 12 18 24 19 23 20 13 21 21 22 14 23
REMARK SMILES IDX 15 24 20 25 22 26 16 27 19 28 17 29 18 30
REMARK H PARENT 18 31
REMARK Flexibility Score: inf
ROOT
ATOM      1  C   UNL     1     123.245 120.321 113.106  1.00  0.00     0.012 C 
ATOM      2  C   UNL     1     122.557 120.606 111.755  1.00  0.00     0.012 C 
ENDROOT
BRANCH   1   3
ATOM      3  C   UNL     1     124.727 120.647 113.046  1.00  0.00    -0.028 C 
ATOM      4  C   UNL     1     125.678 119.960 113.707  1.00  0.00    -0.027 C 
BRANCH   4   5
ATOM      5  C   UNL     1     127.146 120.341 113.648  1.00  0.00     0.014 C 
BRANCH   5   6
ATOM      6  C   UNL     1     128.024 119.095 113.356  1.00  0.00     0.004 C 
ATOM      7  C   UNL     1     127.247 117.781 113.478  1.00  0.00     0.004 C 
ENDBRANCH   5   6
BRANCH   5   8
ATOM      8  C   UNL     1     127.588 121.100 114.941  1.00  0.00    -0.011 C 
ATOM      9  C   UNL     1     126.974 120.460 116.200  1.00  0.00     0.008 C 
ATOM     10  C   UNL     1     127.204 122.589 114.902  1.00  0.00     0.008 C 
ENDBRANCH   5   8
ENDBRANCH   4   5
ENDBRANCH   1   3
BRANCH   1  11
ATOM     11  C   UNL     1     122.991 118.890 113.719  1.00  0.00     0.002 C 
ATOM     12  C   UNL     1     121.716 118.210 113.201  1.00  0.00     0.005 C 
ATOM     13  C   UNL     1     122.912 118.752 115.294  1.00  0.00    -0.026 C 
ATOM     14  C   UNL     1     120.670 118.406 114.276  1.00  0.00     0.005 C 
ATOM     15  C   UNL     1     121.429 118.339 115.601  1.00  0.00    -0.001 C 
ATOM     16  C   UNL     1     123.331 120.035 116.089  1.00  0.00     0.007 C 
ATOM     17  C   UNL     1     123.867 117.602 115.724  1.00  0.00     0.012 C 
ATOM     18  C   UNL     1     120.770 119.189 116.720  1.00  0.00    -0.004 C 
ATOM     19  C   UNL     1     123.003 119.997 117.601  1.00  0.00     0.005 C 
ATOM     20  C   UNL     1     121.722 119.192 117.963  1.00  0.00    -0.001 C 
ATOM     21  C   UNL     1     119.344 118.710 117.069  1.00  0.00     0.004 C 
ATOM     22  C   UNL     1     121.000 119.592 119.330  1.00  0.00    -0.026 C 
ATOM     23  C   UNL     1     118.685 119.566 118.178  1.00  0.00     0.004 C 
ATOM     24  C   UNL     1     119.709 120.409 118.972  1.00  0.00    -0.002 C 
ATOM     25  C   UNL     1     121.899 120.412 120.338  1.00  0.00     0.010 C 
ATOM     26  C   UNL     1     120.624 118.277 120.085  1.00  0.00     0.012 C 
ATOM     27  C   UNL     1     119.083 121.101 120.195  1.00  0.00     0.036 C 
ATOM     28  C   UNL     1     121.532 121.900 120.421  1.00  0.00     0.032 C 
ATOM     29  C   UNL     1     120.070 122.086 120.881  1.00  0.00     0.114 C 
BRANCH  29  30
ATOM     30  O   UNL     1     119.688 123.413 120.627  1.00  0.00    -0.393 OA
ATOM     31  H   UNL     1     119.873 123.587 119.667  1.00  0.00     0.210 HD
ENDBRANCH  29  30
ENDBRANCH   1  11
TORSDOF 6
ENDMDL
MODEL 4
REMARK VINA RESULT:    -6.139      2.041      4.053
REMARK INTER + INTRA:         -10.021
REMARK INTER:                  -8.452
REMARK INTRA:                  -1.569
REMARK UNBOUND:                -1.908
REMARK SMILES CC[C@@H](C=C[C@@H](C)[C@@H]1CC[C@@H]2[C@H]3CC[C@H]4C[C@H](O)CC[C@]4(C)[C@@H]3CC[C@@]21C)C(C)C
REMARK SMILES IDX 6 1 7 2 5 3 4 4 3 5 2 6 1 7 28 8 29 9 30 10 8 11 9 12 26 13
REMARK SMILES IDX 10 14 11 15 25 16 27 17 12 18 24 19 23 20 13 21 21 22 14 23
REMARK SMILES IDX 15 24 20 25 22 26 16 27 19 28 17 29 18 30
REMARK H PARENT 18 31
REMARK Flexibility Score: inf
ROOT
ATOM      1  C   UNL     1     115.115 123.227 123.913  1.00  0.00     0.012 C 
ATOM      2  C   UNL     1     113.901 122.334 124.243  1.00  0.00     0.012 C 
ENDROOT
BRANCH   1   3
ATOM      3  C   UNL     1     115.058 124.536 124.682  1.00  0.00    -0.028 C 
ATOM      4  C   UNL     1     115.171 125.751 124.114  1.00  0.00    -0.027 C 
BRANCH   4   5
ATOM      5  C   UNL     1     115.144 127.034 124.923  1.00  0.00     0.014 C 
BRANCH   5   6
ATOM      6  C   UNL     1     116.447 127.848 124.704  1.00  0.00     0.004 C 
ATOM      7  C   UNL     1     117.492 127.085 123.884  1.00  0.00     0.004 C 
ENDBRANCH   5   6
BRANCH   5   8
ATOM      8  C   UNL     1     114.860 126.747 126.433  1.00  0.00    -0.011 C 
ATOM      9  C   UNL     1     113.488 127.303 126.858  1.00  0.00     0.008 C 
ATOM     10  C   UNL     1     115.942 127.340 127.351  1.00  0.00     0.008 C 
ENDBRANCH   5   8
ENDBRANCH   4   5
ENDBRANCH   1   3
BRANCH   1  11
ATOM     11  C   UNL     1     115.396 123.467 122.380  1.00  0.00     0.002 C 
ATOM     12  C   UNL     1     114.599 122.543 121.450  1.00  0.00     0.005 C 
ATOM     13  C   UNL     1     116.890 123.368 121.866  1.00  0.00    -0.026 C 
ATOM     14  C   UNL     1     115.553 121.445 121.033  1.00  0.00     0.005 C 
ATOM     15  C   UNL     1     116.922 122.115 120.922  1.00  0.00    -0.001 C 
ATOM     16  C   UNL     1     117.969 123.267 122.998  1.00  0.00     0.007 C 
ATOM     17  C   UNL     1     117.200 124.647 121.037  1.00  0.00     0.012 C 
ATOM     18  C   UNL     1     118.096 121.145 121.222  1.00  0.00    -0.004 C 
ATOM     19  C   UNL     1     119.391 122.902 122.506  1.00  0.00     0.005 C 
ATOM     20  C   UNL     1     119.424 121.973 121.259  1.00  0.00    -0.001 C 
ATOM     21  C   UNL     1     118.163 119.966 120.226  1.00  0.00     0.004 C 
ATOM     22  C   UNL     1     120.742 121.093 121.069  1.00  0.00    -0.026 C 
ATOM     23  C   UNL     1     119.329 118.995 120.533  1.00  0.00     0.004 C 
ATOM     24  C   UNL     1     120.395 119.615 121.465  1.00  0.00    -0.002 C 
ATOM     25  C   UNL     1     121.997 121.594 121.889  1.00  0.00     0.010 C 
ATOM     26  C   UNL     1     121.169 121.172 119.568  1.00  0.00     0.012 C 
ATOM     27  C   UNL     1     121.644 118.727 121.608  1.00  0.00     0.036 C 
ATOM     28  C   UNL     1     122.327 120.720 123.107  1.00  0.00     0.032 C 
ATOM     29  C   UNL     1     122.628 119.267 122.682  1.00  0.00     0.114 C 
BRANCH  29  30
ATOM     30  O   UNL     1     122.596 118.452 123.824  1.00  0.00    -0.393 OA
ATOM     31  H   UNL     1     122.048 118.927 124.502  1.00  0.00     0.210 HD
ENDBRANCH  29  30
ENDBRANCH   1  11
TORSDOF 6
ENDMDL
MODEL 5
REMARK VINA RESULT:    -6.105      2.504      4.322
REMARK INTER + INTRA:          -9.976
REMARK INTER:                  -9.081
REMARK INTRA:                  -0.895
REMARK UNBOUND:                -1.908
REMARK SMILES CC[C@@H](C=C[C@@H](C)[C@@H]1CC[C@@H]2[C@H]3CC[C@H]4C[C@H](O)CC[C@]4(C)[C@@H]3CC[C@@]21C)C(C)C
REMARK SMILES IDX 6 1 7 2 5 3 4 4 3 5 2 6 1 7 28 8 29 9 30 10 8 11 9 12 26 13
REMARK SMILES IDX 10 14 11 15 25 16 27 17 12 18 24 19 23 20 13 21 21 22 14 23
REMARK SMILES IDX 15 24 20 25 22 26 16 27 19 28 17 29 18 30
REMARK H PARENT 18 31
REMARK Flexibility Score: inf
ROOT
ATOM      1  C   UNL     1     116.152 124.457 123.574  1.00  0.00     0.012 C 
ATOM      2  C   UNL     1     116.154 123.353 124.651  1.00  0.00     0.012 C 
ENDROOT
BRANCH   1   3
ATOM      3  C   UNL     1     115.663 125.778 124.143  1.00  0.00    -0.028 C 
ATOM      4  C   UNL     1     114.768 125.884 125.142  1.00  0.00    -0.027 C 
BRANCH   4   5
ATOM      5  C   UNL     1     114.280 127.225 125.659  1.00  0.00     0.014 C 
BRANCH   5   6
ATOM      6  C   UNL     1     114.668 127.412 127.150  1.00  0.00     0.004 C 
ATOM      7  C   UNL     1     116.184 127.454 127.367  1.00  0.00     0.004 C 
ENDBRANCH   5   6
BRANCH   5   8
ATOM      8  C   UNL     1     112.748 127.406 125.409  1.00  0.00    -0.011 C 
ATOM      9  C   UNL     1     112.483 128.416 124.276  1.00  0.00     0.008 C 
ATOM     10  C   UNL     1     112.003 127.871 126.672  1.00  0.00     0.008 C 
ENDBRANCH   5   8
ENDBRANCH   4   5
ENDBRANCH   1   3
BRANCH   1  11
ATOM     11  C   UNL     1     115.417 124.101 122.224  1.00  0.00     0.002 C 
ATOM     12  C   UNL     1     114.121 123.301 122.416  1.00  0.00     0.005 C 
ATOM     13  C   UNL     1     116.223 123.307 121.117  1.00  0.00    -0.026 C 
ATOM     14  C   UNL     1     114.474 121.857 122.127  1.00  0.00     0.005 C 
ATOM     15  C   UNL     1     115.519 121.908 121.014  1.00  0.00    -0.001 C 
ATOM     16  C   UNL     1     117.758 123.163 121.398  1.00  0.00     0.007 C 
ATOM     17  C   UNL     1     116.063 124.065 119.769  1.00  0.00     0.012 C 
ATOM     18  C   UNL     1     116.510 120.713 121.059  1.00  0.00    -0.004 C 
ATOM     19  C   UNL     1     118.496 122.170 120.469  1.00  0.00     0.005 C 
ATOM     20  C   UNL     1     117.633 120.963 119.998  1.00  0.00    -0.001 C 
ATOM     21  C   UNL     1     115.807 119.351 120.866  1.00  0.00     0.004 C 
ATOM     22  C   UNL     1     118.432 119.646 119.578  1.00  0.00    -0.026 C 
ATOM     23  C   UNL     1     116.796 118.161 120.921  1.00  0.00     0.004 C 
ATOM     24  C   UNL     1     118.267 118.595 120.731  1.00  0.00    -0.002 C 
ATOM     25  C   UNL     1     119.964 119.872 119.264  1.00  0.00     0.010 C 
ATOM     26  C   UNL     1     117.812 119.104 118.250  1.00  0.00     0.012 C 
ATOM     27  C   UNL     1     119.223 117.397 120.587  1.00  0.00     0.036 C 
ATOM     28  C   UNL     1     120.902 119.351 120.362  1.00  0.00     0.032 C 
ATOM     29  C   UNL     1     120.714 117.834 120.579  1.00  0.00     0.114 C 
BRANCH  29  30
ATOM     30  O   UNL     1     121.333 117.475 121.787  1.00  0.00    -0.393 OA
ATOM     31  H   UNL     1     121.247 116.489 121.872  1.00  0.00     0.210 HD
ENDBRANCH  29  30
ENDBRANCH   1  11
TORSDOF 6
ENDMDL
MODEL 6
REMARK VINA RESULT:    -6.044      1.208      1.834
REMARK INTER + INTRA:          -9.896
REMARK INTER:                  -8.005
REMARK INTRA:                  -1.890
REMARK UNBOUND:                -1.908
REMARK SMILES CC[C@@H](C=C[C@@H](C)[C@@H]1CC[C@@H]2[C@H]3CC[C@H]4C[C@H](O)CC[C@]4(C)[C@@H]3CC[C@@]21C)C(C)C
REMARK SMILES IDX 6 1 7 2 5 3 4 4 3 5 2 6 1 7 28 8 29 9 30 10 8 11 9 12 26 13
REMARK SMILES IDX 10 14 11 15 25 16 27 17 12 18 24 19 23 20 13 21 21 22 14 23
REMARK SMILES IDX 15 24 20 25 22 26 16 27 19 28 17 29 18 30
REMARK H PARENT 18 31
REMARK Flexibility Score: inf
ROOT
ATOM      1  C   UNL     1     114.470 124.503 123.134  1.00  0.00     0.012 C 
ATOM      2  C   UNL     1     115.150 124.898 124.461  1.00  0.00     0.012 C 
ENDROOT
BRANCH   1   3
ATOM      3  C   UNL     1     114.067 123.038 123.139  1.00  0.00    -0.028 C 
ATOM      4  C   UNL     1     114.411 122.163 124.102  1.00  0.00    -0.027 C 
BRANCH   4   5
ATOM      5  C   UNL     1     114.017 120.699 124.051  1.00  0.00     0.014 C 
BRANCH   5   6
ATOM      6  C   UNL     1     113.535 120.213 125.444  1.00  0.00     0.004 C 
ATOM      7  C   UNL     1     112.817 118.862 125.385  1.00  0.00     0.004 C 
ENDBRANCH   5   6
BRANCH   5   8
ATOM      8  C   UNL     1     115.172 119.819 123.474  1.00  0.00    -0.011 C 
ATOM      9  C   UNL     1     116.551 120.373 123.880  1.00  0.00     0.008 C 
ATOM     10  C   UNL     1     115.111 119.712 121.940  1.00  0.00     0.008 C 
ENDBRANCH   5   8
ENDBRANCH   4   5
ENDBRANCH   1   3
BRANCH   1  11
ATOM     11  C   UNL     1     115.253 124.884 121.819  1.00  0.00     0.002 C 
ATOM     12  C   UNL     1     114.587 124.379 120.532  1.00  0.00     0.005 C 
ATOM     13  C   UNL     1     116.768 124.442 121.693  1.00  0.00    -0.026 C 
ATOM     14  C   UNL     1     115.344 123.131 120.131  1.00  0.00     0.005 C 
ATOM     15  C   UNL     1     116.797 123.390 120.527  1.00  0.00    -0.001 C 
ATOM     16  C   UNL     1     117.396 123.865 123.007  1.00  0.00     0.007 C 
ATOM     17  C   UNL     1     117.600 125.689 121.283  1.00  0.00     0.012 C 
ATOM     18  C   UNL     1     117.568 122.092 120.886  1.00  0.00    -0.004 C 
ATOM     19  C   UNL     1     118.776 123.189 122.823  1.00  0.00     0.005 C 
ATOM     20  C   UNL     1     118.975 122.491 121.446  1.00  0.00    -0.001 C 
ATOM     21  C   UNL     1     117.663 121.109 119.697  1.00  0.00     0.004 C 
ATOM     22  C   UNL     1     120.048 121.310 121.401  1.00  0.00    -0.026 C 
ATOM     23  C   UNL     1     118.424 119.811 120.061  1.00  0.00     0.004 C 
ATOM     24  C   UNL     1     119.268 119.951 121.348  1.00  0.00    -0.002 C 
ATOM     25  C   UNL     1     121.073 121.302 122.605  1.00  0.00     0.010 C 
ATOM     26  C   UNL     1     120.919 121.492 120.117  1.00  0.00     0.012 C 
ATOM     27  C   UNL     1     120.174 118.732 121.597  1.00  0.00     0.036 C 
ATOM     28  C   UNL     1     120.805 120.195 123.634  1.00  0.00     0.032 C 
ATOM     29  C   UNL     1     120.879 118.799 122.980  1.00  0.00     0.114 C 
BRANCH  29  30
ATOM     30  O   UNL     1     120.314 117.862 123.860  1.00  0.00    -0.393 OA
ATOM     31  H   UNL     1     119.577 117.413 123.368  1.00  0.00     0.210 HD
ENDBRANCH  29  30
ENDBRANCH   1  11
TORSDOF 6
ENDMDL
MODEL 7
REMARK VINA RESULT:    -5.873      1.803      2.724
REMARK INTER + INTRA:          -9.670
REMARK INTER:                  -7.507
REMARK INTRA:                  -2.163
REMARK UNBOUND:                -1.908
REMARK SMILES CC[C@@H](C=C[C@@H](C)[C@@H]1CC[C@@H]2[C@H]3CC[C@H]4C[C@H](O)CC[C@]4(C)[C@@H]3CC[C@@]21C)C(C)C
REMARK SMILES IDX 6 1 7 2 5 3 4 4 3 5 2 6 1 7 28 8 29 9 30 10 8 11 9 12 26 13
REMARK SMILES IDX 10 14 11 15 25 16 27 17 12 18 24 19 23 20 13 21 21 22 14 23
REMARK SMILES IDX 15 24 20 25 22 26 16 27 19 28 17 29 18 30
REMARK H PARENT 18 31
REMARK Flexibility Score: inf
ROOT
ATOM      1  C   UNL     1     115.830 124.623 123.560  1.00  0.00     0.012 C 
ATOM      2  C   UNL     1     116.463 126.020 123.717  1.00  0.00     0.012 C 
ENDROOT
BRANCH   1   3
ATOM      3  C   UNL     1     116.788 123.533 124.009  1.00  0.00    -0.028 C 
ATOM      4  C   UNL     1     116.405 122.398 124.625  1.00  0.00    -0.027 C 
BRANCH   4   5
ATOM      5  C   UNL     1     117.399 121.349 125.089  1.00  0.00     0.014 C 
BRANCH   5   6
ATOM      6  C   UNL     1     118.721 121.452 124.282  1.00  0.00     0.004 C 
ATOM      7  C   UNL     1     119.266 120.085 123.860  1.00  0.00     0.004 C 
ENDBRANCH   5   6
BRANCH   5   8
ATOM      8  C   UNL     1     116.776 119.917 125.043  1.00  0.00    -0.011 C 
ATOM      9  C   UNL     1     115.350 119.948 124.461  1.00  0.00     0.008 C 
ATOM     10  C   UNL     1     116.731 119.257 126.432  1.00  0.00     0.008 C 
ENDBRANCH   5   8
ENDBRANCH   4   5
ENDBRANCH   1   3
BRANCH   1  11
ATOM     11  C   UNL     1     115.210 124.302 122.146  1.00  0.00     0.002 C 
ATOM     12  C   UNL     1     113.918 123.477 122.206  1.00  0.00     0.005 C 
ATOM     13  C   UNL     1     116.116 123.561 121.080  1.00  0.00    -0.026 C 
ATOM     14  C   UNL     1     114.318 122.050 121.898  1.00  0.00     0.005 C 
ATOM     15  C   UNL     1     115.447 122.155 120.874  1.00  0.00    -0.001 C 
ATOM     16  C   UNL     1     117.626 123.430 121.477  1.00  0.00     0.007 C 
ATOM     17  C   UNL     1     116.049 124.363 119.750  1.00  0.00     0.012 C 
ATOM     18  C   UNL     1     116.452 120.975 120.957  1.00  0.00    -0.004 C 
ATOM     19  C   UNL     1     118.453 122.481 120.576  1.00  0.00     0.005 C 
ATOM     20  C   UNL     1     117.651 121.279 119.998  1.00  0.00    -0.001 C 
ATOM     21  C   UNL     1     115.792 119.610 120.663  1.00  0.00     0.004 C 
ATOM     22  C   UNL     1     118.504 119.989 119.599  1.00  0.00    -0.026 C 
ATOM     23  C   UNL     1     116.794 118.434 120.757  1.00  0.00     0.004 C 
ATOM     24  C   UNL     1     118.268 118.896 120.698  1.00  0.00    -0.002 C 
ATOM     25  C   UNL     1     120.051 120.250 119.415  1.00  0.00     0.010 C 
ATOM     26  C   UNL     1     118.001 119.485 118.208  1.00  0.00     0.012 C 
ATOM     27  C   UNL     1     119.253 117.719 120.591  1.00  0.00     0.036 C 
ATOM     28  C   UNL     1     120.909 119.705 120.566  1.00  0.00     0.032 C 
ATOM     29  C   UNL     1     120.732 118.179 120.716  1.00  0.00     0.114 C 
BRANCH  29  30
ATOM     30  O   UNL     1     121.260 117.787 121.956  1.00  0.00    -0.393 OA
ATOM     31  H   UNL     1     121.553 118.616 122.419  1.00  0.00     0.210 HD
ENDBRANCH  29  30
ENDBRANCH   1  11
TORSDOF 6
ENDMDL
MODEL 8
REMARK VINA RESULT:    -5.861      4.424      8.828
REMARK INTER + INTRA:          -9.653
REMARK INTER:                  -8.776
REMARK INTRA:                  -0.877
REMARK UNBOUND:                -1.908
REMARK SMILES CC[C@@H](C=C[C@@H](C)[C@@H]1CC[C@@H]2[C@H]3CC[C@H]4C[C@H](O)CC[C@]4(C)[C@@H]3CC[C@@]21C)C(C)C
REMARK SMILES IDX 6 1 7 2 5 3 4 4 3 5 2 6 1 7 28 8 29 9 30 10 8 11 9 12 26 13
REMARK SMILES IDX 10 14 11 15 25 16 27 17 12 18 24 19 23 20 13 21 21 22 14 23
REMARK SMILES IDX 15 24 20 25 22 26 16 27 19 28 17 29 18 30
REMARK H PARENT 18 31
REMARK Flexibility Score: inf
ROOT
ATOM      1  C   UNL     1     119.289 119.489 117.370  1.00  0.00     0.012 C 
ATOM      2  C   UNL     1     118.061 119.472 116.437  1.00  0.00     0.012 C 
ENDROOT
BRANCH   1   3
ATOM      3  C   UNL     1     120.568 119.213 116.598  1.00  0.00    -0.028 C 
ATOM      4  C   UNL     1     120.635 119.114 115.257  1.00  0.00    -0.027 C 
BRANCH   4   5
ATOM      5  C   UNL     1     121.928 118.803 114.527  1.00  0.00     0.014 C 
BRANCH   5   6
ATOM      6  C   UNL     1     123.020 119.850 114.876  1.00  0.00     0.004 C 
ATOM      7  C   UNL     1     124.342 119.208 115.305  1.00  0.00     0.004 C 
ENDBRANCH   5   6
BRANCH   5   8
ATOM      8  C   UNL     1     121.693 118.668 112.988  1.00  0.00    -0.011 C 
ATOM      9  C   UNL     1     122.378 117.407 112.428  1.00  0.00     0.008 C 
ATOM     10  C   UNL     1     122.201 119.895 112.212  1.00  0.00     0.008 C 
ENDBRANCH   5   8
ENDBRANCH   4   5
ENDBRANCH   1   3
BRANCH   1  11
ATOM     11  C   UNL     1     119.186 118.589 118.661  1.00  0.00     0.002 C 
ATOM     12  C   UNL     1     118.171 117.444 118.540  1.00  0.00     0.005 C 
ATOM     13  C   UNL     1     118.845 119.289 120.039  1.00  0.00    -0.026 C 
ATOM     14  C   UNL     1     116.927 117.910 119.264  1.00  0.00     0.005 C 
ATOM     15  C   UNL     1     117.428 118.745 120.441  1.00  0.00    -0.001 C 
ATOM     16  C   UNL     1     118.875 120.855 120.005  1.00  0.00     0.007 C 
ATOM     17  C   UNL     1     119.893 118.823 121.088  1.00  0.00     0.012 C 
ATOM     18  C   UNL     1     116.434 119.862 120.859  1.00  0.00    -0.004 C 
ATOM     19  C   UNL     1     118.287 121.541 121.262  1.00  0.00     0.005 C 
ATOM     20  C   UNL     1     117.125 120.759 121.940  1.00  0.00    -0.001 C 
ATOM     21  C   UNL     1     115.076 119.300 121.337  1.00  0.00     0.004 C 
ATOM     22  C   UNL     1     116.104 121.625 122.810  1.00  0.00    -0.026 C 
ATOM     23  C   UNL     1     114.083 120.416 121.743  1.00  0.00     0.004 C 
ATOM     24  C   UNL     1     114.777 121.776 121.988  1.00  0.00    -0.002 C 
ATOM     25  C   UNL     1     116.642 123.048 123.239  1.00  0.00     0.010 C 
ATOM     26  C   UNL     1     115.837 120.863 124.148  1.00  0.00     0.012 C 
ATOM     27  C   UNL     1     113.823 122.827 122.582  1.00  0.00     0.036 C 
ATOM     28  C   UNL     1     116.007 124.208 122.459  1.00  0.00     0.032 C 
ATOM     29  C   UNL     1     114.476 124.236 122.656  1.00  0.00     0.114 C 
BRANCH  29  30
ATOM     30  O   UNL     1     113.916 125.082 121.685  1.00  0.00    -0.393 OA
ATOM     31  H   UNL     1     113.577 124.499 120.956  1.00  0.00     0.210 HD
ENDBRANCH  29  30
ENDBRANCH   1  11
TORSDOF 6
ENDMDL
MODEL 9
REMARK VINA RESULT:    -5.658      1.970      5.982
REMARK INTER + INTRA:          -9.385
REMARK INTER:                  -7.074
REMARK INTRA:                  -2.311
REMARK UNBOUND:                -1.908
REMARK SMILES CC[C@@H](C=C[C@@H](C)[C@@H]1CC[C@@H]2[C@H]3CC[C@H]4C[C@H](O)CC[C@]4(C)[C@@H]3CC[C@@]21C)C(C)C
REMARK SMILES IDX 6 1 7 2 5 3 4 4 3 5 2 6 1 7 28 8 29 9 30 10 8 11 9 12 26 13
REMARK SMILES IDX 10 14 11 15 25 16 27 17 12 18 24 19 23 20 13 21 21 22 14 23
REMARK SMILES IDX 15 24 20 25 22 26 16 27 19 28 17 29 18 30
REMARK H PARENT 18 31
REMARK Flexibility Score: inf
ROOT
ATOM      1  C   UNL     1     120.845 119.202 121.077  1.00  0.00     0.012 C 
ATOM      2  C   UNL     1     121.091 117.775 120.547  1.00  0.00     0.012 C 
ENDROOT
BRANCH   1   3
ATOM      3  C   UNL     1     120.056 119.177 122.375  1.00  0.00    -0.028 C 
ATOM      4  C   UNL     1     120.367 119.907 123.462  1.00  0.00    -0.027 C 
BRANCH   4   5
ATOM      5  C   UNL     1     119.572 119.827 124.752  1.00  0.00     0.014 C 
BRANCH   5   6
ATOM      6  C   UNL     1     119.451 118.355 125.230  1.00  0.00     0.004 C 
ATOM      7  C   UNL     1     120.089 118.122 126.602  1.00  0.00     0.004 C 
ENDBRANCH   5   6
BRANCH   5   8
ATOM      8  C   UNL     1     118.183 120.529 124.608  1.00  0.00    -0.011 C 
ATOM      9  C   UNL     1     118.070 121.739 125.554  1.00  0.00     0.008 C 
ATOM     10  C   UNL     1     117.014 119.569 124.886  1.00  0.00     0.008 C 
ENDBRANCH   5   8
ENDBRANCH   4   5
ENDBRANCH   1   3
BRANCH   1  11
ATOM     11  C   UNL     1     120.229 120.222 120.044  1.00  0.00     0.002 C 
ATOM     12  C   UNL     1     120.778 121.649 120.178  1.00  0.00     0.005 C 
ATOM     13  C   UNL     1     118.656 120.396 120.006  1.00  0.00    -0.026 C 
ATOM     14  C   UNL     1     119.734 122.429 120.947  1.00  0.00     0.005 C 
ATOM     15  C   UNL     1     118.388 121.863 120.497  1.00  0.00    -0.001 C 
ATOM     16  C   UNL     1     117.859 119.348 120.856  1.00  0.00     0.007 C 
ATOM     17  C   UNL     1     118.191 120.252 118.530  1.00  0.00     0.012 C 
ATOM     18  C   UNL     1     117.294 121.958 121.594  1.00  0.00    -0.004 C 
ATOM     19  C   UNL     1     116.356 119.671 121.039  1.00  0.00     0.005 C 
ATOM     20  C   UNL     1     116.024 121.190 121.093  1.00  0.00    -0.001 C 
ATOM     21  C   UNL     1     116.982 123.416 121.998  1.00  0.00     0.004 C 
ATOM     22  C   UNL     1     114.681 121.594 121.856  1.00  0.00    -0.026 C 
ATOM     23  C   UNL     1     115.898 123.507 123.099  1.00  0.00     0.004 C 
ATOM     24  C   UNL     1     115.081 122.203 123.245  1.00  0.00    -0.002 C 
ATOM     25  C   UNL     1     113.654 120.410 122.057  1.00  0.00     0.010 C 
ATOM     26  C   UNL     1     113.928 122.653 120.989  1.00  0.00     0.012 C 
ATOM     27  C   UNL     1     113.881 122.361 124.195  1.00  0.00     0.036 C 
ATOM     28  C   UNL     1     113.591 119.886 123.499  1.00  0.00     0.032 C 
ATOM     29  C   UNL     1     113.175 121.005 124.478  1.00  0.00     0.114 C 
BRANCH  29  30
ATOM     30  O   UNL     1     113.449 120.578 125.787  1.00  0.00    -0.393 OA
ATOM     31  H   UNL     1     114.420 120.718 125.938  1.00  0.00     0.210 HD
ENDBRANCH  29  30
ENDBRANCH   1  11
TORSDOF 6
ENDMDL
