MODEL 1
REMARK VINA RESULT:    -8.005      0.000      0.000
REMARK INTER + INTRA:         -10.701
REMARK INTER:                 -10.813
REMARK INTRA:                   0.112
REMARK UNBOUND:                 0.112
REMARK SMILES O=c1c(-c2ccc(O)cc2)coc2c([C@H]3O[C@@H](CO)[C@H](O)[C@@H](O)[C@@H]3O)c(O)ccc12
REMARK SMILES IDX 3 1 11 2 12 3 13 4 30 5 2 6 1 7 29 8 28 9 26 10 14 11 4 12
REMARK SMILES IDX 5 13 6 14 7 15 10 16 9 17 8 18 15 20 24 21 16 22 22 23 17 24
REMARK SMILES IDX 20 25 25 26 23 28 18 30 19 31 21 33 27 35
REMARK H PARENT 8 19 25 27 23 29 19 32 21 34 27 36
REMARK Flexibility Score: inf
ROOT
ATOM      1  C   UNL     1     203.486 202.101 237.253  1.00  0.00     0.065 A 
ATOM      2  C   UNL     1     203.225 203.160 236.375  1.00  0.00     0.208 A 
ATOM      3  O   UNL     1     203.322 202.997 235.062  1.00  0.00    -0.463 OA
ATOM      4  C   UNL     1     203.650 201.837 234.493  1.00  0.00     0.147 A 
ATOM      5  C   UNL     1     203.838 200.693 235.304  1.00  0.00     0.066 A 
ATOM      6  C   UNL     1     203.769 200.839 236.702  1.00  0.00     0.200 A 
ATOM      7  O   UNL     1     203.974 199.852 237.460  1.00  0.00    -0.288 OA
ATOM      8  C   UNL     1     204.139 199.463 234.703  1.00  0.00     0.020 A 
ATOM      9  C   UNL     1     204.291 199.378 233.322  1.00  0.00     0.047 A 
ATOM     10  C   UNL     1     204.185 200.517 232.512  1.00  0.00     0.125 A 
ATOM     11  C   UNL     1     203.860 201.776 233.092  1.00  0.00     0.069 A 
ENDROOT
BRANCH   1  12
ATOM     12  C   UNL     1     203.552 202.363 238.712  1.00  0.00    -0.011 A 
ATOM     13  C   UNL     1     202.859 201.534 239.612  1.00  0.00     0.013 A 
ATOM     14  C   UNL     1     202.813 201.849 240.972  1.00  0.00     0.047 A 
ATOM     15  C   UNL     1     203.455 202.998 241.449  1.00  0.00     0.115 A 
ATOM     16  C   UNL     1     204.212 203.507 239.200  1.00  0.00     0.013 A 
ATOM     17  C   UNL     1     204.160 203.821 240.561  1.00  0.00     0.047 A 
BRANCH  15  18
ATOM     18  O   UNL     1     203.383 203.310 242.804  1.00  0.00    -0.508 OA
ATOM     19  H   UNL     1     202.584 203.044 243.366  1.00  0.00     0.293 HD
ENDBRANCH  15  18
ENDBRANCH   1  12
BRANCH  11  20
ATOM     20  C   UNL     1     203.866 203.124 232.350  1.00  0.00     0.188 C 
ATOM     21  C   UNL     1     204.500 204.341 233.065  1.00  0.00     0.179 C 
ATOM     22  O   UNL     1     202.514 203.424 232.041  1.00  0.00    -0.362 OA
ATOM     23  C   UNL     1     204.350 205.602 232.181  1.00  0.00     0.177 C 
ATOM     24  C   UNL     1     202.427 204.426 231.047  1.00  0.00     0.176 C 
ATOM     25  C   UNL     1     202.917 205.766 231.636  1.00  0.00     0.177 C 
BRANCH  21  26
ATOM     26  O   UNL     1     205.866 204.101 233.291  1.00  0.00    -0.387 OA
ATOM     27  H   UNL     1     206.143 203.402 232.640  1.00  0.00     0.211 HD
ENDBRANCH  21  26
BRANCH  23  28
ATOM     28  O   UNL     1     204.732 206.752 232.892  1.00  0.00    -0.387 OA
ATOM     29  H   UNL     1     204.798 206.507 233.855  1.00  0.00     0.211 HD
ENDBRANCH  23  28
BRANCH  24  30
ATOM     30  C   UNL     1     200.958 204.511 230.594  1.00  0.00     0.191 C 
BRANCH  30  31
ATOM     31  O   UNL     1     200.355 203.242 230.597  1.00  0.00    -0.394 OA
ATOM     32  H   UNL     1     200.376 202.911 229.659  1.00  0.00     0.210 HD
ENDBRANCH  30  31
ENDBRANCH  24  30
BRANCH  25  33
ATOM     33  O   UNL     1     202.915 206.757 230.641  1.00  0.00    -0.388 OA
ATOM     34  H   UNL     1     202.845 206.292 229.765  1.00  0.00     0.211 HD
ENDBRANCH  25  33
ENDBRANCH  11  20
BRANCH  10  35
ATOM     35  O   UNL     1     204.407 200.374 231.146  1.00  0.00    -0.507 OA
ATOM     36  H   UNL     1     204.607 199.474 230.725  1.00  0.00     0.293 HD
ENDBRANCH  10  35
TORSDOF 9
ENDMDL
MODEL 2
REMARK VINA RESULT:    -7.903      1.190      2.386
REMARK INTER + INTRA:         -10.563
REMARK INTER:                  -9.746
REMARK INTRA:                  -0.817
REMARK UNBOUND:                 0.112
REMARK SMILES O=c1c(-c2ccc(O)cc2)coc2c([C@H]3O[C@@H](CO)[C@H](O)[C@@H](O)[C@@H]3O)c(O)ccc12
REMARK SMILES IDX 3 1 11 2 12 3 13 4 30 5 2 6 1 7 29 8 28 9 26 10 14 11 4 12
REMARK SMILES IDX 5 13 6 14 7 15 10 16 9 17 8 18 15 20 24 21 16 22 22 23 17 24
REMARK SMILES IDX 20 25 25 26 23 28 18 30 19 31 21 33 27 35
REMARK H PARENT 8 19 25 27 23 29 19 32 21 34 27 36
REMARK Flexibility Score: inf
ROOT
ATOM      1  C   UNL     1     203.274 202.376 237.852  1.00  0.00     0.065 A 
ATOM      2  C   UNL     1     202.939 203.392 236.949  1.00  0.00     0.208 A 
ATOM      3  O   UNL     1     203.034 203.198 235.640  1.00  0.00    -0.463 OA
ATOM      4  C   UNL     1     203.428 202.045 235.099  1.00  0.00     0.147 A 
ATOM      5  C   UNL     1     203.694 200.938 235.938  1.00  0.00     0.066 A 
ATOM      6  C   UNL     1     203.630 201.119 237.333  1.00  0.00     0.200 A 
ATOM      7  O   UNL     1     203.903 200.168 238.115  1.00  0.00    -0.288 OA
ATOM      8  C   UNL     1     204.065 199.713 235.368  1.00  0.00     0.020 A 
ATOM      9  C   UNL     1     204.209 199.600 233.988  1.00  0.00     0.047 A 
ATOM     10  C   UNL     1     204.025 200.707 233.149  1.00  0.00     0.125 A 
ATOM     11  C   UNL     1     203.627 201.959 233.698  1.00  0.00     0.069 A 
ENDROOT
BRANCH   1  12
ATOM     12  C   UNL     1     203.337 202.681 239.303  1.00  0.00    -0.011 A 
ATOM     13  C   UNL     1     204.064 203.795 239.761  1.00  0.00     0.013 A 
ATOM     14  C   UNL     1     204.233 204.015 241.130  1.00  0.00     0.047 A 
ATOM     15  C   UNL     1     203.682 203.123 242.058  1.00  0.00     0.115 A 
ATOM     16  C   UNL     1     202.770 201.797 240.241  1.00  0.00     0.013 A 
ATOM     17  C   UNL     1     202.945 202.018 241.610  1.00  0.00     0.047 A 
BRANCH  15  18
ATOM     18  O   UNL     1     203.877 203.343 243.419  1.00  0.00    -0.508 OA
ATOM     19  H   UNL     1     203.312 204.010 243.933  1.00  0.00     0.293 HD
ENDBRANCH  15  18
ENDBRANCH   1  12
BRANCH  11  20
ATOM     20  C   UNL     1     203.543 203.283 232.919  1.00  0.00     0.188 C 
ATOM     21  C   UNL     1     202.220 203.608 232.185  1.00  0.00     0.179 C 
ATOM     22  O   UNL     1     204.602 203.268 231.975  1.00  0.00    -0.362 OA
ATOM     23  C   UNL     1     202.362 204.944 231.419  1.00  0.00     0.177 C 
ATOM     24  C   UNL     1     204.857 204.564 231.471  1.00  0.00     0.176 C 
ATOM     25  C   UNL     1     203.666 205.010 230.597  1.00  0.00     0.177 C 
BRANCH  21  26
ATOM     26  O   UNL     1     201.175 203.725 233.117  1.00  0.00    -0.387 OA
ATOM     27  H   UNL     1     200.419 204.164 232.642  1.00  0.00     0.211 HD
ENDBRANCH  21  26
BRANCH  23  28
ATOM     28  O   UNL     1     201.253 205.157 230.585  1.00  0.00    -0.387 OA
ATOM     29  H   UNL     1     201.532 204.959 229.650  1.00  0.00     0.211 HD
ENDBRANCH  23  28
BRANCH  24  30
ATOM     30  C   UNL     1     206.164 204.503 230.659  1.00  0.00     0.191 C 
BRANCH  30  31
ATOM     31  O   UNL     1     206.898 203.348 230.972  1.00  0.00    -0.394 OA
ATOM     32  H   UNL     1     206.780 203.186 231.946  1.00  0.00     0.210 HD
ENDBRANCH  30  31
ENDBRANCH  24  30
BRANCH  25  33
ATOM     33  O   UNL     1     203.863 206.327 230.153  1.00  0.00    -0.388 OA
ATOM     34  H   UNL     1     202.966 206.701 229.941  1.00  0.00     0.211 HD
ENDBRANCH  25  33
ENDBRANCH  11  20
BRANCH  10  35
ATOM     35  O   UNL     1     204.242 200.539 231.785  1.00  0.00    -0.507 OA
ATOM     36  H   UNL     1     203.931 199.713 231.288  1.00  0.00     0.293 HD
ENDBRANCH  10  35
TORSDOF 9
ENDMDL
MODEL 3
REMARK VINA RESULT:    -7.851      1.838      4.423
REMARK INTER + INTRA:         -10.493
REMARK INTER:                 -10.619
REMARK INTRA:                   0.127
REMARK UNBOUND:                 0.112
REMARK SMILES O=c1c(-c2ccc(O)cc2)coc2c([C@H]3O[C@@H](CO)[C@H](O)[C@@H](O)[C@@H]3O)c(O)ccc12
REMARK SMILES IDX 3 1 11 2 12 3 13 4 30 5 2 6 1 7 29 8 28 9 26 10 14 11 4 12
REMARK SMILES IDX 5 13 6 14 7 15 10 16 9 17 8 18 15 20 24 21 16 22 22 23 17 24
REMARK SMILES IDX 20 25 25 26 23 28 18 30 19 31 21 33 27 35
REMARK H PARENT 8 19 25 27 23 29 19 32 21 34 27 36
REMARK Flexibility Score: inf
ROOT
ATOM      1  C   UNL     1     203.586 203.527 237.456  1.00  0.00     0.065 A 
ATOM      2  C   UNL     1     203.858 202.525 236.517  1.00  0.00     0.208 A 
ATOM      3  O   UNL     1     203.786 202.773 235.216  1.00  0.00    -0.463 OA
ATOM      4  C   UNL     1     203.473 203.968 234.716  1.00  0.00     0.147 A 
ATOM      5  C   UNL     1     203.275 205.059 235.595  1.00  0.00     0.066 A 
ATOM      6  C   UNL     1     203.317 204.823 236.982  1.00  0.00     0.200 A 
ATOM      7  O   UNL     1     203.103 205.760 237.798  1.00  0.00    -0.288 OA
ATOM      8  C   UNL     1     202.990 206.326 235.069  1.00  0.00     0.020 A 
ATOM      9  C   UNL     1     202.864 206.500 233.694  1.00  0.00     0.047 A 
ATOM     10  C   UNL     1     202.980 205.415 232.815  1.00  0.00     0.125 A 
ATOM     11  C   UNL     1     203.290 204.119 233.318  1.00  0.00     0.069 A 
ENDROOT
BRANCH   1  12
ATOM     12  C   UNL     1     203.492 203.173 238.894  1.00  0.00    -0.011 A 
ATOM     13  C   UNL     1     204.152 203.953 239.860  1.00  0.00     0.013 A 
ATOM     14  C   UNL     1     204.173 203.553 241.199  1.00  0.00     0.047 A 
ATOM     15  C   UNL     1     203.538 202.368 241.588  1.00  0.00     0.115 A 
ATOM     16  C   UNL     1     202.839 201.991 239.294  1.00  0.00     0.013 A 
ATOM     17  C   UNL     1     202.865 201.592 240.633  1.00  0.00     0.047 A 
BRANCH  15  18
ATOM     18  O   UNL     1     203.585 201.971 242.922  1.00  0.00    -0.508 OA
ATOM     19  H   UNL     1     203.248 201.062 243.215  1.00  0.00     0.293 HD
ENDBRANCH  15  18
ENDBRANCH   1  12
BRANCH  11  20
ATOM     20  C   UNL     1     203.292 202.822 232.491  1.00  0.00     0.188 C 
ATOM     21  C   UNL     1     202.614 201.572 233.103  1.00  0.00     0.179 C 
ATOM     22  O   UNL     1     204.651 202.519 232.214  1.00  0.00    -0.362 OA
ATOM     23  C   UNL     1     202.779 200.368 232.147  1.00  0.00     0.177 C 
ATOM     24  C   UNL     1     204.761 201.581 231.162  1.00  0.00     0.176 C 
ATOM     25  C   UNL     1     204.230 200.215 231.645  1.00  0.00     0.177 C 
BRANCH  21  26
ATOM     26  O   UNL     1     201.245 201.820 233.294  1.00  0.00    -0.387 OA
ATOM     27  H   UNL     1     200.802 200.932 233.358  1.00  0.00     0.211 HD
ENDBRANCH  21  26
BRANCH  23  28
ATOM     28  O   UNL     1     202.354 199.182 232.768  1.00  0.00    -0.387 OA
ATOM     29  H   UNL     1     202.714 198.417 232.242  1.00  0.00     0.211 HD
ENDBRANCH  23  28
BRANCH  24  30
ATOM     30  C   UNL     1     206.245 201.501 230.759  1.00  0.00     0.191 C 
BRANCH  30  31
ATOM     31  O   UNL     1     206.730 202.759 230.369  1.00  0.00    -0.394 OA
ATOM     32  H   UNL     1     206.778 202.755 229.376  1.00  0.00     0.210 HD
ENDBRANCH  30  31
ENDBRANCH  24  30
BRANCH  25  33
ATOM     33  O   UNL     1     204.255 199.289 230.590  1.00  0.00    -0.388 OA
ATOM     34  H   UNL     1     203.337 199.255 230.209  1.00  0.00     0.211 HD
ENDBRANCH  25  33
ENDBRANCH  11  20
BRANCH  10  35
ATOM     35  O   UNL     1     202.784 205.646 231.457  1.00  0.00    -0.507 OA
ATOM     36  H   UNL     1     202.475 204.916 230.825  1.00  0.00     0.293 HD
ENDBRANCH  10  35
TORSDOF 9
ENDMDL
MODEL 4
REMARK VINA RESULT:    -7.794      1.765      3.774
REMARK INTER + INTRA:         -10.416
REMARK INTER:                  -9.481
REMARK INTRA:                  -0.935
REMARK UNBOUND:                 0.112
REMARK SMILES O=c1c(-c2ccc(O)cc2)coc2c([C@H]3O[C@@H](CO)[C@H](O)[C@@H](O)[C@@H]3O)c(O)ccc12
REMARK SMILES IDX 3 1 11 2 12 3 13 4 30 5 2 6 1 7 29 8 28 9 26 10 14 11 4 12
REMARK SMILES IDX 5 13 6 14 7 15 10 16 9 17 8 18 15 20 24 21 16 22 22 23 17 24
REMARK SMILES IDX 20 25 25 26 23 28 18 30 19 31 21 33 27 35
REMARK H PARENT 8 19 25 27 23 29 19 32 21 34 27 36
REMARK Flexibility Score: inf
ROOT
ATOM      1  C   UNL     1     203.682 203.363 237.903  1.00  0.00     0.065 A 
ATOM      2  C   UNL     1     204.045 202.372 236.983  1.00  0.00     0.208 A 
ATOM      3  O   UNL     1     203.994 202.603 235.677  1.00  0.00    -0.463 OA
ATOM      4  C   UNL     1     203.620 203.772 235.156  1.00  0.00     0.147 A 
ATOM      5  C   UNL     1     203.328 204.855 236.018  1.00  0.00     0.066 A 
ATOM      6  C   UNL     1     203.345 204.635 237.408  1.00  0.00     0.200 A 
ATOM      7  O   UNL     1     203.048 205.564 238.207  1.00  0.00    -0.288 OA
ATOM      8  C   UNL     1     202.978 206.097 235.470  1.00  0.00     0.020 A 
ATOM      9  C   UNL     1     202.880 206.250 234.090  1.00  0.00     0.047 A 
ATOM     10  C   UNL     1     203.090 205.167 233.227  1.00  0.00     0.125 A 
ATOM     11  C   UNL     1     203.467 203.898 233.752  1.00  0.00     0.069 A 
ENDROOT
BRANCH   1  12
ATOM     12  C   UNL     1     203.569 203.017 239.341  1.00  0.00    -0.011 A 
ATOM     13  C   UNL     1     204.274 203.760 240.306  1.00  0.00     0.013 A 
ATOM     14  C   UNL     1     204.273 203.361 241.645  1.00  0.00     0.047 A 
ATOM     15  C   UNL     1     203.573 202.213 242.036  1.00  0.00     0.115 A 
ATOM     16  C   UNL     1     202.852 201.874 239.743  1.00  0.00     0.013 A 
ATOM     17  C   UNL     1     202.857 201.476 241.083  1.00  0.00     0.047 A 
BRANCH  15  18
ATOM     18  O   UNL     1     203.599 201.817 243.371  1.00  0.00    -0.508 OA
ATOM     19  H   UNL     1     204.370 201.277 243.747  1.00  0.00     0.293 HD
ENDBRANCH  15  18
ENDBRANCH   1  12
BRANCH  11  20
ATOM     20  C   UNL     1     203.576 202.596 232.940  1.00  0.00     0.188 C 
ATOM     21  C   UNL     1     204.913 202.302 232.219  1.00  0.00     0.179 C 
ATOM     22  O   UNL     1     202.531 202.629 231.979  1.00  0.00    -0.362 OA
ATOM     23  C   UNL     1     204.793 200.986 231.415  1.00  0.00     0.177 C 
ATOM     24  C   UNL     1     202.295 201.344 231.437  1.00  0.00     0.176 C 
ATOM     25  C   UNL     1     203.504 200.932 230.570  1.00  0.00     0.177 C 
BRANCH  21  26
ATOM     26  O   UNL     1     205.943 202.168 233.164  1.00  0.00    -0.387 OA
ATOM     27  H   UNL     1     205.971 203.020 233.676  1.00  0.00     0.211 HD
ENDBRANCH  21  26
BRANCH  23  28
ATOM     28  O   UNL     1     205.918 200.805 230.593  1.00  0.00    -0.387 OA
ATOM     29  H   UNL     1     206.693 201.246 231.035  1.00  0.00     0.211 HD
ENDBRANCH  23  28
BRANCH  24  30
ATOM     30  C   UNL     1     201.001 201.417 230.606  1.00  0.00     0.191 C 
BRANCH  30  31
ATOM     31  O   UNL     1     200.286 202.592 230.888  1.00  0.00    -0.394 OA
ATOM     32  H   UNL     1     199.450 202.556 230.352  1.00  0.00     0.210 HD
ENDBRANCH  30  31
ENDBRANCH  24  30
BRANCH  25  33
ATOM     33  O   UNL     1     203.325 199.626 230.088  1.00  0.00    -0.388 OA
ATOM     34  H   UNL     1     202.349 199.438 230.107  1.00  0.00     0.211 HD
ENDBRANCH  25  33
ENDBRANCH  11  20
BRANCH  10  35
ATOM     35  O   UNL     1     202.918 205.373 231.862  1.00  0.00    -0.507 OA
ATOM     36  H   UNL     1     203.004 206.291 231.441  1.00  0.00     0.293 HD
ENDBRANCH  10  35
TORSDOF 9
ENDMDL
MODEL 5
REMARK VINA RESULT:    -7.437      1.927      4.129
REMARK INTER + INTRA:          -9.933
REMARK INTER:                  -9.970
REMARK INTRA:                   0.037
REMARK UNBOUND:                 0.112
REMARK SMILES O=c1c(-c2ccc(O)cc2)coc2c([C@H]3O[C@@H](CO)[C@H](O)[C@@H](O)[C@@H]3O)c(O)ccc12
REMARK SMILES IDX 3 1 11 2 12 3 13 4 30 5 2 6 1 7 29 8 28 9 26 10 14 11 4 12
REMARK SMILES IDX 5 13 6 14 7 15 10 16 9 17 8 18 15 20 24 21 16 22 22 23 17 24
REMARK SMILES IDX 20 25 25 26 23 28 18 30 19 31 21 33 27 35
REMARK H PARENT 8 19 25 27 23 29 19 32 21 34 27 36
REMARK Flexibility Score: inf
ROOT
ATOM      1  C   UNL     1     203.654 203.649 236.878  1.00  0.00     0.065 A 
ATOM      2  C   UNL     1     204.061 202.758 235.877  1.00  0.00     0.208 A 
ATOM      3  O   UNL     1     204.040 203.114 234.599  1.00  0.00    -0.463 OA
ATOM      4  C   UNL     1     203.657 204.321 234.183  1.00  0.00     0.147 A 
ATOM      5  C   UNL     1     203.321 205.311 235.137  1.00  0.00     0.066 A 
ATOM      6  C   UNL     1     203.306 204.956 236.499  1.00  0.00     0.200 A 
ATOM      7  O   UNL     1     202.970 205.798 237.376  1.00  0.00    -0.288 OA
ATOM      8  C   UNL     1     202.961 206.593 234.703  1.00  0.00     0.020 A 
ATOM      9  C   UNL     1     202.898 206.878 233.342  1.00  0.00     0.047 A 
ATOM     10  C   UNL     1     203.151 205.888 232.384  1.00  0.00     0.125 A 
ATOM     11  C   UNL     1     203.539 204.581 232.795  1.00  0.00     0.069 A 
ENDROOT
BRANCH   1  12
ATOM     12  C   UNL     1     203.511 203.162 238.273  1.00  0.00    -0.011 A 
ATOM     13  C   UNL     1     204.134 203.849 239.330  1.00  0.00     0.013 A 
ATOM     14  C   UNL     1     204.109 203.325 240.626  1.00  0.00     0.047 A 
ATOM     15  C   UNL     1     203.465 202.109 240.879  1.00  0.00     0.115 A 
ATOM     16  C   UNL     1     202.848 201.948 238.537  1.00  0.00     0.013 A 
ATOM     17  C   UNL     1     202.829 201.425 239.834  1.00  0.00     0.047 A 
BRANCH  15  18
ATOM     18  O   UNL     1     203.466 201.590 242.172  1.00  0.00    -0.508 OA
ATOM     19  H   UNL     1     202.831 201.938 242.881  1.00  0.00     0.293 HD
ENDBRANCH  15  18
ENDBRANCH   1  12
BRANCH  11  20
ATOM     20  C   UNL     1     203.695 203.366 231.863  1.00  0.00     0.188 C 
ATOM     21  C   UNL     1     203.645 203.614 230.337  1.00  0.00     0.179 C 
ATOM     22  O   UNL     1     202.669 202.451 232.215  1.00  0.00    -0.362 OA
ATOM     23  C   UNL     1     203.758 202.266 229.586  1.00  0.00     0.177 C 
ATOM     24  C   UNL     1     202.936 201.161 231.700  1.00  0.00     0.176 C 
ATOM     25  C   UNL     1     202.810 201.195 230.163  1.00  0.00     0.177 C 
BRANCH  21  26
ATOM     26  O   UNL     1     204.715 204.441 229.954  1.00  0.00    -0.387 OA
ATOM     27  H   UNL     1     205.156 203.994 229.182  1.00  0.00     0.211 HD
ENDBRANCH  21  26
BRANCH  23  28
ATOM     28  O   UNL     1     203.511 202.442 228.214  1.00  0.00    -0.387 OA
ATOM     29  H   UNL     1     202.811 201.788 227.944  1.00  0.00     0.211 HD
ENDBRANCH  23  28
BRANCH  24  30
ATOM     30  C   UNL     1     201.924 200.187 232.330  1.00  0.00     0.191 C 
BRANCH  30  31
ATOM     31  O   UNL     1     202.212 198.860 231.974  1.00  0.00    -0.394 OA
ATOM     32  H   UNL     1     203.031 198.884 231.411  1.00  0.00     0.210 HD
ENDBRANCH  30  31
ENDBRANCH  24  30
BRANCH  25  33
ATOM     33  O   UNL     1     203.150 199.943 229.626  1.00  0.00    -0.388 OA
ATOM     34  H   UNL     1     203.630 200.113 228.772  1.00  0.00     0.211 HD
ENDBRANCH  25  33
ENDBRANCH  11  20
BRANCH  10  35
ATOM     35  O   UNL     1     203.012 206.224 231.041  1.00  0.00    -0.507 OA
ATOM     36  H   UNL     1     203.712 205.980 230.349  1.00  0.00     0.293 HD
ENDBRANCH  10  35
TORSDOF 9
ENDMDL
MODEL 6
REMARK VINA RESULT:    -5.006      2.212      4.055
REMARK INTER + INTRA:          -6.651
REMARK INTER:                  -6.023
REMARK INTRA:                  -0.628
REMARK UNBOUND:                 0.112
REMARK SMILES O=c1c(-c2ccc(O)cc2)coc2c([C@H]3O[C@@H](CO)[C@H](O)[C@@H](O)[C@@H]3O)c(O)ccc12
REMARK SMILES IDX 3 1 11 2 12 3 13 4 30 5 2 6 1 7 29 8 28 9 26 10 14 11 4 12
REMARK SMILES IDX 5 13 6 14 7 15 10 16 9 17 8 18 15 20 24 21 16 22 22 23 17 24
REMARK SMILES IDX 20 25 25 26 23 28 18 30 19 31 21 33 27 35
REMARK H PARENT 8 19 25 27 23 29 19 32 21 34 27 36
REMARK Flexibility Score: inf
ROOT
ATOM      1  C   UNL     1     203.463 202.742 239.125  1.00  0.00     0.065 A 
ATOM      2  C   UNL     1     203.196 201.904 238.036  1.00  0.00     0.208 A 
ATOM      3  O   UNL     1     203.000 202.403 236.824  1.00  0.00    -0.463 OA
ATOM      4  C   UNL     1     203.058 203.707 236.553  1.00  0.00     0.147 A 
ATOM      5  C   UNL     1     203.415 204.615 237.577  1.00  0.00     0.066 A 
ATOM      6  C   UNL     1     203.602 204.119 238.882  1.00  0.00     0.200 A 
ATOM      7  O   UNL     1     203.879 204.903 239.830  1.00  0.00    -0.288 OA
ATOM      8  C   UNL     1     203.520 205.981 237.283  1.00  0.00     0.020 A 
ATOM      9  C   UNL     1     203.235 206.444 236.002  1.00  0.00     0.047 A 
ATOM     10  C   UNL     1     202.804 205.568 234.996  1.00  0.00     0.125 A 
ATOM     11  C   UNL     1     202.709 204.172 235.259  1.00  0.00     0.069 A 
ENDROOT
BRANCH   1  12
ATOM     12  C   UNL     1     203.491 202.173 240.495  1.00  0.00    -0.011 A 
ATOM     13  C   UNL     1     202.458 201.324 240.931  1.00  0.00     0.013 A 
ATOM     14  C   UNL     1     202.412 200.888 242.258  1.00  0.00     0.047 A 
ATOM     15  C   UNL     1     203.396 201.298 243.166  1.00  0.00     0.115 A 
ATOM     16  C   UNL     1     204.489 202.566 241.408  1.00  0.00     0.013 A 
ATOM     17  C   UNL     1     204.438 202.131 242.736  1.00  0.00     0.047 A 
BRANCH  15  18
ATOM     18  O   UNL     1     203.326 200.871 244.490  1.00  0.00    -0.508 OA
ATOM     19  H   UNL     1     203.780 200.018 244.795  1.00  0.00     0.293 HD
ENDBRANCH  15  18
ENDBRANCH   1  12
BRANCH  11  20
ATOM     20  C   UNL     1     202.106 203.127 234.305  1.00  0.00     0.188 C 
ATOM     21  C   UNL     1     203.078 202.305 233.424  1.00  0.00     0.179 C 
ATOM     22  O   UNL     1     201.198 203.822 233.463  1.00  0.00    -0.362 OA
ATOM     23  C   UNL     1     202.274 201.362 232.499  1.00  0.00     0.177 C 
ATOM     24  C   UNL     1     200.318 202.926 232.812  1.00  0.00     0.176 C 
ATOM     25  C   UNL     1     201.115 202.090 231.788  1.00  0.00     0.177 C 
BRANCH  21  26
ATOM     26  O   UNL     1     203.922 201.534 234.241  1.00  0.00    -0.387 OA
ATOM     27  H   UNL     1     203.413 200.713 234.479  1.00  0.00     0.211 HD
ENDBRANCH  21  26
BRANCH  23  28
ATOM     28  O   UNL     1     203.119 200.758 231.553  1.00  0.00    -0.387 OA
ATOM     29  H   UNL     1     202.786 199.833 231.394  1.00  0.00     0.211 HD
ENDBRANCH  23  28
BRANCH  24  30
ATOM     30  C   UNL     1     199.220 203.762 232.129  1.00  0.00     0.191 C 
BRANCH  30  31
ATOM     31  O   UNL     1     198.054 203.798 232.910  1.00  0.00    -0.394 OA
ATOM     32  H   UNL     1     198.341 203.958 233.849  1.00  0.00     0.210 HD
ENDBRANCH  30  31
ENDBRANCH  24  30
BRANCH  25  33
ATOM     33  O   UNL     1     200.274 201.139 231.188  1.00  0.00    -0.388 OA
ATOM     34  H   UNL     1     200.816 200.659 230.506  1.00  0.00     0.211 HD
ENDBRANCH  25  33
ENDBRANCH  11  20
BRANCH  10  35
ATOM     35  O   UNL     1     202.480 206.104 233.754  1.00  0.00    -0.507 OA
ATOM     36  H   UNL     1     201.587 205.927 233.308  1.00  0.00     0.293 HD
ENDBRANCH  10  35
TORSDOF 9
ENDMDL
