MODEL 1
REMARK VINA RESULT:    -5.016      0.000      0.000
REMARK INTER + INTRA:          -6.394
REMARK INTER:                  -6.189
REMARK INTRA:                  -0.205
REMARK UNBOUND:                -0.205
REMARK SMILES Oc1cc(O)c2cc(O)c(-c3cc(O)c(O)c(O)c3)[o+]c2c1
REMARK SMILES IDX 10 1 20 2 21 3 22 4 2 5 3 6 4 7 6 8 7 9 8 10 11 11 12 12
REMARK SMILES IDX 13 13 19 14 15 15 17 16 14 17 16 19 18 21 9 23 1 25 5 27
REMARK H PARENT 14 18 16 20 18 22 9 24 1 26 5 28
REMARK Flexibility Score: inf
ROOT
ATOM      1  C   UNL     1      -8.956  -4.105  -0.159  1.00  0.00     0.402 A 
ATOM      2  O   UNL     1      -9.094  -3.045   0.632  1.00  0.00    -0.202 OA
ATOM      3  C   UNL     1      -9.361  -3.132   1.931  1.00  0.00     0.368 A 
ATOM      4  C   UNL     1      -9.486  -1.959   2.680  1.00  0.00     0.162 A 
ATOM      5  C   UNL     1      -9.764  -2.023   4.049  1.00  0.00     0.128 A 
ATOM      6  C   UNL     1      -9.918  -3.265   4.670  1.00  0.00     0.093 A 
ATOM      7  C   UNL     1      -9.798  -4.454   3.941  1.00  0.00     0.136 A 
ATOM      8  C   UNL     1      -9.518  -4.395   2.552  1.00  0.00     0.125 A 
ATOM      9  C   UNL     1      -9.395  -5.534   1.740  1.00  0.00     0.078 A 
ATOM     10  C   UNL     1      -9.122  -5.397   0.375  1.00  0.00     0.223 A 
ENDROOT
BRANCH   1  11
ATOM     11  C   UNL     1      -8.647  -3.878  -1.589  1.00  0.00     0.091 A 
ATOM     12  C   UNL     1      -9.540  -4.267  -2.602  1.00  0.00     0.068 A 
ATOM     13  C   UNL     1      -9.220  -4.065  -3.952  1.00  0.00     0.162 A 
ATOM     14  C   UNL     1      -7.413  -3.313  -1.947  1.00  0.00     0.068 A 
ATOM     15  C   UNL     1      -7.991  -3.478  -4.298  1.00  0.00     0.200 A 
ATOM     16  C   UNL     1      -7.089  -3.106  -3.295  1.00  0.00     0.162 A 
BRANCH  13  17
ATOM     17  O   UNL     1     -10.115  -4.449  -4.949  1.00  0.00    -0.504 OA
ATOM     18  H   UNL     1     -10.758  -3.787  -5.369  1.00  0.00     0.293 HD
ENDBRANCH  13  17
BRANCH  15  19
ATOM     19  O   UNL     1      -7.652  -3.261  -5.634  1.00  0.00    -0.502 OA
ATOM     20  H   UNL     1      -6.897  -2.643  -5.906  1.00  0.00     0.293 HD
ENDBRANCH  15  19
BRANCH  16  21
ATOM     21  O   UNL     1      -5.867  -2.531  -3.644  1.00  0.00    -0.504 OA
ATOM     22  H   UNL     1      -5.725  -1.529  -3.617  1.00  0.00     0.293 HD
ENDBRANCH  16  21
ENDBRANCH   1  11
BRANCH  10  23
ATOM     23  O   UNL     1      -9.048  -6.525  -0.441  1.00  0.00    -0.500 OA
ATOM     24  H   UNL     1      -9.568  -6.590  -1.309  1.00  0.00     0.294 HD
ENDBRANCH  10  23
BRANCH   5  25
ATOM     25  O   UNL     1      -9.889  -0.858   4.802  1.00  0.00    -0.507 OA
ATOM     26  H   UNL     1     -10.182   0.016   4.381  1.00  0.00     0.293 HD
ENDBRANCH   5  25
BRANCH   7  27
ATOM     27  O   UNL     1      -9.964  -5.655   4.637  1.00  0.00    -0.507 OA
ATOM     28  H   UNL     1      -9.408  -6.484   4.484  1.00  0.00     0.293 HD
ENDBRANCH   7  27
TORSDOF 7
ENDMDL
MODEL 2
REMARK VINA RESULT:    -4.482      2.501      4.911
REMARK INTER + INTRA:          -5.735
REMARK INTER:                  -5.406
REMARK INTRA:                  -0.329
REMARK UNBOUND:                -0.205
REMARK SMILES Oc1cc(O)c2cc(O)c(-c3cc(O)c(O)c(O)c3)[o+]c2c1
REMARK SMILES IDX 10 1 20 2 21 3 22 4 2 5 3 6 4 7 6 8 7 9 8 10 11 11 12 12
REMARK SMILES IDX 13 13 19 14 15 15 17 16 14 17 16 19 18 21 9 23 1 25 5 27
REMARK H PARENT 14 18 16 20 18 22 9 24 1 26 5 28
REMARK Flexibility Score: inf
ROOT
ATOM      1  C   UNL     1      -7.968  -4.132  -4.142  1.00  0.00     0.402 A 
ATOM      2  O   UNL     1      -8.565  -4.996  -3.326  1.00  0.00    -0.202 OA
ATOM      3  C   UNL     1      -8.611  -4.843  -2.006  1.00  0.00     0.368 A 
ATOM      4  C   UNL     1      -9.265  -5.805  -1.232  1.00  0.00     0.162 A 
ATOM      5  C   UNL     1      -9.330  -5.666   0.157  1.00  0.00     0.128 A 
ATOM      6  C   UNL     1      -8.739  -4.561   0.774  1.00  0.00     0.093 A 
ATOM      7  C   UNL     1      -8.078  -3.584   0.021  1.00  0.00     0.136 A 
ATOM      8  C   UNL     1      -8.007  -3.720  -1.389  1.00  0.00     0.125 A 
ATOM      9  C   UNL     1      -7.353  -2.798  -2.223  1.00  0.00     0.078 A 
ATOM     10  C   UNL     1      -7.321  -3.003  -3.606  1.00  0.00     0.223 A 
ENDROOT
BRANCH   1  11
ATOM     11  C   UNL     1      -7.994  -4.408  -5.596  1.00  0.00     0.091 A 
ATOM     12  C   UNL     1      -8.804  -3.662  -6.469  1.00  0.00     0.068 A 
ATOM     13  C   UNL     1      -8.832  -3.954  -7.840  1.00  0.00     0.162 A 
ATOM     14  C   UNL     1      -7.239  -5.474  -6.110  1.00  0.00     0.068 A 
ATOM     15  C   UNL     1      -8.055  -5.009  -8.347  1.00  0.00     0.200 A 
ATOM     16  C   UNL     1      -7.261  -5.769  -7.480  1.00  0.00     0.162 A 
BRANCH  13  17
ATOM     17  O   UNL     1      -9.635  -3.204  -8.699  1.00  0.00    -0.504 OA
ATOM     18  H   UNL     1      -9.256  -2.441  -9.248  1.00  0.00     0.293 HD
ENDBRANCH  13  17
BRANCH  15  19
ATOM     19  O   UNL     1      -8.063  -5.315  -9.708  1.00  0.00    -0.502 OA
ATOM     20  H   UNL     1      -7.403  -4.904 -10.358  1.00  0.00     0.293 HD
ENDBRANCH  15  19
BRANCH  16  21
ATOM     21  O   UNL     1      -6.497  -6.820  -7.985  1.00  0.00    -0.504 OA
ATOM     22  H   UNL     1      -6.927  -7.635  -8.405  1.00  0.00     0.293 HD
ENDBRANCH  16  21
ENDBRANCH   1  11
BRANCH  10  23
ATOM     23  O   UNL     1      -6.630  -2.114  -4.429  1.00  0.00    -0.500 OA
ATOM     24  H   UNL     1      -7.086  -1.637  -5.199  1.00  0.00     0.294 HD
ENDBRANCH  10  23
BRANCH   5  25
ATOM     25  O   UNL     1      -9.981  -6.621   0.935  1.00  0.00    -0.507 OA
ATOM     26  H   UNL     1      -9.596  -7.549   1.067  1.00  0.00     0.293 HD
ENDBRANCH   5  25
BRANCH   7  27
ATOM     27  O   UNL     1      -7.515  -2.508   0.714  1.00  0.00    -0.507 OA
ATOM     28  H   UNL     1      -6.547  -2.228   0.645  1.00  0.00     0.293 HD
ENDBRANCH   7  27
TORSDOF 7
ENDMDL
MODEL 3
REMARK VINA RESULT:    -4.381     15.144     16.897
REMARK INTER + INTRA:          -5.610
REMARK INTER:                  -5.225
REMARK INTRA:                  -0.384
REMARK UNBOUND:                -0.205
REMARK SMILES Oc1cc(O)c2cc(O)c(-c3cc(O)c(O)c(O)c3)[o+]c2c1
REMARK SMILES IDX 10 1 20 2 21 3 22 4 2 5 3 6 4 7 6 8 7 9 8 10 11 11 12 12
REMARK SMILES IDX 13 13 19 14 15 15 17 16 14 17 16 19 18 21 9 23 1 25 5 27
REMARK H PARENT 14 18 16 20 18 22 9 24 1 26 5 28
REMARK Flexibility Score: inf
ROOT
ATOM      1  C   UNL     1       4.985  -5.385   7.390  1.00  0.00     0.402 A 
ATOM      2  O   UNL     1       5.205  -5.589   6.094  1.00  0.00    -0.202 OA
ATOM      3  C   UNL     1       6.304  -6.168   5.622  1.00  0.00     0.368 A 
ATOM      4  C   UNL     1       6.443  -6.340   4.242  1.00  0.00     0.162 A 
ATOM      5  C   UNL     1       7.587  -6.950   3.719  1.00  0.00     0.128 A 
ATOM      6  C   UNL     1       8.596  -7.387   4.580  1.00  0.00     0.093 A 
ATOM      7  C   UNL     1       8.481  -7.225   5.966  1.00  0.00     0.136 A 
ATOM      8  C   UNL     1       7.323  -6.606   6.502  1.00  0.00     0.125 A 
ATOM      9  C   UNL     1       7.128  -6.390   7.875  1.00  0.00     0.078 A 
ATOM     10  C   UNL     1       5.961  -5.768   8.329  1.00  0.00     0.223 A 
ENDROOT
BRANCH   1  11
ATOM     11  C   UNL     1       3.715  -4.738   7.792  1.00  0.00     0.091 A 
ATOM     12  C   UNL     1       2.573  -5.497   8.103  1.00  0.00     0.068 A 
ATOM     13  C   UNL     1       1.373  -4.866   8.459  1.00  0.00     0.162 A 
ATOM     14  C   UNL     1       3.629  -3.338   7.810  1.00  0.00     0.068 A 
ATOM     15  C   UNL     1       1.305  -3.463   8.496  1.00  0.00     0.200 A 
ATOM     16  C   UNL     1       2.433  -2.702   8.168  1.00  0.00     0.162 A 
BRANCH  13  17
ATOM     17  O   UNL     1       0.248  -5.627   8.771  1.00  0.00    -0.504 OA
ATOM     18  H   UNL     1      -0.171  -6.258   8.097  1.00  0.00     0.293 HD
ENDBRANCH  13  17
BRANCH  15  19
ATOM     19  O   UNL     1       0.123  -2.812   8.852  1.00  0.00    -0.502 OA
ATOM     20  H   UNL     1      -0.691  -3.316   9.185  1.00  0.00     0.293 HD
ENDBRANCH  15  19
BRANCH  16  21
ATOM     21  O   UNL     1       2.359  -1.309   8.198  1.00  0.00    -0.504 OA
ATOM     22  H   UNL     1       2.980  -0.733   7.645  1.00  0.00     0.293 HD
ENDBRANCH  16  21
ENDBRANCH   1  11
BRANCH  10  23
ATOM     23  O   UNL     1       5.788  -5.509   9.689  1.00  0.00    -0.500 OA
ATOM     24  H   UNL     1       6.435  -5.862  10.385  1.00  0.00     0.294 HD
ENDBRANCH  10  23
BRANCH   5  25
ATOM     25  O   UNL     1       7.732  -7.125   2.345  1.00  0.00    -0.507 OA
ATOM     26  H   UNL     1       7.736  -6.337   1.708  1.00  0.00     0.293 HD
ENDBRANCH   5  25
BRANCH   7  27
ATOM     27  O   UNL     1       9.534  -7.692   6.758  1.00  0.00    -0.507 OA
ATOM     28  H   UNL     1       9.448  -7.940   7.733  1.00  0.00     0.293 HD
ENDBRANCH   7  27
TORSDOF 7
ENDMDL
MODEL 4
REMARK VINA RESULT:    -4.315     14.827     16.909
REMARK INTER + INTRA:          -5.529
REMARK INTER:                  -5.379
REMARK INTRA:                  -0.150
REMARK UNBOUND:                -0.205
REMARK SMILES Oc1cc(O)c2cc(O)c(-c3cc(O)c(O)c(O)c3)[o+]c2c1
REMARK SMILES IDX 10 1 20 2 21 3 22 4 2 5 3 6 4 7 6 8 7 9 8 10 11 11 12 12
REMARK SMILES IDX 13 13 19 14 15 15 17 16 14 17 16 19 18 21 9 23 1 25 5 27
REMARK H PARENT 14 18 16 20 18 22 9 24 1 26 5 28
REMARK Flexibility Score: inf
ROOT
ATOM      1  C   UNL     1       3.203   4.816   6.964  1.00  0.00     0.402 A 
ATOM      2  O   UNL     1       1.949   4.400   6.805  1.00  0.00    -0.202 OA
ATOM      3  C   UNL     1       0.911   5.225   6.725  1.00  0.00     0.368 A 
ATOM      4  C   UNL     1      -0.370   4.692   6.556  1.00  0.00     0.162 A 
ATOM      5  C   UNL     1      -1.479   5.538   6.466  1.00  0.00     0.128 A 
ATOM      6  C   UNL     1      -1.307   6.922   6.546  1.00  0.00     0.093 A 
ATOM      7  C   UNL     1      -0.034   7.480   6.717  1.00  0.00     0.136 A 
ATOM      8  C   UNL     1       1.095   6.627   6.810  1.00  0.00     0.125 A 
ATOM      9  C   UNL     1       2.405   7.096   6.995  1.00  0.00     0.078 A 
ATOM     10  C   UNL     1       3.469   6.193   7.083  1.00  0.00     0.223 A 
ENDROOT
BRANCH   1  11
ATOM     11  C   UNL     1       4.277   3.798   7.028  1.00  0.00     0.091 A 
ATOM     12  C   UNL     1       5.388   3.851   6.170  1.00  0.00     0.068 A 
ATOM     13  C   UNL     1       6.383   2.864   6.230  1.00  0.00     0.162 A 
ATOM     14  C   UNL     1       4.157   2.724   7.924  1.00  0.00     0.068 A 
ATOM     15  C   UNL     1       6.264   1.807   7.147  1.00  0.00     0.200 A 
ATOM     16  C   UNL     1       5.150   1.737   7.990  1.00  0.00     0.162 A 
BRANCH  13  17
ATOM     17  O   UNL     1       7.485   2.929   5.378  1.00  0.00    -0.504 OA
ATOM     18  H   UNL     1       7.740   2.152   4.780  1.00  0.00     0.293 HD
ENDBRANCH  13  17
BRANCH  15  19
ATOM     19  O   UNL     1       7.244   0.816   7.228  1.00  0.00    -0.502 OA
ATOM     20  H   UNL     1       7.466   0.212   6.446  1.00  0.00     0.293 HD
ENDBRANCH  15  19
BRANCH  16  21
ATOM     21  O   UNL     1       5.032   0.681   8.894  1.00  0.00    -0.504 OA
ATOM     22  H   UNL     1       4.709   0.828   9.842  1.00  0.00     0.293 HD
ENDBRANCH  16  21
ENDBRANCH   1  11
BRANCH  10  23
ATOM     23  O   UNL     1       4.764   6.656   7.316  1.00  0.00    -0.500 OA
ATOM     24  H   UNL     1       5.410   6.836   6.555  1.00  0.00     0.294 HD
ENDBRANCH  10  23
BRANCH   5  25
ATOM     25  O   UNL     1      -2.758   5.014   6.296  1.00  0.00    -0.507 OA
ATOM     26  H   UNL     1      -3.259   4.580   7.063  1.00  0.00     0.293 HD
ENDBRANCH   5  25
BRANCH   7  27
ATOM     27  O   UNL     1       0.053   8.874   6.785  1.00  0.00    -0.507 OA
ATOM     28  H   UNL     1       0.696   9.432   6.242  1.00  0.00     0.293 HD
ENDBRANCH   7  27
TORSDOF 7
ENDMDL
MODEL 5
REMARK VINA RESULT:    -4.300     14.767     16.991
REMARK INTER + INTRA:          -5.510
REMARK INTER:                  -5.144
REMARK INTRA:                  -0.367
REMARK UNBOUND:                -0.205
REMARK SMILES Oc1cc(O)c2cc(O)c(-c3cc(O)c(O)c(O)c3)[o+]c2c1
REMARK SMILES IDX 10 1 20 2 21 3 22 4 2 5 3 6 4 7 6 8 7 9 8 10 11 11 12 12
REMARK SMILES IDX 13 13 19 14 15 15 17 16 14 17 16 19 18 21 9 23 1 25 5 27
REMARK H PARENT 14 18 16 20 18 22 9 24 1 26 5 28
REMARK Flexibility Score: inf
ROOT
ATOM      1  C   UNL     1       2.620   4.537   7.514  1.00  0.00     0.402 A 
ATOM      2  O   UNL     1       3.594   4.310   6.637  1.00  0.00    -0.202 OA
ATOM      3  C   UNL     1       4.766   3.778   6.968  1.00  0.00     0.368 A 
ATOM      4  C   UNL     1       5.727   3.575   5.974  1.00  0.00     0.162 A 
ATOM      5  C   UNL     1       6.967   3.014   6.294  1.00  0.00     0.128 A 
ATOM      6  C   UNL     1       7.246   2.655   7.615  1.00  0.00     0.093 A 
ATOM      7  C   UNL     1       6.301   2.848   8.629  1.00  0.00     0.136 A 
ATOM      8  C   UNL     1       5.042   3.418   8.310  1.00  0.00     0.125 A 
ATOM      9  C   UNL     1       4.039   3.661   9.263  1.00  0.00     0.078 A 
ATOM     10  C   UNL     1       2.824   4.232   8.873  1.00  0.00     0.223 A 
ENDROOT
BRANCH   1  11
ATOM     11  C   UNL     1       1.354   5.125   7.019  1.00  0.00     0.091 A 
ATOM     12  C   UNL     1       1.113   6.508   7.090  1.00  0.00     0.068 A 
ATOM     13  C   UNL     1      -0.101   7.043   6.638  1.00  0.00     0.162 A 
ATOM     14  C   UNL     1       0.349   4.281   6.522  1.00  0.00     0.068 A 
ATOM     15  C   UNL     1      -1.092   6.191   6.120  1.00  0.00     0.200 A 
ATOM     16  C   UNL     1      -0.865   4.811   6.066  1.00  0.00     0.162 A 
BRANCH  13  17
ATOM     17  O   UNL     1      -0.329   8.417   6.706  1.00  0.00    -0.504 OA
ATOM     18  H   UNL     1      -1.214   8.793   7.028  1.00  0.00     0.293 HD
ENDBRANCH  13  17
BRANCH  15  19
ATOM     19  O   UNL     1      -2.306   6.702   5.660  1.00  0.00    -0.502 OA
ATOM     20  H   UNL     1      -3.172   6.575   6.171  1.00  0.00     0.293 HD
ENDBRANCH  15  19
BRANCH  16  21
ATOM     21  O   UNL     1      -1.854   3.969   5.559  1.00  0.00    -0.504 OA
ATOM     22  H   UNL     1      -1.643   3.027   5.253  1.00  0.00     0.293 HD
ENDBRANCH  16  21
ENDBRANCH   1  11
BRANCH  10  23
ATOM     23  O   UNL     1       1.847   4.518   9.826  1.00  0.00    -0.500 OA
ATOM     24  H   UNL     1       1.423   5.437   9.895  1.00  0.00     0.294 HD
ENDBRANCH  10  23
BRANCH   5  25
ATOM     25  O   UNL     1       7.929   2.810   5.308  1.00  0.00    -0.507 OA
ATOM     26  H   UNL     1       7.673   2.699   4.334  1.00  0.00     0.293 HD
ENDBRANCH   5  25
BRANCH   7  27
ATOM     27  O   UNL     1       6.657   2.460   9.924  1.00  0.00    -0.507 OA
ATOM     28  H   UNL     1       7.592   2.202  10.205  1.00  0.00     0.293 HD
ENDBRANCH   7  27
TORSDOF 7
ENDMDL
MODEL 6
REMARK VINA RESULT:    -4.290      3.655      6.524
REMARK INTER + INTRA:          -5.498
REMARK INTER:                  -5.151
REMARK INTRA:                  -0.347
REMARK UNBOUND:                -0.205
REMARK SMILES Oc1cc(O)c2cc(O)c(-c3cc(O)c(O)c(O)c3)[o+]c2c1
REMARK SMILES IDX 10 1 20 2 21 3 22 4 2 5 3 6 4 7 6 8 7 9 8 10 11 11 12 12
REMARK SMILES IDX 13 13 19 14 15 15 17 16 14 17 16 19 18 21 9 23 1 25 5 27
REMARK H PARENT 14 18 16 20 18 22 9 24 1 26 5 28
REMARK Flexibility Score: inf
ROOT
ATOM      1  C   UNL     1      -7.601  -1.644  -4.938  1.00  0.00     0.402 A 
ATOM      2  O   UNL     1      -7.474  -1.911  -3.641  1.00  0.00    -0.202 OA
ATOM      3  C   UNL     1      -7.889  -3.045  -3.085  1.00  0.00     0.368 A 
ATOM      4  C   UNL     1      -7.710  -3.235  -1.712  1.00  0.00     0.162 A 
ATOM      5  C   UNL     1      -8.134  -4.419  -1.103  1.00  0.00     0.128 A 
ATOM      6  C   UNL     1      -8.741  -5.417  -1.870  1.00  0.00     0.093 A 
ATOM      7  C   UNL     1      -8.933  -5.250  -3.246  1.00  0.00     0.136 A 
ATOM      8  C   UNL     1      -8.505  -4.050  -3.870  1.00  0.00     0.125 A 
ATOM      9  C   UNL     1      -8.669  -3.790  -5.240  1.00  0.00     0.078 A 
ATOM     10  C   UNL     1      -8.226  -2.580  -5.782  1.00  0.00     0.223 A 
ENDROOT
BRANCH   1  11
ATOM     11  C   UNL     1      -7.088  -0.348  -5.439  1.00  0.00     0.091 A 
ATOM     12  C   UNL     1      -5.883  -0.266  -6.158  1.00  0.00     0.068 A 
ATOM     13  C   UNL     1      -5.403   0.973  -6.605  1.00  0.00     0.162 A 
ATOM     14  C   UNL     1      -7.789   0.832  -5.144  1.00  0.00     0.068 A 
ATOM     15  C   UNL     1      -6.124   2.146  -6.323  1.00  0.00     0.200 A 
ATOM     16  C   UNL     1      -7.314   2.073  -5.591  1.00  0.00     0.162 A 
BRANCH  13  17
ATOM     17  O   UNL     1      -4.210   1.044  -7.322  1.00  0.00    -0.504 OA
ATOM     18  H   UNL     1      -3.529   0.293  -7.295  1.00  0.00     0.293 HD
ENDBRANCH  13  17
BRANCH  15  19
ATOM     19  O   UNL     1      -5.668   3.390  -6.762  1.00  0.00    -0.502 OA
ATOM     20  H   UNL     1      -6.303   4.134  -7.025  1.00  0.00     0.293 HD
ENDBRANCH  15  19
BRANCH  16  21
ATOM     21  O   UNL     1      -8.023   3.240  -5.307  1.00  0.00    -0.504 OA
ATOM     22  H   UNL     1      -8.819   3.238  -4.680  1.00  0.00     0.293 HD
ENDBRANCH  16  21
ENDBRANCH   1  11
BRANCH  10  23
ATOM     23  O   UNL     1      -8.432  -2.301  -7.133  1.00  0.00    -0.500 OA
ATOM     24  H   UNL     1      -8.198  -2.970  -7.858  1.00  0.00     0.294 HD
ENDBRANCH  10  23
BRANCH   5  25
ATOM     25  O   UNL     1      -7.958  -4.616   0.265  1.00  0.00    -0.507 OA
ATOM     26  H   UNL     1      -8.188  -3.894   0.938  1.00  0.00     0.293 HD
ENDBRANCH   5  25
BRANCH   7  27
ATOM     27  O   UNL     1      -9.545  -6.296  -3.942  1.00  0.00    -0.507 OA
ATOM     28  H   UNL     1     -10.335  -6.185  -4.561  1.00  0.00     0.293 HD
ENDBRANCH   7  27
TORSDOF 7
ENDMDL
MODEL 7
REMARK VINA RESULT:    -4.206      5.128      9.644
REMARK INTER + INTRA:          -5.395
REMARK INTER:                  -5.028
REMARK INTRA:                  -0.366
REMARK UNBOUND:                -0.205
REMARK SMILES Oc1cc(O)c2cc(O)c(-c3cc(O)c(O)c(O)c3)[o+]c2c1
REMARK SMILES IDX 10 1 20 2 21 3 22 4 2 5 3 6 4 7 6 8 7 9 8 10 11 11 12 12
REMARK SMILES IDX 13 13 19 14 15 15 17 16 14 17 16 19 18 21 9 23 1 25 5 27
REMARK H PARENT 14 18 16 20 18 22 9 24 1 26 5 28
REMARK Flexibility Score: inf
ROOT
ATOM      1  C   UNL     1      -6.694  -0.160  -5.644  1.00  0.00     0.402 A 
ATOM      2  O   UNL     1      -5.498  -0.294  -6.212  1.00  0.00    -0.202 OA
ATOM      3  C   UNL     1      -4.756   0.737  -6.603  1.00  0.00     0.368 A 
ATOM      4  C   UNL     1      -3.510   0.495  -7.188  1.00  0.00     0.162 A 
ATOM      5  C   UNL     1      -2.708   1.561  -7.605  1.00  0.00     0.128 A 
ATOM      6  C   UNL     1      -3.154   2.874  -7.436  1.00  0.00     0.093 A 
ATOM      7  C   UNL     1      -4.398   3.143  -6.853  1.00  0.00     0.136 A 
ATOM      8  C   UNL     1      -5.217   2.064  -6.430  1.00  0.00     0.125 A 
ATOM      9  C   UNL     1      -6.484   2.238  -5.848  1.00  0.00     0.078 A 
ATOM     10  C   UNL     1      -7.236   1.126  -5.460  1.00  0.00     0.223 A 
ENDROOT
BRANCH   1  11
ATOM     11  C   UNL     1      -7.420  -1.387  -5.243  1.00  0.00     0.091 A 
ATOM     12  C   UNL     1      -7.153  -2.029  -4.022  1.00  0.00     0.068 A 
ATOM     13  C   UNL     1      -7.835  -3.203  -3.669  1.00  0.00     0.162 A 
ATOM     14  C   UNL     1      -8.355  -1.954  -6.122  1.00  0.00     0.068 A 
ATOM     15  C   UNL     1      -8.786  -3.749  -4.547  1.00  0.00     0.200 A 
ATOM     16  C   UNL     1      -9.042  -3.125  -5.774  1.00  0.00     0.162 A 
BRANCH  13  17
ATOM     17  O   UNL     1      -7.567  -3.830  -2.453  1.00  0.00    -0.504 OA
ATOM     18  H   UNL     1      -6.682  -3.704  -1.975  1.00  0.00     0.293 HD
ENDBRANCH  13  17
BRANCH  15  19
ATOM     19  O   UNL     1      -9.480  -4.914  -4.217  1.00  0.00    -0.502 OA
ATOM     20  H   UNL     1      -9.463  -5.305  -3.283  1.00  0.00     0.293 HD
ENDBRANCH  15  19
BRANCH  16  21
ATOM     21  O   UNL     1      -9.981  -3.675  -6.646  1.00  0.00    -0.504 OA
ATOM     22  H   UNL     1      -9.703  -4.259  -7.426  1.00  0.00     0.293 HD
ENDBRANCH  16  21
ENDBRANCH   1  11
BRANCH  10  23
ATOM     23  O   UNL     1      -8.514   1.295  -4.928  1.00  0.00    -0.500 OA
ATOM     24  H   UNL     1      -8.972   2.200  -4.919  1.00  0.00     0.294 HD
ENDBRANCH  10  23
BRANCH   5  25
ATOM     25  O   UNL     1      -1.465   1.327  -8.188  1.00  0.00    -0.507 OA
ATOM     26  H   UNL     1      -0.748   0.792  -7.712  1.00  0.00     0.293 HD
ENDBRANCH   5  25
BRANCH   7  27
ATOM     27  O   UNL     1      -4.770   4.483  -6.718  1.00  0.00    -0.507 OA
ATOM     28  H   UNL     1      -5.669   4.795  -6.381  1.00  0.00     0.293 HD
ENDBRANCH   7  27
TORSDOF 7
ENDMDL
