MODEL 1
REMARK VINA RESULT:    -6.214      0.000      0.000
REMARK INTER + INTRA:          -8.471
REMARK INTER:                  -8.213
REMARK INTRA:                  -0.258
REMARK UNBOUND:                -0.258
REMARK SMILES CCCCC=CC=CCO
REMARK SMILES IDX 5 1 6 2 4 3 3 4 2 5 1 6 7 7 8 8 9 9 10 10
REMARK H PARENT 10 11
REMARK Flexibility Score: inf
ROOT
ATOM      1  C   UNL     1     -10.629  -9.438  -7.424  1.00  0.00    -0.027 C 
ATOM      2  C   UNL     1      -9.893  -8.326  -7.353  1.00  0.00    -0.005 C 
ENDROOT
BRANCH   1   3
ATOM      3  C   UNL     1     -11.672  -9.624  -8.488  1.00  0.00     0.027 C 
BRANCH   3   4
ATOM      4  C   UNL     1     -13.041  -9.944  -7.877  1.00  0.00     0.004 C 
BRANCH   4   5
ATOM      5  C   UNL     1     -13.635  -8.713  -7.182  1.00  0.00    -0.003 C 
ATOM      6  C   UNL     1     -14.347  -9.098  -5.890  1.00  0.00     0.004 C 
ENDBRANCH   4   5
ENDBRANCH   3   4
ENDBRANCH   1   3
BRANCH   2   7
ATOM      7  C   UNL     1      -8.880  -8.155  -6.293  1.00  0.00    -0.002 C 
ATOM      8  C   UNL     1      -7.671  -8.734  -6.316  1.00  0.00     0.001 C 
BRANCH   8   9
ATOM      9  C   UNL     1      -7.187  -9.628  -7.419  1.00  0.00     0.183 C 
BRANCH   9  10
ATOM     10  O   UNL     1      -7.457 -10.965  -7.099  1.00  0.00    -0.392 OA
ATOM     11  H   UNL     1      -8.440 -11.023  -6.971  1.00  0.00     0.210 HD
ENDBRANCH   9  10
ENDBRANCH   8   9
ENDBRANCH   2   7
TORSDOF 6
ENDMDL
MODEL 2
REMARK VINA RESULT:    -6.002      1.432      1.880
REMARK INTER + INTRA:          -8.191
REMARK INTER:                  -8.083
REMARK INTRA:                  -0.107
REMARK UNBOUND:                -0.258
REMARK SMILES CCCCC=CC=CCO
REMARK SMILES IDX 5 1 6 2 4 3 3 4 2 5 1 6 7 7 8 8 9 9 10 10
REMARK H PARENT 10 11
REMARK Flexibility Score: inf
ROOT
ATOM      1  C   UNL     1     -10.397 -10.206  -7.533  1.00  0.00    -0.027 C 
ATOM      2  C   UNL     1      -9.351 -10.899  -7.075  1.00  0.00    -0.005 C 
ENDROOT
BRANCH   1   3
ATOM      3  C   UNL     1     -11.788 -10.453  -7.023  1.00  0.00     0.027 C 
BRANCH   3   4
ATOM      4  C   UNL     1     -12.841  -9.864  -7.969  1.00  0.00     0.004 C 
BRANCH   4   5
ATOM      5  C   UNL     1     -13.540  -8.658  -7.332  1.00  0.00    -0.003 C 
ATOM      6  C   UNL     1     -14.277  -9.056  -6.057  1.00  0.00     0.004 C 
ENDBRANCH   4   5
ENDBRANCH   3   4
ENDBRANCH   1   3
BRANCH   2   7
ATOM      7  C   UNL     1      -7.993 -10.650  -7.597  1.00  0.00    -0.002 C 
ATOM      8  C   UNL     1      -7.226  -9.618  -7.220  1.00  0.00     0.001 C 
BRANCH   8   9
ATOM      9  C   UNL     1      -7.644  -8.580  -6.221  1.00  0.00     0.183 C 
BRANCH   9  10
ATOM     10  O   UNL     1      -6.521  -8.111  -5.527  1.00  0.00    -0.392 OA
ATOM     11  H   UNL     1      -6.785  -7.238  -5.135  1.00  0.00     0.210 HD
ENDBRANCH   9  10
ENDBRANCH   8   9
ENDBRANCH   2   7
TORSDOF 6
ENDMDL
MODEL 3
REMARK VINA RESULT:    -5.877      2.323      3.046
REMARK INTER + INTRA:          -8.025
REMARK INTER:                  -7.818
REMARK INTRA:                  -0.207
REMARK UNBOUND:                -0.258
REMARK SMILES CCCCC=CC=CCO
REMARK SMILES IDX 5 1 6 2 4 3 3 4 2 5 1 6 7 7 8 8 9 9 10 10
REMARK H PARENT 10 11
REMARK Flexibility Score: inf
ROOT
ATOM      1  C   UNL     1      -9.495  -8.953  -6.815  1.00  0.00    -0.027 C 
ATOM      2  C   UNL     1      -9.683 -10.237  -7.132  1.00  0.00    -0.005 C 
ENDROOT
BRANCH   1   3
ATOM      3  C   UNL     1     -10.419  -8.231  -5.879  1.00  0.00     0.027 C 
BRANCH   3   4
ATOM      4  C   UNL     1     -11.697  -9.038  -5.623  1.00  0.00     0.004 C 
BRANCH   4   5
ATOM      5  C   UNL     1     -12.810  -8.630  -6.596  1.00  0.00    -0.003 C 
ATOM      6  C   UNL     1     -13.238  -9.805  -7.469  1.00  0.00     0.004 C 
ENDBRANCH   4   5
ENDBRANCH   3   4
ENDBRANCH   1   3
BRANCH   2   7
ATOM      7  C   UNL     1      -8.771 -10.928  -8.064  1.00  0.00    -0.002 C 
ATOM      8  C   UNL     1      -8.788 -10.754  -9.393  1.00  0.00     0.001 C 
BRANCH   8   9
ATOM      9  C   UNL     1      -9.733  -9.834 -10.109  1.00  0.00     0.183 C 
BRANCH   9  10
ATOM     10  O   UNL     1      -9.460  -9.848 -11.482  1.00  0.00    -0.392 OA
ATOM     11  H   UNL     1      -9.207  -8.919 -11.722  1.00  0.00     0.210 HD
ENDBRANCH   9  10
ENDBRANCH   8   9
ENDBRANCH   2   7
TORSDOF 6
ENDMDL
MODEL 4
REMARK VINA RESULT:    -5.573      2.484      4.728
REMARK INTER + INTRA:          -7.623
REMARK INTER:                  -7.269
REMARK INTRA:                  -0.354
REMARK UNBOUND:                -0.258
REMARK SMILES CCCCC=CC=CCO
REMARK SMILES IDX 5 1 6 2 4 3 3 4 2 5 1 6 7 7 8 8 9 9 10 10
REMARK H PARENT 10 11
REMARK Flexibility Score: inf
ROOT
ATOM      1  C   UNL     1      -9.671  -8.659  -6.845  1.00  0.00    -0.027 C 
ATOM      2  C   UNL     1     -10.615  -9.348  -6.198  1.00  0.00    -0.005 C 
ENDROOT
BRANCH   1   3
ATOM      3  C   UNL     1      -8.338  -9.268  -7.171  1.00  0.00     0.027 C 
BRANCH   3   4
ATOM      4  C   UNL     1      -8.357  -9.949  -8.544  1.00  0.00     0.004 C 
BRANCH   4   5
ATOM      5  C   UNL     1      -9.095  -9.089  -9.575  1.00  0.00    -0.003 C 
ATOM      6  C   UNL     1      -9.580  -9.931 -10.751  1.00  0.00     0.004 C 
ENDBRANCH   4   5
ENDBRANCH   3   4
ENDBRANCH   1   3
BRANCH   2   7
ATOM      7  C   UNL     1     -11.916  -8.729  -5.876  1.00  0.00    -0.002 C 
ATOM      8  C   UNL     1     -13.086  -9.147  -6.377  1.00  0.00     0.001 C 
BRANCH   8   9
ATOM      9  C   UNL     1     -13.230 -10.297  -7.330  1.00  0.00     0.183 C 
BRANCH   9  10
ATOM     10  O   UNL     1     -12.946  -9.872  -8.634  1.00  0.00    -0.392 OA
ATOM     11  H   UNL     1     -11.956  -9.827  -8.699  1.00  0.00     0.210 HD
ENDBRANCH   9  10
ENDBRANCH   8   9
ENDBRANCH   2   7
TORSDOF 6
ENDMDL
MODEL 5
REMARK VINA RESULT:    -5.544      1.636      2.561
REMARK INTER + INTRA:          -7.586
REMARK INTER:                  -7.305
REMARK INTRA:                  -0.281
REMARK UNBOUND:                -0.258
REMARK SMILES CCCCC=CC=CCO
REMARK SMILES IDX 5 1 6 2 4 3 3 4 2 5 1 6 7 7 8 8 9 9 10 10
REMARK H PARENT 10 11
REMARK Flexibility Score: inf
ROOT
ATOM      1  C   UNL     1     -11.277 -10.067  -8.191  1.00  0.00    -0.027 C 
ATOM      2  C   UNL     1     -10.221  -9.676  -8.910  1.00  0.00    -0.005 C 
ENDROOT
BRANCH   1   3
ATOM      3  C   UNL     1     -12.378  -9.113  -7.829  1.00  0.00     0.027 C 
BRANCH   3   4
ATOM      4  C   UNL     1     -12.490  -8.941  -6.309  1.00  0.00     0.004 C 
BRANCH   4   5
ATOM      5  C   UNL     1     -11.124  -9.111  -5.634  1.00  0.00    -0.003 C 
ATOM      6  C   UNL     1     -10.352  -7.796  -5.613  1.00  0.00     0.004 C 
ENDBRANCH   4   5
ENDBRANCH   3   4
ENDBRANCH   1   3
BRANCH   2   7
ATOM      7  C   UNL     1      -9.142 -10.625  -9.247  1.00  0.00    -0.002 C 
ATOM      8  C   UNL     1      -8.142 -10.945  -8.414  1.00  0.00     0.001 C 
BRANCH   8   9
ATOM      9  C   UNL     1      -7.987 -10.383  -7.031  1.00  0.00     0.183 C 
BRANCH   9  10
ATOM     10  O   UNL     1      -6.922  -9.473  -7.006  1.00  0.00    -0.392 OA
ATOM     11  H   UNL     1      -6.464  -9.562  -7.882  1.00  0.00     0.210 HD
ENDBRANCH   9  10
ENDBRANCH   8   9
ENDBRANCH   2   7
TORSDOF 6
ENDMDL
MODEL 6
REMARK VINA RESULT:    -5.538      2.115      4.561
REMARK INTER + INTRA:          -7.577
REMARK INTER:                  -7.382
REMARK INTRA:                  -0.196
REMARK UNBOUND:                -0.258
REMARK SMILES CCCCC=CC=CCO
REMARK SMILES IDX 5 1 6 2 4 3 3 4 2 5 1 6 7 7 8 8 9 9 10 10
REMARK H PARENT 10 11
REMARK Flexibility Score: inf
ROOT
ATOM      1  C   UNL     1     -10.471  -9.151  -8.726  1.00  0.00    -0.027 C 
ATOM      2  C   UNL     1     -11.551  -9.867  -8.404  1.00  0.00    -0.005 C 
ENDROOT
BRANCH   1   3
ATOM      3  C   UNL     1      -9.289  -9.774  -9.410  1.00  0.00     0.027 C 
BRANCH   3   4
ATOM      4  C   UNL     1      -8.822 -11.037  -8.676  1.00  0.00     0.004 C 
BRANCH   4   5
ATOM      5  C   UNL     1      -8.281 -10.695  -7.283  1.00  0.00    -0.003 C 
ATOM      6  C   UNL     1      -7.208  -9.613  -7.358  1.00  0.00     0.004 C 
ENDBRANCH   4   5
ENDBRANCH   3   4
ENDBRANCH   1   3
BRANCH   2   7
ATOM      7  C   UNL     1     -12.700  -9.238  -7.722  1.00  0.00    -0.002 C 
ATOM      8  C   UNL     1     -12.705  -8.903  -6.424  1.00  0.00     0.001 C 
BRANCH   8   9
ATOM      9  C   UNL     1     -11.548  -9.121  -5.494  1.00  0.00     0.183 C 
BRANCH   9  10
ATOM     10  O   UNL     1     -10.695  -8.009  -5.529  1.00  0.00    -0.392 OA
ATOM     11  H   UNL     1     -10.435  -7.833  -4.588  1.00  0.00     0.210 HD
ENDBRANCH   9  10
ENDBRANCH   8   9
ENDBRANCH   2   7
TORSDOF 6
ENDMDL
MODEL 7
REMARK VINA RESULT:    -5.497      2.484      5.186
REMARK INTER + INTRA:          -7.523
REMARK INTER:                  -7.322
REMARK INTRA:                  -0.201
REMARK UNBOUND:                -0.258
REMARK SMILES CCCCC=CC=CCO
REMARK SMILES IDX 5 1 6 2 4 3 3 4 2 5 1 6 7 7 8 8 9 9 10 10
REMARK H PARENT 10 11
REMARK Flexibility Score: inf
ROOT
ATOM      1  C   UNL     1      -9.453 -10.823  -8.171  1.00  0.00    -0.027 C 
ATOM      2  C   UNL     1     -10.393  -9.917  -7.888  1.00  0.00    -0.005 C 
ENDROOT
BRANCH   1   3
ATOM      3  C   UNL     1      -8.162 -10.883  -7.408  1.00  0.00     0.027 C 
BRANCH   3   4
ATOM      4  C   UNL     1      -7.337  -9.607  -7.608  1.00  0.00     0.004 C 
BRANCH   4   5
ATOM      5  C   UNL     1      -7.159  -8.853  -6.285  1.00  0.00    -0.003 C 
ATOM      6  C   UNL     1      -8.384  -8.003  -5.965  1.00  0.00     0.004 C 
ENDBRANCH   4   5
ENDBRANCH   3   4
ENDBRANCH   1   3
BRANCH   2   7
ATOM      7  C   UNL     1     -11.652  -9.866  -8.657  1.00  0.00    -0.002 C 
ATOM      8  C   UNL     1     -12.835  -9.521  -8.131  1.00  0.00     0.001 C 
BRANCH   8   9
ATOM      9  C   UNL     1     -13.037  -9.140  -6.694  1.00  0.00     0.183 C 
BRANCH   9  10
ATOM     10  O   UNL     1     -14.305  -8.568  -6.529  1.00  0.00    -0.392 OA
ATOM     11  H   UNL     1     -14.816  -9.193  -5.950  1.00  0.00     0.210 HD
ENDBRANCH   9  10
ENDBRANCH   8   9
ENDBRANCH   2   7
TORSDOF 6
ENDMDL
MODEL 8
REMARK VINA RESULT:    -5.369      2.675      3.683
REMARK INTER + INTRA:          -7.353
REMARK INTER:                  -6.975
REMARK INTRA:                  -0.378
REMARK UNBOUND:                -0.258
REMARK SMILES CCCCC=CC=CCO
REMARK SMILES IDX 5 1 6 2 4 3 3 4 2 5 1 6 7 7 8 8 9 9 10 10
REMARK H PARENT 10 11
REMARK Flexibility Score: inf
ROOT
ATOM      1  C   UNL     1     -10.205 -10.883  -6.861  1.00  0.00    -0.027 C 
ATOM      2  C   UNL     1      -9.133 -10.471  -7.543  1.00  0.00    -0.005 C 
ENDROOT
BRANCH   1   3
ATOM      3  C   UNL     1     -10.630 -10.214  -5.586  1.00  0.00     0.027 C 
BRANCH   3   4
ATOM      4  C   UNL     1     -11.269  -8.848  -5.860  1.00  0.00     0.004 C 
BRANCH   4   5
ATOM      5  C   UNL     1     -10.281  -7.711  -5.573  1.00  0.00    -0.003 C 
ATOM      6  C   UNL     1      -9.917  -6.961  -6.850  1.00  0.00     0.004 C 
ENDBRANCH   4   5
ENDBRANCH   3   4
ENDBRANCH   1   3
BRANCH   2   7
ATOM      7  C   UNL     1      -8.723 -11.148  -8.789  1.00  0.00    -0.002 C 
ATOM      8  C   UNL     1      -8.934 -10.649 -10.015  1.00  0.00     0.001 C 
BRANCH   8   9
ATOM      9  C   UNL     1      -9.612  -9.338 -10.284  1.00  0.00     0.183 C 
BRANCH   9  10
ATOM     10  O   UNL     1      -8.675  -8.404 -10.743  1.00  0.00    -0.392 OA
ATOM     11  H   UNL     1      -8.936  -7.534 -10.343  1.00  0.00     0.210 HD
ENDBRANCH   9  10
ENDBRANCH   8   9
ENDBRANCH   2   7
TORSDOF 6
ENDMDL
MODEL 9
REMARK VINA RESULT:    -5.362      1.841      2.378
REMARK INTER + INTRA:          -7.344
REMARK INTER:                  -7.269
REMARK INTRA:                  -0.075
REMARK UNBOUND:                -0.258
REMARK SMILES CCCCC=CC=CCO
REMARK SMILES IDX 5 1 6 2 4 3 3 4 2 5 1 6 7 7 8 8 9 9 10 10
REMARK H PARENT 10 11
REMARK Flexibility Score: inf
ROOT
ATOM      1  C   UNL     1     -10.527  -8.638  -7.751  1.00  0.00    -0.027 C 
ATOM      2  C   UNL     1      -9.442  -8.364  -8.480  1.00  0.00    -0.005 C 
ENDROOT
BRANCH   1   3
ATOM      3  C   UNL     1     -10.840  -7.884  -6.491  1.00  0.00     0.027 C 
BRANCH   3   4
ATOM      4  C   UNL     1     -11.796  -8.675  -5.591  1.00  0.00     0.004 C 
BRANCH   4   5
ATOM      5  C   UNL     1     -12.808  -9.468  -6.425  1.00  0.00    -0.003 C 
ATOM      6  C   UNL     1     -14.064  -8.647  -6.695  1.00  0.00     0.004 C 
ENDBRANCH   4   5
ENDBRANCH   3   4
ENDBRANCH   1   3
BRANCH   2   7
ATOM      7  C   UNL     1      -9.145  -9.124  -9.710  1.00  0.00    -0.002 C 
ATOM      8  C   UNL     1      -8.825 -10.425  -9.725  1.00  0.00     0.001 C 
BRANCH   8   9
ATOM      9  C   UNL     1      -8.727 -11.281  -8.496  1.00  0.00     0.183 C 
BRANCH   9  10
ATOM     10  O   UNL     1      -7.455 -11.147  -7.925  1.00  0.00    -0.392 OA
ATOM     11  H   UNL     1      -6.867 -11.783  -8.410  1.00  0.00     0.210 HD
ENDBRANCH   9  10
ENDBRANCH   8   9
ENDBRANCH   2   7
TORSDOF 6
ENDMDL
