MODEL 1
REMARK VINA RESULT:    -4.117      0.000      0.000
REMARK INTER + INTRA:          -5.455
REMARK INTER:                  -5.321
REMARK INTRA:                  -0.134
REMARK UNBOUND:                -0.134
REMARK SMILES CCCCCCC(=O)[O-]
REMARK SMILES IDX 5 1 6 2 7 3 8 4 9 5 4 6 3 7 2 8 1 9
REMARK H PARENT
REMARK Flexibility Score: inf
ROOT
ATOM      1  C   UNL     1       7.287   5.263  -7.289  1.00  0.00     0.006 C 
ENDROOT
BRANCH   1   2
ATOM      2  C   UNL     1       7.079   6.160  -6.062  1.00  0.00     0.053 C 
BRANCH   2   3
ATOM      3  C   UNL     1       6.960   5.360  -4.801  1.00  0.00     0.041 C 
ATOM      4  O   UNL     1       7.075   5.922  -3.681  1.00  0.00    -0.550 OA
ATOM      5  O   UNL     1       6.756   3.987  -4.865  1.00  0.00    -0.550 OA
ENDBRANCH   2   3
ENDBRANCH   1   2
BRANCH   1   6
ATOM      6  C   UNL     1       8.165   5.933  -8.356  1.00  0.00     0.000 C 
BRANCH   6   7
ATOM      7  C   UNL     1       7.405   6.081  -9.680  1.00  0.00    -0.000 C 
BRANCH   7   8
ATOM      8  C   UNL     1       8.375   6.173 -10.864  1.00  0.00    -0.003 C 
ATOM      9  C   UNL     1       9.812   5.924 -10.419  1.00  0.00     0.004 C 
ENDBRANCH   7   8
ENDBRANCH   6   7
ENDBRANCH   1   6
TORSDOF 5
ENDMDL
MODEL 2
REMARK VINA RESULT:    -4.012      0.712      1.596
REMARK INTER + INTRA:          -5.319
REMARK INTER:                  -5.177
REMARK INTRA:                  -0.142
REMARK UNBOUND:                -0.134
REMARK SMILES CCCCCCC(=O)[O-]
REMARK SMILES IDX 5 1 6 2 7 3 8 4 9 5 4 6 3 7 2 8 1 9
REMARK H PARENT
REMARK Flexibility Score: inf
ROOT
ATOM      1  C   UNL     1       7.736   5.664  -7.175  1.00  0.00     0.006 C 
ENDROOT
BRANCH   1   2
ATOM      2  C   UNL     1       7.158   6.397  -5.958  1.00  0.00     0.053 C 
BRANCH   2   3
ATOM      3  C   UNL     1       6.898   5.462  -4.817  1.00  0.00     0.041 C 
ATOM      4  O   UNL     1       6.794   4.225  -5.023  1.00  0.00    -0.550 OA
ATOM      5  O   UNL     1       6.736   5.962  -3.530  1.00  0.00    -0.550 OA
ENDBRANCH   2   3
ENDBRANCH   1   2
BRANCH   1   6
ATOM      6  C   UNL     1       8.074   6.624  -8.325  1.00  0.00     0.000 C 
BRANCH   6   7
ATOM      7  C   UNL     1       8.939   5.931  -9.385  1.00  0.00    -0.000 C 
BRANCH   7   8
ATOM      8  C   UNL     1       8.333   6.093 -10.783  1.00  0.00    -0.003 C 
ATOM      9  C   UNL     1       6.823   5.879 -10.756  1.00  0.00     0.004 C 
ENDBRANCH   7   8
ENDBRANCH   6   7
ENDBRANCH   1   6
TORSDOF 5
ENDMDL
MODEL 3
REMARK VINA RESULT:    -3.896     10.792     11.272
REMARK INTER + INTRA:          -5.170
REMARK INTER:                  -5.033
REMARK INTRA:                  -0.136
REMARK UNBOUND:                -0.134
REMARK SMILES CCCCCCC(=O)[O-]
REMARK SMILES IDX 5 1 6 2 7 3 8 4 9 5 4 6 3 7 2 8 1 9
REMARK H PARENT
REMARK Flexibility Score: inf
ROOT
ATOM      1  C   UNL     1      11.204   0.532   1.000  1.00  0.00     0.006 C 
ENDROOT
BRANCH   1   2
ATOM      2  C   UNL     1      10.470   0.230   2.313  1.00  0.00     0.053 C 
BRANCH   2   3
ATOM      3  C   UNL     1       9.560  -0.952   2.183  1.00  0.00     0.041 C 
ATOM      4  O   UNL     1       8.396  -0.909   2.658  1.00  0.00    -0.550 OA
ATOM      5  O   UNL     1      10.011  -2.113   1.568  1.00  0.00    -0.550 OA
ENDBRANCH   2   3
ENDBRANCH   1   2
BRANCH   1   6
ATOM      6  C   UNL     1      12.680   0.110   1.047  1.00  0.00     0.000 C 
BRANCH   6   7
ATOM      7  C   UNL     1      13.077  -0.648  -0.226  1.00  0.00    -0.000 C 
BRANCH   7   8
ATOM      8  C   UNL     1      14.601  -0.706  -0.379  1.00  0.00    -0.003 C 
ATOM      9  C   UNL     1      15.020  -0.438  -1.821  1.00  0.00     0.004 C 
ENDBRANCH   7   8
ENDBRANCH   6   7
ENDBRANCH   1   6
TORSDOF 5
ENDMDL
MODEL 4
REMARK VINA RESULT:    -3.852     11.081     12.675
REMARK INTER + INTRA:          -5.113
REMARK INTER:                  -4.725
REMARK INTRA:                  -0.388
REMARK UNBOUND:                -0.134
REMARK SMILES CCCCCCC(=O)[O-]
REMARK SMILES IDX 5 1 6 2 7 3 8 4 9 5 4 6 3 7 2 8 1 9
REMARK H PARENT
REMARK Flexibility Score: inf
ROOT
ATOM      1  C   UNL     1      11.147   0.209   0.869  1.00  0.00     0.006 C 
ENDROOT
BRANCH   1   2
ATOM      2  C   UNL     1      11.747  -1.061   0.253  1.00  0.00     0.053 C 
BRANCH   2   3
ATOM      3  C   UNL     1      10.945  -2.279   0.595  1.00  0.00     0.041 C 
ATOM      4  O   UNL     1      10.078  -2.230   1.506  1.00  0.00    -0.550 OA
ATOM      5  O   UNL     1      11.181  -3.477  -0.069  1.00  0.00    -0.550 OA
ENDBRANCH   2   3
ENDBRANCH   1   2
BRANCH   1   6
ATOM      6  C   UNL     1      12.004   0.758   2.019  1.00  0.00     0.000 C 
BRANCH   6   7
ATOM      7  C   UNL     1      11.295   0.579   3.368  1.00  0.00    -0.000 C 
BRANCH   7   8
ATOM      8  C   UNL     1      12.238  -0.035   4.409  1.00  0.00    -0.003 C 
ATOM      9  C   UNL     1      12.703  -1.423   3.980  1.00  0.00     0.004 C 
ENDBRANCH   7   8
ENDBRANCH   6   7
ENDBRANCH   1   6
TORSDOF 5
ENDMDL
MODEL 5
REMARK VINA RESULT:    -3.842     10.899     12.419
REMARK INTER + INTRA:          -5.099
REMARK INTER:                  -4.787
REMARK INTRA:                  -0.313
REMARK UNBOUND:                -0.134
REMARK SMILES CCCCCCC(=O)[O-]
REMARK SMILES IDX 5 1 6 2 7 3 8 4 9 5 4 6 3 7 2 8 1 9
REMARK H PARENT
REMARK Flexibility Score: inf
ROOT
ATOM      1  C   UNL     1      11.384   0.613   0.909  1.00  0.00     0.006 C 
ENDROOT
BRANCH   1   2
ATOM      2  C   UNL     1      11.926  -0.573   0.101  1.00  0.00     0.053 C 
BRANCH   2   3
ATOM      3  C   UNL     1      13.398  -0.452  -0.146  1.00  0.00     0.041 C 
ATOM      4  O   UNL     1      14.198  -0.377   0.823  1.00  0.00    -0.550 OA
ATOM      5  O   UNL     1      13.884  -0.389  -1.446  1.00  0.00    -0.550 OA
ENDBRANCH   2   3
ENDBRANCH   1   2
BRANCH   1   6
ATOM      6  C   UNL     1      10.406   0.170   2.007  1.00  0.00     0.000 C 
BRANCH   6   7
ATOM      7  C   UNL     1      11.107  -0.722   3.040  1.00  0.00    -0.000 C 
BRANCH   7   8
ATOM      8  C   UNL     1      12.117   0.082   3.867  1.00  0.00    -0.003 C 
ATOM      9  C   UNL     1      11.432   1.218   4.620  1.00  0.00     0.004 C 
ENDBRANCH   7   8
ENDBRANCH   6   7
ENDBRANCH   1   6
TORSDOF 5
ENDMDL
MODEL 6
REMARK VINA RESULT:    -3.752     11.174     12.117
REMARK INTER + INTRA:          -4.983
REMARK INTER:                  -4.720
REMARK INTRA:                  -0.263
REMARK UNBOUND:                -0.134
REMARK SMILES CCCCCCC(=O)[O-]
REMARK SMILES IDX 5 1 6 2 7 3 8 4 9 5 4 6 3 7 2 8 1 9
REMARK H PARENT
REMARK Flexibility Score: inf
ROOT
ATOM      1  C   UNL     1      13.597  -0.668   1.214  1.00  0.00     0.006 C 
ENDROOT
BRANCH   1   2
ATOM      2  C   UNL     1      13.521  -0.520  -0.311  1.00  0.00     0.053 C 
BRANCH   2   3
ATOM      3  C   UNL     1      14.860  -0.213  -0.908  1.00  0.00     0.041 C 
ATOM      4  O   UNL     1      15.729   0.397  -0.233  1.00  0.00    -0.550 OA
ATOM      5  O   UNL     1      15.135  -0.570  -2.222  1.00  0.00    -0.550 OA
ENDBRANCH   2   3
ENDBRANCH   1   2
BRANCH   1   6
ATOM      6  C   UNL     1      12.643   0.293   1.939  1.00  0.00     0.000 C 
BRANCH   6   7
ATOM      7  C   UNL     1      11.375   0.538   1.112  1.00  0.00    -0.000 C 
BRANCH   7   8
ATOM      8  C   UNL     1      10.115   0.250   1.937  1.00  0.00    -0.003 C 
ATOM      9  C   UNL     1       9.894  -1.251   2.098  1.00  0.00     0.004 C 
ENDBRANCH   7   8
ENDBRANCH   6   7
ENDBRANCH   1   6
TORSDOF 5
ENDMDL
MODEL 7
REMARK VINA RESULT:    -3.750      3.294      4.990
REMARK INTER + INTRA:          -4.980
REMARK INTER:                  -4.797
REMARK INTRA:                  -0.183
REMARK UNBOUND:                -0.134
REMARK SMILES CCCCCCC(=O)[O-]
REMARK SMILES IDX 5 1 6 2 7 3 8 4 9 5 4 6 3 7 2 8 1 9
REMARK H PARENT
REMARK Flexibility Score: inf
ROOT
ATOM      1  C   UNL     1       8.957   5.850  -8.951  1.00  0.00     0.006 C 
ENDROOT
BRANCH   1   2
ATOM      2  C   UNL     1       8.757   6.647 -10.247  1.00  0.00     0.053 C 
BRANCH   2   3
ATOM      3  C   UNL     1       7.312   6.732 -10.631  1.00  0.00     0.041 C 
ATOM      4  O   UNL     1       6.722   7.844 -10.633  1.00  0.00    -0.550 OA
ATOM      5  O   UNL     1       6.608   5.578 -10.953  1.00  0.00    -0.550 OA
ENDBRANCH   2   3
ENDBRANCH   1   2
BRANCH   1   6
ATOM      6  C   UNL     1       7.946   6.244  -7.865  1.00  0.00     0.000 C 
BRANCH   6   7
ATOM      7  C   UNL     1       7.318   5.001  -7.221  1.00  0.00    -0.000 C 
BRANCH   7   8
ATOM      8  C   UNL     1       7.002   5.248  -5.741  1.00  0.00    -0.003 C 
ATOM      9  C   UNL     1       7.092   6.732  -5.399  1.00  0.00     0.004 C 
ENDBRANCH   7   8
ENDBRANCH   6   7
ENDBRANCH   1   6
TORSDOF 5
ENDMDL
MODEL 8
REMARK VINA RESULT:    -3.725     10.936     11.495
REMARK INTER + INTRA:          -4.948
REMARK INTER:                  -4.784
REMARK INTRA:                  -0.164
REMARK UNBOUND:                -0.134
REMARK SMILES CCCCCCC(=O)[O-]
REMARK SMILES IDX 5 1 6 2 7 3 8 4 9 5 4 6 3 7 2 8 1 9
REMARK H PARENT
REMARK Flexibility Score: inf
ROOT
ATOM      1  C   UNL     1      11.137   0.653   1.000  1.00  0.00     0.006 C 
ENDROOT
BRANCH   1   2
ATOM      2  C   UNL     1      10.336   0.186   2.223  1.00  0.00     0.053 C 
BRANCH   2   3
ATOM      3  C   UNL     1      11.166   0.199   3.469  1.00  0.00     0.041 C 
ATOM      4  O   UNL     1      11.889  -0.790   3.759  1.00  0.00    -0.550 OA
ATOM      5  O   UNL     1      11.114   1.289   4.329  1.00  0.00    -0.550 OA
ENDBRANCH   2   3
ENDBRANCH   1   2
BRANCH   1   6
ATOM      6  C   UNL     1      11.763  -0.521   0.232  1.00  0.00     0.000 C 
BRANCH   6   7
ATOM      7  C   UNL     1      13.292  -0.409   0.208  1.00  0.00    -0.000 C 
BRANCH   7   8
ATOM      8  C   UNL     1      13.828  -0.491  -1.226  1.00  0.00    -0.003 C 
ATOM      9  C   UNL     1      15.335  -0.259  -1.266  1.00  0.00     0.004 C 
ENDBRANCH   7   8
ENDBRANCH   6   7
ENDBRANCH   1   6
TORSDOF 5
ENDMDL
MODEL 9
REMARK VINA RESULT:    -3.690     10.885     12.844
REMARK INTER + INTRA:          -4.902
REMARK INTER:                  -4.481
REMARK INTRA:                  -0.421
REMARK UNBOUND:                -0.134
REMARK SMILES CCCCCCC(=O)[O-]
REMARK SMILES IDX 5 1 6 2 7 3 8 4 9 5 4 6 3 7 2 8 1 9
REMARK H PARENT
REMARK Flexibility Score: inf
ROOT
ATOM      1  C   UNL     1      11.958   0.615   2.333  1.00  0.00     0.006 C 
ENDROOT
BRANCH   1   2
ATOM      2  C   UNL     1      11.295   0.482   0.955  1.00  0.00     0.053 C 
BRANCH   2   3
ATOM      3  C   UNL     1      11.911  -0.617   0.145  1.00  0.00     0.041 C 
ATOM      4  O   UNL     1      12.939  -0.394  -0.546  1.00  0.00    -0.550 OA
ATOM      5  O   UNL     1      11.328  -1.878   0.126  1.00  0.00    -0.550 OA
ENDBRANCH   2   3
ENDBRANCH   1   2
BRANCH   1   6
ATOM      6  C   UNL     1      11.481  -0.465   3.315  1.00  0.00     0.000 C 
BRANCH   6   7
ATOM      7  C   UNL     1      12.671  -1.198   3.946  1.00  0.00    -0.000 C 
BRANCH   7   8
ATOM      8  C   UNL     1      13.028  -2.458   3.150  1.00  0.00    -0.003 C 
ATOM      9  C   UNL     1      14.362  -2.296   2.430  1.00  0.00     0.004 C 
ENDBRANCH   7   8
ENDBRANCH   6   7
ENDBRANCH   1   6
TORSDOF 5
ENDMDL
