MODEL 1
REMARK VINA RESULT:    -1.764      0.000      0.000
REMARK INTER + INTRA:          -0.636
REMARK INTER:                  -1.867
REMARK INTRA:                   1.231
REMARK UNBOUND:                 1.231
REMARK SMILES CC(C)[C@@H]1CC[C@@H](C)CC1=O
REMARK SMILES IDX 8 1 7 2 6 3 5 4 4 5 10 6 11 7 9 8 2 9 1 10 3 11
REMARK H PARENT
REMARK Flexibility Score: inf
ROOT
ATOM      1  C   UNL     1      -2.760   8.426  10.208  1.00  0.00     0.008 C 
ATOM      2  C   UNL     1      -2.820   9.941   9.988  1.00  0.00    -0.007 C 
ATOM      3  C   UNL     1      -4.077  10.536  10.654  1.00  0.00     0.004 C 
ATOM      4  C   UNL     1      -4.117  12.060  10.476  1.00  0.00     0.012 C 
ATOM      5  C   UNL     1      -4.122  12.456   8.980  1.00  0.00     0.058 C 
ATOM      6  C   UNL     1      -2.991  11.744   8.258  1.00  0.00     0.136 C 
ATOM      7  O   UNL     1      -2.315  12.317   7.417  1.00  0.00    -0.299 OA
ATOM      8  C   UNL     1      -2.793  10.269   8.484  1.00  0.00     0.079 C 
ENDROOT
BRANCH   5   9
ATOM      9  C   UNL     1      -4.125  14.001   8.748  1.00  0.00    -0.007 C 
ATOM     10  C   UNL     1      -3.048  14.476   7.756  1.00  0.00     0.008 C 
ATOM     11  C   UNL     1      -4.004  14.777  10.068  1.00  0.00     0.008 C 
ENDBRANCH   5   9
TORSDOF 1
ENDMDL
MODEL 2
REMARK VINA RESULT:    -1.571      1.281      4.259
REMARK INTER + INTRA:          -0.432
REMARK INTER:                  -0.922
REMARK INTRA:                   0.490
REMARK UNBOUND:                 1.231
REMARK SMILES CC(C)[C@@H]1CC[C@@H](C)CC1=O
REMARK SMILES IDX 8 1 7 2 6 3 5 4 4 5 10 6 11 7 9 8 2 9 1 10 3 11
REMARK H PARENT
REMARK Flexibility Score: inf
ROOT
ATOM      1  C   UNL     1      -4.116  13.975   7.831  1.00  0.00     0.008 C 
ATOM      2  C   UNL     1      -4.110  12.581   8.466  1.00  0.00    -0.007 C 
ATOM      3  C   UNL     1      -4.006  12.685  10.001  1.00  0.00     0.004 C 
ATOM      4  C   UNL     1      -4.046  11.292  10.645  1.00  0.00     0.012 C 
ATOM      5  C   UNL     1      -2.891  10.398  10.135  1.00  0.00     0.058 C 
ATOM      6  C   UNL     1      -2.862  10.415   8.616  1.00  0.00     0.136 C 
ATOM      7  O   UNL     1      -2.651   9.396   7.974  1.00  0.00    -0.299 OA
ATOM      8  C   UNL     1      -2.958  11.734   7.898  1.00  0.00     0.079 C 
ENDROOT
BRANCH   5   9
ATOM      9  C   UNL     1      -2.912   8.956  10.735  1.00  0.00    -0.007 C 
ATOM     10  C   UNL     1      -1.616   8.165  10.482  1.00  0.00     0.008 C 
ATOM     11  C   UNL     1      -4.125   8.151  10.243  1.00  0.00     0.008 C 
ENDBRANCH   5   9
TORSDOF 1
ENDMDL
MODEL 3
REMARK VINA RESULT:    -1.018      2.249      5.085
REMARK INTER + INTRA:           0.153
REMARK INTER:                  -0.795
REMARK INTRA:                   0.948
REMARK UNBOUND:                 1.231
REMARK SMILES CC(C)[C@@H]1CC[C@@H](C)CC1=O
REMARK SMILES IDX 8 1 7 2 6 3 5 4 4 5 10 6 11 7 9 8 2 9 1 10 3 11
REMARK H PARENT
REMARK Flexibility Score: inf
ROOT
ATOM      1  C   UNL     1      -1.902  15.952   4.356  1.00  0.00     0.008 C 
ATOM      2  C   UNL     1      -2.184  15.364   5.741  1.00  0.00    -0.007 C 
ATOM      3  C   UNL     1      -2.372  13.836   5.655  1.00  0.00     0.004 C 
ATOM      4  C   UNL     1      -2.610  13.237   7.048  1.00  0.00     0.012 C 
ATOM      5  C   UNL     1      -3.863  13.846   7.721  1.00  0.00     0.058 C 
ATOM      6  C   UNL     1      -3.787  15.363   7.666  1.00  0.00     0.136 C 
ATOM      7  O   UNL     1      -4.123  16.050   8.620  1.00  0.00    -0.299 OA
ATOM      8  C   UNL     1      -3.422  16.030   6.368  1.00  0.00     0.079 C 
ENDROOT
BRANCH   5   9
ATOM      9  C   UNL     1      -4.124  13.294   9.158  1.00  0.00    -0.007 C 
ATOM     10  C   UNL     1      -3.750  14.285  10.276  1.00  0.00     0.008 C 
ATOM     11  C   UNL     1      -3.420  11.948   9.390  1.00  0.00     0.008 C 
ENDBRANCH   5   9
TORSDOF 1
ENDMDL
