MODEL 1
REMARK VINA RESULT:    -6.207      0.000      0.000
REMARK INTER + INTRA:         -12.116
REMARK INTER:                 -10.199
REMARK INTRA:                  -1.917
REMARK UNBOUND:                -1.917
REMARK SMILES C[C@@H]1O[C@@H](OC[C@H]2O[C@H](Oc3c(-c4ccc(O)c(O)c4)oc4cc(O)cc(O)c4c3=O)[C@@H](O)[C@@H](O)[C@@H]2O)[C@@H](O)[C@H](O)[C@H]1O
REMARK SMILES IDX 7 1 36 2 34 3 32 4 9 5 8 6 6 7 5 8 4 9 1 10 2 11 42 12 3 13
REMARK SMILES IDX 40 14 38 15 43 16 41 18 39 20 37 22 35 24 10 26 11 27 12 28
REMARK SMILES IDX 30 29 21 30 29 31 31 32 22 33 27 34 23 35 26 36 24 37 13 38
REMARK SMILES IDX 20 39 14 40 18 41 15 42 16 43 19 44 17 46 28 48 25 50 33 52
REMARK H PARENT 43 17 41 19 39 21 37 23 35 25 19 45 17 47 28 49 25 51 33 53
REMARK Flexibility Score: inf
ROOT
ATOM      1  C   UNL     1      -2.686  15.486   5.980  1.00  0.00     0.180 C 
ATOM      2  C   UNL     1      -3.216  14.031   5.852  1.00  0.00     0.177 C 
ATOM      3  C   UNL     1      -2.058  13.078   5.532  1.00  0.00     0.180 C 
ATOM      4  C   UNL     1      -0.889  13.288   6.511  1.00  0.00     0.214 C 
ATOM      5  C   UNL     1      -0.529  14.784   6.617  1.00  0.00     0.339 C 
ATOM      6  O   UNL     1      -1.663  15.570   6.964  1.00  0.00    -0.332 OA
ENDROOT
BRANCH   1   7
ATOM      7  C   UNL     1      -3.809  16.453   6.390  1.00  0.00     0.198 C 
BRANCH   7   8
ATOM      8  O   UNL     1      -5.028  16.089   5.770  1.00  0.00    -0.347 OA
BRANCH   8   9
ATOM      9  C   UNL     1      -5.653  17.203   5.149  1.00  0.00     0.281 C 
ATOM     10  C   UNL     1      -7.993  18.125   7.832  1.00  0.00     0.041 C 
ATOM     11  C   UNL     1      -7.366  17.237   6.755  1.00  0.00     0.150 C 
ATOM     12  C   UNL     1      -8.437  16.755   5.750  1.00  0.00     0.174 C 
ATOM     13  O   UNL     1      -6.358  17.990   6.098  1.00  0.00    -0.344 OA
ATOM     14  C   UNL     1      -7.774  15.939   4.626  1.00  0.00     0.179 C 
ATOM     15  C   UNL     1      -6.593  16.723   4.030  1.00  0.00     0.202 C 
BRANCH  12  16
ATOM     16  O   UNL     1      -9.378  15.946   6.415  1.00  0.00    -0.388 OA
ATOM     17  H   UNL     1     -10.275  16.216   6.089  1.00  0.00     0.211 HD
ENDBRANCH  12  16
BRANCH  14  18
ATOM     18  O   UNL     1      -8.725  15.670   3.630  1.00  0.00    -0.387 OA
ATOM     19  H   UNL     1      -9.181  16.528   3.426  1.00  0.00     0.211 HD
ENDBRANCH  14  18
BRANCH  15  20
ATOM     20  O   UNL     1      -5.875  15.905   3.138  1.00  0.00    -0.385 OA
ATOM     21  H   UNL     1      -5.836  16.382   2.264  1.00  0.00     0.211 HD
ENDBRANCH  15  20
ENDBRANCH   8   9
ENDBRANCH   7   8
ENDBRANCH   1   7
BRANCH   2  22
ATOM     22  O   UNL     1      -4.166  13.940   4.818  1.00  0.00    -0.387 OA
ATOM     23  H   UNL     1      -5.058  14.112   5.215  1.00  0.00     0.211 HD
ENDBRANCH   2  22
BRANCH   3  24
ATOM     24  O   UNL     1      -2.509  11.748   5.584  1.00  0.00    -0.387 OA
ATOM     25  H   UNL     1      -2.679  11.467   4.647  1.00  0.00     0.211 HD
ENDBRANCH   3  24
BRANCH   5  26
ATOM     26  O   UNL     1       0.053  15.233   5.391  1.00  0.00    -0.454 OA
BRANCH  26  27
ATOM     27  C   UNL     1       1.262  14.786   4.817  1.00  0.00     0.214 A 
ATOM     28  C   UNL     1       1.210  14.175   3.547  1.00  0.00     0.180 A 
ATOM     29  C   UNL     1       2.517  14.876   5.461  1.00  0.00     0.239 A 
ATOM     30  O   UNL     1       2.294  13.599   3.034  1.00  0.00    -0.452 OA
ATOM     31  C   UNL     1       3.637  14.225   4.898  1.00  0.00     0.111 A 
ATOM     32  O   UNL     1       2.640  15.544   6.523  1.00  0.00    -0.285 OA
ATOM     33  C   UNL     1       3.469  13.581   3.650  1.00  0.00     0.146 A 
ATOM     34  C   UNL     1       4.905  14.177   5.533  1.00  0.00     0.134 A 
ATOM     35  C   UNL     1       4.542  12.920   3.047  1.00  0.00     0.094 A 
ATOM     36  C   UNL     1       5.966  13.500   4.915  1.00  0.00     0.093 A 
ATOM     37  C   UNL     1       5.792  12.880   3.678  1.00  0.00     0.123 A 
BRANCH  28  38
ATOM     38  C   UNL     1      -0.042  14.130   2.760  1.00  0.00     0.025 A 
ATOM     39  C   UNL     1      -0.682  12.900   2.541  1.00  0.00     0.062 A 
ATOM     40  C   UNL     1      -0.576  15.296   2.180  1.00  0.00     0.016 A 
ATOM     41  C   UNL     1      -1.862  12.836   1.788  1.00  0.00     0.158 A 
ATOM     42  C   UNL     1      -1.749  15.236   1.426  1.00  0.00     0.051 A 
ATOM     43  C   UNL     1      -2.400  14.010   1.227  1.00  0.00     0.157 A 
BRANCH  41  44
ATOM     44  O   UNL     1      -2.487  11.602   1.613  1.00  0.00    -0.504 OA
ATOM     45  H   UNL     1      -2.028  10.823   1.153  1.00  0.00     0.293 HD
ENDBRANCH  41  44
BRANCH  43  46
ATOM     46  O   UNL     1      -3.573  13.954   0.478  1.00  0.00    -0.504 OA
ATOM     47  H   UNL     1      -4.381  13.427   0.796  1.00  0.00     0.293 HD
ENDBRANCH  43  46
ENDBRANCH  28  38
BRANCH  34  48
ATOM     48  O   UNL     1       5.113  14.787   6.770  1.00  0.00    -0.507 OA
ATOM     49  H   UNL     1       5.742  15.576   6.877  1.00  0.00     0.293 HD
ENDBRANCH  34  48
BRANCH  37  50
ATOM     50  O   UNL     1       6.868  12.220   3.084  1.00  0.00    -0.508 OA
ATOM     51  H   UNL     1       7.735  12.702   2.878  1.00  0.00     0.293 HD
ENDBRANCH  37  50
ENDBRANCH  26  27
ENDBRANCH   5  26
BRANCH   4  52
ATOM     52  O   UNL     1      -1.172  12.738   7.777  1.00  0.00    -0.384 OA
ATOM     53  H   UNL     1      -0.402  12.169   8.052  1.00  0.00     0.211 HD
ENDBRANCH   4  52
TORSDOF 16
ENDMDL
MODEL 2
REMARK VINA RESULT:    -6.070     10.708     13.405
REMARK INTER + INTRA:         -11.890
REMARK INTER:                  -9.034
REMARK INTRA:                  -2.856
REMARK UNBOUND:                -1.917
REMARK SMILES C[C@@H]1O[C@@H](OC[C@H]2O[C@H](Oc3c(-c4ccc(O)c(O)c4)oc4cc(O)cc(O)c4c3=O)[C@@H](O)[C@@H](O)[C@@H]2O)[C@@H](O)[C@H](O)[C@H]1O
REMARK SMILES IDX 7 1 36 2 34 3 32 4 9 5 8 6 6 7 5 8 4 9 1 10 2 11 42 12 3 13
REMARK SMILES IDX 40 14 38 15 43 16 41 18 39 20 37 22 35 24 10 26 11 27 12 28
REMARK SMILES IDX 30 29 21 30 29 31 31 32 22 33 27 34 23 35 26 36 24 37 13 38
REMARK SMILES IDX 20 39 14 40 18 41 15 42 16 43 19 44 17 46 28 48 25 50 33 52
REMARK H PARENT 43 17 41 19 39 21 37 23 35 25 19 45 17 47 28 49 25 51 33 53
REMARK Flexibility Score: inf
ROOT
ATOM      1  C   UNL     1       4.214   4.546  -0.453  1.00  0.00     0.180 C 
ATOM      2  C   UNL     1       5.661   5.085  -0.625  1.00  0.00     0.177 C 
ATOM      3  C   UNL     1       5.665   6.271  -1.598  1.00  0.00     0.180 C 
ATOM      4  C   UNL     1       4.600   7.308  -1.201  1.00  0.00     0.214 C 
ATOM      5  C   UNL     1       3.237   6.627  -0.966  1.00  0.00     0.339 C 
ATOM      6  O   UNL     1       3.337   5.575  -0.014  1.00  0.00    -0.332 OA
ENDROOT
BRANCH   1   7
ATOM      7  C   UNL     1       4.163   3.414   0.587  1.00  0.00     0.198 C 
BRANCH   7   8
ATOM      8  O   UNL     1       3.131   3.650   1.527  1.00  0.00    -0.347 OA
BRANCH   8   9
ATOM      9  C   UNL     1       3.639   3.748   2.849  1.00  0.00     0.281 C 
ATOM     10  C   UNL     1       1.895   0.881   4.353  1.00  0.00     0.041 C 
ATOM     11  C   UNL     1       2.034   2.239   3.661  1.00  0.00     0.150 C 
ATOM     12  C   UNL     1       1.274   3.334   4.444  1.00  0.00     0.174 C 
ATOM     13  O   UNL     1       3.417   2.547   3.574  1.00  0.00    -0.344 OA
ATOM     14  C   UNL     1       1.499   4.705   3.783  1.00  0.00     0.179 C 
ATOM     15  C   UNL     1       3.002   4.948   3.570  1.00  0.00     0.202 C 
BRANCH  12  16
ATOM     16  O   UNL     1      -0.104   3.042   4.446  1.00  0.00    -0.388 OA
ATOM     17  H   UNL     1      -0.567   3.827   4.837  1.00  0.00     0.211 HD
ENDBRANCH  12  16
BRANCH  14  18
ATOM     18  O   UNL     1       0.961   5.707   4.607  1.00  0.00    -0.387 OA
ATOM     19  H   UNL     1       1.212   5.479   5.540  1.00  0.00     0.211 HD
ENDBRANCH  14  18
BRANCH  15  20
ATOM     20  O   UNL     1       3.196   6.111   2.801  1.00  0.00    -0.385 OA
ATOM     21  H   UNL     1       2.495   6.120   2.095  1.00  0.00     0.211 HD
ENDBRANCH  15  20
ENDBRANCH   8   9
ENDBRANCH   7   8
ENDBRANCH   1   7
BRANCH   2  22
ATOM     22  O   UNL     1       6.504   4.084  -1.141  1.00  0.00    -0.387 OA
ATOM     23  H   UNL     1       7.271   3.989  -0.521  1.00  0.00     0.211 HD
ENDBRANCH   2  22
BRANCH   3  24
ATOM     24  O   UNL     1       6.941   6.862  -1.621  1.00  0.00    -0.387 OA
ATOM     25  H   UNL     1       6.850   7.753  -1.192  1.00  0.00     0.211 HD
ENDBRANCH   3  24
BRANCH   5  26
ATOM     26  O   UNL     1       2.710   6.150  -2.208  1.00  0.00    -0.454 OA
BRANCH  26  27
ATOM     27  C   UNL     1       1.597   6.665  -2.905  1.00  0.00     0.214 A 
ATOM     28  C   UNL     1       0.333   6.092  -2.656  1.00  0.00     0.180 A 
ATOM     29  C   UNL     1       1.684   7.692  -3.872  1.00  0.00     0.239 A 
ATOM     30  O   UNL     1      -0.717   6.434  -3.398  1.00  0.00    -0.452 OA
ATOM     31  C   UNL     1       0.553   8.004  -4.660  1.00  0.00     0.111 A 
ATOM     32  O   UNL     1       2.757   8.336  -4.021  1.00  0.00    -0.285 OA
ATOM     33  C   UNL     1      -0.656   7.327  -4.377  1.00  0.00     0.146 A 
ATOM     34  C   UNL     1       0.585   8.945  -5.720  1.00  0.00     0.134 A 
ATOM     35  C   UNL     1      -1.806   7.595  -5.126  1.00  0.00     0.094 A 
ATOM     36  C   UNL     1      -0.578   9.192  -6.465  1.00  0.00     0.093 A 
ATOM     37  C   UNL     1      -1.768   8.528  -6.169  1.00  0.00     0.123 A 
BRANCH  28  38
ATOM     38  C   UNL     1       0.135   5.084  -1.592  1.00  0.00     0.025 A 
ATOM     39  C   UNL     1      -0.207   5.499  -0.295  1.00  0.00     0.062 A 
ATOM     40  C   UNL     1       0.337   3.714  -1.844  1.00  0.00     0.016 A 
ATOM     41  C   UNL     1      -0.386   4.559   0.729  1.00  0.00     0.158 A 
ATOM     42  C   UNL     1       0.163   2.775  -0.826  1.00  0.00     0.051 A 
ATOM     43  C   UNL     1      -0.201   3.190   0.463  1.00  0.00     0.157 A 
BRANCH  41  44
ATOM     44  O   UNL     1      -0.752   5.004   1.998  1.00  0.00    -0.504 OA
ATOM     45  H   UNL     1      -1.251   5.875   2.144  1.00  0.00     0.293 HD
ENDBRANCH  41  44
BRANCH  43  46
ATOM     46  O   UNL     1      -0.378   2.250   1.476  1.00  0.00    -0.504 OA
ATOM     47  H   UNL     1      -0.598   2.530   2.428  1.00  0.00     0.293 HD
ENDBRANCH  43  46
ENDBRANCH  28  38
BRANCH  34  48
ATOM     48  O   UNL     1       1.759   9.627  -6.042  1.00  0.00    -0.507 OA
ATOM     49  H   UNL     1       2.337  10.059  -5.329  1.00  0.00     0.293 HD
ENDBRANCH  34  48
BRANCH  37  50
ATOM     50  O   UNL     1      -2.910   8.799  -6.923  1.00  0.00    -0.508 OA
ATOM     51  H   UNL     1      -3.768   9.118  -6.487  1.00  0.00     0.293 HD
ENDBRANCH  37  50
ENDBRANCH  26  27
ENDBRANCH   5  26
BRANCH   4  52
ATOM     52  O   UNL     1       5.001   8.054  -0.075  1.00  0.00    -0.384 OA
ATOM     53  H   UNL     1       5.647   8.752  -0.374  1.00  0.00     0.211 HD
ENDBRANCH   4  52
TORSDOF 16
ENDMDL
MODEL 3
REMARK VINA RESULT:    -6.014      3.238      4.912
REMARK INTER + INTRA:         -11.799
REMARK INTER:                  -9.422
REMARK INTRA:                  -2.376
REMARK UNBOUND:                -1.917
REMARK SMILES C[C@@H]1O[C@@H](OC[C@H]2O[C@H](Oc3c(-c4ccc(O)c(O)c4)oc4cc(O)cc(O)c4c3=O)[C@@H](O)[C@@H](O)[C@@H]2O)[C@@H](O)[C@H](O)[C@H]1O
REMARK SMILES IDX 7 1 36 2 34 3 32 4 9 5 8 6 6 7 5 8 4 9 1 10 2 11 42 12 3 13
REMARK SMILES IDX 40 14 38 15 43 16 41 18 39 20 37 22 35 24 10 26 11 27 12 28
REMARK SMILES IDX 30 29 21 30 29 31 31 32 22 33 27 34 23 35 26 36 24 37 13 38
REMARK SMILES IDX 20 39 14 40 18 41 15 42 16 43 19 44 17 46 28 48 25 50 33 52
REMARK H PARENT 43 17 41 19 39 21 37 23 35 25 19 45 17 47 28 49 25 51 33 53
REMARK Flexibility Score: inf
ROOT
ATOM      1  C   UNL     1      -3.088  16.486   6.664  1.00  0.00     0.180 C 
ATOM      2  C   UNL     1      -3.208  16.191   8.184  1.00  0.00     0.177 C 
ATOM      3  C   UNL     1      -2.146  15.167   8.604  1.00  0.00     0.180 C 
ATOM      4  C   UNL     1      -0.752  15.589   8.106  1.00  0.00     0.214 C 
ATOM      5  C   UNL     1      -0.795  15.947   6.607  1.00  0.00     0.339 C 
ATOM      6  O   UNL     1      -1.780  16.937   6.335  1.00  0.00    -0.332 OA
ENDROOT
BRANCH   1   7
ATOM      7  C   UNL     1      -4.080  17.577   6.228  1.00  0.00     0.198 C 
BRANCH   7   8
ATOM      8  O   UNL     1      -5.238  16.995   5.659  1.00  0.00    -0.347 OA
BRANCH   8   9
ATOM      9  C   UNL     1      -6.284  17.945   5.515  1.00  0.00     0.281 C 
ATOM     10  C   UNL     1      -8.197  17.164   8.558  1.00  0.00     0.041 C 
ATOM     11  C   UNL     1      -7.563  16.906   7.189  1.00  0.00     0.150 C 
ATOM     12  C   UNL     1      -8.617  16.388   6.185  1.00  0.00     0.174 C 
ATOM     13  O   UNL     1      -6.987  18.122   6.736  1.00  0.00    -0.344 OA
ATOM     14  C   UNL     1      -7.981  16.221   4.794  1.00  0.00     0.179 C 
ATOM     15  C   UNL     1      -7.241  17.508   4.392  1.00  0.00     0.202 C 
BRANCH  12  16
ATOM     16  O   UNL     1      -9.112  15.144   6.620  1.00  0.00    -0.388 OA
ATOM     17  H   UNL     1      -9.448  15.271   7.544  1.00  0.00     0.211 HD
ENDBRANCH  12  16
BRANCH  14  18
ATOM     18  O   UNL     1      -8.987  15.932   3.859  1.00  0.00    -0.387 OA
ATOM     19  H   UNL     1      -9.262  14.990   4.012  1.00  0.00     0.211 HD
ENDBRANCH  14  18
BRANCH  15  20
ATOM     20  O   UNL     1      -6.507  17.291   3.212  1.00  0.00    -0.385 OA
ATOM     21  H   UNL     1      -5.998  18.126   3.021  1.00  0.00     0.211 HD
ENDBRANCH  15  20
ENDBRANCH   8   9
ENDBRANCH   7   8
ENDBRANCH   1   7
BRANCH   2  22
ATOM     22  O   UNL     1      -4.477  15.664   8.486  1.00  0.00    -0.387 OA
ATOM     23  H   UNL     1      -4.880  16.238   9.187  1.00  0.00     0.211 HD
ENDBRANCH   2  22
BRANCH   3  24
ATOM     24  O   UNL     1      -2.146  15.030  10.003  1.00  0.00    -0.387 OA
ATOM     25  H   UNL     1      -1.653  15.813  10.366  1.00  0.00     0.211 HD
ENDBRANCH   3  24
BRANCH   5  26
ATOM     26  O   UNL     1      -1.022  14.768   5.830  1.00  0.00    -0.454 OA
BRANCH  26  27
ATOM     27  C   UNL     1      -1.467  14.711   4.492  1.00  0.00     0.214 A 
ATOM     28  C   UNL     1      -2.539  13.849   4.183  1.00  0.00     0.180 A 
ATOM     29  C   UNL     1      -0.870  15.437   3.436  1.00  0.00     0.239 A 
ATOM     30  O   UNL     1      -2.892  13.643   2.917  1.00  0.00    -0.452 OA
ATOM     31  C   UNL     1      -1.253  15.166   2.103  1.00  0.00     0.111 A 
ATOM     32  O   UNL     1      -0.014  16.328   3.681  1.00  0.00    -0.285 OA
ATOM     33  C   UNL     1      -2.296  14.234   1.890  1.00  0.00     0.146 A 
ATOM     34  C   UNL     1      -0.631  15.772   0.981  1.00  0.00     0.134 A 
ATOM     35  C   UNL     1      -2.714  13.927   0.592  1.00  0.00     0.094 A 
ATOM     36  C   UNL     1      -1.059  15.443  -0.313  1.00  0.00     0.093 A 
ATOM     37  C   UNL     1      -2.097  14.532  -0.510  1.00  0.00     0.123 A 
BRANCH  28  38
ATOM     38  C   UNL     1      -3.284  13.131   5.240  1.00  0.00     0.025 A 
ATOM     39  C   UNL     1      -4.514  13.636   5.691  1.00  0.00     0.062 A 
ATOM     40  C   UNL     1      -2.754  11.974   5.843  1.00  0.00     0.016 A 
ATOM     41  C   UNL     1      -5.228  12.976   6.700  1.00  0.00     0.158 A 
ATOM     42  C   UNL     1      -3.460  11.316   6.851  1.00  0.00     0.051 A 
ATOM     43  C   UNL     1      -4.700  11.809   7.283  1.00  0.00     0.157 A 
BRANCH  41  44
ATOM     44  O   UNL     1      -6.459  13.490   7.104  1.00  0.00    -0.504 OA
ATOM     45  H   UNL     1      -7.264  13.518   6.486  1.00  0.00     0.293 HD
ENDBRANCH  41  44
BRANCH  43  46
ATOM     46  O   UNL     1      -5.405  11.147   8.286  1.00  0.00    -0.504 OA
ATOM     47  H   UNL     1      -5.613  10.154   8.222  1.00  0.00     0.293 HD
ENDBRANCH  43  46
ENDBRANCH  28  38
BRANCH  34  48
ATOM     48  O   UNL     1       0.410  16.687   1.143  1.00  0.00    -0.507 OA
ATOM     49  H   UNL     1       0.426  17.570   0.643  1.00  0.00     0.293 HD
ENDBRANCH  34  48
BRANCH  37  50
ATOM     50  O   UNL     1      -2.507  14.230  -1.808  1.00  0.00    -0.508 OA
ATOM     51  H   UNL     1      -2.443  14.911  -2.556  1.00  0.00     0.293 HD
ENDBRANCH  37  50
ENDBRANCH  26  27
ENDBRANCH   5  26
BRANCH   4  52
ATOM     52  O   UNL     1      -0.230  16.650   8.872  1.00  0.00    -0.384 OA
ATOM     53  H   UNL     1       0.688  16.854   8.542  1.00  0.00     0.211 HD
ENDBRANCH   4  52
TORSDOF 16
ENDMDL
MODEL 4
REMARK VINA RESULT:    -5.970      3.177      7.553
REMARK INTER + INTRA:         -11.726
REMARK INTER:                  -9.143
REMARK INTRA:                  -2.583
REMARK UNBOUND:                -1.917
REMARK SMILES C[C@@H]1O[C@@H](OC[C@H]2O[C@H](Oc3c(-c4ccc(O)c(O)c4)oc4cc(O)cc(O)c4c3=O)[C@@H](O)[C@@H](O)[C@@H]2O)[C@@H](O)[C@H](O)[C@H]1O
REMARK SMILES IDX 7 1 36 2 34 3 32 4 9 5 8 6 6 7 5 8 4 9 1 10 2 11 42 12 3 13
REMARK SMILES IDX 40 14 38 15 43 16 41 18 39 20 37 22 35 24 10 26 11 27 12 28
REMARK SMILES IDX 30 29 21 30 29 31 31 32 22 33 27 34 23 35 26 36 24 37 13 38
REMARK SMILES IDX 20 39 14 40 18 41 15 42 16 43 19 44 17 46 28 48 25 50 33 52
REMARK H PARENT 43 17 41 19 39 21 37 23 35 25 19 45 17 47 28 49 25 51 33 53
REMARK Flexibility Score: inf
ROOT
ATOM      1  C   UNL     1      -1.211  15.609   6.644  1.00  0.00     0.180 C 
ATOM      2  C   UNL     1      -0.596  16.519   7.742  1.00  0.00     0.177 C 
ATOM      3  C   UNL     1      -0.831  15.900   9.126  1.00  0.00     0.180 C 
ATOM      4  C   UNL     1      -0.394  14.425   9.148  1.00  0.00     0.214 C 
ATOM      5  C   UNL     1      -0.995  13.661   7.951  1.00  0.00     0.339 C 
ATOM      6  O   UNL     1      -0.678  14.293   6.716  1.00  0.00    -0.332 OA
ENDROOT
BRANCH   1   7
ATOM      7  C   UNL     1      -0.913  16.156   5.238  1.00  0.00     0.198 C 
BRANCH   7   8
ATOM      8  O   UNL     1      -1.504  15.333   4.249  1.00  0.00    -0.347 OA
BRANCH   8   9
ATOM      9  C   UNL     1      -0.527  14.595   3.530  1.00  0.00     0.281 C 
ATOM     10  C   UNL     1      -1.011  16.087   0.203  1.00  0.00     0.041 C 
ATOM     11  C   UNL     1      -1.392  15.313   1.467  1.00  0.00     0.150 C 
ATOM     12  C   UNL     1      -1.939  13.913   1.110  1.00  0.00     0.174 C 
ATOM     13  O   UNL     1      -0.235  15.211   2.284  1.00  0.00    -0.344 OA
ATOM     14  C   UNL     1      -2.231  13.119   2.395  1.00  0.00     0.179 C 
ATOM     15  C   UNL     1      -1.007  13.148   3.324  1.00  0.00     0.202 C 
BRANCH  12  16
ATOM     16  O   UNL     1      -3.128  14.047   0.368  1.00  0.00    -0.388 OA
ATOM     17  H   UNL     1      -3.350  13.149   0.009  1.00  0.00     0.211 HD
ENDBRANCH  12  16
BRANCH  14  18
ATOM     18  O   UNL     1      -2.548  11.794   2.056  1.00  0.00    -0.387 OA
ATOM     19  H   UNL     1      -3.394  11.570   2.526  1.00  0.00     0.211 HD
ENDBRANCH  14  18
BRANCH  15  20
ATOM     20  O   UNL     1      -1.336  12.585   4.571  1.00  0.00    -0.385 OA
ATOM     21  H   UNL     1      -1.975  11.841   4.402  1.00  0.00     0.211 HD
ENDBRANCH  15  20
ENDBRANCH   8   9
ENDBRANCH   7   8
ENDBRANCH   1   7
BRANCH   2  22
ATOM     22  O   UNL     1      -1.190  17.794   7.718  1.00  0.00    -0.387 OA
ATOM     23  H   UNL     1      -0.749  18.316   7.001  1.00  0.00     0.211 HD
ENDBRANCH   2  22
BRANCH   3  24
ATOM     24  O   UNL     1      -0.130  16.634  10.100  1.00  0.00    -0.387 OA
ATOM     25  H   UNL     1      -0.322  17.593   9.927  1.00  0.00     0.211 HD
ENDBRANCH   3  24
BRANCH   5  26
ATOM     26  O   UNL     1      -2.410  13.533   8.115  1.00  0.00    -0.454 OA
BRANCH  26  27
ATOM     27  C   UNL     1      -3.164  12.343   8.039  1.00  0.00     0.214 A 
ATOM     28  C   UNL     1      -4.436  12.399   7.431  1.00  0.00     0.180 A 
ATOM     29  C   UNL     1      -2.737  11.107   8.575  1.00  0.00     0.239 A 
ATOM     30  O   UNL     1      -5.247  11.346   7.473  1.00  0.00    -0.452 OA
ATOM     31  C   UNL     1      -3.639  10.022   8.628  1.00  0.00     0.111 A 
ATOM     32  O   UNL     1      -1.555  10.970   8.991  1.00  0.00    -0.285 OA
ATOM     33  C   UNL     1      -4.918  10.197   8.049  1.00  0.00     0.146 A 
ATOM     34  C   UNL     1      -3.325   8.783   9.244  1.00  0.00     0.134 A 
ATOM     35  C   UNL     1      -5.852   9.157   8.074  1.00  0.00     0.094 A 
ATOM     36  C   UNL     1      -4.280   7.757   9.267  1.00  0.00     0.093 A 
ATOM     37  C   UNL     1      -5.533   7.936   8.682  1.00  0.00     0.123 A 
BRANCH  28  38
ATOM     38  C   UNL     1      -4.919  13.624   6.756  1.00  0.00     0.025 A 
ATOM     39  C   UNL     1      -4.446  13.945   5.474  1.00  0.00     0.062 A 
ATOM     40  C   UNL     1      -5.807  14.505   7.402  1.00  0.00     0.016 A 
ATOM     41  C   UNL     1      -4.883  15.107   4.825  1.00  0.00     0.158 A 
ATOM     42  C   UNL     1      -6.241  15.666   6.761  1.00  0.00     0.051 A 
ATOM     43  C   UNL     1      -5.786  15.973   5.470  1.00  0.00     0.157 A 
BRANCH  41  44
ATOM     44  O   UNL     1      -4.415  15.380   3.541  1.00  0.00    -0.504 OA
ATOM     45  H   UNL     1      -3.428  15.506   3.339  1.00  0.00     0.293 HD
ENDBRANCH  41  44
BRANCH  43  46
ATOM     46  O   UNL     1      -6.225  17.130   4.830  1.00  0.00    -0.504 OA
ATOM     47  H   UNL     1      -5.580  17.743   4.340  1.00  0.00     0.293 HD
ENDBRANCH  43  46
ENDBRANCH  28  38
BRANCH  34  48
ATOM     48  O   UNL     1      -2.081   8.571   9.839  1.00  0.00    -0.507 OA
ATOM     49  H   UNL     1      -1.700   9.217  10.524  1.00  0.00     0.293 HD
ENDBRANCH  34  48
BRANCH  37  50
ATOM     50  O   UNL     1      -6.460   6.894   8.712  1.00  0.00    -0.508 OA
ATOM     51  H   UNL     1      -6.654   6.334   7.890  1.00  0.00     0.293 HD
ENDBRANCH  37  50
ENDBRANCH  26  27
ENDBRANCH   5  26
BRANCH   4  52
ATOM     52  O   UNL     1       1.009  14.303   9.181  1.00  0.00    -0.384 OA
ATOM     53  H   UNL     1       1.406  15.137   8.807  1.00  0.00     0.211 HD
ENDBRANCH   4  52
TORSDOF 16
ENDMDL
MODEL 5
REMARK VINA RESULT:    -5.969     10.857     13.385
REMARK INTER + INTRA:         -11.723
REMARK INTER:                  -8.681
REMARK INTRA:                  -3.042
REMARK UNBOUND:                -1.917
REMARK SMILES C[C@@H]1O[C@@H](OC[C@H]2O[C@H](Oc3c(-c4ccc(O)c(O)c4)oc4cc(O)cc(O)c4c3=O)[C@@H](O)[C@@H](O)[C@@H]2O)[C@@H](O)[C@H](O)[C@H]1O
REMARK SMILES IDX 7 1 36 2 34 3 32 4 9 5 8 6 6 7 5 8 4 9 1 10 2 11 42 12 3 13
REMARK SMILES IDX 40 14 38 15 43 16 41 18 39 20 37 22 35 24 10 26 11 27 12 28
REMARK SMILES IDX 30 29 21 30 29 31 31 32 22 33 27 34 23 35 26 36 24 37 13 38
REMARK SMILES IDX 20 39 14 40 18 41 15 42 16 43 19 44 17 46 28 48 25 50 33 52
REMARK H PARENT 43 17 41 19 39 21 37 23 35 25 19 45 17 47 28 49 25 51 33 53
REMARK Flexibility Score: inf
ROOT
ATOM      1  C   UNL     1       2.858   5.785  -1.735  1.00  0.00     0.180 C 
ATOM      2  C   UNL     1       4.054   6.708  -1.375  1.00  0.00     0.177 C 
ATOM      3  C   UNL     1       4.189   6.819   0.149  1.00  0.00     0.180 C 
ATOM      4  C   UNL     1       4.191   5.425   0.801  1.00  0.00     0.214 C 
ATOM      5  C   UNL     1       3.009   4.580   0.283  1.00  0.00     0.339 C 
ATOM      6  O   UNL     1       3.006   4.504  -1.138  1.00  0.00    -0.332 OA
ENDROOT
BRANCH   1   7
ATOM      7  C   UNL     1       2.752   5.581  -3.256  1.00  0.00     0.198 C 
BRANCH   7   8
ATOM      8  O   UNL     1       2.705   6.829  -3.923  1.00  0.00    -0.347 OA
BRANCH   8   9
ATOM      9  C   UNL     1       1.369   7.265  -4.127  1.00  0.00     0.281 C 
ATOM     10  C   UNL     1       0.681   5.549  -7.306  1.00  0.00     0.041 C 
ATOM     11  C   UNL     1       1.384   6.519  -6.354  1.00  0.00     0.150 C 
ATOM     12  C   UNL     1       1.374   7.954  -6.927  1.00  0.00     0.174 C 
ATOM     13  O   UNL     1       0.714   6.467  -5.103  1.00  0.00    -0.344 OA
ATOM     14  C   UNL     1       2.004   8.928  -5.916  1.00  0.00     0.179 C 
ATOM     15  C   UNL     1       1.355   8.748  -4.533  1.00  0.00     0.202 C 
BRANCH  12  16
ATOM     16  O   UNL     1       2.112   7.989  -8.125  1.00  0.00    -0.388 OA
ATOM     17  H   UNL     1       2.475   7.078  -8.270  1.00  0.00     0.211 HD
ENDBRANCH  12  16
BRANCH  14  18
ATOM     18  O   UNL     1       1.819  10.244  -6.367  1.00  0.00    -0.387 OA
ATOM     19  H   UNL     1       1.222  10.196  -7.159  1.00  0.00     0.211 HD
ENDBRANCH  14  18
BRANCH  15  20
ATOM     20  O   UNL     1       2.056   9.501  -3.572  1.00  0.00    -0.385 OA
ATOM     21  H   UNL     1       2.650  10.131  -4.064  1.00  0.00     0.211 HD
ENDBRANCH  15  20
ENDBRANCH   8   9
ENDBRANCH   7   8
ENDBRANCH   1   7
BRANCH   2  22
ATOM     22  O   UNL     1       3.858   7.999  -1.899  1.00  0.00    -0.387 OA
ATOM     23  H   UNL     1       3.141   7.940  -2.580  1.00  0.00     0.211 HD
ENDBRANCH   2  22
BRANCH   3  24
ATOM     24  O   UNL     1       5.368   7.513   0.472  1.00  0.00    -0.387 OA
ATOM     25  H   UNL     1       5.158   8.481   0.399  1.00  0.00     0.211 HD
ENDBRANCH   3  24
BRANCH   5  26
ATOM     26  O   UNL     1       1.776   5.114   0.773  1.00  0.00    -0.454 OA
BRANCH  26  27
ATOM     27  C   UNL     1       0.816   4.438   1.556  1.00  0.00     0.214 A 
ATOM     28  C   UNL     1      -0.279   3.842   0.898  1.00  0.00     0.180 A 
ATOM     29  C   UNL     1       0.868   4.363   2.967  1.00  0.00     0.239 A 
ATOM     30  O   UNL     1      -1.287   3.331   1.601  1.00  0.00    -0.452 OA
ATOM     31  C   UNL     1      -0.236   3.841   3.676  1.00  0.00     0.111 A 
ATOM     32  O   UNL     1       1.896   4.746   3.587  1.00  0.00    -0.285 OA
ATOM     33  C   UNL     1      -1.320   3.324   2.927  1.00  0.00     0.146 A 
ATOM     34  C   UNL     1      -0.310   3.827   5.093  1.00  0.00     0.134 A 
ATOM     35  C   UNL     1      -2.439   2.796   3.577  1.00  0.00     0.094 A 
ATOM     36  C   UNL     1      -1.446   3.301   5.725  1.00  0.00     0.093 A 
ATOM     37  C   UNL     1      -2.502   2.783   4.976  1.00  0.00     0.123 A 
BRANCH  28  38
ATOM     38  C   UNL     1      -0.360   3.786  -0.577  1.00  0.00     0.025 A 
ATOM     39  C   UNL     1      -0.991   4.824  -1.280  1.00  0.00     0.062 A 
ATOM     40  C   UNL     1       0.139   2.678  -1.289  1.00  0.00     0.016 A 
ATOM     41  C   UNL     1      -1.087   4.783  -2.677  1.00  0.00     0.158 A 
ATOM     42  C   UNL     1       0.041   2.631  -2.681  1.00  0.00     0.051 A 
ATOM     43  C   UNL     1      -0.568   3.681  -3.383  1.00  0.00     0.157 A 
BRANCH  41  44
ATOM     44  O   UNL     1      -1.695   5.845  -3.345  1.00  0.00    -0.504 OA
ATOM     45  H   UNL     1      -2.643   6.143  -3.139  1.00  0.00     0.293 HD
ENDBRANCH  41  44
BRANCH  43  46
ATOM     46  O   UNL     1      -0.660   3.633  -4.772  1.00  0.00    -0.504 OA
ATOM     47  H   UNL     1      -1.298   2.995  -5.240  1.00  0.00     0.293 HD
ENDBRANCH  43  46
ENDBRANCH  28  38
BRANCH  34  48
ATOM     48  O   UNL     1       0.729   4.337   5.872  1.00  0.00    -0.507 OA
ATOM     49  H   UNL     1       1.349   3.730   6.398  1.00  0.00     0.293 HD
ENDBRANCH  34  48
BRANCH  37  50
ATOM     50  O   UNL     1      -3.616   2.260   5.632  1.00  0.00    -0.508 OA
ATOM     51  H   UNL     1      -3.624   1.310   5.986  1.00  0.00     0.293 HD
ENDBRANCH  37  50
ENDBRANCH  26  27
ENDBRANCH   5  26
BRANCH   4  52
ATOM     52  O   UNL     1       5.419   4.764   0.603  1.00  0.00    -0.384 OA
ATOM     53  H   UNL     1       6.136   5.451   0.524  1.00  0.00     0.211 HD
ENDBRANCH   4  52
TORSDOF 16
ENDMDL
MODEL 6
REMARK VINA RESULT:    -5.958     10.474     13.049
REMARK INTER + INTRA:         -11.707
REMARK INTER:                  -8.619
REMARK INTRA:                  -3.088
REMARK UNBOUND:                -1.917
REMARK SMILES C[C@@H]1O[C@@H](OC[C@H]2O[C@H](Oc3c(-c4ccc(O)c(O)c4)oc4cc(O)cc(O)c4c3=O)[C@@H](O)[C@@H](O)[C@@H]2O)[C@@H](O)[C@H](O)[C@H]1O
REMARK SMILES IDX 7 1 36 2 34 3 32 4 9 5 8 6 6 7 5 8 4 9 1 10 2 11 42 12 3 13
REMARK SMILES IDX 40 14 38 15 43 16 41 18 39 20 37 22 35 24 10 26 11 27 12 28
REMARK SMILES IDX 30 29 21 30 29 31 31 32 22 33 27 34 23 35 26 36 24 37 13 38
REMARK SMILES IDX 20 39 14 40 18 41 15 42 16 43 19 44 17 46 28 48 25 50 33 52
REMARK H PARENT 43 17 41 19 39 21 37 23 35 25 19 45 17 47 28 49 25 51 33 53
REMARK Flexibility Score: inf
ROOT
ATOM      1  C   UNL     1       2.741   5.677  -2.110  1.00  0.00     0.180 C 
ATOM      2  C   UNL     1       3.825   6.773  -1.920  1.00  0.00     0.177 C 
ATOM      3  C   UNL     1       3.981   7.101  -0.430  1.00  0.00     0.180 C 
ATOM      4  C   UNL     1       4.165   5.817   0.398  1.00  0.00     0.214 C 
ATOM      5  C   UNL     1       3.082   4.779   0.040  1.00  0.00     0.339 C 
ATOM      6  O   UNL     1       3.056   4.513  -1.357  1.00  0.00    -0.332 OA
ENDROOT
BRANCH   1   7
ATOM      7  C   UNL     1       2.626   5.260  -3.586  1.00  0.00     0.198 C 
BRANCH   7   8
ATOM      8  O   UNL     1       1.422   5.749  -4.148  1.00  0.00    -0.347 OA
BRANCH   8   9
ATOM      9  C   UNL     1       1.669   6.744  -5.130  1.00  0.00     0.281 C 
ATOM     10  C   UNL     1      -0.216   9.521  -3.626  1.00  0.00     0.041 C 
ATOM     11  C   UNL     1      -0.002   8.139  -4.249  1.00  0.00     0.150 C 
ATOM     12  C   UNL     1      -0.936   7.933  -5.462  1.00  0.00     0.174 C 
ATOM     13  O   UNL     1       1.360   8.040  -4.636  1.00  0.00    -0.344 OA
ATOM     14  C   UNL     1      -0.643   6.577  -6.127  1.00  0.00     0.179 C 
ATOM     15  C   UNL     1       0.863   6.439  -6.404  1.00  0.00     0.202 C 
BRANCH  12  16
ATOM     16  O   UNL     1      -2.278   7.959  -5.035  1.00  0.00    -0.388 OA
ATOM     17  H   UNL     1      -2.277   7.766  -4.063  1.00  0.00     0.211 HD
ENDBRANCH  12  16
BRANCH  14  18
ATOM     18  O   UNL     1      -1.364   6.488  -7.329  1.00  0.00    -0.387 OA
ATOM     19  H   UNL     1      -1.624   5.536  -7.440  1.00  0.00     0.211 HD
ENDBRANCH  14  18
BRANCH  15  20
ATOM     20  O   UNL     1       1.154   5.132  -6.837  1.00  0.00    -0.385 OA
ATOM     21  H   UNL     1       2.054   5.153  -7.261  1.00  0.00     0.211 HD
ENDBRANCH  15  20
ENDBRANCH   8   9
ENDBRANCH   7   8
ENDBRANCH   1   7
BRANCH   2  22
ATOM     22  O   UNL     1       3.464   7.950  -2.600  1.00  0.00    -0.387 OA
ATOM     23  H   UNL     1       4.271   8.522  -2.658  1.00  0.00     0.211 HD
ENDBRANCH   2  22
BRANCH   3  24
ATOM     24  O   UNL     1       5.075   7.965  -0.245  1.00  0.00    -0.387 OA
ATOM     25  H   UNL     1       4.815   8.605   0.468  1.00  0.00     0.211 HD
ENDBRANCH   3  24
BRANCH   5  26
ATOM     26  O   UNL     1       1.805   5.226   0.504  1.00  0.00    -0.454 OA
BRANCH  26  27
ATOM     27  C   UNL     1       0.957   4.560   1.413  1.00  0.00     0.214 A 
ATOM     28  C   UNL     1      -0.169   3.883   0.899  1.00  0.00     0.180 A 
ATOM     29  C   UNL     1       1.146   4.569   2.814  1.00  0.00     0.239 A 
ATOM     30  O   UNL     1      -1.080   3.374   1.724  1.00  0.00    -0.452 OA
ATOM     31  C   UNL     1       0.140   4.046   3.656  1.00  0.00     0.111 A 
ATOM     32  O   UNL     1       2.211   5.029   3.308  1.00  0.00    -0.285 OA
ATOM     33  C   UNL     1      -0.985   3.444   3.046  1.00  0.00     0.146 A 
ATOM     34  C   UNL     1       0.204   4.111   5.071  1.00  0.00     0.134 A 
ATOM     35  C   UNL     1      -2.012   2.911   3.830  1.00  0.00     0.094 A 
ATOM     36  C   UNL     1      -0.842   3.579   5.839  1.00  0.00     0.093 A 
ATOM     37  C   UNL     1      -1.940   2.977   5.227  1.00  0.00     0.123 A 
BRANCH  28  38
ATOM     38  C   UNL     1      -0.388   3.738  -0.556  1.00  0.00     0.025 A 
ATOM     39  C   UNL     1      -1.188   4.669  -1.236  1.00  0.00     0.062 A 
ATOM     40  C   UNL     1       0.150   2.647  -1.265  1.00  0.00     0.016 A 
ATOM     41  C   UNL     1      -1.417   4.541  -2.612  1.00  0.00     0.158 A 
ATOM     42  C   UNL     1      -0.078   2.514  -2.635  1.00  0.00     0.051 A 
ATOM     43  C   UNL     1      -0.859   3.459  -3.317  1.00  0.00     0.157 A 
BRANCH  41  44
ATOM     44  O   UNL     1      -2.194   5.500  -3.261  1.00  0.00    -0.504 OA
ATOM     45  H   UNL     1      -2.663   5.312  -4.141  1.00  0.00     0.293 HD
ENDBRANCH  41  44
BRANCH  43  46
ATOM     46  O   UNL     1      -1.082   3.325  -4.686  1.00  0.00    -0.504 OA
ATOM     47  H   UNL     1      -0.868   4.078  -5.334  1.00  0.00     0.293 HD
ENDBRANCH  43  46
ENDBRANCH  28  38
BRANCH  34  48
ATOM     48  O   UNL     1       1.288   4.707   5.715  1.00  0.00    -0.507 OA
ATOM     49  H   UNL     1       1.487   4.535   6.696  1.00  0.00     0.293 HD
ENDBRANCH  34  48
BRANCH  37  50
ATOM     50  O   UNL     1      -2.962   2.448   6.017  1.00  0.00    -0.508 OA
ATOM     51  H   UNL     1      -3.894   2.299   5.647  1.00  0.00     0.293 HD
ENDBRANCH  37  50
ENDBRANCH  26  27
ENDBRANCH   5  26
BRANCH   4  52
ATOM     52  O   UNL     1       5.459   5.283   0.241  1.00  0.00    -0.384 OA
ATOM     53  H   UNL     1       5.629   5.152  -0.732  1.00  0.00     0.211 HD
ENDBRANCH   4  52
TORSDOF 16
ENDMDL
MODEL 7
REMARK VINA RESULT:    -5.807     10.685     13.817
REMARK INTER + INTRA:         -11.459
REMARK INTER:                  -8.817
REMARK INTRA:                  -2.642
REMARK UNBOUND:                -1.917
REMARK SMILES C[C@@H]1O[C@@H](OC[C@H]2O[C@H](Oc3c(-c4ccc(O)c(O)c4)oc4cc(O)cc(O)c4c3=O)[C@@H](O)[C@@H](O)[C@@H]2O)[C@@H](O)[C@H](O)[C@H]1O
REMARK SMILES IDX 7 1 36 2 34 3 32 4 9 5 8 6 6 7 5 8 4 9 1 10 2 11 42 12 3 13
REMARK SMILES IDX 40 14 38 15 43 16 41 18 39 20 37 22 35 24 10 26 11 27 12 28
REMARK SMILES IDX 30 29 21 30 29 31 31 32 22 33 27 34 23 35 26 36 24 37 13 38
REMARK SMILES IDX 20 39 14 40 18 41 15 42 16 43 19 44 17 46 28 48 25 50 33 52
REMARK H PARENT 43 17 41 19 39 21 37 23 35 25 19 45 17 47 28 49 25 51 33 53
REMARK Flexibility Score: inf
ROOT
ATOM      1  C   UNL     1       5.337   6.544  -1.181  1.00  0.00     0.180 C 
ATOM      2  C   UNL     1       5.570   5.229  -0.387  1.00  0.00     0.177 C 
ATOM      3  C   UNL     1       4.336   4.324  -0.498  1.00  0.00     0.180 C 
ATOM      4  C   UNL     1       3.908   4.160  -1.968  1.00  0.00     0.214 C 
ATOM      5  C   UNL     1       3.809   5.533  -2.662  1.00  0.00     0.339 C 
ATOM      6  O   UNL     1       5.021   6.268  -2.540  1.00  0.00    -0.332 OA
ENDROOT
BRANCH   1   7
ATOM      7  C   UNL     1       6.591   7.433  -1.164  1.00  0.00     0.198 C 
BRANCH   7   8
ATOM      8  O   UNL     1       6.288   8.728  -1.648  1.00  0.00    -0.347 OA
BRANCH   8   9
ATOM      9  C   UNL     1       7.196   9.135  -2.661  1.00  0.00     0.281 C 
ATOM     10  C   UNL     1       7.932  12.529  -1.447  1.00  0.00     0.041 C 
ATOM     11  C   UNL     1       7.072  11.379  -1.978  1.00  0.00     0.150 C 
ATOM     12  C   UNL     1       6.298  11.813  -3.244  1.00  0.00     0.174 C 
ATOM     13  O   UNL     1       7.930  10.284  -2.259  1.00  0.00    -0.344 OA
ATOM     14  C   UNL     1       5.511  10.619  -3.813  1.00  0.00     0.179 C 
ATOM     15  C   UNL     1       6.437   9.402  -3.972  1.00  0.00     0.202 C 
BRANCH  12  16
ATOM     16  O   UNL     1       5.400  12.846  -2.918  1.00  0.00    -0.388 OA
ATOM     17  H   UNL     1       4.578  12.417  -2.567  1.00  0.00     0.211 HD
ENDBRANCH  12  16
BRANCH  14  18
ATOM     18  O   UNL     1       4.969  10.977  -5.058  1.00  0.00    -0.387 OA
ATOM     19  H   UNL     1       4.780  10.132  -5.544  1.00  0.00     0.211 HD
ENDBRANCH  14  18
BRANCH  15  20
ATOM     20  O   UNL     1       5.682   8.265  -4.313  1.00  0.00    -0.385 OA
ATOM     21  H   UNL     1       6.175   7.469  -3.974  1.00  0.00     0.211 HD
ENDBRANCH  15  20
ENDBRANCH   8   9
ENDBRANCH   7   8
ENDBRANCH   1   7
BRANCH   2  22
ATOM     22  O   UNL     1       5.797   5.506   0.973  1.00  0.00    -0.387 OA
ATOM     23  H   UNL     1       5.755   4.646   1.465  1.00  0.00     0.211 HD
ENDBRANCH   2  22
BRANCH   3  24
ATOM     24  O   UNL     1       4.613   3.071   0.075  1.00  0.00    -0.387 OA
ATOM     25  H   UNL     1       5.582   2.902  -0.064  1.00  0.00     0.211 HD
ENDBRANCH   3  24
BRANCH   5  26
ATOM     26  O   UNL     1       2.704   6.270  -2.133  1.00  0.00    -0.454 OA
BRANCH  26  27
ATOM     27  C   UNL     1       1.590   6.753  -2.851  1.00  0.00     0.214 A 
ATOM     28  C   UNL     1       0.338   6.144  -2.626  1.00  0.00     0.180 A 
ATOM     29  C   UNL     1       1.665   7.784  -3.815  1.00  0.00     0.239 A 
ATOM     30  O   UNL     1      -0.707   6.456  -3.387  1.00  0.00    -0.452 OA
ATOM     31  C   UNL     1       0.541   8.063  -4.624  1.00  0.00     0.111 A 
ATOM     32  O   UNL     1       2.722   8.458  -3.944  1.00  0.00    -0.285 OA
ATOM     33  C   UNL     1      -0.654   7.352  -4.365  1.00  0.00     0.146 A 
ATOM     34  C   UNL     1       0.565   9.006  -5.683  1.00  0.00     0.134 A 
ATOM     35  C   UNL     1      -1.797   7.587  -5.135  1.00  0.00     0.094 A 
ATOM     36  C   UNL     1      -0.590   9.220  -6.450  1.00  0.00     0.093 A 
ATOM     37  C   UNL     1      -1.766   8.522  -6.176  1.00  0.00     0.123 A 
BRANCH  28  38
ATOM     38  C   UNL     1       0.149   5.130  -1.565  1.00  0.00     0.025 A 
ATOM     39  C   UNL     1      -0.093   5.539  -0.245  1.00  0.00     0.062 A 
ATOM     40  C   UNL     1       0.263   3.755  -1.849  1.00  0.00     0.016 A 
ATOM     41  C   UNL     1      -0.261   4.593   0.774  1.00  0.00     0.158 A 
ATOM     42  C   UNL     1       0.099   2.810  -0.835  1.00  0.00     0.051 A 
ATOM     43  C   UNL     1      -0.166   3.221   0.479  1.00  0.00     0.157 A 
BRANCH  41  44
ATOM     44  O   UNL     1      -0.528   5.035   2.070  1.00  0.00    -0.504 OA
ATOM     45  H   UNL     1      -1.465   5.270   2.380  1.00  0.00     0.293 HD
ENDBRANCH  41  44
BRANCH  43  46
ATOM     46  O   UNL     1      -0.333   2.274   1.487  1.00  0.00    -0.504 OA
ATOM     47  H   UNL     1      -0.177   2.506   2.464  1.00  0.00     0.293 HD
ENDBRANCH  43  46
ENDBRANCH  28  38
BRANCH  34  48
ATOM     48  O   UNL     1       1.725   9.722  -5.983  1.00  0.00    -0.507 OA
ATOM     49  H   UNL     1       1.920  10.051  -6.923  1.00  0.00     0.293 HD
ENDBRANCH  34  48
BRANCH  37  50
ATOM     50  O   UNL     1      -2.901   8.761  -6.951  1.00  0.00    -0.508 OA
ATOM     51  H   UNL     1      -3.725   9.203  -6.560  1.00  0.00     0.293 HD
ENDBRANCH  37  50
ENDBRANCH  26  27
ENDBRANCH   5  26
BRANCH   4  52
ATOM     52  O   UNL     1       4.774   3.295  -2.664  1.00  0.00    -0.384 OA
ATOM     53  H   UNL     1       5.633   3.773  -2.827  1.00  0.00     0.211 HD
ENDBRANCH   4  52
TORSDOF 16
ENDMDL
MODEL 8
REMARK VINA RESULT:    -5.565     11.109     12.827
REMARK INTER + INTRA:         -11.060
REMARK INTER:                  -7.996
REMARK INTRA:                  -3.064
REMARK UNBOUND:                -1.917
REMARK SMILES C[C@@H]1O[C@@H](OC[C@H]2O[C@H](Oc3c(-c4ccc(O)c(O)c4)oc4cc(O)cc(O)c4c3=O)[C@@H](O)[C@@H](O)[C@@H]2O)[C@@H](O)[C@H](O)[C@H]1O
REMARK SMILES IDX 7 1 36 2 34 3 32 4 9 5 8 6 6 7 5 8 4 9 1 10 2 11 42 12 3 13
REMARK SMILES IDX 40 14 38 15 43 16 41 18 39 20 37 22 35 24 10 26 11 27 12 28
REMARK SMILES IDX 30 29 21 30 29 31 31 32 22 33 27 34 23 35 26 36 24 37 13 38
REMARK SMILES IDX 20 39 14 40 18 41 15 42 16 43 19 44 17 46 28 48 25 50 33 52
REMARK H PARENT 43 17 41 19 39 21 37 23 35 25 19 45 17 47 28 49 25 51 33 53
REMARK Flexibility Score: inf
ROOT
ATOM      1  C   UNL     1       2.750   7.174  -3.884  1.00  0.00     0.180 C 
ATOM      2  C   UNL     1       3.624   8.429  -4.154  1.00  0.00     0.177 C 
ATOM      3  C   UNL     1       4.367   8.835  -2.875  1.00  0.00     0.180 C 
ATOM      4  C   UNL     1       5.092   7.626  -2.256  1.00  0.00     0.214 C 
ATOM      5  C   UNL     1       4.136   6.422  -2.134  1.00  0.00     0.339 C 
ATOM      6  O   UNL     1       3.539   6.102  -3.385  1.00  0.00    -0.332 OA
ENDROOT
BRANCH   1   7
ATOM      7  C   UNL     1       2.062   6.688  -5.171  1.00  0.00     0.198 C 
BRANCH   7   8
ATOM      8  O   UNL     1       1.030   7.580  -5.550  1.00  0.00    -0.347 OA
BRANCH   8   9
ATOM      9  C   UNL     1       0.676   7.421  -6.915  1.00  0.00     0.281 C 
ATOM     10  C   UNL     1       1.512  10.792  -8.125  1.00  0.00     0.041 C 
ATOM     11  C   UNL     1       0.781   9.737  -7.292  1.00  0.00     0.150 C 
ATOM     12  C   UNL     1      -0.749   9.867  -7.464  1.00  0.00     0.174 C 
ATOM     13  O   UNL     1       1.231   8.458  -7.712  1.00  0.00    -0.344 OA
ATOM     14  C   UNL     1      -1.462   8.743  -6.691  1.00  0.00     0.179 C 
ATOM     15  C   UNL     1      -0.855   7.380  -7.061  1.00  0.00     0.202 C 
BRANCH  12  16
ATOM     16  O   UNL     1      -1.176  11.113  -6.966  1.00  0.00    -0.388 OA
ATOM     17  H   UNL     1      -1.236  11.730  -7.740  1.00  0.00     0.211 HD
ENDBRANCH  12  16
BRANCH  14  18
ATOM     18  O   UNL     1      -2.830   8.762  -7.007  1.00  0.00    -0.387 OA
ATOM     19  H   UNL     1      -3.283   8.154  -6.367  1.00  0.00     0.211 HD
ENDBRANCH  14  18
BRANCH  15  20
ATOM     20  O   UNL     1      -1.375   6.378  -6.221  1.00  0.00    -0.385 OA
ATOM     21  H   UNL     1      -1.054   6.568  -5.298  1.00  0.00     0.211 HD
ENDBRANCH  15  20
ENDBRANCH   8   9
ENDBRANCH   7   8
ENDBRANCH   1   7
BRANCH   2  22
ATOM     22  O   UNL     1       2.825   9.510  -4.566  1.00  0.00    -0.387 OA
ATOM     23  H   UNL     1       2.664   9.411  -5.539  1.00  0.00     0.211 HD
ENDBRANCH   2  22
BRANCH   3  24
ATOM     24  O   UNL     1       5.284   9.861  -3.163  1.00  0.00    -0.387 OA
ATOM     25  H   UNL     1       6.158   9.576  -2.786  1.00  0.00     0.211 HD
ENDBRANCH   3  24
BRANCH   5  26
ATOM     26  O   UNL     1       3.141   6.687  -1.141  1.00  0.00    -0.454 OA
BRANCH  26  27
ATOM     27  C   UNL     1       2.850   5.899  -0.008  1.00  0.00     0.214 A 
ATOM     28  C   UNL     1       1.838   4.923  -0.118  1.00  0.00     0.180 A 
ATOM     29  C   UNL     1       3.484   6.062   1.245  1.00  0.00     0.239 A 
ATOM     30  O   UNL     1       1.419   4.265   0.960  1.00  0.00    -0.452 OA
ATOM     31  C   UNL     1       2.989   5.366   2.371  1.00  0.00     0.111 A 
ATOM     32  O   UNL     1       4.491   6.811   1.355  1.00  0.00    -0.285 OA
ATOM     33  C   UNL     1       1.926   4.456   2.171  1.00  0.00     0.146 A 
ATOM     34  C   UNL     1       3.499   5.553   3.682  1.00  0.00     0.134 A 
ATOM     35  C   UNL     1       1.396   3.741   3.250  1.00  0.00     0.094 A 
ATOM     36  C   UNL     1       2.947   4.833   4.751  1.00  0.00     0.093 A 
ATOM     37  C   UNL     1       1.907   3.929   4.539  1.00  0.00     0.123 A 
BRANCH  28  38
ATOM     38  C   UNL     1       1.194   4.618  -1.415  1.00  0.00     0.025 A 
ATOM     39  C   UNL     1       0.094   5.378  -1.842  1.00  0.00     0.062 A 
ATOM     40  C   UNL     1       1.633   3.539  -2.206  1.00  0.00     0.016 A 
ATOM     41  C   UNL     1      -0.535   5.096  -3.061  1.00  0.00     0.158 A 
ATOM     42  C   UNL     1       1.006   3.252  -3.419  1.00  0.00     0.051 A 
ATOM     43  C   UNL     1      -0.078   4.028  -3.856  1.00  0.00     0.157 A 
BRANCH  41  44
ATOM     44  O   UNL     1      -1.608   5.889  -3.468  1.00  0.00    -0.504 OA
ATOM     45  H   UNL     1      -2.487   5.491  -3.782  1.00  0.00     0.293 HD
ENDBRANCH  41  44
BRANCH  43  46
ATOM     46  O   UNL     1      -0.698   3.742  -5.069  1.00  0.00    -0.504 OA
ATOM     47  H   UNL     1      -1.668   3.991  -5.241  1.00  0.00     0.293 HD
ENDBRANCH  43  46
ENDBRANCH  28  38
BRANCH  34  48
ATOM     48  O   UNL     1       4.539   6.450   3.927  1.00  0.00    -0.507 OA
ATOM     49  H   UNL     1       5.508   6.204   3.753  1.00  0.00     0.293 HD
ENDBRANCH  34  48
BRANCH  37  50
ATOM     50  O   UNL     1       1.383   3.221   5.622  1.00  0.00    -0.508 OA
ATOM     51  H   UNL     1       0.495   2.738   5.558  1.00  0.00     0.293 HD
ENDBRANCH  37  50
ENDBRANCH  26  27
ENDBRANCH   5  26
BRANCH   4  52
ATOM     52  O   UNL     1       6.250   7.290  -2.985  1.00  0.00    -0.384 OA
ATOM     53  H   UNL     1       7.016   7.808  -2.614  1.00  0.00     0.211 HD
ENDBRANCH   4  52
TORSDOF 16
ENDMDL
