MODEL 1
REMARK VINA RESULT:    14.285      0.000      0.000
REMARK INTER + INTRA:          35.506
REMARK INTER:                  37.667
REMARK INTRA:                  -2.161
REMARK UNBOUND:                -2.161
REMARK SMILES CCCCCCCCCCCCCCCCCCCCCCCCCCCCCC(=O)[O-]
REMARK SMILES IDX 16 1 17 2 18 3 19 4 20 5 21 6 22 7 23 8 24 9 25 10 26 11
REMARK SMILES IDX 27 12 28 13 29 14 30 15 31 16 32 17 15 18 14 19 13 20 12 21
REMARK SMILES IDX 11 22 10 23 9 24 8 25 7 26 6 27 5 28 4 29 3 30 2 31 1 32
REMARK H PARENT
REMARK Flexibility Score: inf
ROOT
ATOM      1  C   UNL     1      33.030   9.982  40.120  1.00  0.00     0.000 C 
ENDROOT
BRANCH   1   2
ATOM      2  C   UNL     1      33.121  11.215  41.039  1.00  0.00     0.000 C 
BRANCH   2   3
ATOM      3  C   UNL     1      33.487  12.498  40.270  1.00  0.00     0.000 C 
BRANCH   3   4
ATOM      4  C   UNL     1      34.793  13.141  40.783  1.00  0.00     0.000 C 
BRANCH   4   5
ATOM      5  C   UNL     1      34.846  13.320  42.314  1.00  0.00     0.000 C 
BRANCH   5   6
ATOM      6  C   UNL     1      36.244  13.599  42.889  1.00  0.00     0.000 C 
BRANCH   6   7
ATOM      7  C   UNL     1      36.264  14.808  43.843  1.00  0.00     0.000 C 
BRANCH   7   8
ATOM      8  C   UNL     1      34.871  15.427  44.043  1.00  0.00     0.000 C 
BRANCH   8   9
ATOM      9  C   UNL     1      34.810  16.892  43.588  1.00  0.00     0.000 C 
BRANCH   9  10
ATOM     10  C   UNL     1      33.624  17.130  42.645  1.00  0.00     0.000 C 
BRANCH  10  11
ATOM     11  C   UNL     1      34.056  17.943  41.418  1.00  0.00     0.000 C 
BRANCH  11  12
ATOM     12  C   UNL     1      33.788  17.172  40.121  1.00  0.00     0.000 C 
BRANCH  12  13
ATOM     13  C   UNL     1      33.703  18.131  38.922  1.00  0.00     0.006 C 
BRANCH  13  14
ATOM     14  C   UNL     1      32.467  19.039  38.989  1.00  0.00     0.053 C 
BRANCH  14  15
ATOM     15  C   UNL     1      31.526  18.798  37.846  1.00  0.00     0.041 C 
ATOM     16  O   UNL     1      30.890  19.758  37.334  1.00  0.00    -0.550 OA
ATOM     17  O   UNL     1      31.357  17.514  37.344  1.00  0.00    -0.550 OA
ENDBRANCH  14  15
ENDBRANCH  13  14
ENDBRANCH  12  13
ENDBRANCH  11  12
ENDBRANCH  10  11
ENDBRANCH   9  10
ENDBRANCH   8   9
ENDBRANCH   7   8
ENDBRANCH   6   7
ENDBRANCH   5   6
ENDBRANCH   4   5
ENDBRANCH   3   4
ENDBRANCH   2   3
ENDBRANCH   1   2
BRANCH   1  18
ATOM     18  C   UNL     1      34.342   9.181  40.015  1.00  0.00     0.000 C 
BRANCH  18  19
ATOM     19  C   UNL     1      34.091   7.691  39.725  1.00  0.00     0.000 C 
BRANCH  19  20
ATOM     20  C   UNL     1      34.329   6.797  40.952  1.00  0.00     0.000 C 
BRANCH  20  21
ATOM     21  C   UNL     1      33.524   5.489  40.901  1.00  0.00     0.000 C 
BRANCH  21  22
ATOM     22  C   UNL     1      32.399   5.498  41.947  1.00  0.00     0.000 C 
BRANCH  22  23
ATOM     23  C   UNL     1      31.052   5.001  41.389  1.00  0.00     0.000 C 
BRANCH  23  24
ATOM     24  C   UNL     1      29.821   5.333  42.253  1.00  0.00    -0.000 C 
BRANCH  24  25
ATOM     25  C   UNL     1      29.150   6.658  41.855  1.00  0.00    -0.000 C 
BRANCH  25  26
ATOM     26  C   UNL     1      29.817   7.324  40.637  1.00  0.00    -0.000 C 
BRANCH  26  27
ATOM     27  C   UNL     1      28.902   8.258  39.817  1.00  0.00    -0.000 C 
BRANCH  27  28
ATOM     28  C   UNL     1      29.343   8.500  38.358  1.00  0.00    -0.000 C 
BRANCH  28  29
ATOM     29  C   UNL     1      28.235   8.327  37.303  1.00  0.00    -0.000 C 
BRANCH  29  30
ATOM     30  C   UNL     1      28.558   7.230  36.274  1.00  0.00    -0.000 C 
BRANCH  30  31
ATOM     31  C   UNL     1      27.455   6.162  36.186  1.00  0.00    -0.003 C 
ATOM     32  C   UNL     1      27.736   4.944  37.066  1.00  0.00     0.004 C 
ENDBRANCH  30  31
ENDBRANCH  29  30
ENDBRANCH  28  29
ENDBRANCH  27  28
ENDBRANCH  26  27
ENDBRANCH  25  26
ENDBRANCH  24  25
ENDBRANCH  23  24
ENDBRANCH  22  23
ENDBRANCH  21  22
ENDBRANCH  20  21
ENDBRANCH  19  20
ENDBRANCH  18  19
ENDBRANCH   1  18
TORSDOF 28
ENDMDL
MODEL 2
REMARK VINA RESULT:    15.156      3.350     11.030
REMARK INTER + INTRA:          37.803
REMARK INTER:                  39.588
REMARK INTRA:                  -1.785
REMARK UNBOUND:                -2.161
REMARK SMILES CCCCCCCCCCCCCCCCCCCCCCCCCCCCCC(=O)[O-]
REMARK SMILES IDX 16 1 17 2 18 3 19 4 20 5 21 6 22 7 23 8 24 9 25 10 26 11
REMARK SMILES IDX 27 12 28 13 29 14 30 15 31 16 32 17 15 18 14 19 13 20 12 21
REMARK SMILES IDX 11 22 10 23 9 24 8 25 7 26 6 27 5 28 4 29 3 30 2 31 1 32
REMARK H PARENT
REMARK Flexibility Score: inf
ROOT
ATOM      1  C   UNL     1      33.366  11.152  41.285  1.00  0.00     0.000 C 
ENDROOT
BRANCH   1   2
ATOM      2  C   UNL     1      34.122   9.998  40.599  1.00  0.00     0.000 C 
BRANCH   2   3
ATOM      3  C   UNL     1      33.275   9.295  39.522  1.00  0.00     0.000 C 
BRANCH   3   4
ATOM      4  C   UNL     1      31.759   9.454  39.767  1.00  0.00     0.000 C 
BRANCH   4   5
ATOM      5  C   UNL     1      30.946   9.755  38.492  1.00  0.00     0.000 C 
BRANCH   5   6
ATOM      6  C   UNL     1      29.879   8.706  38.137  1.00  0.00     0.000 C 
BRANCH   6   7
ATOM      7  C   UNL     1      28.631   9.327  37.481  1.00  0.00     0.000 C 
BRANCH   7   8
ATOM      8  C   UNL     1      27.617   8.268  37.019  1.00  0.00     0.000 C 
BRANCH   8   9
ATOM      9  C   UNL     1      28.297   7.009  36.461  1.00  0.00     0.000 C 
BRANCH   9  10
ATOM     10  C   UNL     1      27.282   5.878  36.251  1.00  0.00     0.000 C 
BRANCH  10  11
ATOM     11  C   UNL     1      27.527   4.733  37.241  1.00  0.00     0.000 C 
BRANCH  11  12
ATOM     12  C   UNL     1      28.768   4.998  38.101  1.00  0.00     0.000 C 
BRANCH  12  13
ATOM     13  C   UNL     1      28.367   5.448  39.515  1.00  0.00     0.006 C 
BRANCH  13  14
ATOM     14  C   UNL     1      29.513   5.286  40.524  1.00  0.00     0.053 C 
BRANCH  14  15
ATOM     15  C   UNL     1      29.277   6.073  41.778  1.00  0.00     0.041 C 
ATOM     16  O   UNL     1      29.099   5.481  42.876  1.00  0.00    -0.550 OA
ATOM     17  O   UNL     1      29.257   7.462  41.734  1.00  0.00    -0.550 OA
ENDBRANCH  14  15
ENDBRANCH  13  14
ENDBRANCH  12  13
ENDBRANCH  11  12
ENDBRANCH  10  11
ENDBRANCH   9  10
ENDBRANCH   8   9
ENDBRANCH   7   8
ENDBRANCH   6   7
ENDBRANCH   5   6
ENDBRANCH   4   5
ENDBRANCH   3   4
ENDBRANCH   2   3
ENDBRANCH   1   2
BRANCH   1  18
ATOM     18  C   UNL     1      33.199  12.402  40.401  1.00  0.00     0.000 C 
BRANCH  18  19
ATOM     19  C   UNL     1      34.490  13.236  40.324  1.00  0.00     0.000 C 
BRANCH  19  20
ATOM     20  C   UNL     1      35.470  12.923  41.464  1.00  0.00     0.000 C 
BRANCH  20  21
ATOM     21  C   UNL     1      35.029  13.519  42.810  1.00  0.00     0.000 C 
BRANCH  21  22
ATOM     22  C   UNL     1      36.232  14.098  43.572  1.00  0.00     0.000 C 
BRANCH  22  23
ATOM     23  C   UNL     1      35.934  15.461  44.224  1.00  0.00     0.000 C 
BRANCH  23  24
ATOM     24  C   UNL     1      34.472  15.935  44.118  1.00  0.00    -0.000 C 
BRANCH  24  25
ATOM     25  C   UNL     1      34.307  17.177  43.227  1.00  0.00    -0.000 C 
BRANCH  25  26
ATOM     26  C   UNL     1      34.305  16.839  41.725  1.00  0.00    -0.000 C 
BRANCH  26  27
ATOM     27  C   UNL     1      33.463  17.784  40.841  1.00  0.00    -0.000 C 
BRANCH  27  28
ATOM     28  C   UNL     1      33.704  17.656  39.322  1.00  0.00    -0.000 C 
BRANCH  28  29
ATOM     29  C   UNL     1      33.077  18.771  38.465  1.00  0.00    -0.000 C 
BRANCH  29  30
ATOM     30  C   UNL     1      31.948  18.259  37.555  1.00  0.00    -0.000 C 
BRANCH  30  31
ATOM     31  C   UNL     1      30.691  19.141  37.623  1.00  0.00    -0.003 C 
ATOM     32  C   UNL     1      30.996  20.577  38.052  1.00  0.00     0.004 C 
ENDBRANCH  30  31
ENDBRANCH  29  30
ENDBRANCH  28  29
ENDBRANCH  27  28
ENDBRANCH  26  27
ENDBRANCH  25  26
ENDBRANCH  24  25
ENDBRANCH  23  24
ENDBRANCH  22  23
ENDBRANCH  21  22
ENDBRANCH  20  21
ENDBRANCH  19  20
ENDBRANCH  18  19
ENDBRANCH   1  18
TORSDOF 28
ENDMDL
MODEL 3
REMARK VINA RESULT:    15.613      0.777      1.507
REMARK INTER + INTRA:          39.009
REMARK INTER:                  41.033
REMARK INTRA:                  -2.024
REMARK UNBOUND:                -2.161
REMARK SMILES CCCCCCCCCCCCCCCCCCCCCCCCCCCCCC(=O)[O-]
REMARK SMILES IDX 16 1 17 2 18 3 19 4 20 5 21 6 22 7 23 8 24 9 25 10 26 11
REMARK SMILES IDX 27 12 28 13 29 14 30 15 31 16 32 17 15 18 14 19 13 20 12 21
REMARK SMILES IDX 11 22 10 23 9 24 8 25 7 26 6 27 5 28 4 29 3 30 2 31 1 32
REMARK H PARENT
REMARK Flexibility Score: inf
ROOT
ATOM      1  C   UNL     1      34.328   9.182  40.360  1.00  0.00     0.000 C 
ENDROOT
BRANCH   1   2
ATOM      2  C   UNL     1      33.163  10.103  39.953  1.00  0.00     0.000 C 
BRANCH   2   3
ATOM      3  C   UNL     1      32.535  10.829  41.158  1.00  0.00     0.000 C 
BRANCH   3   4
ATOM      4  C   UNL     1      33.545  11.740  41.889  1.00  0.00     0.000 C 
BRANCH   4   5
ATOM      5  C   UNL     1      34.345  12.667  40.952  1.00  0.00     0.000 C 
BRANCH   5   6
ATOM      6  C   UNL     1      35.584  13.321  41.587  1.00  0.00     0.000 C 
BRANCH   6   7
ATOM      7  C   UNL     1      35.355  13.728  43.055  1.00  0.00     0.000 C 
BRANCH   7   8
ATOM      8  C   UNL     1      36.381  14.759  43.550  1.00  0.00     0.000 C 
BRANCH   8   9
ATOM      9  C   UNL     1      35.759  16.147  43.768  1.00  0.00     0.000 C 
BRANCH   9  10
ATOM     10  C   UNL     1      34.228  16.083  43.705  1.00  0.00     0.000 C 
BRANCH  10  11
ATOM     11  C   UNL     1      33.673  17.176  42.783  1.00  0.00     0.000 C 
BRANCH  11  12
ATOM     12  C   UNL     1      34.140  16.972  41.338  1.00  0.00     0.000 C 
BRANCH  12  13
ATOM     13  C   UNL     1      33.599  18.085  40.426  1.00  0.00     0.006 C 
BRANCH  13  14
ATOM     14  C   UNL     1      33.469  17.630  38.966  1.00  0.00     0.053 C 
BRANCH  14  15
ATOM     15  C   UNL     1      32.311  18.282  38.272  1.00  0.00     0.041 C 
ATOM     16  O   UNL     1      31.895  17.833  37.171  1.00  0.00    -0.550 OA
ATOM     17  O   UNL     1      31.687  19.384  38.845  1.00  0.00    -0.550 OA
ENDBRANCH  14  15
ENDBRANCH  13  14
ENDBRANCH  12  13
ENDBRANCH  11  12
ENDBRANCH  10  11
ENDBRANCH   9  10
ENDBRANCH   8   9
ENDBRANCH   7   8
ENDBRANCH   6   7
ENDBRANCH   5   6
ENDBRANCH   4   5
ENDBRANCH   3   4
ENDBRANCH   2   3
ENDBRANCH   1   2
BRANCH   1  18
ATOM     18  C   UNL     1      34.169   7.725  39.884  1.00  0.00     0.000 C 
BRANCH  18  19
ATOM     19  C   UNL     1      34.577   6.712  40.969  1.00  0.00     0.000 C 
BRANCH  19  20
ATOM     20  C   UNL     1      33.559   5.573  41.132  1.00  0.00     0.000 C 
BRANCH  20  21
ATOM     21  C   UNL     1      32.198   6.060  41.654  1.00  0.00     0.000 C 
BRANCH  21  22
ATOM     22  C   UNL     1      31.133   4.962  41.509  1.00  0.00     0.000 C 
BRANCH  22  23
ATOM     23  C   UNL     1      29.951   5.135  42.481  1.00  0.00     0.000 C 
BRANCH  23  24
ATOM     24  C   UNL     1      28.800   6.018  41.964  1.00  0.00    -0.000 C 
BRANCH  24  25
ATOM     25  C   UNL     1      29.292   7.298  41.269  1.00  0.00    -0.000 C 
BRANCH  25  26
ATOM     26  C   UNL     1      29.318   7.173  39.734  1.00  0.00    -0.000 C 
BRANCH  26  27
ATOM     27  C   UNL     1      29.522   8.498  38.971  1.00  0.00    -0.000 C 
BRANCH  27  28
ATOM     28  C   UNL     1      28.569   8.729  37.779  1.00  0.00    -0.000 C 
BRANCH  28  29
ATOM     29  C   UNL     1      28.692   7.707  36.635  1.00  0.00    -0.000 C 
BRANCH  29  30
ATOM     30  C   UNL     1      27.368   6.985  36.335  1.00  0.00    -0.000 C 
BRANCH  30  31
ATOM     31  C   UNL     1      27.548   5.466  36.176  1.00  0.00    -0.003 C 
ATOM     32  C   UNL     1      27.641   4.736  37.516  1.00  0.00     0.004 C 
ENDBRANCH  30  31
ENDBRANCH  29  30
ENDBRANCH  28  29
ENDBRANCH  27  28
ENDBRANCH  26  27
ENDBRANCH  25  26
ENDBRANCH  24  25
ENDBRANCH  23  24
ENDBRANCH  22  23
ENDBRANCH  21  22
ENDBRANCH  20  21
ENDBRANCH  19  20
ENDBRANCH  18  19
ENDBRANCH   1  18
TORSDOF 28
ENDMDL
MODEL 4
REMARK VINA RESULT:    15.665      2.635     10.590
REMARK INTER + INTRA:          39.144
REMARK INTER:                  41.048
REMARK INTRA:                  -1.904
REMARK UNBOUND:                -2.161
REMARK SMILES CCCCCCCCCCCCCCCCCCCCCCCCCCCCCC(=O)[O-]
REMARK SMILES IDX 16 1 17 2 18 3 19 4 20 5 21 6 22 7 23 8 24 9 25 10 26 11
REMARK SMILES IDX 27 12 28 13 29 14 30 15 31 16 32 17 15 18 14 19 13 20 12 21
REMARK SMILES IDX 11 22 10 23 9 24 8 25 7 26 6 27 5 28 4 29 3 30 2 31 1 32
REMARK H PARENT
REMARK Flexibility Score: inf
ROOT
ATOM      1  C   UNL     1      33.349  11.107  40.915  1.00  0.00     0.000 C 
ENDROOT
BRANCH   1   2
ATOM      2  C   UNL     1      33.480   9.931  39.930  1.00  0.00     0.000 C 
BRANCH   2   3
ATOM      3  C   UNL     1      32.662   8.701  40.367  1.00  0.00     0.000 C 
BRANCH   3   4
ATOM      4  C   UNL     1      31.201   9.058  40.718  1.00  0.00     0.000 C 
BRANCH   4   5
ATOM      5  C   UNL     1      30.216   7.881  40.573  1.00  0.00     0.000 C 
BRANCH   5   6
ATOM      6  C   UNL     1      29.364   7.588  41.819  1.00  0.00     0.000 C 
BRANCH   6   7
ATOM      7  C   UNL     1      29.175   6.080  42.069  1.00  0.00     0.000 C 
BRANCH   7   8
ATOM      8  C   UNL     1      29.465   5.232  40.820  1.00  0.00     0.000 C 
BRANCH   8   9
ATOM      9  C   UNL     1      28.345   5.328  39.773  1.00  0.00     0.000 C 
BRANCH   9  10
ATOM     10  C   UNL     1      28.889   5.094  38.358  1.00  0.00     0.000 C 
BRANCH  10  11
ATOM     11  C   UNL     1      27.835   4.416  37.474  1.00  0.00     0.000 C 
BRANCH  11  12
ATOM     12  C   UNL     1      27.237   5.404  36.467  1.00  0.00     0.000 C 
BRANCH  12  13
ATOM     13  C   UNL     1      28.188   6.588  36.231  1.00  0.00     0.006 C 
BRANCH  13  14
ATOM     14  C   UNL     1      27.484   7.943  36.398  1.00  0.00     0.053 C 
BRANCH  14  15
ATOM     15  C   UNL     1      28.291   8.900  37.223  1.00  0.00     0.041 C 
ATOM     16  O   UNL     1      29.465   8.605  37.574  1.00  0.00    -0.550 OA
ATOM     17  O   UNL     1      27.747  10.122  37.601  1.00  0.00    -0.550 OA
ENDBRANCH  14  15
ENDBRANCH  13  14
ENDBRANCH  12  13
ENDBRANCH  11  12
ENDBRANCH  10  11
ENDBRANCH   9  10
ENDBRANCH   8   9
ENDBRANCH   7   8
ENDBRANCH   6   7
ENDBRANCH   5   6
ENDBRANCH   4   5
ENDBRANCH   3   4
ENDBRANCH   2   3
ENDBRANCH   1   2
BRANCH   1  18
ATOM     18  C   UNL     1      33.235  12.484  40.233  1.00  0.00     0.000 C 
BRANCH  18  19
ATOM     19  C   UNL     1      34.549  13.283  40.315  1.00  0.00     0.000 C 
BRANCH  19  20
ATOM     20  C   UNL     1      35.454  12.824  41.467  1.00  0.00     0.000 C 
BRANCH  20  21
ATOM     21  C   UNL     1      35.061  13.443  42.818  1.00  0.00     0.000 C 
BRANCH  21  22
ATOM     22  C   UNL     1      36.282  14.070  43.508  1.00  0.00     0.000 C 
BRANCH  22  23
ATOM     23  C   UNL     1      36.029  15.511  43.990  1.00  0.00     0.000 C 
BRANCH  23  24
ATOM     24  C   UNL     1      34.623  16.065  43.695  1.00  0.00    -0.000 C 
BRANCH  24  25
ATOM     25  C   UNL     1      34.644  17.522  43.204  1.00  0.00    -0.000 C 
BRANCH  25  26
ATOM     26  C   UNL     1      33.565  17.812  42.144  1.00  0.00    -0.000 C 
BRANCH  26  27
ATOM     27  C   UNL     1      33.625  16.921  40.886  1.00  0.00    -0.000 C 
BRANCH  27  28
ATOM     28  C   UNL     1      34.207  17.597  39.626  1.00  0.00    -0.000 C 
BRANCH  28  29
ATOM     29  C   UNL     1      33.284  18.629  38.952  1.00  0.00    -0.000 C 
BRANCH  29  30
ATOM     30  C   UNL     1      32.440  18.024  37.818  1.00  0.00    -0.000 C 
BRANCH  30  31
ATOM     31  C   UNL     1      31.055  18.681  37.700  1.00  0.00    -0.003 C 
ATOM     32  C   UNL     1      31.064  20.158  38.094  1.00  0.00     0.004 C 
ENDBRANCH  30  31
ENDBRANCH  29  30
ENDBRANCH  28  29
ENDBRANCH  27  28
ENDBRANCH  26  27
ENDBRANCH  25  26
ENDBRANCH  24  25
ENDBRANCH  23  24
ENDBRANCH  22  23
ENDBRANCH  21  22
ENDBRANCH  20  21
ENDBRANCH  19  20
ENDBRANCH  18  19
ENDBRANCH   1  18
TORSDOF 28
ENDMDL
MODEL 5
REMARK VINA RESULT:    15.794      0.692      1.428
REMARK INTER + INTRA:          39.486
REMARK INTER:                  41.597
REMARK INTRA:                  -2.111
REMARK UNBOUND:                -2.161
REMARK SMILES CCCCCCCCCCCCCCCCCCCCCCCCCCCCCC(=O)[O-]
REMARK SMILES IDX 16 1 17 2 18 3 19 4 20 5 21 6 22 7 23 8 24 9 25 10 26 11
REMARK SMILES IDX 27 12 28 13 29 14 30 15 31 16 32 17 15 18 14 19 13 20 12 21
REMARK SMILES IDX 11 22 10 23 9 24 8 25 7 26 6 27 5 28 4 29 3 30 2 31 1 32
REMARK H PARENT
REMARK Flexibility Score: inf
ROOT
ATOM      1  C   UNL     1      32.989   9.825  40.048  1.00  0.00     0.000 C 
ENDROOT
BRANCH   1   2
ATOM      2  C   UNL     1      33.035  11.079  40.941  1.00  0.00     0.000 C 
BRANCH   2   3
ATOM      3  C   UNL     1      33.295  12.367  40.137  1.00  0.00     0.000 C 
BRANCH   3   4
ATOM      4  C   UNL     1      34.596  13.079  40.568  1.00  0.00     0.000 C 
BRANCH   4   5
ATOM      5  C   UNL     1      34.768  13.201  42.095  1.00  0.00     0.000 C 
BRANCH   5   6
ATOM      6  C   UNL     1      36.192  13.546  42.564  1.00  0.00     0.000 C 
BRANCH   6   7
ATOM      7  C   UNL     1      36.203  14.509  43.767  1.00  0.00     0.000 C 
BRANCH   7   8
ATOM      8  C   UNL     1      34.909  15.331  43.879  1.00  0.00     0.000 C 
BRANCH   8   9
ATOM      9  C   UNL     1      35.162  16.841  43.763  1.00  0.00     0.000 C 
BRANCH   9  10
ATOM     10  C   UNL     1      34.021  17.537  43.010  1.00  0.00     0.000 C 
BRANCH  10  11
ATOM     11  C   UNL     1      33.823  16.915  41.622  1.00  0.00     0.000 C 
BRANCH  11  12
ATOM     12  C   UNL     1      34.068  17.944  40.513  1.00  0.00     0.000 C 
BRANCH  12  13
ATOM     13  C   UNL     1      33.223  17.622  39.271  1.00  0.00     0.006 C 
BRANCH  13  14
ATOM     14  C   UNL     1      32.697  18.889  38.580  1.00  0.00     0.053 C 
BRANCH  14  15
ATOM     15  C   UNL     1      31.434  18.631  37.814  1.00  0.00     0.041 C 
ATOM     16  O   UNL     1      30.514  19.493  37.797  1.00  0.00    -0.550 OA
ATOM     17  O   UNL     1      31.274  17.441  37.116  1.00  0.00    -0.550 OA
ENDBRANCH  14  15
ENDBRANCH  13  14
ENDBRANCH  12  13
ENDBRANCH  11  12
ENDBRANCH  10  11
ENDBRANCH   9  10
ENDBRANCH   8   9
ENDBRANCH   7   8
ENDBRANCH   6   7
ENDBRANCH   5   6
ENDBRANCH   4   5
ENDBRANCH   3   4
ENDBRANCH   2   3
ENDBRANCH   1   2
BRANCH   1  18
ATOM     18  C   UNL     1      34.309   9.031  40.016  1.00  0.00     0.000 C 
BRANCH  18  19
ATOM     19  C   UNL     1      34.077   7.529  39.776  1.00  0.00     0.000 C 
BRANCH  19  20
ATOM     20  C   UNL     1      34.398   6.672  41.010  1.00  0.00     0.000 C 
BRANCH  20  21
ATOM     21  C   UNL     1      33.436   5.486  41.179  1.00  0.00     0.000 C 
BRANCH  21  22
ATOM     22  C   UNL     1      32.037   5.972  41.591  1.00  0.00     0.000 C 
BRANCH  22  23
ATOM     23  C   UNL     1      31.032   4.821  41.788  1.00  0.00     0.000 C 
BRANCH  23  24
ATOM     24  C   UNL     1      29.637   5.246  42.283  1.00  0.00    -0.000 C 
BRANCH  24  25
ATOM     25  C   UNL     1      28.991   6.327  41.401  1.00  0.00    -0.000 C 
BRANCH  25  26
ATOM     26  C   UNL     1      29.190   6.067  39.895  1.00  0.00    -0.000 C 
BRANCH  26  27
ATOM     27  C   UNL     1      28.068   5.252  39.217  1.00  0.00    -0.000 C 
BRANCH  27  28
ATOM     28  C   UNL     1      28.421   4.668  37.833  1.00  0.00    -0.000 C 
BRANCH  28  29
ATOM     29  C   UNL     1      27.512   5.127  36.678  1.00  0.00    -0.000 C 
BRANCH  29  30
ATOM     30  C   UNL     1      27.283   6.648  36.668  1.00  0.00    -0.000 C 
BRANCH  30  31
ATOM     31  C   UNL     1      28.575   7.437  36.399  1.00  0.00    -0.003 C 
ATOM     32  C   UNL     1      28.713   8.671  37.290  1.00  0.00     0.004 C 
ENDBRANCH  30  31
ENDBRANCH  29  30
ENDBRANCH  28  29
ENDBRANCH  27  28
ENDBRANCH  26  27
ENDBRANCH  25  26
ENDBRANCH  24  25
ENDBRANCH  23  24
ENDBRANCH  22  23
ENDBRANCH  21  22
ENDBRANCH  20  21
ENDBRANCH  19  20
ENDBRANCH  18  19
ENDBRANCH   1  18
TORSDOF 28
ENDMDL
MODEL 6
REMARK VINA RESULT:    15.921      1.309      2.412
REMARK INTER + INTRA:          39.820
REMARK INTER:                  41.860
REMARK INTRA:                  -2.040
REMARK UNBOUND:                -2.161
REMARK SMILES CCCCCCCCCCCCCCCCCCCCCCCCCCCCCC(=O)[O-]
REMARK SMILES IDX 16 1 17 2 18 3 19 4 20 5 21 6 22 7 23 8 24 9 25 10 26 11
REMARK SMILES IDX 27 12 28 13 29 14 30 15 31 16 32 17 15 18 14 19 13 20 12 21
REMARK SMILES IDX 11 22 10 23 9 24 8 25 7 26 6 27 5 28 4 29 3 30 2 31 1 32
REMARK H PARENT
REMARK Flexibility Score: inf
ROOT
ATOM      1  C   UNL     1      33.331   9.710  40.369  1.00  0.00     0.000 C 
ENDROOT
BRANCH   1   2
ATOM      2  C   UNL     1      33.080  11.032  41.118  1.00  0.00     0.000 C 
BRANCH   2   3
ATOM      3  C   UNL     1      33.422  12.268  40.265  1.00  0.00     0.000 C 
BRANCH   3   4
ATOM      4  C   UNL     1      34.744  12.937  40.699  1.00  0.00     0.000 C 
BRANCH   4   5
ATOM      5  C   UNL     1      34.939  13.009  42.227  1.00  0.00     0.000 C 
BRANCH   5   6
ATOM      6  C   UNL     1      36.234  13.699  42.686  1.00  0.00     0.000 C 
BRANCH   6   7
ATOM      7  C   UNL     1      35.986  14.770  43.765  1.00  0.00     0.000 C 
BRANCH   7   8
ATOM      8  C   UNL     1      34.583  15.390  43.672  1.00  0.00     0.000 C 
BRANCH   8   9
ATOM      9  C   UNL     1      34.627  16.906  43.425  1.00  0.00     0.000 C 
BRANCH   9  10
ATOM     10  C   UNL     1      33.457  17.357  42.542  1.00  0.00     0.000 C 
BRANCH  10  11
ATOM     11  C   UNL     1      33.960  18.175  41.346  1.00  0.00     0.000 C 
BRANCH  11  12
ATOM     12  C   UNL     1      33.690  17.448  40.024  1.00  0.00     0.000 C 
BRANCH  12  13
ATOM     13  C   UNL     1      33.470  18.453  38.882  1.00  0.00     0.006 C 
BRANCH  13  14
ATOM     14  C   UNL     1      32.417  17.968  37.874  1.00  0.00     0.053 C 
BRANCH  14  15
ATOM     15  C   UNL     1      31.265  18.920  37.759  1.00  0.00     0.041 C 
ATOM     16  O   UNL     1      30.090  18.484  37.629  1.00  0.00    -0.550 OA
ATOM     17  O   UNL     1      31.489  20.291  37.801  1.00  0.00    -0.550 OA
ENDBRANCH  14  15
ENDBRANCH  13  14
ENDBRANCH  12  13
ENDBRANCH  11  12
ENDBRANCH  10  11
ENDBRANCH   9  10
ENDBRANCH   8   9
ENDBRANCH   7   8
ENDBRANCH   6   7
ENDBRANCH   5   6
ENDBRANCH   4   5
ENDBRANCH   3   4
ENDBRANCH   2   3
ENDBRANCH   1   2
BRANCH   1  18
ATOM     18  C   UNL     1      32.051   9.045  39.829  1.00  0.00     0.000 C 
BRANCH  18  19
ATOM     19  C   UNL     1      31.027   8.765  40.944  1.00  0.00     0.000 C 
BRANCH  19  20
ATOM     20  C   UNL     1      30.116   7.569  40.630  1.00  0.00     0.000 C 
BRANCH  20  21
ATOM     21  C   UNL     1      29.221   7.173  41.815  1.00  0.00     0.000 C 
BRANCH  21  22
ATOM     22  C   UNL     1      29.684   5.843  42.429  1.00  0.00     0.000 C 
BRANCH  22  23
ATOM     23  C   UNL     1      28.912   4.626  41.886  1.00  0.00     0.000 C 
BRANCH  23  24
ATOM     24  C   UNL     1      27.390   4.657  42.119  1.00  0.00    -0.000 C 
BRANCH  24  25
ATOM     25  C   UNL     1      26.582   4.422  40.832  1.00  0.00    -0.000 C 
BRANCH  25  26
ATOM     26  C   UNL     1      27.246   5.040  39.588  1.00  0.00    -0.000 C 
BRANCH  26  27
ATOM     27  C   UNL     1      27.274   4.133  38.340  1.00  0.00    -0.000 C 
BRANCH  27  28
ATOM     28  C   UNL     1      28.018   4.712  37.118  1.00  0.00    -0.000 C 
BRANCH  28  29
ATOM     29  C   UNL     1      27.296   5.865  36.398  1.00  0.00    -0.000 C 
BRANCH  29  30
ATOM     30  C   UNL     1      28.236   7.030  36.047  1.00  0.00    -0.000 C 
BRANCH  30  31
ATOM     31  C   UNL     1      27.849   8.334  36.762  1.00  0.00    -0.003 C 
ATOM     32  C   UNL     1      28.918   8.810  37.747  1.00  0.00     0.004 C 
ENDBRANCH  30  31
ENDBRANCH  29  30
ENDBRANCH  28  29
ENDBRANCH  27  28
ENDBRANCH  26  27
ENDBRANCH  25  26
ENDBRANCH  24  25
ENDBRANCH  23  24
ENDBRANCH  22  23
ENDBRANCH  21  22
ENDBRANCH  20  21
ENDBRANCH  19  20
ENDBRANCH  18  19
ENDBRANCH   1  18
TORSDOF 28
ENDMDL
MODEL 7
REMARK VINA RESULT:    15.993      1.113      3.595
REMARK INTER + INTRA:          40.009
REMARK INTER:                  41.982
REMARK INTRA:                  -1.972
REMARK UNBOUND:                -2.161
REMARK SMILES CCCCCCCCCCCCCCCCCCCCCCCCCCCCCC(=O)[O-]
REMARK SMILES IDX 16 1 17 2 18 3 19 4 20 5 21 6 22 7 23 8 24 9 25 10 26 11
REMARK SMILES IDX 27 12 28 13 29 14 30 15 31 16 32 17 15 18 14 19 13 20 12 21
REMARK SMILES IDX 11 22 10 23 9 24 8 25 7 26 6 27 5 28 4 29 3 30 2 31 1 32
REMARK H PARENT
REMARK Flexibility Score: inf
ROOT
ATOM      1  C   UNL     1      32.588  10.502  41.132  1.00  0.00     0.000 C 
ENDROOT
BRANCH   1   2
ATOM      2  C   UNL     1      33.269  11.846  41.453  1.00  0.00     0.000 C 
BRANCH   2   3
ATOM      3  C   UNL     1      33.613  12.651  40.187  1.00  0.00     0.000 C 
BRANCH   3   4
ATOM      4  C   UNL     1      34.942  13.423  40.321  1.00  0.00     0.000 C 
BRANCH   4   5
ATOM      5  C   UNL     1      35.769  13.037  41.564  1.00  0.00     0.000 C 
BRANCH   5   6
ATOM      6  C   UNL     1      35.274  13.641  42.889  1.00  0.00     0.000 C 
BRANCH   6   7
ATOM      7  C   UNL     1      36.356  14.472  43.604  1.00  0.00     0.000 C 
BRANCH   7   8
ATOM      8  C   UNL     1      35.816  15.807  44.143  1.00  0.00     0.000 C 
BRANCH   8   9
ATOM      9  C   UNL     1      34.431  16.151  43.575  1.00  0.00     0.000 C 
BRANCH   9  10
ATOM     10  C   UNL     1      34.449  17.505  42.855  1.00  0.00     0.000 C 
BRANCH  10  11
ATOM     11  C   UNL     1      33.552  17.473  41.610  1.00  0.00     0.000 C 
BRANCH  11  12
ATOM     12  C   UNL     1      34.259  18.096  40.402  1.00  0.00     0.000 C 
BRANCH  12  13
ATOM     13  C   UNL     1      33.420  17.920  39.126  1.00  0.00     0.006 C 
BRANCH  13  14
ATOM     14  C   UNL     1      32.171  18.814  39.122  1.00  0.00     0.053 C 
BRANCH  14  15
ATOM     15  C   UNL     1      31.474  18.803  37.795  1.00  0.00     0.041 C 
ATOM     16  O   UNL     1      30.952  17.742  37.359  1.00  0.00    -0.550 OA
ATOM     17  O   UNL     1      31.396  19.968  37.041  1.00  0.00    -0.550 OA
ENDBRANCH  14  15
ENDBRANCH  13  14
ENDBRANCH  12  13
ENDBRANCH  11  12
ENDBRANCH  10  11
ENDBRANCH   9  10
ENDBRANCH   8   9
ENDBRANCH   7   8
ENDBRANCH   6   7
ENDBRANCH   5   6
ENDBRANCH   4   5
ENDBRANCH   3   4
ENDBRANCH   2   3
ENDBRANCH   1   2
BRANCH   1  18
ATOM     18  C   UNL     1      33.273   9.708  40.003  1.00  0.00     0.000 C 
BRANCH  18  19
ATOM     19  C   UNL     1      32.443   9.707  38.708  1.00  0.00     0.000 C 
BRANCH  19  20
ATOM     20  C   UNL     1      30.953   9.422  38.955  1.00  0.00     0.000 C 
BRANCH  20  21
ATOM     21  C   UNL     1      30.189   9.083  37.666  1.00  0.00     0.000 C 
BRANCH  21  22
ATOM     22  C   UNL     1      28.674   9.232  37.874  1.00  0.00     0.000 C 
BRANCH  22  23
ATOM     23  C   UNL     1      27.843   8.517  36.792  1.00  0.00     0.000 C 
BRANCH  23  24
ATOM     24  C   UNL     1      28.361   7.128  36.376  1.00  0.00    -0.000 C 
BRANCH  24  25
ATOM     25  C   UNL     1      27.266   6.049  36.398  1.00  0.00    -0.000 C 
BRANCH  25  26
ATOM     26  C   UNL     1      27.671   4.803  37.209  1.00  0.00    -0.000 C 
BRANCH  26  27
ATOM     27  C   UNL     1      28.842   5.013  38.192  1.00  0.00    -0.000 C 
BRANCH  27  28
ATOM     28  C   UNL     1      28.434   5.327  39.647  1.00  0.00    -0.000 C 
BRANCH  28  29
ATOM     29  C   UNL     1      29.002   6.639  40.217  1.00  0.00    -0.000 C 
BRANCH  29  30
ATOM     30  C   UNL     1      29.223   6.583  41.738  1.00  0.00    -0.000 C 
BRANCH  30  31
ATOM     31  C   UNL     1      29.734   5.212  42.208  1.00  0.00    -0.003 C 
ATOM     32  C   UNL     1      31.117   4.870  41.651  1.00  0.00     0.004 C 
ENDBRANCH  30  31
ENDBRANCH  29  30
ENDBRANCH  28  29
ENDBRANCH  27  28
ENDBRANCH  26  27
ENDBRANCH  25  26
ENDBRANCH  24  25
ENDBRANCH  23  24
ENDBRANCH  22  23
ENDBRANCH  21  22
ENDBRANCH  20  21
ENDBRANCH  19  20
ENDBRANCH  18  19
ENDBRANCH   1  18
TORSDOF 28
ENDMDL
MODEL 8
REMARK VINA RESULT:    16.007      0.833      1.952
REMARK INTER + INTRA:          40.049
REMARK INTER:                  42.792
REMARK INTRA:                  -2.743
REMARK UNBOUND:                -2.161
REMARK SMILES CCCCCCCCCCCCCCCCCCCCCCCCCCCCCC(=O)[O-]
REMARK SMILES IDX 16 1 17 2 18 3 19 4 20 5 21 6 22 7 23 8 24 9 25 10 26 11
REMARK SMILES IDX 27 12 28 13 29 14 30 15 31 16 32 17 15 18 14 19 13 20 12 21
REMARK SMILES IDX 11 22 10 23 9 24 8 25 7 26 6 27 5 28 4 29 3 30 2 31 1 32
REMARK H PARENT
REMARK Flexibility Score: inf
ROOT
ATOM      1  C   UNL     1      32.892  11.938  41.459  1.00  0.00     0.000 C 
ENDROOT
BRANCH   1   2
ATOM      2  C   UNL     1      33.499  12.601  40.208  1.00  0.00     0.000 C 
BRANCH   2   3
ATOM      3  C   UNL     1      34.662  13.551  40.548  1.00  0.00     0.000 C 
BRANCH   3   4
ATOM      4  C   UNL     1      35.708  12.896  41.475  1.00  0.00     0.000 C 
BRANCH   4   5
ATOM      5  C   UNL     1      35.572  13.299  42.958  1.00  0.00     0.000 C 
BRANCH   5   6
ATOM      6  C   UNL     1      36.569  14.369  43.435  1.00  0.00     0.000 C 
BRANCH   6   7
ATOM      7  C   UNL     1      35.876  15.675  43.868  1.00  0.00     0.000 C 
BRANCH   7   8
ATOM      8  C   UNL     1      34.344  15.594  43.766  1.00  0.00     0.000 C 
BRANCH   8   9
ATOM      9  C   UNL     1      33.689  16.980  43.672  1.00  0.00     0.000 C 
BRANCH   9  10
ATOM     10  C   UNL     1      34.357  17.835  42.588  1.00  0.00     0.000 C 
BRANCH  10  11
ATOM     11  C   UNL     1      33.492  17.887  41.322  1.00  0.00     0.000 C 
BRANCH  11  12
ATOM     12  C   UNL     1      34.160  17.140  40.163  1.00  0.00     0.000 C 
BRANCH  12  13
ATOM     13  C   UNL     1      33.583  17.595  38.813  1.00  0.00     0.006 C 
BRANCH  13  14
ATOM     14  C   UNL     1      32.605  18.770  38.964  1.00  0.00     0.053 C 
BRANCH  14  15
ATOM     15  C   UNL     1      31.572  18.788  37.877  1.00  0.00     0.041 C 
ATOM     16  O   UNL     1      31.009  19.868  37.554  1.00  0.00    -0.550 OA
ATOM     17  O   UNL     1      31.236  17.612  37.218  1.00  0.00    -0.550 OA
ENDBRANCH  14  15
ENDBRANCH  13  14
ENDBRANCH  12  13
ENDBRANCH  11  12
ENDBRANCH  10  11
ENDBRANCH   9  10
ENDBRANCH   8   9
ENDBRANCH   7   8
ENDBRANCH   6   7
ENDBRANCH   5   6
ENDBRANCH   4   5
ENDBRANCH   3   4
ENDBRANCH   2   3
ENDBRANCH   1   2
BRANCH   1  18
ATOM     18  C   UNL     1      32.873  10.399  41.404  1.00  0.00     0.000 C 
BRANCH  18  19
ATOM     19  C   UNL     1      32.975   9.868  39.962  1.00  0.00     0.000 C 
BRANCH  19  20
ATOM     20  C   UNL     1      34.279   9.099  39.702  1.00  0.00     0.000 C 
BRANCH  20  21
ATOM     21  C   UNL     1      34.523   7.976  40.724  1.00  0.00     0.000 C 
BRANCH  21  22
ATOM     22  C   UNL     1      33.833   6.676  40.282  1.00  0.00     0.000 C 
BRANCH  22  23
ATOM     23  C   UNL     1      33.241   5.877  41.458  1.00  0.00     0.000 C 
BRANCH  23  24
ATOM     24  C   UNL     1      32.542   4.561  41.071  1.00  0.00    -0.000 C 
BRANCH  24  25
ATOM     25  C   UNL     1      31.057   4.532  41.470  1.00  0.00    -0.000 C 
BRANCH  25  26
ATOM     26  C   UNL     1      30.608   5.812  42.199  1.00  0.00    -0.000 C 
BRANCH  26  27
ATOM     27  C   UNL     1      29.274   6.413  41.709  1.00  0.00    -0.000 C 
BRANCH  27  28
ATOM     28  C   UNL     1      29.402   7.668  40.820  1.00  0.00    -0.000 C 
BRANCH  28  29
ATOM     29  C   UNL     1      29.161   7.434  39.318  1.00  0.00    -0.000 C 
BRANCH  29  30
ATOM     30  C   UNL     1      29.289   8.720  38.486  1.00  0.00    -0.000 C 
BRANCH  30  31
ATOM     31  C   UNL     1      28.303   8.759  37.307  1.00  0.00    -0.003 C 
ATOM     32  C   UNL     1      28.184   7.415  36.588  1.00  0.00     0.004 C 
ENDBRANCH  30  31
ENDBRANCH  29  30
ENDBRANCH  28  29
ENDBRANCH  27  28
ENDBRANCH  26  27
ENDBRANCH  25  26
ENDBRANCH  24  25
ENDBRANCH  23  24
ENDBRANCH  22  23
ENDBRANCH  21  22
ENDBRANCH  20  21
ENDBRANCH  19  20
ENDBRANCH  18  19
ENDBRANCH   1  18
TORSDOF 28
ENDMDL
MODEL 9
REMARK VINA RESULT:    16.168      2.176      3.467
REMARK INTER + INTRA:          40.472
REMARK INTER:                  42.394
REMARK INTRA:                  -1.922
REMARK UNBOUND:                -2.161
REMARK SMILES CCCCCCCCCCCCCCCCCCCCCCCCCCCCCC(=O)[O-]
REMARK SMILES IDX 16 1 17 2 18 3 19 4 20 5 21 6 22 7 23 8 24 9 25 10 26 11
REMARK SMILES IDX 27 12 28 13 29 14 30 15 31 16 32 17 15 18 14 19 13 20 12 21
REMARK SMILES IDX 11 22 10 23 9 24 8 25 7 26 6 27 5 28 4 29 3 30 2 31 1 32
REMARK H PARENT
REMARK Flexibility Score: inf
ROOT
ATOM      1  C   UNL     1      32.696  12.065  41.331  1.00  0.00     0.000 C 
ENDROOT
BRANCH   1   2
ATOM      2  C   UNL     1      33.209  12.612  39.986  1.00  0.00     0.000 C 
BRANCH   2   3
ATOM      3  C   UNL     1      34.452  13.507  40.148  1.00  0.00     0.000 C 
BRANCH   3   4
ATOM      4  C   UNL     1      35.382  13.025  41.283  1.00  0.00     0.000 C 
BRANCH   4   5
ATOM      5  C   UNL     1      35.142  13.731  42.633  1.00  0.00     0.000 C 
BRANCH   5   6
ATOM      6  C   UNL     1      36.400  14.317  43.294  1.00  0.00     0.000 C 
BRANCH   6   7
ATOM      7  C   UNL     1      36.094  15.029  44.625  1.00  0.00     0.000 C 
BRANCH   7   8
ATOM      8  C   UNL     1      34.993  16.093  44.488  1.00  0.00     0.000 C 
BRANCH   8   9
ATOM      9  C   UNL     1      34.869  16.626  43.053  1.00  0.00     0.000 C 
BRANCH   9  10
ATOM     10  C   UNL     1      33.473  17.208  42.797  1.00  0.00     0.000 C 
BRANCH  10  11
ATOM     11  C   UNL     1      33.458  18.052  41.517  1.00  0.00     0.000 C 
BRANCH  11  12
ATOM     12  C   UNL     1      34.143  17.316  40.360  1.00  0.00     0.000 C 
BRANCH  12  13
ATOM     13  C   UNL     1      33.501  17.693  39.015  1.00  0.00     0.006 C 
BRANCH  13  14
ATOM     14  C   UNL     1      32.318  18.657  39.184  1.00  0.00     0.053 C 
BRANCH  14  15
ATOM     15  C   UNL     1      31.505  18.778  37.930  1.00  0.00     0.041 C 
ATOM     16  O   UNL     1      31.171  19.914  37.497  1.00  0.00    -0.550 OA
ATOM     17  O   UNL     1      31.122  17.637  37.237  1.00  0.00    -0.550 OA
ENDBRANCH  14  15
ENDBRANCH  13  14
ENDBRANCH  12  13
ENDBRANCH  11  12
ENDBRANCH  10  11
ENDBRANCH   9  10
ENDBRANCH   8   9
ENDBRANCH   7   8
ENDBRANCH   6   7
ENDBRANCH   5   6
ENDBRANCH   4   5
ENDBRANCH   3   4
ENDBRANCH   2   3
ENDBRANCH   1   2
BRANCH   1  18
ATOM     18  C   UNL     1      32.664  10.527  41.410  1.00  0.00     0.000 C 
BRANCH  18  19
ATOM     19  C   UNL     1      32.486   9.879  40.025  1.00  0.00     0.000 C 
BRANCH  19  20
ATOM     20  C   UNL     1      33.742   9.132  39.551  1.00  0.00     0.000 C 
BRANCH  20  21
ATOM     21  C   UNL     1      35.044   9.770  40.063  1.00  0.00     0.000 C 
BRANCH  21  22
ATOM     22  C   UNL     1      35.968   8.708  40.677  1.00  0.00     0.000 C 
BRANCH  22  23
ATOM     23  C   UNL     1      35.306   7.920  41.823  1.00  0.00     0.000 C 
BRANCH  23  24
ATOM     24  C   UNL     1      35.853   6.498  42.044  1.00  0.00    -0.000 C 
BRANCH  24  25
ATOM     25  C   UNL     1      35.045   5.423  41.299  1.00  0.00    -0.000 C 
BRANCH  25  26
ATOM     26  C   UNL     1      33.550   5.775  41.177  1.00  0.00    -0.000 C 
BRANCH  26  27
ATOM     27  C   UNL     1      32.594   4.565  41.119  1.00  0.00    -0.000 C 
BRANCH  27  28
ATOM     28  C   UNL     1      31.134   4.857  41.528  1.00  0.00    -0.000 C 
BRANCH  28  29
ATOM     29  C   UNL     1      30.632   6.274  41.196  1.00  0.00    -0.000 C 
BRANCH  29  30
ATOM     30  C   UNL     1      29.349   6.645  41.958  1.00  0.00    -0.000 C 
BRANCH  30  31
ATOM     31  C   UNL     1      28.775   5.463  42.756  1.00  0.00    -0.003 C 
ATOM     32  C   UNL     1      27.732   4.667  41.970  1.00  0.00     0.004 C 
ENDBRANCH  30  31
ENDBRANCH  29  30
ENDBRANCH  28  29
ENDBRANCH  27  28
ENDBRANCH  26  27
ENDBRANCH  25  26
ENDBRANCH  24  25
ENDBRANCH  23  24
ENDBRANCH  22  23
ENDBRANCH  21  22
ENDBRANCH  20  21
ENDBRANCH  19  20
ENDBRANCH  18  19
ENDBRANCH   1  18
TORSDOF 28
ENDMDL
