MODEL 1
REMARK VINA RESULT:    -8.112      0.000      0.000
REMARK INTER + INTRA:         -13.974
REMARK INTER:                 -12.143
REMARK INTRA:                  -1.831
REMARK UNBOUND:                -1.831
REMARK SMILES C=C(CC[C@@H](C(=O)[O-])[C@@H]1[C@@H](O)C[C@]2(C)C3=C(CC[C@]12C)[C@]1(C)CC[C@@H](OC(C)=O)C(C)(C)[C@H]1CC3)C(C)C
REMARK SMILES IDX 4 1 5 2 6 3 7 4 8 5 9 6 10 7 19 8 12 9 13 10 18 11 20 12
REMARK SMILES IDX 14 13 15 14 17 15 16 16 35 17 21 18 34 19 33 20 23 21 22 22
REMARK SMILES IDX 30 23 24 24 25 25 31 26 32 27 11 28 26 30 27 31 29 32 28 33
REMARK SMILES IDX 3 34 2 35 1 36 36 37 37 38 38 39
REMARK H PARENT 11 29
REMARK Flexibility Score: inf
ROOT
ATOM      1  C   UNL     1      17.685 -12.250  65.963  1.00  0.00     0.014 C 
ENDROOT
BRANCH   1   2
ATOM      2  C   UNL     1      17.148 -11.190  64.974  1.00  0.00     0.042 C 
BRANCH   2   3
ATOM      3  C   UNL     1      18.363 -10.471  64.406  1.00  0.00     0.045 C 
ATOM      4  O   UNL     1      18.393  -9.209  64.339  1.00  0.00    -0.550 OA
ATOM      5  O   UNL     1      19.490 -11.192  64.000  1.00  0.00    -0.550 OA
ENDBRANCH   2   3
BRANCH   2   6
ATOM      6  C   UNL     1      16.207 -11.841  63.895  1.00  0.00     0.033 C 
ATOM      7  C   UNL     1      16.875 -12.094  62.529  1.00  0.00     0.119 C 
ATOM      8  C   UNL     1      14.813 -11.169  63.609  1.00  0.00    -0.017 C 
ATOM      9  C   UNL     1      15.767 -12.030  61.481  1.00  0.00     0.043 C 
ATOM     10  C   UNL     1      14.411 -11.786  62.203  1.00  0.00    -0.003 C 
ATOM     11  C   UNL     1      14.941  -9.629  63.522  1.00  0.00     0.012 C 
ATOM     12  C   UNL     1      13.795 -11.500  64.750  1.00  0.00     0.013 C 
ATOM     13  C   UNL     1      13.696 -13.175  62.378  1.00  0.00     0.017 C 
ATOM     14  C   UNL     1      13.556 -10.851  61.299  1.00  0.00    -0.064 C 
ATOM     15  C   UNL     1      13.695  -9.004  62.889  1.00  0.00     0.032 C 
ATOM     16  C   UNL     1      13.546  -9.511  61.477  1.00  0.00    -0.064 C 
ATOM     17  C   UNL     1      13.083 -11.377  59.963  1.00  0.00     0.032 C 
ATOM     18  C   UNL     1      13.787  -8.524  60.306  1.00  0.00    -0.008 C 
ATOM     19  C   UNL     1      13.748 -10.631  58.821  1.00  0.00     0.009 C 
ATOM     20  C   UNL     1      13.373  -9.143  58.923  1.00  0.00     0.009 C 
ATOM     21  C   UNL     1      12.983  -7.195  60.500  1.00  0.00     0.015 C 
ATOM     22  C   UNL     1      15.302  -8.194  60.397  1.00  0.00     0.016 C 
ATOM     23  C   UNL     1      13.739  -8.260  57.659  1.00  0.00     0.005 C 
ATOM     24  C   UNL     1      12.525  -6.530  59.179  1.00  0.00     0.047 C 
ATOM     25  C   UNL     1      13.486  -6.732  57.969  1.00  0.00     0.182 C 
ATOM     26  C   UNL     1      15.188  -8.500  57.151  1.00  0.00     0.015 C 
ATOM     27  C   UNL     1      12.813  -8.665  56.490  1.00  0.00     0.015 C 
BRANCH   7  28
ATOM     28  O   UNL     1      17.568 -13.324  62.500  1.00  0.00    -0.393 OA
ATOM     29  H   UNL     1      18.504 -13.161  62.230  1.00  0.00     0.210 HD
ENDBRANCH   7  28
BRANCH  25  30
ATOM     30  O   UNL     1      14.708  -6.022  58.179  1.00  0.00    -0.462 OA
BRANCH  30  31
ATOM     31  C   UNL     1      14.751  -4.637  58.382  1.00  0.00     0.302 C 
ATOM     32  O   UNL     1      14.251  -3.869  57.512  1.00  0.00    -0.253 OA
ATOM     33  C   UNL     1      15.340  -4.080  59.634  1.00  0.00     0.139 C 
ENDBRANCH  30  31
ENDBRANCH  25  30
ENDBRANCH   2   6
ENDBRANCH   1   2
BRANCH   1  34
ATOM     34  C   UNL     1      17.800 -11.810  67.433  1.00  0.00     0.031 C 
BRANCH  34  35
ATOM     35  C   UNL     1      19.222 -11.840  68.003  1.00  0.00    -0.075 C 
ATOM     36  C   UNL     1      19.804 -12.977  68.454  1.00  0.00     0.008 C 
BRANCH  35  37
ATOM     37  C   UNL     1      19.989 -10.521  68.043  1.00  0.00     0.008 C 
ATOM     38  C   UNL     1      19.067  -9.304  67.879  1.00  0.00     0.012 C 
ATOM     39  C   UNL     1      21.107 -10.505  66.994  1.00  0.00     0.012 C 
ENDBRANCH  35  37
ENDBRANCH  34  35
ENDBRANCH   1  34
TORSDOF 9
ENDMDL
MODEL 2
REMARK VINA RESULT:    -8.029      2.879      8.916
REMARK INTER + INTRA:         -13.850
REMARK INTER:                 -12.359
REMARK INTRA:                  -1.492
REMARK UNBOUND:                -1.831
REMARK SMILES C=C(CC[C@@H](C(=O)[O-])[C@@H]1[C@@H](O)C[C@]2(C)C3=C(CC[C@]12C)[C@]1(C)CC[C@@H](OC(C)=O)C(C)(C)[C@H]1CC3)C(C)C
REMARK SMILES IDX 4 1 5 2 6 3 7 4 8 5 9 6 10 7 19 8 12 9 13 10 18 11 20 12
REMARK SMILES IDX 14 13 15 14 17 15 16 16 35 17 21 18 34 19 33 20 23 21 22 22
REMARK SMILES IDX 30 23 24 24 25 25 31 26 32 27 11 28 26 30 27 31 29 32 28 33
REMARK SMILES IDX 3 34 2 35 1 36 36 37 37 38 38 39
REMARK H PARENT 11 29
REMARK Flexibility Score: inf
ROOT
ATOM      1  C   UNL     1      12.105  -6.918  60.985  1.00  0.00     0.014 C 
ENDROOT
BRANCH   1   2
ATOM      2  C   UNL     1      12.551  -7.627  62.284  1.00  0.00     0.042 C 
BRANCH   2   3
ATOM      3  C   UNL     1      11.352  -7.613  63.221  1.00  0.00     0.045 C 
ATOM      4  O   UNL     1      11.431  -7.075  64.362  1.00  0.00    -0.550 OA
ATOM      5  O   UNL     1      10.125  -8.147  62.813  1.00  0.00    -0.550 OA
ENDBRANCH   2   3
BRANCH   2   6
ATOM      6  C   UNL     1      13.132  -9.058  61.983  1.00  0.00     0.033 C 
ATOM      7  C   UNL     1      12.792 -10.124  63.041  1.00  0.00     0.119 C 
ATOM      8  C   UNL     1      14.668  -9.194  61.667  1.00  0.00    -0.017 C 
ATOM      9  C   UNL     1      13.922 -11.149  63.009  1.00  0.00     0.043 C 
ATOM     10  C   UNL     1      14.935 -10.741  61.901  1.00  0.00    -0.003 C 
ATOM     11  C   UNL     1      15.517  -8.334  62.634  1.00  0.00     0.012 C 
ATOM     12  C   UNL     1      14.977  -8.720  60.209  1.00  0.00     0.013 C 
ATOM     13  C   UNL     1      14.604 -11.574  60.609  1.00  0.00     0.017 C 
ATOM     14  C   UNL     1      16.362 -11.088  62.413  1.00  0.00    -0.064 C 
ATOM     15  C   UNL     1      16.993  -8.736  62.584  1.00  0.00     0.032 C 
ATOM     16  C   UNL     1      17.135 -10.168  63.034  1.00  0.00    -0.064 C 
ATOM     17  C   UNL     1      16.722 -12.542  62.613  1.00  0.00     0.032 C 
ATOM     18  C   UNL     1      17.820 -10.453  64.395  1.00  0.00    -0.008 C 
ATOM     19  C   UNL     1      16.932 -12.853  64.083  1.00  0.00     0.009 C 
ATOM     20  C   UNL     1      18.089 -11.985  64.607  1.00  0.00     0.009 C 
ATOM     21  C   UNL     1      19.187  -9.701  64.518  1.00  0.00     0.015 C 
ATOM     22  C   UNL     1      16.841  -9.856  65.443  1.00  0.00     0.016 C 
ATOM     23  C   UNL     1      18.638 -12.375  66.042  1.00  0.00     0.005 C 
ATOM     24  C   UNL     1      20.248 -10.443  65.366  1.00  0.00     0.047 C 
ATOM     25  C   UNL     1      19.677 -11.296  66.540  1.00  0.00     0.182 C 
ATOM     26  C   UNL     1      17.507 -12.594  67.085  1.00  0.00     0.015 C 
ATOM     27  C   UNL     1      19.377 -13.729  65.935  1.00  0.00     0.015 C 
BRANCH   7  28
ATOM     28  O   UNL     1      11.530 -10.714  62.809  1.00  0.00    -0.393 OA
ATOM     29  H   UNL     1      11.373 -11.418  63.485  1.00  0.00     0.210 HD
ENDBRANCH   7  28
BRANCH  25  30
ATOM     30  O   UNL     1      19.122 -10.447  67.548  1.00  0.00    -0.462 OA
BRANCH  30  31
ATOM     31  C   UNL     1      19.594 -10.432  68.866  1.00  0.00     0.302 C 
ATOM     32  O   UNL     1      19.450  -9.387  69.562  1.00  0.00    -0.253 OA
ATOM     33  C   UNL     1      20.216 -11.653  69.454  1.00  0.00     0.139 C 
ENDBRANCH  30  31
ENDBRANCH  25  30
ENDBRANCH   2   6
ENDBRANCH   1   2
BRANCH   1  34
ATOM     34  C   UNL     1      12.873  -5.638  60.612  1.00  0.00     0.031 C 
BRANCH  34  35
ATOM     35  C   UNL     1      12.262  -4.341  61.154  1.00  0.00    -0.075 C 
ATOM     36  C   UNL     1      12.865  -3.136  61.017  1.00  0.00     0.008 C 
BRANCH  35  37
ATOM     37  C   UNL     1      10.915  -4.445  61.865  1.00  0.00     0.008 C 
ATOM     38  C   UNL     1       9.755  -3.935  60.996  1.00  0.00     0.012 C 
ATOM     39  C   UNL     1      10.949  -3.717  63.213  1.00  0.00     0.012 C 
ENDBRANCH  35  37
ENDBRANCH  34  35
ENDBRANCH   1  34
TORSDOF 9
ENDMDL
MODEL 3
REMARK VINA RESULT:    -7.967      2.503      9.094
REMARK INTER + INTRA:         -13.757
REMARK INTER:                 -11.220
REMARK INTRA:                  -2.537
REMARK UNBOUND:                -1.831
REMARK SMILES C=C(CC[C@@H](C(=O)[O-])[C@@H]1[C@@H](O)C[C@]2(C)C3=C(CC[C@]12C)[C@]1(C)CC[C@@H](OC(C)=O)C(C)(C)[C@H]1CC3)C(C)C
REMARK SMILES IDX 4 1 5 2 6 3 7 4 8 5 9 6 10 7 19 8 12 9 13 10 18 11 20 12
REMARK SMILES IDX 14 13 15 14 17 15 16 16 35 17 21 18 34 19 33 20 23 21 22 22
REMARK SMILES IDX 30 23 24 24 25 25 31 26 32 27 11 28 26 30 27 31 29 32 28 33
REMARK SMILES IDX 3 34 2 35 1 36 36 37 37 38 38 39
REMARK H PARENT 11 29
REMARK Flexibility Score: inf
ROOT
ATOM      1  C   UNL     1      11.950  -3.943  60.164  1.00  0.00     0.014 C 
ENDROOT
BRANCH   1   2
ATOM      2  C   UNL     1      12.333  -5.014  61.210  1.00  0.00     0.042 C 
BRANCH   2   3
ATOM      3  C   UNL     1      11.388  -4.828  62.388  1.00  0.00     0.045 C 
ATOM      4  O   UNL     1      11.817  -4.890  63.576  1.00  0.00    -0.550 OA
ATOM      5  O   UNL     1      10.038  -4.530  62.176  1.00  0.00    -0.550 OA
ENDBRANCH   2   3
BRANCH   2   6
ATOM      6  C   UNL     1      12.322  -6.456  60.582  1.00  0.00     0.033 C 
ATOM      7  C   UNL     1      11.417  -7.467  61.311  1.00  0.00     0.119 C 
ATOM      8  C   UNL     1      13.699  -7.173  60.322  1.00  0.00    -0.017 C 
ATOM      9  C   UNL     1      12.024  -8.847  61.075  1.00  0.00     0.043 C 
ATOM     10  C   UNL     1      13.275  -8.693  60.163  1.00  0.00    -0.003 C 
ATOM     11  C   UNL     1      14.662  -6.989  61.520  1.00  0.00     0.012 C 
ATOM     12  C   UNL     1      14.398  -6.584  59.052  1.00  0.00     0.013 C 
ATOM     13  C   UNL     1      12.841  -9.009  58.685  1.00  0.00     0.017 C 
ATOM     14  C   UNL     1      14.339  -9.723  60.642  1.00  0.00    -0.064 C 
ATOM     15  C   UNL     1      15.835  -7.969  61.444  1.00  0.00     0.032 C 
ATOM     16  C   UNL     1      15.310  -9.380  61.518  1.00  0.00    -0.064 C 
ATOM     17  C   UNL     1      14.041 -11.196  60.480  1.00  0.00     0.032 C 
ATOM     18  C   UNL     1      15.598 -10.213  62.794  1.00  0.00    -0.008 C 
ATOM     19  C   UNL     1      13.874 -11.868  61.830  1.00  0.00     0.009 C 
ATOM     20  C   UNL     1      15.186 -11.718  62.618  1.00  0.00     0.009 C 
ATOM     21  C   UNL     1      17.116 -10.170  63.177  1.00  0.00     0.015 C 
ATOM     22  C   UNL     1      14.796  -9.486  63.907  1.00  0.00     0.016 C 
ATOM     23  C   UNL     1      15.297 -12.599  63.931  1.00  0.00     0.005 C 
ATOM     24  C   UNL     1      17.637 -11.458  63.859  1.00  0.00     0.047 C 
ATOM     25  C   UNL     1      16.593 -12.206  64.743  1.00  0.00     0.182 C 
ATOM     26  C   UNL     1      14.027 -12.522  64.822  1.00  0.00     0.015 C 
ATOM     27  C   UNL     1      15.429 -14.082  63.518  1.00  0.00     0.015 C 
BRANCH   7  28
ATOM     28  O   UNL     1      10.078  -7.390  60.869  1.00  0.00    -0.393 OA
ATOM     29  H   UNL     1       9.859  -6.449  60.665  1.00  0.00     0.210 HD
ENDBRANCH   7  28
BRANCH  25  30
ATOM     30  O   UNL     1      16.279 -11.434  65.905  1.00  0.00    -0.462 OA
BRANCH  30  31
ATOM     31  C   UNL     1      17.236 -11.107  66.875  1.00  0.00     0.302 C 
ATOM     32  O   UNL     1      17.357  -9.905  67.243  1.00  0.00    -0.253 OA
ATOM     33  C   UNL     1      18.067 -12.177  67.497  1.00  0.00     0.139 C 
ENDBRANCH  30  31
ENDBRANCH  25  30
ENDBRANCH   2   6
ENDBRANCH   1   2
BRANCH   1  34
ATOM     34  C   UNL     1      10.999  -4.399  59.043  1.00  0.00     0.031 C 
BRANCH  34  35
ATOM     35  C   UNL     1      11.616  -4.407  57.641  1.00  0.00    -0.075 C 
ATOM     36  C   UNL     1      12.525  -3.488  57.237  1.00  0.00     0.008 C 
BRANCH  35  37
ATOM     37  C   UNL     1      11.174  -5.514  56.687  1.00  0.00     0.008 C 
ATOM     38  C   UNL     1      10.242  -6.530  57.363  1.00  0.00     0.012 C 
ATOM     39  C   UNL     1      12.385  -6.215  56.061  1.00  0.00     0.012 C 
ENDBRANCH  35  37
ENDBRANCH  34  35
ENDBRANCH   1  34
TORSDOF 9
ENDMDL
MODEL 4
REMARK VINA RESULT:    -7.928      2.595      8.973
REMARK INTER + INTRA:         -13.699
REMARK INTER:                 -11.796
REMARK INTRA:                  -1.903
REMARK UNBOUND:                -1.831
REMARK SMILES C=C(CC[C@@H](C(=O)[O-])[C@@H]1[C@@H](O)C[C@]2(C)C3=C(CC[C@]12C)[C@]1(C)CC[C@@H](OC(C)=O)C(C)(C)[C@H]1CC3)C(C)C
REMARK SMILES IDX 4 1 5 2 6 3 7 4 8 5 9 6 10 7 19 8 12 9 13 10 18 11 20 12
REMARK SMILES IDX 14 13 15 14 17 15 16 16 35 17 21 18 34 19 33 20 23 21 22 22
REMARK SMILES IDX 30 23 24 24 25 25 31 26 32 27 11 28 26 30 27 31 29 32 28 33
REMARK SMILES IDX 3 34 2 35 1 36 36 37 37 38 38 39
REMARK H PARENT 11 29
REMARK Flexibility Score: inf
ROOT
ATOM      1  C   UNL     1      11.884  -7.040  60.747  1.00  0.00     0.014 C 
ENDROOT
BRANCH   1   2
ATOM      2  C   UNL     1      12.498  -7.635  62.035  1.00  0.00     0.042 C 
BRANCH   2   3
ATOM      3  C   UNL     1      11.418  -7.564  63.104  1.00  0.00     0.045 C 
ATOM      4  O   UNL     1      11.637  -6.984  64.206  1.00  0.00    -0.550 OA
ATOM      5  O   UNL     1      10.145  -8.091  62.863  1.00  0.00    -0.550 OA
ENDBRANCH   2   3
BRANCH   2   6
ATOM      6  C   UNL     1      13.075  -9.075  61.779  1.00  0.00     0.033 C 
ATOM      7  C   UNL     1      12.726 -10.109  62.867  1.00  0.00     0.119 C 
ATOM      8  C   UNL     1      14.612  -9.226  61.475  1.00  0.00    -0.017 C 
ATOM      9  C   UNL     1      13.853 -11.138  62.871  1.00  0.00     0.043 C 
ATOM     10  C   UNL     1      14.873 -10.766  61.756  1.00  0.00    -0.003 C 
ATOM     11  C   UNL     1      15.460  -8.340  62.420  1.00  0.00     0.012 C 
ATOM     12  C   UNL     1      14.930  -8.797  60.005  1.00  0.00     0.013 C 
ATOM     13  C   UNL     1      14.545 -11.636  60.488  1.00  0.00     0.017 C 
ATOM     14  C   UNL     1      16.296 -11.103  62.286  1.00  0.00    -0.064 C 
ATOM     15  C   UNL     1      16.934  -8.749  62.390  1.00  0.00     0.032 C 
ATOM     16  C   UNL     1      17.069 -10.167  62.883  1.00  0.00    -0.064 C 
ATOM     17  C   UNL     1      16.650 -12.552  62.531  1.00  0.00     0.032 C 
ATOM     18  C   UNL     1      17.746 -10.414  64.256  1.00  0.00    -0.008 C 
ATOM     19  C   UNL     1      16.851 -12.819  64.011  1.00  0.00     0.009 C 
ATOM     20  C   UNL     1      18.009 -11.940  64.514  1.00  0.00     0.009 C 
ATOM     21  C   UNL     1      19.116  -9.663  64.363  1.00  0.00     0.015 C 
ATOM     22  C   UNL     1      16.764  -9.782  65.280  1.00  0.00     0.016 C 
ATOM     23  C   UNL     1      18.550 -12.289  65.963  1.00  0.00     0.005 C 
ATOM     24  C   UNL     1      20.169 -10.384  65.238  1.00  0.00     0.047 C 
ATOM     25  C   UNL     1      19.590 -11.199  66.434  1.00  0.00     0.182 C 
ATOM     26  C   UNL     1      17.413 -12.473  67.006  1.00  0.00     0.015 C 
ATOM     27  C   UNL     1      19.284 -13.648  65.900  1.00  0.00     0.015 C 
BRANCH   7  28
ATOM     28  O   UNL     1      11.463 -10.701  62.645  1.00  0.00    -0.393 OA
ATOM     29  H   UNL     1      10.776  -9.993  62.612  1.00  0.00     0.210 HD
ENDBRANCH   7  28
BRANCH  25  30
ATOM     30  O   UNL     1      19.032 -10.319  67.413  1.00  0.00    -0.462 OA
BRANCH  30  31
ATOM     31  C   UNL     1      19.459 -10.307  68.747  1.00  0.00     0.302 C 
ATOM     32  O   UNL     1      19.168  -9.319  69.480  1.00  0.00    -0.253 OA
ATOM     33  C   UNL     1      20.207 -11.469  69.306  1.00  0.00     0.139 C 
ENDBRANCH  30  31
ENDBRANCH  25  30
ENDBRANCH   2   6
ENDBRANCH   1   2
BRANCH   1  34
ATOM     34  C   UNL     1      11.481  -8.049  59.658  1.00  0.00     0.031 C 
BRANCH  34  35
ATOM     35  C   UNL     1      12.023  -7.736  58.259  1.00  0.00    -0.075 C 
ATOM     36  C   UNL     1      12.650  -6.573  57.962  1.00  0.00     0.008 C 
BRANCH  35  37
ATOM     37  C   UNL     1      11.840  -8.802  57.182  1.00  0.00     0.008 C 
ATOM     38  C   UNL     1      12.520 -10.128  57.551  1.00  0.00     0.012 C 
ATOM     39  C   UNL     1      12.332  -8.296  55.821  1.00  0.00     0.012 C 
ENDBRANCH  35  37
ENDBRANCH  34  35
ENDBRANCH   1  34
TORSDOF 9
ENDMDL
MODEL 5
REMARK VINA RESULT:    -7.873      1.910      2.226
REMARK INTER + INTRA:         -13.616
REMARK INTER:                 -12.349
REMARK INTRA:                  -1.267
REMARK UNBOUND:                -1.831
REMARK SMILES C=C(CC[C@@H](C(=O)[O-])[C@@H]1[C@@H](O)C[C@]2(C)C3=C(CC[C@]12C)[C@]1(C)CC[C@@H](OC(C)=O)C(C)(C)[C@H]1CC3)C(C)C
REMARK SMILES IDX 4 1 5 2 6 3 7 4 8 5 9 6 10 7 19 8 12 9 13 10 18 11 20 12
REMARK SMILES IDX 14 13 15 14 17 15 16 16 35 17 21 18 34 19 33 20 23 21 22 22
REMARK SMILES IDX 30 23 24 24 25 25 31 26 32 27 11 28 26 30 27 31 29 32 28 33
REMARK SMILES IDX 3 34 2 35 1 36 36 37 37 38 38 39
REMARK H PARENT 11 29
REMARK Flexibility Score: inf
ROOT
ATOM      1  C   UNL     1      17.478 -11.433  65.329  1.00  0.00     0.014 C 
ENDROOT
BRANCH   1   2
ATOM      2  C   UNL     1      16.638 -10.734  64.237  1.00  0.00     0.042 C 
BRANCH   2   3
ATOM      3  C   UNL     1      17.615  -9.952  63.371  1.00  0.00     0.045 C 
ATOM      4  O   UNL     1      17.231  -8.942  62.715  1.00  0.00    -0.550 OA
ATOM      5  O   UNL     1      18.968 -10.306  63.330  1.00  0.00    -0.550 OA
ENDBRANCH   2   3
BRANCH   2   6
ATOM      6  C   UNL     1      15.747 -11.767  63.453  1.00  0.00     0.033 C 
ATOM      7  C   UNL     1      16.230 -12.075  62.023  1.00  0.00     0.119 C 
ATOM      8  C   UNL     1      14.196 -11.512  63.372  1.00  0.00    -0.017 C 
ATOM      9  C   UNL     1      14.993 -12.461  61.217  1.00  0.00     0.043 C 
ATOM     10  C   UNL     1      13.755 -12.436  62.159  1.00  0.00    -0.003 C 
ATOM     11  C   UNL     1      13.887 -10.025  63.076  1.00  0.00     0.012 C 
ATOM     12  C   UNL     1      13.503 -11.884  64.724  1.00  0.00     0.013 C 
ATOM     13  C   UNL     1      13.480 -13.907  62.639  1.00  0.00     0.017 C 
ATOM     14  C   UNL     1      12.545 -11.904  61.338  1.00  0.00    -0.064 C 
ATOM     15  C   UNL     1      12.434  -9.838  62.633  1.00  0.00     0.032 C 
ATOM     16  C   UNL     1      12.202 -10.596  61.351  1.00  0.00    -0.064 C 
ATOM     17  C   UNL     1      12.024 -12.746  60.196  1.00  0.00     0.032 C 
ATOM     18  C   UNL     1      11.976  -9.792  60.045  1.00  0.00    -0.008 C 
ATOM     19  C   UNL     1      12.269 -12.064  58.863  1.00  0.00     0.009 C 
ATOM     20  C   UNL     1      11.528 -10.717  58.857  1.00  0.00     0.009 C 
ATOM     21  C   UNL     1      10.884  -8.686  60.233  1.00  0.00     0.015 C 
ATOM     22  C   UNL     1      13.339  -9.092  59.791  1.00  0.00     0.016 C 
ATOM     23  C   UNL     1      11.433  -9.997  57.448  1.00  0.00     0.005 C 
ATOM     24  C   UNL     1      10.057  -8.384  58.960  1.00  0.00     0.047 C 
ATOM     25  C   UNL     1      10.830  -8.547  57.616  1.00  0.00     0.182 C 
ATOM     26  C   UNL     1      12.791  -9.959  56.695  1.00  0.00     0.015 C 
ATOM     27  C   UNL     1      10.476 -10.807  56.545  1.00  0.00     0.015 C 
BRANCH   7  28
ATOM     28  O   UNL     1      17.215 -13.087  62.005  1.00  0.00    -0.393 OA
ATOM     29  H   UNL     1      17.952 -12.830  62.611  1.00  0.00     0.210 HD
ENDBRANCH   7  28
BRANCH  25  30
ATOM     30  O   UNL     1      11.832  -7.536  57.491  1.00  0.00    -0.462 OA
BRANCH  30  31
ATOM     31  C   UNL     1      11.784  -6.543  56.505  1.00  0.00     0.302 C 
ATOM     32  O   UNL     1      12.091  -6.838  55.315  1.00  0.00    -0.253 OA
ATOM     33  C   UNL     1      11.329  -5.165  56.849  1.00  0.00     0.139 C 
ENDBRANCH  30  31
ENDBRANCH  25  30
ENDBRANCH   2   6
ENDBRANCH   1   2
BRANCH   1  34
ATOM     34  C   UNL     1      17.669 -10.654  66.642  1.00  0.00     0.031 C 
BRANCH  34  35
ATOM     35  C   UNL     1      18.393 -11.427  67.749  1.00  0.00    -0.075 C 
ATOM     36  C   UNL     1      17.934 -12.602  68.240  1.00  0.00     0.008 C 
BRANCH  35  37
ATOM     37  C   UNL     1      19.687 -10.825  68.293  1.00  0.00     0.008 C 
ATOM     38  C   UNL     1      20.647 -10.396  67.173  1.00  0.00     0.012 C 
ATOM     39  C   UNL     1      20.376 -11.791  69.263  1.00  0.00     0.012 C 
ENDBRANCH  35  37
ENDBRANCH  34  35
ENDBRANCH   1  34
TORSDOF 9
ENDMDL
MODEL 6
REMARK VINA RESULT:    -7.869      6.967     12.960
REMARK INTER + INTRA:         -13.611
REMARK INTER:                 -11.426
REMARK INTRA:                  -2.185
REMARK UNBOUND:                -1.831
REMARK SMILES C=C(CC[C@@H](C(=O)[O-])[C@@H]1[C@@H](O)C[C@]2(C)C3=C(CC[C@]12C)[C@]1(C)CC[C@@H](OC(C)=O)C(C)(C)[C@H]1CC3)C(C)C
REMARK SMILES IDX 4 1 5 2 6 3 7 4 8 5 9 6 10 7 19 8 12 9 13 10 18 11 20 12
REMARK SMILES IDX 14 13 15 14 17 15 16 16 35 17 21 18 34 19 33 20 23 21 22 22
REMARK SMILES IDX 30 23 24 24 25 25 31 26 32 27 11 28 26 30 27 31 29 32 28 33
REMARK SMILES IDX 3 34 2 35 1 36 36 37 37 38 38 39
REMARK H PARENT 11 29
REMARK Flexibility Score: inf
ROOT
ATOM      1  C   UNL     1      13.556   4.634  57.169  1.00  0.00     0.014 C 
ENDROOT
BRANCH   1   2
ATOM      2  C   UNL     1      13.339   3.110  57.025  1.00  0.00     0.042 C 
BRANCH   2   3
ATOM      3  C   UNL     1      13.459   2.792  55.542  1.00  0.00     0.045 C 
ATOM      4  O   UNL     1      12.632   2.021  54.977  1.00  0.00    -0.550 OA
ATOM      5  O   UNL     1      14.456   3.394  54.765  1.00  0.00    -0.550 OA
ENDBRANCH   2   3
BRANCH   2   6
ATOM      6  C   UNL     1      14.321   2.303  57.951  1.00  0.00     0.033 C 
ATOM      7  C   UNL     1      15.433   1.545  57.201  1.00  0.00     0.119 C 
ATOM      8  C   UNL     1      13.712   1.305  59.004  1.00  0.00    -0.017 C 
ATOM      9  C   UNL     1      15.801   0.341  58.064  1.00  0.00     0.043 C 
ATOM     10  C   UNL     1      14.950   0.382  59.366  1.00  0.00    -0.003 C 
ATOM     11  C   UNL     1      12.562   0.473  58.388  1.00  0.00     0.012 C 
ATOM     12  C   UNL     1      13.133   2.083  60.232  1.00  0.00     0.013 C 
ATOM     13  C   UNL     1      15.828   1.029  60.499  1.00  0.00     0.017 C 
ATOM     14  C   UNL     1      14.587  -1.084  59.740  1.00  0.00    -0.064 C 
ATOM     15  C   UNL     1      12.218  -0.734  59.265  1.00  0.00     0.032 C 
ATOM     16  C   UNL     1      13.417  -1.643  59.354  1.00  0.00    -0.064 C 
ATOM     17  C   UNL     1      15.700  -2.021  60.149  1.00  0.00     0.032 C 
ATOM     18  C   UNL     1      13.359  -3.020  58.644  1.00  0.00    -0.008 C 
ATOM     19  C   UNL     1      15.890  -3.121  59.122  1.00  0.00     0.009 C 
ATOM     20  C   UNL     1      14.583  -3.927  59.021  1.00  0.00     0.009 C 
ATOM     21  C   UNL     1      12.050  -3.799  59.009  1.00  0.00     0.015 C 
ATOM     22  C   UNL     1      13.306  -2.663  57.133  1.00  0.00     0.016 C 
ATOM     23  C   UNL     1      14.682  -5.286  58.212  1.00  0.00     0.005 C 
ATOM     24  C   UNL     1      12.212  -5.338  59.033  1.00  0.00     0.047 C 
ATOM     25  C   UNL     1      13.245  -5.910  58.015  1.00  0.00     0.182 C 
ATOM     26  C   UNL     1      15.421  -5.131  56.853  1.00  0.00     0.015 C 
ATOM     27  C   UNL     1      15.525  -6.288  59.034  1.00  0.00     0.015 C 
BRANCH   7  28
ATOM     28  O   UNL     1      16.547   2.371  56.934  1.00  0.00    -0.393 OA
ATOM     29  H   UNL     1      16.608   3.066  57.633  1.00  0.00     0.210 HD
ENDBRANCH   7  28
BRANCH  25  30
ATOM     30  O   UNL     1      12.771  -5.743  56.677  1.00  0.00    -0.462 OA
BRANCH  30  31
ATOM     31  C   UNL     1      12.300  -6.813  55.904  1.00  0.00     0.302 C 
ATOM     32  O   UNL     1      13.050  -7.313  55.019  1.00  0.00    -0.253 OA
ATOM     33  C   UNL     1      10.945  -7.382  56.158  1.00  0.00     0.139 C 
ENDBRANCH  30  31
ENDBRANCH  25  30
ENDBRANCH   2   6
ENDBRANCH   1   2
BRANCH   1  34
ATOM     34  C   UNL     1      12.338   5.453  57.630  1.00  0.00     0.031 C 
BRANCH  34  35
ATOM     35  C   UNL     1      12.119   5.480  59.146  1.00  0.00    -0.075 C 
ATOM     36  C   UNL     1      13.110   5.769  60.022  1.00  0.00     0.008 C 
BRANCH  35  37
ATOM     37  C   UNL     1      10.713   5.174  59.658  1.00  0.00     0.008 C 
ATOM     38  C   UNL     1      10.609   5.290  61.185  1.00  0.00     0.012 C 
ATOM     39  C   UNL     1      10.245   3.795  59.180  1.00  0.00     0.012 C 
ENDBRANCH  35  37
ENDBRANCH  34  35
ENDBRANCH   1  34
TORSDOF 9
ENDMDL
MODEL 7
REMARK VINA RESULT:    -7.864      8.125     11.817
REMARK INTER + INTRA:         -13.602
REMARK INTER:                 -11.291
REMARK INTRA:                  -2.311
REMARK UNBOUND:                -1.831
REMARK SMILES C=C(CC[C@@H](C(=O)[O-])[C@@H]1[C@@H](O)C[C@]2(C)C3=C(CC[C@]12C)[C@]1(C)CC[C@@H](OC(C)=O)C(C)(C)[C@H]1CC3)C(C)C
REMARK SMILES IDX 4 1 5 2 6 3 7 4 8 5 9 6 10 7 19 8 12 9 13 10 18 11 20 12
REMARK SMILES IDX 14 13 15 14 17 15 16 16 35 17 21 18 34 19 33 20 23 21 22 22
REMARK SMILES IDX 30 23 24 24 25 25 31 26 32 27 11 28 26 30 27 31 29 32 28 33
REMARK SMILES IDX 3 34 2 35 1 36 36 37 37 38 38 39
REMARK H PARENT 11 29
REMARK Flexibility Score: inf
ROOT
ATOM      1  C   UNL     1      14.826  -1.688  56.947  1.00  0.00     0.014 C 
ENDROOT
BRANCH   1   2
ATOM      2  C   UNL     1      13.725  -0.930  57.723  1.00  0.00     0.042 C 
BRANCH   2   3
ATOM      3  C   UNL     1      12.790  -0.335  56.679  1.00  0.00     0.045 C 
ATOM      4  O   UNL     1      12.308   0.824  56.830  1.00  0.00    -0.550 OA
ATOM      5  O   UNL     1      12.493  -1.039  55.507  1.00  0.00    -0.550 OA
ENDBRANCH   2   3
BRANCH   2   6
ATOM      6  C   UNL     1      13.023  -1.863  58.776  1.00  0.00     0.033 C 
ATOM      7  C   UNL     1      11.617  -2.346  58.370  1.00  0.00     0.119 C 
ATOM      8  C   UNL     1      12.930  -1.374  60.269  1.00  0.00    -0.017 C 
ATOM      9  C   UNL     1      10.847  -2.589  59.665  1.00  0.00     0.043 C 
ATOM     10  C   UNL     1      11.790  -2.302  60.869  1.00  0.00    -0.003 C 
ATOM     11  C   UNL     1      12.526   0.118  60.346  1.00  0.00     0.012 C 
ATOM     12  C   UNL     1      14.308  -1.534  60.991  1.00  0.00     0.013 C 
ATOM     13  C   UNL     1      12.378  -3.674  61.363  1.00  0.00     0.017 C 
ATOM     14  C   UNL     1      10.937  -1.647  61.993  1.00  0.00    -0.064 C 
ATOM     15  C   UNL     1      12.077   0.499  61.759  1.00  0.00     0.032 C 
ATOM     16  C   UNL     1      10.855  -0.303  62.127  1.00  0.00    -0.064 C 
ATOM     17  C   UNL     1       9.862  -2.475  62.658  1.00  0.00     0.032 C 
ATOM     18  C   UNL     1       9.495   0.430  62.245  1.00  0.00    -0.008 C 
ATOM     19  C   UNL     1       8.482  -1.939  62.330  1.00  0.00     0.009 C 
ATOM     20  C   UNL     1       8.380  -0.495  62.851  1.00  0.00     0.009 C 
ATOM     21  C   UNL     1       9.606   1.705  63.147  1.00  0.00     0.015 C 
ATOM     22  C   UNL     1       9.185   0.887  60.793  1.00  0.00     0.016 C 
ATOM     23  C   UNL     1       6.923   0.128  62.854  1.00  0.00     0.005 C 
ATOM     24  C   UNL     1       8.318   2.041  63.936  1.00  0.00     0.047 C 
ATOM     25  C   UNL     1       6.986   1.662  63.220  1.00  0.00     0.182 C 
ATOM     26  C   UNL     1       6.163  -0.103  61.519  1.00  0.00     0.015 C 
ATOM     27  C   UNL     1       6.085  -0.584  63.941  1.00  0.00     0.015 C 
BRANCH   7  28
ATOM     28  O   UNL     1      11.669  -3.498  57.556  1.00  0.00    -0.393 OA
ATOM     29  H   UNL     1      12.534  -3.954  57.697  1.00  0.00     0.210 HD
ENDBRANCH   7  28
BRANCH  25  30
ATOM     30  O   UNL     1       6.783   2.492  62.074  1.00  0.00    -0.462 OA
BRANCH  30  31
ATOM     31  C   UNL     1       6.888   3.888  62.125  1.00  0.00     0.302 C 
ATOM     32  O   UNL     1       7.743   4.471  61.399  1.00  0.00    -0.253 OA
ATOM     33  C   UNL     1       5.967   4.678  62.991  1.00  0.00     0.139 C 
ENDBRANCH  30  31
ENDBRANCH  25  30
ENDBRANCH   2   6
ENDBRANCH   1   2
BRANCH   1  34
ATOM     34  C   UNL     1      15.075  -3.146  57.373  1.00  0.00     0.031 C 
BRANCH  34  35
ATOM     35  C   UNL     1      16.235  -3.339  58.355  1.00  0.00    -0.075 C 
ATOM     36  C   UNL     1      16.268  -4.347  59.258  1.00  0.00     0.008 C 
BRANCH  35  37
ATOM     37  C   UNL     1      17.389  -2.341  58.282  1.00  0.00     0.008 C 
ATOM     38  C   UNL     1      18.629  -2.933  57.596  1.00  0.00     0.012 C 
ATOM     39  C   UNL     1      17.739  -1.803  59.674  1.00  0.00     0.012 C 
ENDBRANCH  35  37
ENDBRANCH  34  35
ENDBRANCH   1  34
TORSDOF 9
ENDMDL
MODEL 8
REMARK VINA RESULT:    -7.799      2.720      8.651
REMARK INTER + INTRA:         -13.506
REMARK INTER:                 -11.471
REMARK INTRA:                  -2.035
REMARK UNBOUND:                -1.831
REMARK SMILES C=C(CC[C@@H](C(=O)[O-])[C@@H]1[C@@H](O)C[C@]2(C)C3=C(CC[C@]12C)[C@]1(C)CC[C@@H](OC(C)=O)C(C)(C)[C@H]1CC3)C(C)C
REMARK SMILES IDX 4 1 5 2 6 3 7 4 8 5 9 6 10 7 19 8 12 9 13 10 18 11 20 12
REMARK SMILES IDX 14 13 15 14 17 15 16 16 35 17 21 18 34 19 33 20 23 21 22 22
REMARK SMILES IDX 30 23 24 24 25 25 31 26 32 27 11 28 26 30 27 31 29 32 28 33
REMARK SMILES IDX 3 34 2 35 1 36 36 37 37 38 38 39
REMARK H PARENT 11 29
REMARK Flexibility Score: inf
ROOT
ATOM      1  C   UNL     1      11.725  -3.576  60.460  1.00  0.00     0.014 C 
ENDROOT
BRANCH   1   2
ATOM      2  C   UNL     1      12.142  -4.737  61.392  1.00  0.00     0.042 C 
BRANCH   2   3
ATOM      3  C   UNL     1      11.216  -4.681  62.598  1.00  0.00     0.045 C 
ATOM      4  O   UNL     1      11.660  -4.893  63.763  1.00  0.00    -0.550 OA
ATOM      5  O   UNL     1       9.869  -4.338  62.444  1.00  0.00    -0.550 OA
ENDBRANCH   2   3
BRANCH   2   6
ATOM      6  C   UNL     1      12.141  -6.111  60.627  1.00  0.00     0.033 C 
ATOM      7  C   UNL     1      11.233  -7.190  61.248  1.00  0.00     0.119 C 
ATOM      8  C   UNL     1      13.523  -6.796  60.311  1.00  0.00    -0.017 C 
ATOM      9  C   UNL     1      11.846  -8.540  60.885  1.00  0.00     0.043 C 
ATOM     10  C   UNL     1      13.105  -8.296  60.003  1.00  0.00    -0.003 C 
ATOM     11  C   UNL     1      14.475  -6.727  61.529  1.00  0.00     0.012 C 
ATOM     12  C   UNL     1      14.230  -6.086  59.110  1.00  0.00     0.013 C 
ATOM     13  C   UNL     1      12.684  -8.469  58.498  1.00  0.00     0.017 C 
ATOM     14  C   UNL     1      14.168  -9.364  60.389  1.00  0.00    -0.064 C 
ATOM     15  C   UNL     1      15.652  -7.692  61.370  1.00  0.00     0.032 C 
ATOM     16  C   UNL     1      15.131  -9.105  61.303  1.00  0.00    -0.064 C 
ATOM     17  C   UNL     1      13.875 -10.815  60.083  1.00  0.00     0.032 C 
ATOM     18  C   UNL     1      15.411 -10.056  62.495  1.00  0.00    -0.008 C 
ATOM     19  C   UNL     1      13.699 -11.615  61.361  1.00  0.00     0.009 C 
ATOM     20  C   UNL     1      15.004 -11.538  62.171  1.00  0.00     0.009 C 
ATOM     21  C   UNL     1      16.925 -10.047  62.893  1.00  0.00     0.015 C 
ATOM     22  C   UNL     1      14.597  -9.442  63.666  1.00  0.00     0.016 C 
ATOM     23  C   UNL     1      15.108 -12.541  63.393  1.00  0.00     0.005 C 
ATOM     24  C   UNL     1      17.444 -11.394  63.452  1.00  0.00     0.047 C 
ATOM     25  C   UNL     1      16.395 -12.226  64.251  1.00  0.00     0.182 C 
ATOM     26  C   UNL     1      13.830 -12.554  64.277  1.00  0.00     0.015 C 
ATOM     27  C   UNL     1      15.248 -13.978  62.840  1.00  0.00     0.015 C 
BRANCH   7  28
ATOM     28  O   UNL     1       9.898  -7.074  60.804  1.00  0.00    -0.393 OA
ATOM     29  H   UNL     1       9.889  -7.013  59.818  1.00  0.00     0.210 HD
ENDBRANCH   7  28
BRANCH  25  30
ATOM     30  O   UNL     1      16.070 -11.570  65.479  1.00  0.00    -0.462 OA
BRANCH  30  31
ATOM     31  C   UNL     1      17.013 -11.352  66.491  1.00  0.00     0.302 C 
ATOM     32  O   UNL     1      17.623 -12.339  66.991  1.00  0.00    -0.253 OA
ATOM     33  C   UNL     1      17.325  -9.965  66.938  1.00  0.00     0.139 C 
ENDBRANCH  30  31
ENDBRANCH  25  30
ENDBRANCH   2   6
ENDBRANCH   1   2
BRANCH   1  34
ATOM     34  C   UNL     1      12.865  -2.694  59.921  1.00  0.00     0.031 C 
BRANCH  34  35
ATOM     35  C   UNL     1      13.509  -1.771  60.961  1.00  0.00    -0.075 C 
ATOM     36  C   UNL     1      12.784  -1.070  61.864  1.00  0.00     0.008 C 
BRANCH  35  37
ATOM     37  C   UNL     1      15.032  -1.665  60.957  1.00  0.00     0.008 C 
ATOM     38  C   UNL     1      15.522  -0.316  60.411  1.00  0.00     0.012 C 
ATOM     39  C   UNL     1      15.660  -2.829  60.183  1.00  0.00     0.012 C 
ENDBRANCH  35  37
ENDBRANCH  34  35
ENDBRANCH   1  34
TORSDOF 9
ENDMDL
MODEL 9
REMARK VINA RESULT:    -7.797      6.370      9.593
REMARK INTER + INTRA:         -13.502
REMARK INTER:                 -11.927
REMARK INTRA:                  -1.576
REMARK UNBOUND:                -1.831
REMARK SMILES C=C(CC[C@@H](C(=O)[O-])[C@@H]1[C@@H](O)C[C@]2(C)C3=C(CC[C@]12C)[C@]1(C)CC[C@@H](OC(C)=O)C(C)(C)[C@H]1CC3)C(C)C
REMARK SMILES IDX 4 1 5 2 6 3 7 4 8 5 9 6 10 7 19 8 12 9 13 10 18 11 20 12
REMARK SMILES IDX 14 13 15 14 17 15 16 16 35 17 21 18 34 19 33 20 23 21 22 22
REMARK SMILES IDX 30 23 24 24 25 25 31 26 32 27 11 28 26 30 27 31 29 32 28 33
REMARK SMILES IDX 3 34 2 35 1 36 36 37 37 38 38 39
REMARK H PARENT 11 29
REMARK Flexibility Score: inf
ROOT
ATOM      1  C   UNL     1       8.486 -10.238  55.871  1.00  0.00     0.014 C 
ENDROOT
BRANCH   1   2
ATOM      2  C   UNL     1       9.619 -10.707  56.813  1.00  0.00     0.042 C 
BRANCH   2   3
ATOM      3  C   UNL     1       9.551 -12.227  56.850  1.00  0.00     0.045 C 
ATOM      4  O   UNL     1       8.741 -12.818  57.620  1.00  0.00    -0.550 OA
ATOM      5  O   UNL     1      10.345 -12.995  55.992  1.00  0.00    -0.550 OA
ENDBRANCH   2   3
BRANCH   2   6
ATOM      6  C   UNL     1      11.010 -10.124  56.367  1.00  0.00     0.033 C 
ATOM      7  C   UNL     1      12.152 -10.345  57.377  1.00  0.00     0.119 C 
ATOM      8  C   UNL     1      11.082  -8.619  55.911  1.00  0.00    -0.017 C 
ATOM      9  C   UNL     1      13.140  -9.199  57.178  1.00  0.00     0.043 C 
ATOM     10  C   UNL     1      12.632  -8.297  56.016  1.00  0.00    -0.003 C 
ATOM     11  C   UNL     1      10.262  -7.707  56.856  1.00  0.00     0.012 C 
ATOM     12  C   UNL     1      10.506  -8.450  54.467  1.00  0.00     0.013 C 
ATOM     13  C   UNL     1      13.389  -8.722  54.705  1.00  0.00     0.017 C 
ATOM     14  C   UNL     1      12.972  -6.823  56.379  1.00  0.00    -0.064 C 
ATOM     15  C   UNL     1      10.619  -6.233  56.652  1.00  0.00     0.032 C 
ATOM     16  C   UNL     1      12.072  -6.020  56.991  1.00  0.00    -0.064 C 
ATOM     17  C   UNL     1      14.425  -6.415  56.449  1.00  0.00     0.032 C 
ATOM     18  C   UNL     1      12.425  -5.211  58.266  1.00  0.00    -0.008 C 
ATOM     19  C   UNL     1      14.824  -6.069  57.872  1.00  0.00     0.009 C 
ATOM     20  C   UNL     1      13.960  -4.890  58.350  1.00  0.00     0.009 C 
ATOM     21  C   UNL     1      11.644  -3.855  58.320  1.00  0.00     0.015 C 
ATOM     22  C   UNL     1      11.925  -6.107  59.431  1.00  0.00     0.016 C 
ATOM     23  C   UNL     1      14.426  -4.208  59.703  1.00  0.00     0.005 C 
ATOM     24  C   UNL     1      12.410  -2.708  59.021  1.00  0.00     0.047 C 
ATOM     25  C   UNL     1      13.352  -3.154  60.181  1.00  0.00     0.182 C 
ATOM     26  C   UNL     1      14.744  -5.237  60.822  1.00  0.00     0.015 C 
ATOM     27  C   UNL     1      15.749  -3.451  59.442  1.00  0.00     0.015 C 
BRANCH   7  28
ATOM     28  O   UNL     1      12.761 -11.609  57.215  1.00  0.00    -0.393 OA
ATOM     29  H   UNL     1      12.059 -12.291  57.082  1.00  0.00     0.210 HD
ENDBRANCH   7  28
BRANCH  25  30
ATOM     30  O   UNL     1      12.587  -3.637  61.287  1.00  0.00    -0.462 OA
BRANCH  30  31
ATOM     31  C   UNL     1      11.955  -2.782  62.198  1.00  0.00     0.302 C 
ATOM     32  O   UNL     1      12.499  -1.679  62.492  1.00  0.00    -0.253 OA
ATOM     33  C   UNL     1      10.632  -3.150  62.779  1.00  0.00     0.139 C 
ENDBRANCH  30  31
ENDBRANCH  25  30
ENDBRANCH   2   6
ENDBRANCH   1   2
BRANCH   1  34
ATOM     34  C   UNL     1       7.110 -10.015  56.524  1.00  0.00     0.031 C 
BRANCH  34  35
ATOM     35  C   UNL     1       6.944  -8.662  57.224  1.00  0.00    -0.075 C 
ATOM     36  C   UNL     1       6.617  -7.530  56.557  1.00  0.00     0.008 C 
BRANCH  35  37
ATOM     37  C   UNL     1       7.153  -8.625  58.736  1.00  0.00     0.008 C 
ATOM     38  C   UNL     1       5.944  -9.175  59.507  1.00  0.00     0.012 C 
ATOM     39  C   UNL     1       7.504  -7.209  59.206  1.00  0.00     0.012 C 
ENDBRANCH  35  37
ENDBRANCH  34  35
ENDBRANCH   1  34
TORSDOF 9
ENDMDL
