MODEL 1
REMARK VINA RESULT:    -3.260      0.000      0.000
REMARK INTER + INTRA:          -5.227
REMARK INTER:                  -4.975
REMARK INTRA:                  -0.252
REMARK UNBOUND:                -0.252
REMARK SMILES CC1=CCC[C@@H](C)C(=O)C[C@H](C(C)C)C(=O)C1
REMARK SMILES IDX 8 1 9 2 6 3 7 4 5 5 4 6 3 7 2 8 1 9 10 11 11 12 15 13 16 14
REMARK SMILES IDX 17 15 12 17 13 18 14 19
REMARK H PARENT
REMARK Flexibility Score: 70.00
ROOT
ATOM      1  C   UNL     1      66.782  67.604  41.342  1.00  0.00     0.136 C 
ATOM      2  O   UNL     1      66.185  67.477  42.401  1.00  0.00    -0.299 OA
ENDROOT
BRANCH   1   3
ATOM      3  C   UNL     1      66.172  67.063  40.063  1.00  0.00     0.053 C 
ATOM      4  C   UNL     1      64.661  67.332  40.077  1.00  0.00     0.016 C 
BRANCH   3   5
ATOM      5  C   UNL     1      66.445  65.553  39.860  1.00  0.00     0.015 C 
BRANCH   5   6
ATOM      6  C   UNL     1      67.494  65.251  38.774  1.00  0.00     0.028 C 
BRANCH   6   7
ATOM      7  C   UNL     1      68.695  64.544  39.360  1.00  0.00    -0.028 C 
ATOM      8  C   UNL     1      69.837  65.141  39.772  1.00  0.00    -0.070 CG0
ATOM      9  C   UNL     1      70.921  64.268  40.359  1.00  0.00     0.039 C 
ATOM     10  G   UNL     1      70.079  66.633  39.651  1.00  0.00     0.000 G0
ENDBRANCH   6   7
ENDBRANCH   5   6
ENDBRANCH   3   5
ENDBRANCH   1   3
BRANCH   1  11
ATOM     11  C   UNL     1      68.089  68.356  41.320  1.00  0.00     0.087 C 
BRANCH  11  12
ATOM     12  C   UNL     1      69.235  67.562  42.001  1.00  0.00     0.066 C 
BRANCH  12  13
ATOM     13  C   UNL     1      70.342  67.311  40.984  1.00  0.00     0.140 C 
ATOM     14  O   UNL     1      71.492  67.606  41.271  1.00  0.00    -0.299 OA
BRANCH  13  15
ATOM     15  C   UNL     1      70.066  66.655  39.655  1.00  0.00     0.106 CG0
ATOM     16  G   UNL     1      69.843  65.160  39.776  1.00  0.00     0.000 G0
ENDBRANCH  13  15
ENDBRANCH  12  13
BRANCH  12  17
ATOM     17  C   UNL     1      69.807  68.298  43.258  1.00  0.00    -0.006 C 
ATOM     18  C   UNL     1      69.088  69.631  43.534  1.00  0.00     0.008 C 
ATOM     19  C   UNL     1      69.705  67.408  44.512  1.00  0.00     0.008 C 
ENDBRANCH  12  17
ENDBRANCH  11  12
ENDBRANCH   1  11
TORSDOF 1
ENDMDL
MODEL 2
REMARK VINA RESULT:    -3.047      9.792     11.756
REMARK INTER + INTRA:          -4.902
REMARK INTER:                  -5.047
REMARK INTRA:                   0.145
REMARK UNBOUND:                -0.252
REMARK SMILES CC1=CCC[C@@H](C)C(=O)C[C@H](C(C)C)C(=O)C1
REMARK SMILES IDX 8 1 9 2 6 3 7 4 5 5 4 6 3 7 2 8 1 9 10 11 11 12 15 13 16 14
REMARK SMILES IDX 17 15 12 17 13 18 14 19
REMARK H PARENT
REMARK Flexibility Score: 70.00
ROOT
ATOM      1  C   UNL     1      68.804  66.040  31.486  1.00  0.00     0.136 C 
ATOM      2  O   UNL     1      69.872  65.718  31.985  1.00  0.00    -0.299 OA
ENDROOT
BRANCH   1   3
ATOM      3  C   UNL     1      67.767  66.760  32.326  1.00  0.00     0.053 C 
ATOM      4  C   UNL     1      66.394  66.121  32.081  1.00  0.00     0.016 C 
BRANCH   3   5
ATOM      5  C   UNL     1      67.709  68.280  32.035  1.00  0.00     0.015 C 
BRANCH   5   6
ATOM      6  C   UNL     1      69.050  69.007  32.254  1.00  0.00     0.028 C 
BRANCH   6   7
ATOM      7  C   UNL     1      69.348  69.951  31.112  1.00  0.00    -0.028 C 
ATOM      8  C   UNL     1      70.124  69.671  30.040  1.00  0.00    -0.070 CG0
ATOM      9  C   UNL     1      70.284  70.739  28.984  1.00  0.00     0.039 C 
ATOM     10  G   UNL     1      70.849  68.351  29.868  1.00  0.00     0.000 G0
ENDBRANCH   6   7
ENDBRANCH   5   6
ENDBRANCH   3   5
ENDBRANCH   1   3
BRANCH   1  11
ATOM     11  C   UNL     1      68.564  65.770  30.022  1.00  0.00     0.087 C 
BRANCH  11  12
ATOM     12  C   UNL     1      68.646  67.061  29.165  1.00  0.00     0.066 C 
BRANCH  12  13
ATOM     13  C   UNL     1      70.110  67.411  28.928  1.00  0.00     0.140 C 
ATOM     14  O   UNL     1      70.681  66.951  27.950  1.00  0.00    -0.299 OA
BRANCH  13  15
ATOM     15  C   UNL     1      70.860  68.354  29.834  1.00  0.00     0.106 CG0
ATOM     16  G   UNL     1      70.138  69.673  30.030  1.00  0.00     0.000 G0
ENDBRANCH  13  15
ENDBRANCH  12  13
BRANCH  12  17
ATOM     17  C   UNL     1      67.891  66.922  27.802  1.00  0.00    -0.006 C 
ATOM     18  C   UNL     1      66.415  66.522  27.987  1.00  0.00     0.008 C 
ATOM     19  C   UNL     1      67.954  68.236  27.000  1.00  0.00     0.008 C 
ENDBRANCH  12  17
ENDBRANCH  11  12
ENDBRANCH   1  11
TORSDOF 1
ENDMDL
MODEL 3
REMARK VINA RESULT:    -3.036      9.573     10.942
REMARK INTER + INTRA:          -4.885
REMARK INTER:                  -5.018
REMARK INTRA:                   0.133
REMARK UNBOUND:                -0.252
REMARK SMILES CC1=CCC[C@@H](C)C(=O)C[C@H](C(C)C)C(=O)C1
REMARK SMILES IDX 8 1 9 2 6 3 7 4 5 5 4 6 3 7 2 8 1 9 10 11 11 12 15 13 16 14
REMARK SMILES IDX 17 15 12 17 13 18 14 19
REMARK H PARENT
REMARK Flexibility Score: 70.00
ROOT
ATOM      1  C   UNL     1      68.730  68.165  32.352  1.00  0.00     0.136 C 
ATOM      2  O   UNL     1      69.750  68.138  33.025  1.00  0.00    -0.299 OA
ENDROOT
BRANCH   1   3
ATOM      3  C   UNL     1      67.558  67.275  32.723  1.00  0.00     0.053 C 
ATOM      4  C   UNL     1      67.896  66.516  34.013  1.00  0.00     0.016 C 
BRANCH   3   5
ATOM      5  C   UNL     1      67.181  66.280  31.599  1.00  0.00     0.015 C 
BRANCH   5   6
ATOM      6  C   UNL     1      68.375  65.842  30.729  1.00  0.00     0.028 C 
BRANCH   6   7
ATOM      7  C   UNL     1      68.153  66.208  29.279  1.00  0.00    -0.028 C 
ATOM      8  C   UNL     1      69.006  66.920  28.507  1.00  0.00    -0.070 CG0
ATOM      9  C   UNL     1      68.621  67.163  27.067  1.00  0.00     0.039 C 
ATOM     10  G   UNL     1      70.308  67.495  29.029  1.00  0.00     0.000 G0
ENDBRANCH   6   7
ENDBRANCH   5   6
ENDBRANCH   3   5
ENDBRANCH   1   3
BRANCH   1  11
ATOM     11  C   UNL     1      68.634  69.132  31.199  1.00  0.00     0.087 C 
BRANCH  11  12
ATOM     12  C   UNL     1      70.030  69.561  30.675  1.00  0.00     0.066 C 
BRANCH  12  13
ATOM     13  C   UNL     1      70.234  68.995  29.275  1.00  0.00     0.140 C 
ATOM     14  O   UNL     1      70.384  69.764  28.337  1.00  0.00    -0.299 OA
BRANCH  13  15
ATOM     15  C   UNL     1      70.313  67.510  29.021  1.00  0.00     0.106 CG0
ATOM     16  G   UNL     1      69.007  66.935  28.508  1.00  0.00     0.000 G0
ENDBRANCH  13  15
ENDBRANCH  12  13
BRANCH  12  17
ATOM     17  C   UNL     1      70.212  71.115  30.666  1.00  0.00    -0.006 C 
ATOM     18  C   UNL     1      68.867  71.863  30.618  1.00  0.00     0.008 C 
ATOM     19  C   UNL     1      71.000  71.586  31.904  1.00  0.00     0.008 C 
ENDBRANCH  12  17
ENDBRANCH  11  12
ENDBRANCH   1  11
TORSDOF 1
ENDMDL
MODEL 4
REMARK VINA RESULT:    -3.019     10.726     12.508
REMARK INTER + INTRA:          -4.859
REMARK INTER:                  -4.837
REMARK INTRA:                  -0.022
REMARK UNBOUND:                -0.252
REMARK SMILES CC1=CCC[C@@H](C)C(=O)C[C@H](C(C)C)C(=O)C1
REMARK SMILES IDX 8 1 9 2 6 3 7 4 5 5 4 6 3 7 2 8 1 9 10 11 11 12 15 13 16 14
REMARK SMILES IDX 17 15 12 17 13 18 14 19
REMARK H PARENT
REMARK Flexibility Score: 70.00
ROOT
ATOM      1  C   UNL     1      70.479  68.572  31.590  1.00  0.00     0.136 C 
ATOM      2  O   UNL     1      71.535  68.999  32.030  1.00  0.00    -0.299 OA
ENDROOT
BRANCH   1   3
ATOM      3  C   UNL     1      69.166  69.104  32.131  1.00  0.00     0.053 C 
ATOM      4  C   UNL     1      68.178  67.939  32.281  1.00  0.00     0.016 C 
BRANCH   3   5
ATOM      5  C   UNL     1      68.554  70.212  31.240  1.00  0.00     0.015 C 
BRANCH   5   6
ATOM      6  C   UNL     1      69.513  71.385  30.960  1.00  0.00     0.028 C 
BRANCH   6   7
ATOM      7  C   UNL     1      69.488  71.770  29.499  1.00  0.00    -0.028 C 
ATOM      8  C   UNL     1      70.340  71.318  28.550  1.00  0.00    -0.070 CG0
ATOM      9  C   UNL     1      70.140  71.797  27.132  1.00  0.00     0.039 C 
ATOM     10  G   UNL     1      71.489  70.375  28.853  1.00  0.00     0.000 G0
ENDBRANCH   6   7
ENDBRANCH   5   6
ENDBRANCH   3   5
ENDBRANCH   1   3
BRANCH   1  11
ATOM     11  C   UNL     1      70.503  67.566  30.466  1.00  0.00     0.087 C 
BRANCH  11  12
ATOM     12  C   UNL     1      70.014  68.172  29.124  1.00  0.00     0.066 C 
BRANCH  12  13
ATOM     13  C   UNL     1      71.164  68.927  28.469  1.00  0.00     0.140 C 
ATOM     14  O   UNL     1      71.809  68.381  27.587  1.00  0.00    -0.299 OA
BRANCH  13  15
ATOM     15  C   UNL     1      71.493  70.352  28.838  1.00  0.00     0.106 CG0
ATOM     16  G   UNL     1      70.351  71.308  28.552  1.00  0.00     0.000 G0
ENDBRANCH  13  15
ENDBRANCH  12  13
BRANCH  12  17
ATOM     17  C   UNL     1      69.449  67.086  28.150  1.00  0.00    -0.006 C 
ATOM     18  C   UNL     1      68.976  65.822  28.890  1.00  0.00     0.008 C 
ATOM     19  C   UNL     1      68.277  67.645  27.320  1.00  0.00     0.008 C 
ENDBRANCH  12  17
ENDBRANCH  11  12
ENDBRANCH   1  11
TORSDOF 1
ENDMDL
MODEL 5
REMARK VINA RESULT:    -2.965      1.879      3.901
REMARK INTER + INTRA:          -4.776
REMARK INTER:                  -4.474
REMARK INTRA:                  -0.302
REMARK UNBOUND:                -0.252
REMARK SMILES CC1=CCC[C@@H](C)C(=O)C[C@H](C(C)C)C(=O)C1
REMARK SMILES IDX 8 1 9 2 6 3 7 4 5 5 4 6 3 7 2 8 1 9 10 11 11 12 15 13 16 14
REMARK SMILES IDX 17 15 12 17 13 18 14 19
REMARK H PARENT
REMARK Flexibility Score: 70.00
ROOT
ATOM      1  C   UNL     1      67.125  66.927  39.421  1.00  0.00     0.136 C 
ATOM      2  O   UNL     1      66.899  67.588  38.418  1.00  0.00    -0.299 OA
ENDROOT
BRANCH   1   3
ATOM      3  C   UNL     1      66.118  66.908  40.555  1.00  0.00     0.053 C 
ATOM      4  C   UNL     1      64.733  67.269  39.999  1.00  0.00     0.016 C 
BRANCH   3   5
ATOM      5  C   UNL     1      66.497  67.866  41.710  1.00  0.00     0.015 C 
BRANCH   5   6
ATOM      6  C   UNL     1      67.180  67.167  42.900  1.00  0.00     0.028 C 
BRANCH   6   7
ATOM      7  C   UNL     1      68.480  67.852  43.259  1.00  0.00    -0.028 C 
ATOM      8  C   UNL     1      69.717  67.420  42.922  1.00  0.00    -0.070 CG0
ATOM      9  C   UNL     1      70.899  68.256  43.350  1.00  0.00     0.039 C 
ATOM     10  G   UNL     1      69.963  66.133  42.158  1.00  0.00     0.000 G0
ENDBRANCH   6   7
ENDBRANCH   5   6
ENDBRANCH   3   5
ENDBRANCH   1   3
BRANCH   1  11
ATOM     11  C   UNL     1      68.377  66.089  39.483  1.00  0.00     0.087 C 
BRANCH  11  12
ATOM     12  C   UNL     1      69.655  66.952  39.658  1.00  0.00     0.066 C 
BRANCH  12  13
ATOM     13  C   UNL     1      70.515  66.353  40.763  1.00  0.00     0.140 C 
ATOM     14  O   UNL     1      71.687  66.094  40.531  1.00  0.00    -0.299 OA
BRANCH  13  15
ATOM     15  C   UNL     1      69.978  66.123  42.153  1.00  0.00     0.106 CG0
ATOM     16  G   UNL     1      69.735  67.416  42.906  1.00  0.00     0.000 G0
ENDBRANCH  13  15
ENDBRANCH  12  13
BRANCH  12  17
ATOM     17  C   UNL     1      70.477  67.076  38.333  1.00  0.00    -0.006 C 
ATOM     18  C   UNL     1      69.973  66.118  37.237  1.00  0.00     0.008 C 
ATOM     19  C   UNL     1      70.437  68.518  37.791  1.00  0.00     0.008 C 
ENDBRANCH  12  17
ENDBRANCH  11  12
ENDBRANCH   1  11
TORSDOF 1
ENDMDL
MODEL 6
REMARK VINA RESULT:    -2.813      1.769      2.514
REMARK INTER + INTRA:          -4.546
REMARK INTER:                  -4.226
REMARK INTRA:                  -0.320
REMARK UNBOUND:                -0.252
REMARK SMILES CC1=CCC[C@@H](C)C(=O)C[C@H](C(C)C)C(=O)C1
REMARK SMILES IDX 8 1 9 2 6 3 7 4 5 5 4 6 3 7 2 8 1 9 10 11 11 12 15 13 16 14
REMARK SMILES IDX 17 15 12 17 13 18 14 19
REMARK H PARENT
REMARK Flexibility Score: 70.00
ROOT
ATOM      1  C   UNL     1      67.968  68.954  42.500  1.00  0.00     0.136 C 
ATOM      2  O   UNL     1      68.051  69.819  43.358  1.00  0.00    -0.299 OA
ENDROOT
BRANCH   1   3
ATOM      3  C   UNL     1      67.014  67.790  42.693  1.00  0.00     0.053 C 
ATOM      4  C   UNL     1      67.782  66.612  43.309  1.00  0.00     0.016 C 
BRANCH   3   5
ATOM      5  C   UNL     1      66.329  67.351  41.376  1.00  0.00     0.015 C 
BRANCH   5   6
ATOM      6  C   UNL     1      66.905  66.055  40.776  1.00  0.00     0.028 C 
BRANCH   6   7
ATOM      7  C   UNL     1      67.246  66.238  39.315  1.00  0.00    -0.028 C 
ATOM      8  C   UNL     1      68.495  66.303  38.800  1.00  0.00    -0.070 CG0
ATOM      9  C   UNL     1      68.637  66.463  37.304  1.00  0.00     0.039 C 
ATOM     10  G   UNL     1      69.746  66.245  39.656  1.00  0.00     0.000 G0
ENDBRANCH   6   7
ENDBRANCH   5   6
ENDBRANCH   3   5
ENDBRANCH   1   3
BRANCH   1  11
ATOM     11  C   UNL     1      68.771  69.095  41.231  1.00  0.00     0.087 C 
BRANCH  11  12
ATOM     12  C   UNL     1      70.106  68.305  41.290  1.00  0.00     0.066 C 
BRANCH  12  13
ATOM     13  C   UNL     1      70.337  67.615  39.952  1.00  0.00     0.140 C 
ATOM     14  O   UNL     1      71.044  68.158  39.116  1.00  0.00    -0.299 OA
BRANCH  13  15
ATOM     15  C   UNL     1      69.764  66.253  39.650  1.00  0.00     0.106 CG0
ATOM     16  G   UNL     1      68.497  66.323  38.819  1.00  0.00     0.000 G0
ENDBRANCH  13  15
ENDBRANCH  12  13
BRANCH  12  17
ATOM     17  C   UNL     1      71.324  69.218  41.650  1.00  0.00    -0.006 C 
ATOM     18  C   UNL     1      71.049  70.705  41.361  1.00  0.00     0.008 C 
ATOM     19  C   UNL     1      71.711  69.063  43.134  1.00  0.00     0.008 C 
ENDBRANCH  12  17
ENDBRANCH  11  12
ENDBRANCH   1  11
TORSDOF 1
ENDMDL
MODEL 7
REMARK VINA RESULT:    -2.662      1.863      4.522
REMARK INTER + INTRA:          -4.314
REMARK INTER:                  -4.253
REMARK INTRA:                  -0.061
REMARK UNBOUND:                -0.252
REMARK SMILES CC1=CCC[C@@H](C)C(=O)C[C@H](C(C)C)C(=O)C1
REMARK SMILES IDX 8 1 9 2 6 3 7 4 5 5 4 6 3 7 2 8 1 9 10 11 11 12 15 13 16 14
REMARK SMILES IDX 17 15 12 17 13 18 14 19
REMARK H PARENT
REMARK Flexibility Score: 70.00
ROOT
ATOM      1  C   UNL     1      68.237  66.919  42.575  1.00  0.00     0.136 C 
ATOM      2  O   UNL     1      67.221  67.238  43.176  1.00  0.00    -0.299 OA
ENDROOT
BRANCH   1   3
ATOM      3  C   UNL     1      69.596  67.246  43.165  1.00  0.00     0.053 C 
ATOM      4  C   UNL     1      69.548  67.028  44.683  1.00  0.00     0.016 C 
BRANCH   3   5
ATOM      5  C   UNL     1      70.056  68.689  42.846  1.00  0.00     0.015 C 
BRANCH   5   6
ATOM      6  C   UNL     1      71.354  68.761  42.020  1.00  0.00     0.028 C 
BRANCH   6   7
ATOM      7  C   UNL     1      71.114  69.435  40.688  1.00  0.00    -0.028 C 
ATOM      8  C   UNL     1      70.639  68.832  39.575  1.00  0.00    -0.070 CG0
ATOM      9  C   UNL     1      70.440  69.680  38.341  1.00  0.00     0.039 C 
ATOM     10  G   UNL     1      70.321  67.350  39.509  1.00  0.00     0.000 G0
ENDBRANCH   6   7
ENDBRANCH   5   6
ENDBRANCH   3   5
ENDBRANCH   1   3
BRANCH   1  11
ATOM     11  C   UNL     1      68.117  66.147  41.286  1.00  0.00     0.087 C 
BRANCH  11  12
ATOM     12  C   UNL     1      67.752  67.060  40.086  1.00  0.00     0.066 C 
BRANCH  12  13
ATOM     13  C   UNL     1      68.903  67.059  39.088  1.00  0.00     0.140 C 
ATOM     14  O   UNL     1      68.666  66.871  37.904  1.00  0.00    -0.299 OA
BRANCH  13  15
ATOM     15  C   UNL     1      70.323  67.340  39.512  1.00  0.00     0.106 CG0
ATOM     16  G   UNL     1      70.631  68.824  39.573  1.00  0.00     0.000 G0
ENDBRANCH  13  15
ENDBRANCH  12  13
BRANCH  12  17
ATOM     17  C   UNL     1      66.423  66.621  39.385  1.00  0.00    -0.006 C 
ATOM     18  C   UNL     1      66.238  65.092  39.383  1.00  0.00     0.008 C 
ATOM     19  C   UNL     1      65.201  67.270  40.063  1.00  0.00     0.008 C 
ENDBRANCH  12  17
ENDBRANCH  11  12
ENDBRANCH   1  11
TORSDOF 1
ENDMDL
MODEL 8
REMARK VINA RESULT:    -2.567      1.658      3.968
REMARK INTER + INTRA:          -4.170
REMARK INTER:                  -4.397
REMARK INTRA:                   0.227
REMARK UNBOUND:                -0.252
REMARK SMILES CC1=CCC[C@@H](C)C(=O)C[C@H](C(C)C)C(=O)C1
REMARK SMILES IDX 8 1 9 2 6 3 7 4 5 5 4 6 3 7 2 8 1 9 10 11 11 12 15 13 16 14
REMARK SMILES IDX 17 15 12 17 13 18 14 19
REMARK H PARENT
REMARK Flexibility Score: 70.00
ROOT
ATOM      1  C   UNL     1      67.561  66.187  42.058  1.00  0.00     0.136 C 
ATOM      2  O   UNL     1      68.150  66.223  43.128  1.00  0.00    -0.299 OA
ENDROOT
BRANCH   1   3
ATOM      3  C   UNL     1      66.533  67.252  41.727  1.00  0.00     0.053 C 
ATOM      4  C   UNL     1      65.936  66.957  40.345  1.00  0.00     0.016 C 
BRANCH   3   5
ATOM      5  C   UNL     1      67.120  68.683  41.761  1.00  0.00     0.015 C 
BRANCH   5   6
ATOM      6  C   UNL     1      68.405  68.850  40.929  1.00  0.00     0.028 C 
BRANCH   6   7
ATOM      7  C   UNL     1      69.630  68.858  41.815  1.00  0.00    -0.028 C 
ATOM      8  C   UNL     1      70.767  68.161  41.594  1.00  0.00    -0.070 CG0
ATOM      9  C   UNL     1      71.898  68.319  42.582  1.00  0.00     0.039 C 
ATOM     10  G   UNL     1      70.944  67.220  40.417  1.00  0.00     0.000 G0
ENDBRANCH   6   7
ENDBRANCH   5   6
ENDBRANCH   3   5
ENDBRANCH   1   3
BRANCH   1  11
ATOM     11  C   UNL     1      67.917  65.115  41.058  1.00  0.00     0.087 C 
BRANCH  11  12
ATOM     12  C   UNL     1      68.888  65.632  39.964  1.00  0.00     0.066 C 
BRANCH  12  13
ATOM     13  C   UNL     1      70.249  65.905  40.592  1.00  0.00     0.140 C 
ATOM     14  O   UNL     1      70.804  65.015  41.219  1.00  0.00    -0.299 OA
BRANCH  13  15
ATOM     15  C   UNL     1      70.958  67.224  40.413  1.00  0.00     0.106 CG0
ATOM     16  G   UNL     1      70.770  68.153  41.596  1.00  0.00     0.000 G0
ENDBRANCH  13  15
ENDBRANCH  12  13
BRANCH  12  17
ATOM     17  C   UNL     1      69.029  64.631  38.770  1.00  0.00    -0.006 C 
ATOM     18  C   UNL     1      67.678  64.019  38.354  1.00  0.00     0.008 C 
ATOM     19  C   UNL     1      69.662  65.319  37.545  1.00  0.00     0.008 C 
ENDBRANCH  12  17
ENDBRANCH  11  12
ENDBRANCH   1  11
TORSDOF 1
ENDMDL
MODEL 9
REMARK VINA RESULT:    -2.538      9.935     11.528
REMARK INTER + INTRA:          -4.126
REMARK INTER:                  -4.267
REMARK INTRA:                   0.141
REMARK UNBOUND:                -0.252
REMARK SMILES CC1=CCC[C@@H](C)C(=O)C[C@H](C(C)C)C(=O)C1
REMARK SMILES IDX 8 1 9 2 6 3 7 4 5 5 4 6 3 7 2 8 1 9 10 11 11 12 15 13 16 14
REMARK SMILES IDX 17 15 12 17 13 18 14 19
REMARK H PARENT
REMARK Flexibility Score: 70.00
ROOT
ATOM      1  C   UNL     1      68.721  69.031  31.802  1.00  0.00     0.136 C 
ATOM      2  O   UNL     1      67.640  68.745  32.296  1.00  0.00    -0.299 OA
ENDROOT
BRANCH   1   3
ATOM      3  C   UNL     1      70.001  68.692  32.540  1.00  0.00     0.053 C 
ATOM      4  C   UNL     1      70.896  69.938  32.589  1.00  0.00     0.016 C 
BRANCH   3   5
ATOM      5  C   UNL     1      70.767  67.508  31.900  1.00  0.00     0.015 C 
BRANCH   5   6
ATOM      6  C   UNL     1      70.042  66.155  32.029  1.00  0.00     0.028 C 
BRANCH   6   7
ATOM      7  C   UNL     1      70.135  65.365  30.744  1.00  0.00    -0.028 C 
ATOM      8  C   UNL     1      69.315  65.499  29.676  1.00  0.00    -0.070 CG0
ATOM      9  C   UNL     1      69.582  64.636  28.466  1.00  0.00     0.039 C 
ATOM     10  G   UNL     1      68.138  66.456  29.653  1.00  0.00     0.000 G0
ENDBRANCH   6   7
ENDBRANCH   5   6
ENDBRANCH   3   5
ENDBRANCH   1   3
BRANCH   1  11
ATOM     11  C   UNL     1      68.760  69.661  30.432  1.00  0.00     0.087 C 
BRANCH  11  12
ATOM     12  C   UNL     1      69.456  68.749  29.386  1.00  0.00     0.066 C 
BRANCH  12  13
ATOM     13  C   UNL     1      68.455  67.722  28.874  1.00  0.00     0.140 C 
ATOM     14  O   UNL     1      67.917  67.903  27.791  1.00  0.00    -0.299 OA
BRANCH  13  15
ATOM     15  C   UNL     1      68.151  66.458  29.638  1.00  0.00     0.106 CG0
ATOM     16  G   UNL     1      69.323  65.496  29.666  1.00  0.00     0.000 G0
ENDBRANCH  13  15
ENDBRANCH  12  13
BRANCH  12  17
ATOM     17  C   UNL     1      70.061  69.563  28.194  1.00  0.00    -0.006 C 
ATOM     18  C   UNL     1      70.663  70.906  28.646  1.00  0.00     0.008 C 
ATOM     19  C   UNL     1      71.148  68.749  27.466  1.00  0.00     0.008 C 
ENDBRANCH  12  17
ENDBRANCH  11  12
ENDBRANCH   1  11
TORSDOF 1
ENDMDL
