MODEL 1
REMARK VINA RESULT:    -6.677      0.000      0.000
REMARK INTER + INTRA:          -8.145
REMARK INTER:                  -7.848
REMARK INTRA:                  -0.297
REMARK UNBOUND:                -0.297
REMARK SMILES O=c1c(O)c(-c2ccc(O)cc2)oc2cc(O)cc(O)c12
REMARK SMILES IDX 5 1 3 2 2 3 1 4 21 5 19 6 18 7 16 8 15 9 14 10 13 11 6 12
REMARK SMILES IDX 7 13 8 14 9 15 12 16 11 17 10 18 4 20 20 22 17 24
REMARK H PARENT 10 19 4 21 20 23 17 25
REMARK Flexibility Score: inf
ROOT
ATOM      1  C   UNL     1      -0.840  25.094  28.447  1.00  0.00     0.180 A 
ATOM      2  C   UNL     1      -0.199  23.875  28.151  1.00  0.00     0.208 A 
ATOM      3  C   UNL     1       1.200  23.856  28.037  1.00  0.00     0.238 A 
ATOM      4  O   UNL     1       1.786  22.768  27.785  1.00  0.00    -0.285 OA
ATOM      5  C   UNL     1       1.930  25.051  28.200  1.00  0.00     0.111 A 
ATOM      6  C   UNL     1       3.340  25.118  28.097  1.00  0.00     0.134 A 
ATOM      7  C   UNL     1       3.992  26.349  28.264  1.00  0.00     0.093 A 
ATOM      8  C   UNL     1       3.265  27.511  28.528  1.00  0.00     0.123 A 
ATOM      9  C   UNL     1       1.871  27.452  28.630  1.00  0.00     0.094 A 
ATOM     10  C   UNL     1       1.202  26.235  28.470  1.00  0.00     0.146 A 
ATOM     11  O   UNL     1      -0.121  26.204  28.578  1.00  0.00    -0.452 OA
ENDROOT
BRANCH   1  12
ATOM     12  C   UNL     1      -2.310  25.192  28.601  1.00  0.00     0.021 A 
ATOM     13  C   UNL     1      -3.103  25.503  27.483  1.00  0.00     0.016 A 
ATOM     14  C   UNL     1      -4.490  25.623  27.610  1.00  0.00     0.047 A 
ATOM     15  C   UNL     1      -5.100  25.449  28.860  1.00  0.00     0.115 A 
ATOM     16  C   UNL     1      -2.928  25.040  29.855  1.00  0.00     0.016 A 
ATOM     17  C   UNL     1      -4.315  25.162  29.980  1.00  0.00     0.047 A 
BRANCH  15  18
ATOM     18  O   UNL     1      -6.481  25.567  28.998  1.00  0.00    -0.508 OA
ATOM     19  H   UNL     1      -6.985  26.364  28.626  1.00  0.00     0.293 HD
ENDBRANCH  15  18
ENDBRANCH   1  12
BRANCH   2  20
ATOM     20  O   UNL     1      -0.948  22.714  27.946  1.00  0.00    -0.502 OA
ATOM     21  H   UNL     1      -1.150  22.354  27.021  1.00  0.00     0.293 HD
ENDBRANCH   2  20
BRANCH   6  22
ATOM     22  O   UNL     1       4.096  23.975  27.833  1.00  0.00    -0.507 OA
ATOM     23  H   UNL     1       4.039  23.151  28.420  1.00  0.00     0.293 HD
ENDBRANCH   6  22
BRANCH   8  24
ATOM     24  O   UNL     1       3.936  28.720  28.687  1.00  0.00    -0.508 OA
ATOM     25  H   UNL     1       3.459  29.553  29.014  1.00  0.00     0.293 HD
ENDBRANCH   8  24
TORSDOF 5
ENDMDL
MODEL 2
REMARK VINA RESULT:    -6.259      2.625      6.706
REMARK INTER + INTRA:          -7.654
REMARK INTER:                  -7.359
REMARK INTRA:                  -0.294
REMARK UNBOUND:                -0.297
REMARK SMILES O=c1c(O)c(-c2ccc(O)cc2)oc2cc(O)cc(O)c12
REMARK SMILES IDX 5 1 3 2 2 3 1 4 21 5 19 6 18 7 16 8 15 9 14 10 13 11 6 12
REMARK SMILES IDX 7 13 8 14 9 15 12 16 11 17 10 18 4 20 20 22 17 24
REMARK H PARENT 10 19 4 21 20 23 17 25
REMARK Flexibility Score: inf
ROOT
ATOM      1  C   UNL     1       2.250  26.692  28.519  1.00  0.00     0.180 A 
ATOM      2  C   UNL     1       2.282  26.594  27.114  1.00  0.00     0.208 A 
ATOM      3  C   UNL     1       1.355  25.759  26.472  1.00  0.00     0.238 A 
ATOM      4  O   UNL     1       1.365  25.673  25.214  1.00  0.00    -0.285 OA
ATOM      5  C   UNL     1       0.429  25.023  27.240  1.00  0.00     0.111 A 
ATOM      6  C   UNL     1      -0.535  24.156  26.671  1.00  0.00     0.134 A 
ATOM      7  C   UNL     1      -1.415  23.451  27.505  1.00  0.00     0.093 A 
ATOM      8  C   UNL     1      -1.350  23.593  28.892  1.00  0.00     0.123 A 
ATOM      9  C   UNL     1      -0.400  24.448  29.461  1.00  0.00     0.094 A 
ATOM     10  C   UNL     1       0.485  25.162  28.647  1.00  0.00     0.146 A 
ATOM     11  O   UNL     1       1.374  25.971  29.212  1.00  0.00    -0.452 OA
ENDROOT
BRANCH   1  12
ATOM     12  C   UNL     1       3.182  27.565  29.268  1.00  0.00     0.021 A 
ATOM     13  C   UNL     1       4.416  27.050  29.700  1.00  0.00     0.016 A 
ATOM     14  C   UNL     1       5.302  27.849  30.429  1.00  0.00     0.047 A 
ATOM     15  C   UNL     1       4.958  29.170  30.748  1.00  0.00     0.115 A 
ATOM     16  C   UNL     1       2.836  28.885  29.610  1.00  0.00     0.016 A 
ATOM     17  C   UNL     1       3.723  29.682  30.339  1.00  0.00     0.047 A 
BRANCH  15  18
ATOM     18  O   UNL     1       5.833  29.975  31.472  1.00  0.00    -0.508 OA
ATOM     19  H   UNL     1       6.459  30.626  31.012  1.00  0.00     0.293 HD
ENDBRANCH  15  18
ENDBRANCH   1  12
BRANCH   2  20
ATOM     20  O   UNL     1       3.240  27.296  26.379  1.00  0.00    -0.502 OA
ATOM     21  H   UNL     1       3.279  28.308  26.365  1.00  0.00     0.293 HD
ENDBRANCH   2  20
BRANCH   6  22
ATOM     22  O   UNL     1      -0.624  23.991  25.288  1.00  0.00    -0.507 OA
ATOM     23  H   UNL     1      -1.445  24.281  24.769  1.00  0.00     0.293 HD
ENDBRANCH   6  22
BRANCH   8  24
ATOM     24  O   UNL     1      -2.235  22.881  29.698  1.00  0.00    -0.508 OA
ATOM     25  H   UNL     1      -2.866  23.350  30.337  1.00  0.00     0.293 HD
ENDBRANCH   8  24
TORSDOF 5
ENDMDL
MODEL 3
REMARK VINA RESULT:    -6.139      2.554      3.844
REMARK INTER + INTRA:          -7.513
REMARK INTER:                  -7.319
REMARK INTRA:                  -0.193
REMARK UNBOUND:                -0.297
REMARK SMILES O=c1c(O)c(-c2ccc(O)cc2)oc2cc(O)cc(O)c12
REMARK SMILES IDX 5 1 3 2 2 3 1 4 21 5 19 6 18 7 16 8 15 9 14 10 13 11 6 12
REMARK SMILES IDX 7 13 8 14 9 15 12 16 11 17 10 18 4 20 20 22 17 24
REMARK H PARENT 10 19 4 21 20 23 17 25
REMARK Flexibility Score: inf
ROOT
ATOM      1  C   UNL     1      -1.945  24.007  29.464  1.00  0.00     0.180 A 
ATOM      2  C   UNL     1      -2.495  24.846  28.476  1.00  0.00     0.208 A 
ATOM      3  C   UNL     1      -1.658  25.341  27.465  1.00  0.00     0.238 A 
ATOM      4  O   UNL     1      -2.141  26.083  26.567  1.00  0.00    -0.285 OA
ATOM      5  C   UNL     1      -0.288  25.009  27.468  1.00  0.00     0.111 A 
ATOM      6  C   UNL     1       0.625  25.470  26.488  1.00  0.00     0.134 A 
ATOM      7  C   UNL     1       1.975  25.101  26.568  1.00  0.00     0.093 A 
ATOM      8  C   UNL     1       2.432  24.285  27.604  1.00  0.00     0.123 A 
ATOM      9  C   UNL     1       1.537  23.827  28.576  1.00  0.00     0.094 A 
ATOM     10  C   UNL     1       0.185  24.180  28.514  1.00  0.00     0.146 A 
ATOM     11  O   UNL     1      -0.646  23.728  29.446  1.00  0.00    -0.452 OA
ENDROOT
BRANCH   1  12
ATOM     12  C   UNL     1      -2.767  23.430  30.553  1.00  0.00     0.021 A 
ATOM     13  C   UNL     1      -3.094  22.064  30.524  1.00  0.00     0.016 A 
ATOM     14  C   UNL     1      -3.887  21.503  31.529  1.00  0.00     0.047 A 
ATOM     15  C   UNL     1      -4.378  22.305  32.568  1.00  0.00     0.115 A 
ATOM     16  C   UNL     1      -3.281  24.233  31.588  1.00  0.00     0.016 A 
ATOM     17  C   UNL     1      -4.075  23.670  32.591  1.00  0.00     0.047 A 
BRANCH  15  18
ATOM     18  O   UNL     1      -5.169  21.757  33.574  1.00  0.00    -0.508 OA
ATOM     19  H   UNL     1      -5.244  20.755  33.703  1.00  0.00     0.293 HD
ENDBRANCH  15  18
ENDBRANCH   1  12
BRANCH   2  20
ATOM     20  O   UNL     1      -3.846  25.200  28.522  1.00  0.00    -0.502 OA
ATOM     21  H   UNL     1      -4.573  24.539  28.766  1.00  0.00     0.293 HD
ENDBRANCH   2  20
BRANCH   6  22
ATOM     22  O   UNL     1       0.200  26.287  25.440  1.00  0.00    -0.507 OA
ATOM     23  H   UNL     1       0.851  26.846  24.903  1.00  0.00     0.293 HD
ENDBRANCH   6  22
BRANCH   8  24
ATOM     24  O   UNL     1       3.779  23.935  27.661  1.00  0.00    -0.508 OA
ATOM     25  H   UNL     1       4.302  23.976  28.528  1.00  0.00     0.293 HD
ENDBRANCH   8  24
TORSDOF 5
ENDMDL
MODEL 4
REMARK VINA RESULT:    -5.870      3.505      4.836
REMARK INTER + INTRA:          -7.197
REMARK INTER:                  -6.902
REMARK INTRA:                  -0.294
REMARK UNBOUND:                -0.297
REMARK SMILES O=c1c(O)c(-c2ccc(O)cc2)oc2cc(O)cc(O)c12
REMARK SMILES IDX 5 1 3 2 2 3 1 4 21 5 19 6 18 7 16 8 15 9 14 10 13 11 6 12
REMARK SMILES IDX 7 13 8 14 9 15 12 16 11 17 10 18 4 20 20 22 17 24
REMARK H PARENT 10 19 4 21 20 23 17 25
REMARK Flexibility Score: inf
ROOT
ATOM      1  C   UNL     1      -0.887  26.181  27.107  1.00  0.00     0.180 A 
ATOM      2  C   UNL     1       0.460  26.571  27.224  1.00  0.00     0.208 A 
ATOM      3  C   UNL     1       0.922  27.651  26.457  1.00  0.00     0.238 A 
ATOM      4  O   UNL     1       2.124  28.018  26.562  1.00  0.00    -0.285 OA
ATOM      5  C   UNL     1       0.041  28.307  25.573  1.00  0.00     0.111 A 
ATOM      6  C   UNL     1       0.427  29.401  24.761  1.00  0.00     0.134 A 
ATOM      7  C   UNL     1      -0.508  29.994  23.901  1.00  0.00     0.093 A 
ATOM      8  C   UNL     1      -1.819  29.516  23.834  1.00  0.00     0.123 A 
ATOM      9  C   UNL     1      -2.207  28.436  24.633  1.00  0.00     0.094 A 
ATOM     10  C   UNL     1      -1.291  27.832  25.500  1.00  0.00     0.146 A 
ATOM     11  O   UNL     1      -1.686  26.812  26.252  1.00  0.00    -0.452 OA
ENDROOT
BRANCH   1  12
ATOM     12  C   UNL     1      -1.454  25.063  27.896  1.00  0.00     0.021 A 
ATOM     13  C   UNL     1      -1.415  23.758  27.376  1.00  0.00     0.016 A 
ATOM     14  C   UNL     1      -1.964  22.692  28.094  1.00  0.00     0.047 A 
ATOM     15  C   UNL     1      -2.574  22.919  29.335  1.00  0.00     0.115 A 
ATOM     16  C   UNL     1      -2.087  25.286  29.133  1.00  0.00     0.016 A 
ATOM     17  C   UNL     1      -2.637  24.218  29.848  1.00  0.00     0.047 A 
BRANCH  15  18
ATOM     18  O   UNL     1      -3.125  21.865  30.058  1.00  0.00    -0.508 OA
ATOM     19  H   UNL     1      -4.121  21.679  30.050  1.00  0.00     0.293 HD
ENDBRANCH  15  18
ENDBRANCH   1  12
BRANCH   2  20
ATOM     20  O   UNL     1       1.327  25.874  28.070  1.00  0.00    -0.502 OA
ATOM     21  H   UNL     1       1.541  24.894  27.939  1.00  0.00     0.293 HD
ENDBRANCH   2  20
BRANCH   6  22
ATOM     22  O   UNL     1       1.729  29.901  24.804  1.00  0.00    -0.507 OA
ATOM     23  H   UNL     1       2.066  30.569  24.121  1.00  0.00     0.293 HD
ENDBRANCH   6  22
BRANCH   8  24
ATOM     24  O   UNL     1      -2.727  30.122  22.970  1.00  0.00    -0.508 OA
ATOM     25  H   UNL     1      -3.673  29.772  22.865  1.00  0.00     0.293 HD
ENDBRANCH   8  24
TORSDOF 5
ENDMDL
MODEL 5
REMARK VINA RESULT:    -5.862      2.665      3.674
REMARK INTER + INTRA:          -7.187
REMARK INTER:                  -6.890
REMARK INTRA:                  -0.297
REMARK UNBOUND:                -0.297
REMARK SMILES O=c1c(O)c(-c2ccc(O)cc2)oc2cc(O)cc(O)c12
REMARK SMILES IDX 5 1 3 2 2 3 1 4 21 5 19 6 18 7 16 8 15 9 14 10 13 11 6 12
REMARK SMILES IDX 7 13 8 14 9 15 12 16 11 17 10 18 4 20 20 22 17 24
REMARK H PARENT 10 19 4 21 20 23 17 25
REMARK Flexibility Score: inf
ROOT
ATOM      1  C   UNL     1      -1.372  25.082  27.985  1.00  0.00     0.180 A 
ATOM      2  C   UNL     1      -2.085  25.843  27.038  1.00  0.00     0.208 A 
ATOM      3  C   UNL     1      -1.377  26.727  26.210  1.00  0.00     0.238 A 
ATOM      4  O   UNL     1      -2.002  27.405  25.349  1.00  0.00    -0.285 OA
ATOM      5  C   UNL     1       0.019  26.853  26.354  1.00  0.00     0.111 A 
ATOM      6  C   UNL     1       0.806  27.725  25.563  1.00  0.00     0.134 A 
ATOM      7  C   UNL     1       2.190  27.799  25.775  1.00  0.00     0.093 A 
ATOM      8  C   UNL     1       2.803  27.022  26.760  1.00  0.00     0.123 A 
ATOM      9  C   UNL     1       2.032  26.159  27.546  1.00  0.00     0.094 A 
ATOM     10  C   UNL     1       0.651  26.069  27.349  1.00  0.00     0.146 A 
ATOM     11  O   UNL     1      -0.058  25.238  28.105  1.00  0.00    -0.452 OA
ENDROOT
BRANCH   1  12
ATOM     12  C   UNL     1      -2.044  24.114  28.882  1.00  0.00     0.021 A 
ATOM     13  C   UNL     1      -2.493  24.537  30.145  1.00  0.00     0.016 A 
ATOM     14  C   UNL     1      -3.109  23.634  31.017  1.00  0.00     0.047 A 
ATOM     15  C   UNL     1      -3.271  22.294  30.644  1.00  0.00     0.115 A 
ATOM     16  C   UNL     1      -2.192  22.762  28.523  1.00  0.00     0.016 A 
ATOM     17  C   UNL     1      -2.807  21.861  29.398  1.00  0.00     0.047 A 
BRANCH  15  18
ATOM     18  O   UNL     1      -3.883  21.386  31.504  1.00  0.00    -0.508 OA
ATOM     19  H   UNL     1      -4.892  21.338  31.594  1.00  0.00     0.293 HD
ENDBRANCH  15  18
ENDBRANCH   1  12
BRANCH   2  20
ATOM     20  O   UNL     1      -3.475  25.737  26.948  1.00  0.00    -0.502 OA
ATOM     21  H   UNL     1      -3.947  24.844  26.880  1.00  0.00     0.293 HD
ENDBRANCH   2  20
BRANCH   6  22
ATOM     22  O   UNL     1       0.224  28.514  24.570  1.00  0.00    -0.507 OA
ATOM     23  H   UNL     1       0.572  29.441  24.353  1.00  0.00     0.293 HD
ENDBRANCH   6  22
BRANCH   8  24
ATOM     24  O   UNL     1       4.179  27.116  26.952  1.00  0.00    -0.508 OA
ATOM     25  H   UNL     1       4.727  27.846  26.512  1.00  0.00     0.293 HD
ENDBRANCH   8  24
TORSDOF 5
ENDMDL
MODEL 6
REMARK VINA RESULT:    -5.776      3.077      5.907
REMARK INTER + INTRA:          -7.086
REMARK INTER:                  -6.970
REMARK INTRA:                  -0.116
REMARK UNBOUND:                -0.297
REMARK SMILES O=c1c(O)c(-c2ccc(O)cc2)oc2cc(O)cc(O)c12
REMARK SMILES IDX 5 1 3 2 2 3 1 4 21 5 19 6 18 7 16 8 15 9 14 10 13 11 6 12
REMARK SMILES IDX 7 13 8 14 9 15 12 16 11 17 10 18 4 20 20 22 17 24
REMARK H PARENT 10 19 4 21 20 23 17 25
REMARK Flexibility Score: inf
ROOT
ATOM      1  C   UNL     1      -0.626  25.589  27.153  1.00  0.00     0.180 A 
ATOM      2  C   UNL     1      -0.992  24.292  26.746  1.00  0.00     0.208 A 
ATOM      3  C   UNL     1      -1.696  23.474  27.643  1.00  0.00     0.238 A 
ATOM      4  O   UNL     1      -2.040  22.314  27.286  1.00  0.00    -0.285 OA
ATOM      5  C   UNL     1      -2.002  23.954  28.933  1.00  0.00     0.111 A 
ATOM      6  C   UNL     1      -2.704  23.192  29.898  1.00  0.00     0.134 A 
ATOM      7  C   UNL     1      -2.961  23.739  31.163  1.00  0.00     0.093 A 
ATOM      8  C   UNL     1      -2.532  25.029  31.484  1.00  0.00     0.123 A 
ATOM      9  C   UNL     1      -1.838  25.787  30.535  1.00  0.00     0.094 A 
ATOM     10  C   UNL     1      -1.573  25.261  29.267  1.00  0.00     0.146 A 
ATOM     11  O   UNL     1      -0.917  26.003  28.382  1.00  0.00    -0.452 OA
ENDROOT
BRANCH   1  12
ATOM     12  C   UNL     1       0.101  26.518  26.258  1.00  0.00     0.021 A 
ATOM     13  C   UNL     1       1.408  26.204  25.849  1.00  0.00     0.016 A 
ATOM     14  C   UNL     1       2.121  27.078  25.023  1.00  0.00     0.047 A 
ATOM     15  C   UNL     1       1.542  28.284  24.607  1.00  0.00     0.115 A 
ATOM     16  C   UNL     1      -0.465  27.741  25.854  1.00  0.00     0.016 A 
ATOM     17  C   UNL     1       0.251  28.613  25.029  1.00  0.00     0.047 A 
BRANCH  15  18
ATOM     18  O   UNL     1       2.243  29.162  23.784  1.00  0.00    -0.508 OA
ATOM     19  H   UNL     1       1.795  29.968  23.365  1.00  0.00     0.293 HD
ENDBRANCH  15  18
ENDBRANCH   1  12
BRANCH   2  20
ATOM     20  O   UNL     1      -0.635  23.821  25.480  1.00  0.00    -0.502 OA
ATOM     21  H   UNL     1      -0.359  22.861  25.316  1.00  0.00     0.293 HD
ENDBRANCH   2  20
BRANCH   6  22
ATOM     22  O   UNL     1      -3.145  21.900  29.610  1.00  0.00    -0.507 OA
ATOM     23  H   UNL     1      -4.016  21.539  29.982  1.00  0.00     0.293 HD
ENDBRANCH   6  22
BRANCH   8  24
ATOM     24  O   UNL     1      -2.799  25.548  32.748  1.00  0.00    -0.508 OA
ATOM     25  H   UNL     1      -3.473  25.113  33.368  1.00  0.00     0.293 HD
ENDBRANCH   8  24
TORSDOF 5
ENDMDL
MODEL 7
REMARK VINA RESULT:    -5.741      1.731      6.876
REMARK INTER + INTRA:          -7.045
REMARK INTER:                  -6.779
REMARK INTRA:                  -0.266
REMARK UNBOUND:                -0.297
REMARK SMILES O=c1c(O)c(-c2ccc(O)cc2)oc2cc(O)cc(O)c12
REMARK SMILES IDX 5 1 3 2 2 3 1 4 21 5 19 6 18 7 16 8 15 9 14 10 13 11 6 12
REMARK SMILES IDX 7 13 8 14 9 15 12 16 11 17 10 18 4 20 20 22 17 24
REMARK H PARENT 10 19 4 21 20 23 17 25
REMARK Flexibility Score: inf
ROOT
ATOM      1  C   UNL     1      -0.883  25.013  28.729  1.00  0.00     0.180 A 
ATOM      2  C   UNL     1      -1.767  25.203  27.650  1.00  0.00     0.208 A 
ATOM      3  C   UNL     1      -3.141  25.314  27.910  1.00  0.00     0.238 A 
ATOM      4  O   UNL     1      -3.942  25.497  26.953  1.00  0.00    -0.285 OA
ATOM      5  C   UNL     1      -3.611  25.212  29.236  1.00  0.00     0.111 A 
ATOM      6  C   UNL     1      -4.980  25.309  29.584  1.00  0.00     0.134 A 
ATOM      7  C   UNL     1      -5.367  25.188  30.926  1.00  0.00     0.093 A 
ATOM      8  C   UNL     1      -4.416  24.972  31.926  1.00  0.00     0.123 A 
ATOM      9  C   UNL     1      -3.062  24.876  31.589  1.00  0.00     0.094 A 
ATOM     10  C   UNL     1      -2.655  24.996  30.257  1.00  0.00     0.146 A 
ATOM     11  O   UNL     1      -1.362  24.906  29.965  1.00  0.00    -0.452 OA
ENDROOT
BRANCH   1  12
ATOM     12  C   UNL     1       0.581  24.905  28.537  1.00  0.00     0.021 A 
ATOM     13  C   UNL     1       1.387  26.043  28.711  1.00  0.00     0.016 A 
ATOM     14  C   UNL     1       2.769  25.969  28.513  1.00  0.00     0.047 A 
ATOM     15  C   UNL     1       3.361  24.761  28.123  1.00  0.00     0.115 A 
ATOM     16  C   UNL     1       1.180  23.701  28.126  1.00  0.00     0.016 A 
ATOM     17  C   UNL     1       2.562  23.631  27.927  1.00  0.00     0.047 A 
BRANCH  15  18
ATOM     18  O   UNL     1       4.736  24.676  27.923  1.00  0.00    -0.508 OA
ATOM     19  H   UNL     1       5.289  23.938  28.345  1.00  0.00     0.293 HD
ENDBRANCH  15  18
ENDBRANCH   1  12
BRANCH   2  20
ATOM     20  O   UNL     1      -1.283  25.252  26.340  1.00  0.00    -0.502 OA
ATOM     21  H   UNL     1      -0.876  24.446  25.882  1.00  0.00     0.293 HD
ENDBRANCH   2  20
BRANCH   6  22
ATOM     22  O   UNL     1      -5.954  25.524  28.608  1.00  0.00    -0.507 OA
ATOM     23  H   UNL     1      -6.872  25.885  28.842  1.00  0.00     0.293 HD
ENDBRANCH   6  22
BRANCH   8  24
ATOM     24  O   UNL     1      -4.827  24.854  33.251  1.00  0.00    -0.508 OA
ATOM     25  H   UNL     1      -5.247  24.001  33.602  1.00  0.00     0.293 HD
ENDBRANCH   8  24
TORSDOF 5
ENDMDL
MODEL 8
REMARK VINA RESULT:    -5.701      2.865      6.169
REMARK INTER + INTRA:          -6.998
REMARK INTER:                  -6.806
REMARK INTRA:                  -0.192
REMARK UNBOUND:                -0.297
REMARK SMILES O=c1c(O)c(-c2ccc(O)cc2)oc2cc(O)cc(O)c12
REMARK SMILES IDX 5 1 3 2 2 3 1 4 21 5 19 6 18 7 16 8 15 9 14 10 13 11 6 12
REMARK SMILES IDX 7 13 8 14 9 15 12 16 11 17 10 18 4 20 20 22 17 24
REMARK H PARENT 10 19 4 21 20 23 17 25
REMARK Flexibility Score: inf
ROOT
ATOM      1  C   UNL     1      -1.211  25.709  28.181  1.00  0.00     0.180 A 
ATOM      2  C   UNL     1      -2.605  25.588  28.026  1.00  0.00     0.208 A 
ATOM      3  C   UNL     1      -3.368  25.109  29.102  1.00  0.00     0.238 A 
ATOM      4  O   UNL     1      -4.619  25.007  28.979  1.00  0.00    -0.285 OA
ATOM      5  C   UNL     1      -2.727  24.741  30.302  1.00  0.00     0.111 A 
ATOM      6  C   UNL     1      -3.422  24.246  31.432  1.00  0.00     0.134 A 
ATOM      7  C   UNL     1      -2.709  23.893  32.588  1.00  0.00     0.093 A 
ATOM      8  C   UNL     1      -1.320  24.024  32.636  1.00  0.00     0.123 A 
ATOM      9  C   UNL     1      -0.627  24.512  31.524  1.00  0.00     0.094 A 
ATOM     10  C   UNL     1      -1.319  24.872  30.363  1.00  0.00     0.146 A 
ATOM     11  O   UNL     1      -0.638  25.338  29.322  1.00  0.00    -0.452 OA
ENDROOT
BRANCH   1  12
ATOM     12  C   UNL     1      -0.341  26.224  27.099  1.00  0.00     0.021 A 
ATOM     13  C   UNL     1       0.612  25.373  26.514  1.00  0.00     0.016 A 
ATOM     14  C   UNL     1       1.459  25.844  25.506  1.00  0.00     0.047 A 
ATOM     15  C   UNL     1       1.376  27.177  25.082  1.00  0.00     0.115 A 
ATOM     16  C   UNL     1      -0.405  27.566  26.682  1.00  0.00     0.016 A 
ATOM     17  C   UNL     1       0.445  28.035  25.676  1.00  0.00     0.047 A 
BRANCH  15  18
ATOM     18  O   UNL     1       2.214  27.657  24.080  1.00  0.00    -0.508 OA
ATOM     19  H   UNL     1       2.684  28.551  24.165  1.00  0.00     0.293 HD
ENDBRANCH  15  18
ENDBRANCH   1  12
BRANCH   2  20
ATOM     20  O   UNL     1      -3.211  25.913  26.809  1.00  0.00    -0.502 OA
ATOM     21  H   UNL     1      -3.335  25.236  26.067  1.00  0.00     0.293 HD
ENDBRANCH   2  20
BRANCH   6  22
ATOM     22  O   UNL     1      -4.809  24.103  31.415  1.00  0.00    -0.507 OA
ATOM     23  H   UNL     1      -5.260  23.333  30.935  1.00  0.00     0.293 HD
ENDBRANCH   6  22
BRANCH   8  24
ATOM     24  O   UNL     1      -0.636  23.665  33.795  1.00  0.00    -0.508 OA
ATOM     25  H   UNL     1       0.374  23.724  33.854  1.00  0.00     0.293 HD
ENDBRANCH   8  24
TORSDOF 5
ENDMDL
MODEL 9
REMARK VINA RESULT:    -5.557      2.397      7.183
REMARK INTER + INTRA:          -6.829
REMARK INTER:                  -6.541
REMARK INTRA:                  -0.288
REMARK UNBOUND:                -0.297
REMARK SMILES O=c1c(O)c(-c2ccc(O)cc2)oc2cc(O)cc(O)c12
REMARK SMILES IDX 5 1 3 2 2 3 1 4 21 5 19 6 18 7 16 8 15 9 14 10 13 11 6 12
REMARK SMILES IDX 7 13 8 14 9 15 12 16 11 17 10 18 4 20 20 22 17 24
REMARK H PARENT 10 19 4 21 20 23 17 25
REMARK Flexibility Score: inf
ROOT
ATOM      1  C   UNL     1      -1.638  24.501  30.027  1.00  0.00     0.180 A 
ATOM      2  C   UNL     1      -1.655  24.139  31.387  1.00  0.00     0.208 A 
ATOM      3  C   UNL     1      -2.868  24.197  32.090  1.00  0.00     0.238 A 
ATOM      4  O   UNL     1      -2.898  23.863  33.305  1.00  0.00    -0.285 OA
ATOM      5  C   UNL     1      -4.035  24.635  31.431  1.00  0.00     0.111 A 
ATOM      6  C   UNL     1      -5.297  24.727  32.067  1.00  0.00     0.134 A 
ATOM      7  C   UNL     1      -6.409  25.181  31.344  1.00  0.00     0.093 A 
ATOM      8  C   UNL     1      -6.287  25.545  30.002  1.00  0.00     0.123 A 
ATOM      9  C   UNL     1      -5.044  25.457  29.367  1.00  0.00     0.094 A 
ATOM     10  C   UNL     1      -3.923  25.004  30.069  1.00  0.00     0.146 A 
ATOM     11  O   UNL     1      -2.755  24.924  29.442  1.00  0.00    -0.452 OA
ENDROOT
BRANCH   1  12
ATOM     12  C   UNL     1      -0.402  24.448  29.213  1.00  0.00     0.021 A 
ATOM     13  C   UNL     1      -0.086  23.273  28.510  1.00  0.00     0.016 A 
ATOM     14  C   UNL     1       1.087  23.193  27.754  1.00  0.00     0.047 A 
ATOM     15  C   UNL     1       1.968  24.282  27.705  1.00  0.00     0.115 A 
ATOM     16  C   UNL     1       0.498  25.529  29.176  1.00  0.00     0.016 A 
ATOM     17  C   UNL     1       1.671  25.446  28.420  1.00  0.00     0.047 A 
BRANCH  15  18
ATOM     18  O   UNL     1       3.140  24.213  26.956  1.00  0.00    -0.508 OA
ATOM     19  H   UNL     1       3.130  24.314  25.947  1.00  0.00     0.293 HD
ENDBRANCH  15  18
ENDBRANCH   1  12
BRANCH   2  20
ATOM     20  O   UNL     1      -0.475  23.755  32.030  1.00  0.00    -0.502 OA
ATOM     21  H   UNL     1      -0.297  22.799  32.313  1.00  0.00     0.293 HD
ENDBRANCH   2  20
BRANCH   6  22
ATOM     22  O   UNL     1      -5.452  24.372  33.408  1.00  0.00    -0.507 OA
ATOM     23  H   UNL     1      -6.042  23.597  33.689  1.00  0.00     0.293 HD
ENDBRANCH   6  22
BRANCH   8  24
ATOM     24  O   UNL     1      -7.407  25.994  29.307  1.00  0.00    -0.508 OA
ATOM     25  H   UNL     1      -8.002  25.356  28.790  1.00  0.00     0.293 HD
ENDBRANCH   8  24
TORSDOF 5
ENDMDL
