MODEL 1
REMARK VINA RESULT:    -3.587      0.000      0.000
REMARK INTER + INTRA:          -5.315
REMARK INTER:                  -4.846
REMARK INTRA:                  -0.470
REMARK UNBOUND:                -0.470
REMARK SMILES CCCCCCCC(=O)[O-]
REMARK SMILES IDX 5 1 6 2 7 3 8 4 9 5 10 6 4 7 3 8 2 9 1 10
REMARK H PARENT
REMARK Flexibility Score: inf
ROOT
ATOM      1  C   UNL     1      -1.116  15.234  -5.439  1.00  0.00     0.000 C 
ENDROOT
BRANCH   1   2
ATOM      2  C   UNL     1      -0.280  15.033  -4.163  1.00  0.00     0.006 C 
BRANCH   2   3
ATOM      3  C   UNL     1      -0.219  16.289  -3.286  1.00  0.00     0.053 C 
BRANCH   3   4
ATOM      4  C   UNL     1      -0.729  15.992  -1.911  1.00  0.00     0.041 C 
ATOM      5  O   UNL     1      -1.969  15.921  -1.698  1.00  0.00    -0.550 OA
ATOM      6  O   UNL     1       0.163  15.745  -0.876  1.00  0.00    -0.550 OA
ENDBRANCH   3   4
ENDBRANCH   2   3
ENDBRANCH   1   2
BRANCH   1   7
ATOM      7  C   UNL     1      -2.643  15.239  -5.223  1.00  0.00     0.000 C 
BRANCH   7   8
ATOM      8  C   UNL     1      -3.224  13.947  -4.617  1.00  0.00    -0.000 C 
BRANCH   8   9
ATOM      9  C   UNL     1      -2.927  12.667  -5.417  1.00  0.00    -0.003 C 
ATOM     10  C   UNL     1      -2.208  11.601  -4.590  1.00  0.00     0.004 C 
ENDBRANCH   8   9
ENDBRANCH   7   8
ENDBRANCH   1   7
TORSDOF 6
ENDMDL
MODEL 2
REMARK VINA RESULT:    -3.507      2.269      4.335
REMARK INTER + INTRA:          -5.206
REMARK INTER:                  -4.746
REMARK INTRA:                  -0.460
REMARK UNBOUND:                -0.470
REMARK SMILES CCCCCCCC(=O)[O-]
REMARK SMILES IDX 5 1 6 2 7 3 8 4 9 5 10 6 4 7 3 8 2 9 1 10
REMARK H PARENT
REMARK Flexibility Score: inf
ROOT
ATOM      1  C   UNL     1      -2.153  16.470  -4.915  1.00  0.00     0.000 C 
ENDROOT
BRANCH   1   2
ATOM      2  C   UNL     1      -2.571  15.246  -5.748  1.00  0.00     0.006 C 
BRANCH   2   3
ATOM      3  C   UNL     1      -3.314  14.190  -4.921  1.00  0.00     0.053 C 
BRANCH   3   4
ATOM      4  C   UNL     1      -2.453  12.983  -4.719  1.00  0.00     0.041 C 
ATOM      5  O   UNL     1      -1.202  13.105  -4.635  1.00  0.00    -0.550 OA
ATOM      6  O   UNL     1      -3.034  11.730  -4.572  1.00  0.00    -0.550 OA
ENDBRANCH   3   4
ENDBRANCH   2   3
ENDBRANCH   1   2
BRANCH   1   7
ATOM      7  C   UNL     1      -0.636  16.746  -4.879  1.00  0.00     0.000 C 
BRANCH   7   8
ATOM      8  C   UNL     1       0.054  16.443  -3.535  1.00  0.00    -0.000 C 
BRANCH   8   9
ATOM      9  C   UNL     1      -0.877  15.893  -2.440  1.00  0.00    -0.003 C 
ATOM     10  C   UNL     1      -0.265  15.976  -1.042  1.00  0.00     0.004 C 
ENDBRANCH   8   9
ENDBRANCH   7   8
ENDBRANCH   1   7
TORSDOF 6
ENDMDL
MODEL 3
REMARK VINA RESULT:    -3.413      2.240      4.222
REMARK INTER + INTRA:          -5.080
REMARK INTER:                  -4.635
REMARK INTRA:                  -0.445
REMARK UNBOUND:                -0.470
REMARK SMILES CCCCCCCC(=O)[O-]
REMARK SMILES IDX 5 1 6 2 7 3 8 4 9 5 10 6 4 7 3 8 2 9 1 10
REMARK H PARENT
REMARK Flexibility Score: inf
ROOT
ATOM      1  C   UNL     1      -1.886  16.982  -5.023  1.00  0.00     0.000 C 
ENDROOT
BRANCH   1   2
ATOM      2  C   UNL     1      -2.800  16.003  -5.780  1.00  0.00     0.006 C 
BRANCH   2   3
ATOM      3  C   UNL     1      -2.172  14.615  -5.955  1.00  0.00     0.053 C 
BRANCH   3   4
ATOM      4  C   UNL     1      -2.761  13.647  -4.978  1.00  0.00     0.041 C 
ATOM      5  O   UNL     1      -3.551  14.052  -4.085  1.00  0.00    -0.550 OA
ATOM      6  O   UNL     1      -2.478  12.292  -5.085  1.00  0.00    -0.550 OA
ENDBRANCH   3   4
ENDBRANCH   2   3
ENDBRANCH   1   2
BRANCH   1   7
ATOM      7  C   UNL     1      -0.397  16.581  -4.979  1.00  0.00     0.000 C 
BRANCH   7   8
ATOM      8  C   UNL     1       0.148  16.236  -3.579  1.00  0.00    -0.000 C 
BRANCH   8   9
ATOM      9  C   UNL     1      -0.928  16.015  -2.502  1.00  0.00    -0.003 C 
ATOM     10  C   UNL     1      -0.359  16.014  -1.084  1.00  0.00     0.004 C 
ENDBRANCH   8   9
ENDBRANCH   7   8
ENDBRANCH   1   7
TORSDOF 6
ENDMDL
MODEL 4
REMARK VINA RESULT:    -3.274      1.996      2.128
REMARK INTER + INTRA:          -4.892
REMARK INTER:                  -4.456
REMARK INTRA:                  -0.436
REMARK UNBOUND:                -0.470
REMARK SMILES CCCCCCCC(=O)[O-]
REMARK SMILES IDX 5 1 6 2 7 3 8 4 9 5 10 6 4 7 3 8 2 9 1 10
REMARK H PARENT
REMARK Flexibility Score: inf
ROOT
ATOM      1  C   UNL     1      -1.299  15.233  -5.882  1.00  0.00     0.000 C 
ENDROOT
BRANCH   1   2
ATOM      2  C   UNL     1      -0.353  15.024  -4.687  1.00  0.00     0.006 C 
BRANCH   2   3
ATOM      3  C   UNL     1      -0.352  16.209  -3.714  1.00  0.00     0.053 C 
BRANCH   3   4
ATOM      4  C   UNL     1       0.365  17.377  -4.313  1.00  0.00     0.041 C 
ATOM      5  O   UNL     1      -0.282  18.385  -4.703  1.00  0.00    -0.550 OA
ATOM      6  O   UNL     1       1.751  17.375  -4.395  1.00  0.00    -0.550 OA
ENDBRANCH   3   4
ENDBRANCH   2   3
ENDBRANCH   1   2
BRANCH   1   7
ATOM      7  C   UNL     1      -2.802  15.178  -5.540  1.00  0.00     0.000 C 
BRANCH   7   8
ATOM      8  C   UNL     1      -3.244  13.949  -4.722  1.00  0.00    -0.000 C 
BRANCH   8   9
ATOM      9  C   UNL     1      -3.036  12.596  -5.425  1.00  0.00    -0.003 C 
ATOM     10  C   UNL     1      -2.140  11.646  -4.631  1.00  0.00     0.004 C 
ENDBRANCH   8   9
ENDBRANCH   7   8
ENDBRANCH   1   7
TORSDOF 6
ENDMDL
MODEL 5
REMARK VINA RESULT:    -3.274     16.993     18.261
REMARK INTER + INTRA:          -4.891
REMARK INTER:                  -4.404
REMARK INTRA:                  -0.487
REMARK UNBOUND:                -0.470
REMARK SMILES CCCCCCCC(=O)[O-]
REMARK SMILES IDX 5 1 6 2 7 3 8 4 9 5 10 6 4 7 3 8 2 9 1 10
REMARK H PARENT
REMARK Flexibility Score: inf
ROOT
ATOM      1  C   UNL     1       2.131   5.505  11.560  1.00  0.00     0.000 C 
ENDROOT
BRANCH   1   2
ATOM      2  C   UNL     1       2.735   5.523  12.975  1.00  0.00     0.006 C 
BRANCH   2   3
ATOM      3  C   UNL     1       1.758   6.047  14.033  1.00  0.00     0.053 C 
BRANCH   3   4
ATOM      4  C   UNL     1       1.556   7.521  13.875  1.00  0.00     0.041 C 
ATOM      5  O   UNL     1       2.550   8.289  13.775  1.00  0.00    -0.550 OA
ATOM      6  O   UNL     1       0.272   8.043  13.786  1.00  0.00    -0.550 OA
ENDBRANCH   3   4
ENDBRANCH   2   3
ENDBRANCH   1   2
BRANCH   1   7
ATOM      7  C   UNL     1       0.798   4.742  11.431  1.00  0.00     0.000 C 
BRANCH   7   8
ATOM      8  C   UNL     1      -0.358   5.543  10.800  1.00  0.00    -0.000 C 
BRANCH   8   9
ATOM      9  C   UNL     1      -0.040   7.021  10.514  1.00  0.00    -0.003 C 
ATOM     10  C   UNL     1      -0.713   7.538   9.243  1.00  0.00     0.004 C 
ENDBRANCH   8   9
ENDBRANCH   7   8
ENDBRANCH   1   7
TORSDOF 6
ENDMDL
MODEL 6
REMARK VINA RESULT:    -3.170      1.849      2.159
REMARK INTER + INTRA:          -4.751
REMARK INTER:                  -4.321
REMARK INTRA:                  -0.430
REMARK UNBOUND:                -0.470
REMARK SMILES CCCCCCCC(=O)[O-]
REMARK SMILES IDX 5 1 6 2 7 3 8 4 9 5 10 6 4 7 3 8 2 9 1 10
REMARK H PARENT
REMARK Flexibility Score: inf
ROOT
ATOM      1  C   UNL     1      -2.671  16.456  -5.633  1.00  0.00     0.000 C 
ENDROOT
BRANCH   1   2
ATOM      2  C   UNL     1      -1.290  17.016  -6.014  1.00  0.00     0.006 C 
BRANCH   2   3
ATOM      3  C   UNL     1      -0.354  17.164  -4.808  1.00  0.00     0.053 C 
BRANCH   3   4
ATOM      4  C   UNL     1      -0.008  15.821  -4.247  1.00  0.00     0.041 C 
ATOM      5  O   UNL     1      -0.357  15.516  -3.075  1.00  0.00    -0.550 OA
ATOM      6  O   UNL     1       0.654  14.887  -5.033  1.00  0.00    -0.550 OA
ENDBRANCH   3   4
ENDBRANCH   2   3
ENDBRANCH   1   2
BRANCH   1   7
ATOM      7  C   UNL     1      -2.936  15.008  -6.091  1.00  0.00     0.000 C 
BRANCH   7   8
ATOM      8  C   UNL     1      -3.197  13.998  -4.956  1.00  0.00    -0.000 C 
BRANCH   8   9
ATOM      9  C   UNL     1      -2.226  12.806  -4.915  1.00  0.00    -0.003 C 
ATOM     10  C   UNL     1      -2.901  11.503  -4.489  1.00  0.00     0.004 C 
ENDBRANCH   8   9
ENDBRANCH   7   8
ENDBRANCH   1   7
TORSDOF 6
ENDMDL
MODEL 7
REMARK VINA RESULT:    -3.065      2.796      4.782
REMARK INTER + INTRA:          -4.610
REMARK INTER:                  -4.186
REMARK INTRA:                  -0.424
REMARK UNBOUND:                -0.470
REMARK SMILES CCCCCCCC(=O)[O-]
REMARK SMILES IDX 5 1 6 2 7 3 8 4 9 5 10 6 4 7 3 8 2 9 1 10
REMARK H PARENT
REMARK Flexibility Score: inf
ROOT
ATOM      1  C   UNL     1      -0.037  15.756  -3.729  1.00  0.00     0.000 C 
ENDROOT
BRANCH   1   2
ATOM      2  C   UNL     1      -1.552  15.598  -3.952  1.00  0.00     0.006 C 
BRANCH   2   3
ATOM      3  C   UNL     1      -1.890  14.904  -5.276  1.00  0.00     0.053 C 
BRANCH   3   4
ATOM      4  C   UNL     1      -3.048  13.973  -5.098  1.00  0.00     0.041 C 
ATOM      5  O   UNL     1      -3.724  14.000  -4.035  1.00  0.00    -0.550 OA
ATOM      6  O   UNL     1      -3.413  13.112  -6.125  1.00  0.00    -0.550 OA
ENDBRANCH   3   4
ENDBRANCH   2   3
ENDBRANCH   1   2
BRANCH   1   7
ATOM      7  C   UNL     1       0.634  16.856  -4.575  1.00  0.00     0.000 C 
BRANCH   7   8
ATOM      8  C   UNL     1      -0.132  18.192  -4.641  1.00  0.00    -0.000 C 
BRANCH   8   9
ATOM      9  C   UNL     1      -0.790  18.494  -5.999  1.00  0.00    -0.003 C 
ATOM     10  C   UNL     1      -2.268  18.864  -5.875  1.00  0.00     0.004 C 
ENDBRANCH   8   9
ENDBRANCH   7   8
ENDBRANCH   1   7
TORSDOF 6
ENDMDL
MODEL 8
REMARK VINA RESULT:    -2.942      2.995      4.874
REMARK INTER + INTRA:          -4.444
REMARK INTER:                  -4.081
REMARK INTRA:                  -0.363
REMARK UNBOUND:                -0.470
REMARK SMILES CCCCCCCC(=O)[O-]
REMARK SMILES IDX 5 1 6 2 7 3 8 4 9 5 10 6 4 7 3 8 2 9 1 10
REMARK H PARENT
REMARK Flexibility Score: inf
ROOT
ATOM      1  C   UNL     1      -2.297  16.966  -5.183  1.00  0.00     0.000 C 
ENDROOT
BRANCH   1   2
ATOM      2  C   UNL     1      -2.475  15.646  -5.954  1.00  0.00     0.006 C 
BRANCH   2   3
ATOM      3  C   UNL     1      -1.905  14.437  -5.205  1.00  0.00     0.053 C 
BRANCH   3   4
ATOM      4  C   UNL     1      -2.806  13.253  -5.359  1.00  0.00     0.041 C 
ATOM      5  O   UNL     1      -3.805  13.313  -6.125  1.00  0.00    -0.550 OA
ATOM      6  O   UNL     1      -2.516  12.066  -4.698  1.00  0.00    -0.550 OA
ENDBRANCH   3   4
ENDBRANCH   2   3
ENDBRANCH   1   2
BRANCH   1   7
ATOM      7  C   UNL     1      -1.732  18.135  -6.014  1.00  0.00     0.000 C 
BRANCH   7   8
ATOM      8  C   UNL     1      -0.250  18.469  -5.754  1.00  0.00    -0.000 C 
BRANCH   8   9
ATOM      9  C   UNL     1       0.318  17.908  -4.438  1.00  0.00    -0.003 C 
ATOM     10  C   UNL     1       1.668  17.216  -4.621  1.00  0.00     0.004 C 
ENDBRANCH   8   9
ENDBRANCH   7   8
ENDBRANCH   1   7
TORSDOF 6
ENDMDL
MODEL 9
REMARK VINA RESULT:    -2.795     11.290     12.492
REMARK INTER + INTRA:          -4.245
REMARK INTER:                  -3.725
REMARK INTRA:                  -0.520
REMARK UNBOUND:                -0.470
REMARK SMILES CCCCCCCC(=O)[O-]
REMARK SMILES IDX 5 1 6 2 7 3 8 4 9 5 10 6 4 7 3 8 2 9 1 10
REMARK H PARENT
REMARK Flexibility Score: inf
ROOT
ATOM      1  C   UNL     1      -9.698  23.096  -2.092  1.00  0.00     0.000 C 
ENDROOT
BRANCH   1   2
ATOM      2  C   UNL     1     -10.956  23.883  -1.683  1.00  0.00     0.006 C 
BRANCH   2   3
ATOM      3  C   UNL     1     -12.240  23.055  -1.798  1.00  0.00     0.053 C 
BRANCH   3   4
ATOM      4  C   UNL     1     -12.472  22.643  -3.217  1.00  0.00     0.041 C 
ATOM      5  O   UNL     1     -12.696  21.435  -3.497  1.00  0.00    -0.550 OA
ATOM      6  O   UNL     1     -12.490  23.599  -4.225  1.00  0.00    -0.550 OA
ENDBRANCH   3   4
ENDBRANCH   2   3
ENDBRANCH   1   2
BRANCH   1   7
ATOM      7  C   UNL     1      -8.907  23.699  -3.270  1.00  0.00     0.000 C 
BRANCH   7   8
ATOM      8  C   UNL     1      -8.905  22.855  -4.559  1.00  0.00    -0.000 C 
BRANCH   8   9
ATOM      9  C   UNL     1      -9.156  21.351  -4.348  1.00  0.00    -0.003 C 
ATOM     10  C   UNL     1      -8.265  20.471  -5.224  1.00  0.00     0.004 C 
ENDBRANCH   8   9
ENDBRANCH   7   8
ENDBRANCH   1   7
TORSDOF 6
ENDMDL
