MODEL 1
REMARK VINA RESULT:    -6.410      0.000      0.000
REMARK INTER + INTRA:         -10.129
REMARK INTER:                  -9.970
REMARK INTRA:                  -0.159
REMARK UNBOUND:                -0.159
REMARK SMILES C[C@]12C[C@H](O)[C@@H]3C[C@@]1(O[C@H]1O[C@@H](CO)[C@@H](O)[C@@H](O)[C@H]1O)[C@]3(COC(=O)c1ccccc1)C(=O)O2
REMARK SMILES IDX 1 1 2 2 3 3 4 4 6 5 7 6 8 7 21 8 32 9 33 10 34 11 9 12 10 13
REMARK SMILES IDX 19 14 11 15 17 16 12 17 15 18 20 19 18 21 13 23 14 24 16 26
REMARK SMILES IDX 5 28 22 30 23 31 24 32 25 33 26 34 27 35 31 36 28 37 30 38
REMARK SMILES IDX 29 39
REMARK H PARENT 20 20 18 22 14 25 16 27 5 29
REMARK Flexibility Score: inf
ROOT
ATOM      1  C   UNL     1      -8.012  25.528  -5.851  1.00  0.00     0.060 C 
ATOM      2  C   UNL     1      -8.823  24.277  -6.205  1.00  0.00     0.142 C 
ATOM      3  C   UNL     1      -9.761  23.849  -5.021  1.00  0.00     0.083 C 
ATOM      4  C   UNL     1     -10.326  22.395  -5.253  1.00  0.00     0.123 C 
ATOM      5  C   UNL     1      -9.335  21.552  -6.124  1.00  0.00     0.045 C 
ATOM      6  C   UNL     1      -7.923  21.907  -5.651  1.00  0.00     0.049 C 
ATOM      7  C   UNL     1      -7.949  23.037  -6.688  1.00  0.00     0.131 C 
ATOM      8  C   UNL     1      -9.014  22.250  -7.488  1.00  0.00     0.140 C 
ATOM      9  C   UNL     1      -9.935  23.329  -7.959  1.00  0.00     0.319 C 
ATOM     10  O   UNL     1     -10.826  23.192  -8.837  1.00  0.00    -0.251 OA
ATOM     11  O   UNL     1      -9.700  24.519  -7.296  1.00  0.00    -0.456 OA
ENDROOT
BRANCH   7  12
ATOM     12  O   UNL     1      -6.633  23.310  -7.172  1.00  0.00    -0.338 OA
BRANCH  12  13
ATOM     13  C   UNL     1      -5.583  22.493  -6.681  1.00  0.00     0.282 C 
ATOM     14  C   UNL     1      -4.243  23.127  -7.109  1.00  0.00     0.202 C 
ATOM     15  O   UNL     1      -5.669  21.167  -7.174  1.00  0.00    -0.341 OA
ATOM     16  C   UNL     1      -3.040  22.340  -6.524  1.00  0.00     0.179 C 
ATOM     17  C   UNL     1      -4.597  20.308  -6.784  1.00  0.00     0.178 C 
ATOM     18  C   UNL     1      -3.475  20.977  -5.934  1.00  0.00     0.177 C 
BRANCH  14  19
ATOM     19  O   UNL     1      -4.167  23.164  -8.514  1.00  0.00    -0.385 OA
ATOM     20  H   UNL     1      -5.036  23.513  -8.845  1.00  0.00     0.211 HD
ENDBRANCH  14  19
BRANCH  16  21
ATOM     21  O   UNL     1      -2.048  22.162  -7.506  1.00  0.00    -0.387 OA
ATOM     22  H   UNL     1      -2.378  21.469  -8.136  1.00  0.00     0.211 HD
ENDBRANCH  16  21
BRANCH  17  23
ATOM     23  C   UNL     1      -4.044  19.635  -8.051  1.00  0.00     0.191 C 
BRANCH  23  24
ATOM     24  O   UNL     1      -4.072  18.243  -7.894  1.00  0.00    -0.394 OA
ATOM     25  H   UNL     1      -3.581  17.867  -8.671  1.00  0.00     0.210 HD
ENDBRANCH  23  24
ENDBRANCH  17  23
BRANCH  18  26
ATOM     26  O   UNL     1      -2.378  20.111  -5.785  1.00  0.00    -0.387 OA
ATOM     27  H   UNL     1      -2.330  19.563  -6.611  1.00  0.00     0.211 HD
ENDBRANCH  18  26
ENDBRANCH  12  13
ENDBRANCH   7  12
BRANCH   4  28
ATOM     28  O   UNL     1     -10.525  21.751  -4.023  1.00  0.00    -0.393 OA
ATOM     29  H   UNL     1     -11.458  21.410  -4.031  1.00  0.00     0.210 HD
ENDBRANCH   4  28
BRANCH   8  30
ATOM     30  C   UNL     1      -8.561  21.267  -8.587  1.00  0.00     0.255 C 
BRANCH  30  31
ATOM     31  O   UNL     1      -8.469  21.956  -9.831  1.00  0.00    -0.461 OA
BRANCH  31  32
ATOM     32  C   UNL     1      -7.315  22.631 -10.239  1.00  0.00     0.338 C 
ATOM     33  O   UNL     1      -6.249  21.990 -10.453  1.00  0.00    -0.246 OA
BRANCH  32  34
ATOM     34  C   UNL     1      -7.350  24.099 -10.422  1.00  0.00     0.060 A 
ATOM     35  C   UNL     1      -6.185  24.871 -10.261  1.00  0.00     0.015 A 
ATOM     36  C   UNL     1      -8.554  24.742 -10.764  1.00  0.00     0.015 A 
ATOM     37  C   UNL     1      -6.226  26.258 -10.440  1.00  0.00     0.001 A 
ATOM     38  C   UNL     1      -8.589  26.129 -10.941  1.00  0.00     0.001 A 
ATOM     39  C   UNL     1      -7.427  26.886 -10.779  1.00  0.00     0.000 A 
ENDBRANCH  32  34
ENDBRANCH  31  32
ENDBRANCH  30  31
ENDBRANCH   8  30
TORSDOF 12
ENDMDL
MODEL 2
REMARK VINA RESULT:    -6.113      2.664      4.653
REMARK INTER + INTRA:          -9.668
REMARK INTER:                  -9.160
REMARK INTRA:                  -0.507
REMARK UNBOUND:                -0.159
REMARK SMILES C[C@]12C[C@H](O)[C@@H]3C[C@@]1(O[C@H]1O[C@@H](CO)[C@@H](O)[C@@H](O)[C@H]1O)[C@]3(COC(=O)c1ccccc1)C(=O)O2
REMARK SMILES IDX 1 1 2 2 3 3 4 4 6 5 7 6 8 7 21 8 32 9 33 10 34 11 9 12 10 13
REMARK SMILES IDX 19 14 11 15 17 16 12 17 15 18 20 19 18 21 13 23 14 24 16 26
REMARK SMILES IDX 5 28 22 30 23 31 24 32 25 33 26 34 27 35 31 36 28 37 30 38
REMARK SMILES IDX 29 39
REMARK H PARENT 20 20 18 22 14 25 16 27 5 29
REMARK Flexibility Score: inf
ROOT
ATOM      1  C   UNL     1      -8.906  21.351  -7.392  1.00  0.00     0.060 C 
ATOM      2  C   UNL     1      -8.314  22.239  -8.491  1.00  0.00     0.142 C 
ATOM      3  C   UNL     1      -9.351  22.494  -9.641  1.00  0.00     0.083 C 
ATOM      4  C   UNL     1      -8.641  23.109 -10.908  1.00  0.00     0.123 C 
ATOM      5  C   UNL     1      -7.142  22.664 -10.969  1.00  0.00     0.045 C 
ATOM      6  C   UNL     1      -7.101  21.197 -10.535  1.00  0.00     0.049 C 
ATOM      7  C   UNL     1      -6.940  21.713  -9.099  1.00  0.00     0.131 C 
ATOM      8  C   UNL     1      -6.367  23.035  -9.660  1.00  0.00     0.140 C 
ATOM      9  C   UNL     1      -6.967  24.063  -8.756  1.00  0.00     0.319 C 
ATOM     10  O   UNL     1      -6.608  25.268  -8.686  1.00  0.00    -0.251 OA
ATOM     11  O   UNL     1      -7.992  23.532  -7.997  1.00  0.00    -0.456 OA
ENDROOT
BRANCH   7  12
ATOM     12  O   UNL     1      -6.184  20.791  -8.312  1.00  0.00    -0.338 OA
BRANCH  12  13
ATOM     13  C   UNL     1      -5.341  21.337  -7.310  1.00  0.00     0.282 C 
ATOM     14  C   UNL     1      -3.979  20.616  -7.385  1.00  0.00     0.202 C 
ATOM     15  O   UNL     1      -5.894  21.191  -6.014  1.00  0.00    -0.341 OA
ATOM     16  C   UNL     1      -2.966  21.228  -6.382  1.00  0.00     0.179 C 
ATOM     17  C   UNL     1      -5.061  21.648  -4.948  1.00  0.00     0.178 C 
ATOM     18  C   UNL     1      -3.657  22.175  -5.372  1.00  0.00     0.177 C 
BRANCH  14  19
ATOM     19  O   UNL     1      -4.158  19.243  -7.125  1.00  0.00    -0.385 OA
ATOM     20  H   UNL     1      -3.886  19.086  -6.183  1.00  0.00     0.211 HD
ENDBRANCH  14  19
BRANCH  16  21
ATOM     21  O   UNL     1      -2.267  20.208  -5.709  1.00  0.00    -0.387 OA
ATOM     22  H   UNL     1      -1.330  20.227  -6.036  1.00  0.00     0.211 HD
ENDBRANCH  16  21
BRANCH  17  23
ATOM     23  C   UNL     1      -4.970  20.525  -3.903  1.00  0.00     0.191 C 
BRANCH  23  24
ATOM     24  O   UNL     1      -5.146  19.284  -4.530  1.00  0.00    -0.394 OA
ATOM     25  H   UNL     1      -4.502  19.263  -5.286  1.00  0.00     0.210 HD
ENDBRANCH  23  24
ENDBRANCH  17  23
BRANCH  18  26
ATOM     26  O   UNL     1      -2.847  22.399  -4.245  1.00  0.00    -0.387 OA
ATOM     27  H   UNL     1      -3.300  21.968  -3.474  1.00  0.00     0.211 HD
ENDBRANCH  18  26
ENDBRANCH  12  13
ENDBRANCH   7  12
BRANCH   4  28
ATOM     28  O   UNL     1      -9.295  22.696 -12.078  1.00  0.00    -0.393 OA
ATOM     29  H   UNL     1      -9.248  23.459 -12.712  1.00  0.00     0.210 HD
ENDBRANCH   4  28
BRANCH   8  30
ATOM     30  C   UNL     1      -4.845  23.173  -9.868  1.00  0.00     0.255 C 
BRANCH  30  31
ATOM     31  O   UNL     1      -4.358  24.269  -9.099  1.00  0.00    -0.461 OA
BRANCH  31  32
ATOM     32  C   UNL     1      -3.019  24.392  -8.718  1.00  0.00     0.338 C 
ATOM     33  O   UNL     1      -2.721  24.595  -7.509  1.00  0.00    -0.246 OA
BRANCH  32  34
ATOM     34  C   UNL     1      -1.952  24.278  -9.737  1.00  0.00     0.060 A 
ATOM     35  C   UNL     1      -1.396  25.428 -10.327  1.00  0.00     0.015 A 
ATOM     36  C   UNL     1      -1.477  23.012 -10.128  1.00  0.00     0.015 A 
ATOM     37  C   UNL     1      -0.385  25.312 -11.288  1.00  0.00     0.001 A 
ATOM     38  C   UNL     1      -0.468  22.902 -11.089  1.00  0.00     0.001 A 
ATOM     39  C   UNL     1       0.078  24.050 -11.668  1.00  0.00     0.000 A 
ENDBRANCH  32  34
ENDBRANCH  31  32
ENDBRANCH  30  31
ENDBRANCH   8  30
TORSDOF 12
ENDMDL
MODEL 3
REMARK VINA RESULT:    -6.056      2.349      4.334
REMARK INTER + INTRA:          -9.578
REMARK INTER:                  -8.861
REMARK INTRA:                  -0.717
REMARK UNBOUND:                -0.159
REMARK SMILES C[C@]12C[C@H](O)[C@@H]3C[C@@]1(O[C@H]1O[C@@H](CO)[C@@H](O)[C@@H](O)[C@H]1O)[C@]3(COC(=O)c1ccccc1)C(=O)O2
REMARK SMILES IDX 1 1 2 2 3 3 4 4 6 5 7 6 8 7 21 8 32 9 33 10 34 11 9 12 10 13
REMARK SMILES IDX 19 14 11 15 17 16 12 17 15 18 20 19 18 21 13 23 14 24 16 26
REMARK SMILES IDX 5 28 22 30 23 31 24 32 25 33 26 34 27 35 31 36 28 37 30 38
REMARK SMILES IDX 29 39
REMARK H PARENT 20 20 18 22 14 25 16 27 5 29
REMARK Flexibility Score: inf
ROOT
ATOM      1  C   UNL     1      -8.911  21.279  -7.466  1.00  0.00     0.060 C 
ATOM      2  C   UNL     1      -8.330  22.206  -8.538  1.00  0.00     0.142 C 
ATOM      3  C   UNL     1      -9.359  22.460  -9.696  1.00  0.00     0.083 C 
ATOM      4  C   UNL     1      -8.650  23.122 -10.939  1.00  0.00     0.123 C 
ATOM      5  C   UNL     1      -7.138  22.718 -10.991  1.00  0.00     0.045 C 
ATOM      6  C   UNL     1      -7.064  21.243 -10.588  1.00  0.00     0.049 C 
ATOM      7  C   UNL     1      -6.934  21.730  -9.139  1.00  0.00     0.131 C 
ATOM      8  C   UNL     1      -6.390  23.080  -9.663  1.00  0.00     0.140 C 
ATOM      9  C   UNL     1      -7.028  24.071  -8.745  1.00  0.00     0.319 C 
ATOM     10  O   UNL     1      -6.702  25.283  -8.644  1.00  0.00    -0.251 OA
ATOM     11  O   UNL     1      -8.049  23.496  -8.011  1.00  0.00    -0.456 OA
ENDROOT
BRANCH   7  12
ATOM     12  O   UNL     1      -6.164  20.811  -8.363  1.00  0.00    -0.338 OA
BRANCH  12  13
ATOM     13  C   UNL     1      -5.308  21.361  -7.374  1.00  0.00     0.282 C 
ATOM     14  C   UNL     1      -3.968  20.597  -7.423  1.00  0.00     0.202 C 
ATOM     15  O   UNL     1      -5.869  21.269  -6.076  1.00  0.00    -0.341 OA
ATOM     16  C   UNL     1      -2.940  21.208  -6.434  1.00  0.00     0.179 C 
ATOM     17  C   UNL     1      -5.026  21.731  -5.021  1.00  0.00     0.178 C 
ATOM     18  C   UNL     1      -3.605  22.204  -5.454  1.00  0.00     0.177 C 
BRANCH  14  19
ATOM     19  O   UNL     1      -4.189  19.239  -7.125  1.00  0.00    -0.385 OA
ATOM     20  H   UNL     1      -3.298  18.806  -7.055  1.00  0.00     0.211 HD
ENDBRANCH  14  19
BRANCH  16  21
ATOM     21  O   UNL     1      -2.274  20.187  -5.729  1.00  0.00    -0.387 OA
ATOM     22  H   UNL     1      -2.312  19.369  -6.291  1.00  0.00     0.211 HD
ENDBRANCH  16  21
BRANCH  17  23
ATOM     23  C   UNL     1      -4.972  20.637  -3.944  1.00  0.00     0.191 C 
BRANCH  23  24
ATOM     24  O   UNL     1      -5.187  19.385  -4.534  1.00  0.00    -0.394 OA
ATOM     25  H   UNL     1      -6.119  19.128  -4.307  1.00  0.00     0.210 HD
ENDBRANCH  23  24
ENDBRANCH  17  23
BRANCH  18  26
ATOM     26  O   UNL     1      -2.792  22.436  -4.331  1.00  0.00    -0.387 OA
ATOM     27  H   UNL     1      -2.655  21.558  -3.889  1.00  0.00     0.211 HD
ENDBRANCH  18  26
ENDBRANCH  12  13
ENDBRANCH   7  12
BRANCH   4  28
ATOM     28  O   UNL     1      -9.278  22.718 -12.127  1.00  0.00    -0.393 OA
ATOM     29  H   UNL     1     -10.170  22.366 -11.869  1.00  0.00     0.210 HD
ENDBRANCH   4  28
BRANCH   8  30
ATOM     30  C   UNL     1      -4.869  23.262  -9.849  1.00  0.00     0.255 C 
BRANCH  30  31
ATOM     31  O   UNL     1      -4.359  24.081  -8.800  1.00  0.00    -0.461 OA
BRANCH  31  32
ATOM     32  C   UNL     1      -3.056  24.588  -8.802  1.00  0.00     0.338 C 
ATOM     33  O   UNL     1      -2.178  24.078  -8.052  1.00  0.00    -0.246 OA
BRANCH  32  34
ATOM     34  C   UNL     1      -2.711  25.722  -9.687  1.00  0.00     0.060 A 
ATOM     35  C   UNL     1      -3.635  26.757  -9.924  1.00  0.00     0.015 A 
ATOM     36  C   UNL     1      -1.447  25.781 -10.303  1.00  0.00     0.015 A 
ATOM     37  C   UNL     1      -3.299  27.827 -10.759  1.00  0.00     0.001 A 
ATOM     38  C   UNL     1      -1.117  26.853 -11.137  1.00  0.00     0.001 A 
ATOM     39  C   UNL     1      -2.041  27.875 -11.366  1.00  0.00     0.000 A 
ENDBRANCH  32  34
ENDBRANCH  31  32
ENDBRANCH  30  31
ENDBRANCH   8  30
TORSDOF 12
ENDMDL
MODEL 4
REMARK VINA RESULT:    -5.897      1.898      5.770
REMARK INTER + INTRA:          -9.331
REMARK INTER:                  -8.425
REMARK INTRA:                  -0.906
REMARK UNBOUND:                -0.159
REMARK SMILES C[C@]12C[C@H](O)[C@@H]3C[C@@]1(O[C@H]1O[C@@H](CO)[C@@H](O)[C@@H](O)[C@H]1O)[C@]3(COC(=O)c1ccccc1)C(=O)O2
REMARK SMILES IDX 1 1 2 2 3 3 4 4 6 5 7 6 8 7 21 8 32 9 33 10 34 11 9 12 10 13
REMARK SMILES IDX 19 14 11 15 17 16 12 17 15 18 20 19 18 21 13 23 14 24 16 26
REMARK SMILES IDX 5 28 22 30 23 31 24 32 25 33 26 34 27 35 31 36 28 37 30 38
REMARK SMILES IDX 29 39
REMARK H PARENT 20 20 18 22 14 25 16 27 5 29
REMARK Flexibility Score: inf
ROOT
ATOM      1  C   UNL     1      -5.704  19.662  -9.122  1.00  0.00     0.060 C 
ATOM      2  C   UNL     1      -4.899  20.644  -8.264  1.00  0.00     0.142 C 
ATOM      3  C   UNL     1      -3.747  19.914  -7.488  1.00  0.00     0.083 C 
ATOM      4  C   UNL     1      -3.151  20.847  -6.364  1.00  0.00     0.123 C 
ATOM      5  C   UNL     1      -4.230  21.865  -5.864  1.00  0.00     0.045 C 
ATOM      6  C   UNL     1      -5.555  21.101  -5.796  1.00  0.00     0.049 C 
ATOM      7  C   UNL     1      -5.774  21.513  -7.257  1.00  0.00     0.131 C 
ATOM      8  C   UNL     1      -4.823  22.714  -7.039  1.00  0.00     0.140 C 
ATOM      9  C   UNL     1      -4.060  22.766  -8.323  1.00  0.00     0.319 C 
ATOM     10  O   UNL     1      -3.330  23.721  -8.696  1.00  0.00    -0.251 OA
ATOM     11  O   UNL     1      -4.241  21.615  -9.065  1.00  0.00    -0.456 OA
ENDROOT
BRANCH   7  12
ATOM     12  O   UNL     1      -7.167  21.645  -7.543  1.00  0.00    -0.338 OA
BRANCH  12  13
ATOM     13  C   UNL     1      -7.537  22.603  -8.522  1.00  0.00     0.282 C 
ATOM     14  C   UNL     1      -8.753  23.387  -7.989  1.00  0.00     0.202 C 
ATOM     15  O   UNL     1      -7.858  21.996  -9.762  1.00  0.00    -0.341 OA
ATOM     16  C   UNL     1      -9.157  24.524  -8.966  1.00  0.00     0.179 C 
ATOM     17  C   UNL     1      -8.317  22.894 -10.772  1.00  0.00     0.178 C 
ATOM     18  C   UNL     1      -8.450  24.385 -10.335  1.00  0.00     0.177 C 
BRANCH  14  19
ATOM     19  O   UNL     1      -9.833  22.505  -7.791  1.00  0.00    -0.385 OA
ATOM     20  H   UNL     1     -10.660  22.992  -8.046  1.00  0.00     0.211 HD
ENDBRANCH  14  19
BRANCH  16  21
ATOM     21  O   UNL     1     -10.555  24.553  -9.130  1.00  0.00    -0.387 OA
ATOM     22  H   UNL     1     -10.860  23.613  -9.229  1.00  0.00     0.211 HD
ENDBRANCH  16  21
BRANCH  17  23
ATOM     23  C   UNL     1      -9.631  22.336 -11.342  1.00  0.00     0.191 C 
BRANCH  23  24
ATOM     24  O   UNL     1      -9.620  22.444 -12.739  1.00  0.00    -0.394 OA
ATOM     25  H   UNL     1      -9.524  23.412 -12.941  1.00  0.00     0.210 HD
ENDBRANCH  23  24
ENDBRANCH  17  23
BRANCH  18  26
ATOM     26  O   UNL     1      -9.102  25.139 -11.326  1.00  0.00    -0.387 OA
ATOM     27  H   UNL     1      -9.296  24.520 -12.078  1.00  0.00     0.211 HD
ENDBRANCH  18  26
ENDBRANCH  12  13
ENDBRANCH   7  12
BRANCH   4  28
ATOM     28  O   UNL     1      -2.704  20.076  -5.281  1.00  0.00    -0.393 OA
ATOM     29  H   UNL     1      -1.954  20.578  -4.867  1.00  0.00     0.210 HD
ENDBRANCH   4  28
BRANCH   8  30
ATOM     30  C   UNL     1      -5.405  24.067  -6.582  1.00  0.00     0.255 C 
BRANCH  30  31
ATOM     31  O   UNL     1      -5.325  25.003  -7.653  1.00  0.00    -0.461 OA
BRANCH  31  32
ATOM     32  C   UNL     1      -5.983  26.237  -7.631  1.00  0.00     0.338 C 
ATOM     33  O   UNL     1      -6.272  26.780  -6.529  1.00  0.00    -0.246 OA
BRANCH  32  34
ATOM     34  C   UNL     1      -6.335  26.904  -8.904  1.00  0.00     0.060 A 
ATOM     35  C   UNL     1      -7.422  27.794  -8.973  1.00  0.00     0.015 A 
ATOM     36  C   UNL     1      -5.580  26.655 -10.066  1.00  0.00     0.015 A 
ATOM     37  C   UNL     1      -7.745  28.423 -10.179  1.00  0.00     0.001 A 
ATOM     38  C   UNL     1      -5.909  27.286 -11.270  1.00  0.00     0.001 A 
ATOM     39  C   UNL     1      -6.990  28.169 -11.327  1.00  0.00     0.000 A 
ENDBRANCH  32  34
ENDBRANCH  31  32
ENDBRANCH  30  31
ENDBRANCH   8  30
TORSDOF 12
ENDMDL
MODEL 5
REMARK VINA RESULT:    -5.889      1.945      4.292
REMARK INTER + INTRA:          -9.319
REMARK INTER:                  -8.606
REMARK INTRA:                  -0.713
REMARK UNBOUND:                -0.159
REMARK SMILES C[C@]12C[C@H](O)[C@@H]3C[C@@]1(O[C@H]1O[C@@H](CO)[C@@H](O)[C@@H](O)[C@H]1O)[C@]3(COC(=O)c1ccccc1)C(=O)O2
REMARK SMILES IDX 1 1 2 2 3 3 4 4 6 5 7 6 8 7 21 8 32 9 33 10 34 11 9 12 10 13
REMARK SMILES IDX 19 14 11 15 17 16 12 17 15 18 20 19 18 21 13 23 14 24 16 26
REMARK SMILES IDX 5 28 22 30 23 31 24 32 25 33 26 34 27 35 31 36 28 37 30 38
REMARK SMILES IDX 29 39
REMARK H PARENT 20 20 18 22 14 25 16 27 5 29
REMARK Flexibility Score: inf
ROOT
ATOM      1  C   UNL     1      -3.933  26.387  -9.448  1.00  0.00     0.060 C 
ATOM      2  C   UNL     1      -5.464  26.404  -9.388  1.00  0.00     0.142 C 
ATOM      3  C   UNL     1      -5.983  27.436  -8.326  1.00  0.00     0.083 C 
ATOM      4  C   UNL     1      -7.515  27.209  -8.029  1.00  0.00     0.123 C 
ATOM      5  C   UNL     1      -7.908  25.714  -8.272  1.00  0.00     0.045 C 
ATOM      6  C   UNL     1      -6.750  24.864  -7.744  1.00  0.00     0.049 C 
ATOM      7  C   UNL     1      -6.133  24.981  -9.143  1.00  0.00     0.131 C 
ATOM      8  C   UNL     1      -7.544  25.241  -9.720  1.00  0.00     0.140 C 
ATOM      9  C   UNL     1      -7.288  26.287 -10.757  1.00  0.00     0.319 C 
ATOM     10  O   UNL     1      -8.105  26.648 -11.643  1.00  0.00    -0.251 OA
ATOM     11  O   UNL     1      -6.026  26.835 -10.620  1.00  0.00    -0.456 OA
ENDROOT
BRANCH   7  12
ATOM     12  O   UNL     1      -5.351  23.826  -9.450  1.00  0.00    -0.338 OA
BRANCH  12  13
ATOM     13  C   UNL     1      -5.239  22.835  -8.440  1.00  0.00     0.282 C 
ATOM     14  C   UNL     1      -3.867  23.002  -7.755  1.00  0.00     0.202 C 
ATOM     15  O   UNL     1      -5.360  21.526  -8.967  1.00  0.00    -0.341 OA
ATOM     16  C   UNL     1      -3.711  22.013  -6.569  1.00  0.00     0.179 C 
ATOM     17  C   UNL     1      -5.179  20.475  -8.019  1.00  0.00     0.178 C 
ATOM     18  C   UNL     1      -4.816  20.930  -6.573  1.00  0.00     0.177 C 
BRANCH  14  19
ATOM     19  O   UNL     1      -2.842  22.801  -8.699  1.00  0.00    -0.385 OA
ATOM     20  H   UNL     1      -2.912  23.534  -9.367  1.00  0.00     0.211 HD
ENDBRANCH  14  19
BRANCH  16  21
ATOM     21  O   UNL     1      -2.434  21.420  -6.593  1.00  0.00    -0.387 OA
ATOM     22  H   UNL     1      -2.564  20.446  -6.741  1.00  0.00     0.211 HD
ENDBRANCH  16  21
BRANCH  17  23
ATOM     23  C   UNL     1      -4.148  19.490  -8.594  1.00  0.00     0.191 C 
BRANCH  23  24
ATOM     24  O   UNL     1      -4.278  18.248  -7.957  1.00  0.00    -0.394 OA
ATOM     25  H   UNL     1      -4.449  17.585  -8.677  1.00  0.00     0.210 HD
ENDBRANCH  23  24
ENDBRANCH  17  23
BRANCH  18  26
ATOM     26  O   UNL     1      -4.454  19.828  -5.778  1.00  0.00    -0.387 OA
ATOM     27  H   UNL     1      -4.428  19.037  -6.377  1.00  0.00     0.211 HD
ENDBRANCH  18  26
ENDBRANCH  12  13
ENDBRANCH   7  12
BRANCH   4  28
ATOM     28  O   UNL     1      -7.807  27.554  -6.701  1.00  0.00    -0.393 OA
ATOM     29  H   UNL     1      -8.169  28.479  -6.722  1.00  0.00     0.210 HD
ENDBRANCH   4  28
BRANCH   8  30
ATOM     30  C   UNL     1      -8.395  24.051 -10.207  1.00  0.00     0.255 C 
BRANCH  30  31
ATOM     31  O   UNL     1      -9.612  24.003  -9.467  1.00  0.00    -0.461 OA
BRANCH  31  32
ATOM     32  C   UNL     1     -10.049  22.855  -8.800  1.00  0.00     0.338 C 
ATOM     33  O   UNL     1     -10.830  22.048  -9.375  1.00  0.00    -0.246 OA
BRANCH  32  34
ATOM     34  C   UNL     1      -9.589  22.588  -7.420  1.00  0.00     0.060 A 
ATOM     35  C   UNL     1      -8.660  21.565  -7.156  1.00  0.00     0.015 A 
ATOM     36  C   UNL     1     -10.076  23.361  -6.349  1.00  0.00     0.015 A 
ATOM     37  C   UNL     1      -8.228  21.321  -5.848  1.00  0.00     0.001 A 
ATOM     38  C   UNL     1      -9.641  23.112  -5.043  1.00  0.00     0.001 A 
ATOM     39  C   UNL     1      -8.718  22.094  -4.792  1.00  0.00     0.000 A 
ENDBRANCH  32  34
ENDBRANCH  31  32
ENDBRANCH  30  31
ENDBRANCH   8  30
TORSDOF 12
ENDMDL
MODEL 6
REMARK VINA RESULT:    -5.881      1.620      6.195
REMARK INTER + INTRA:          -9.306
REMARK INTER:                  -9.080
REMARK INTRA:                  -0.226
REMARK UNBOUND:                -0.159
REMARK SMILES C[C@]12C[C@H](O)[C@@H]3C[C@@]1(O[C@H]1O[C@@H](CO)[C@@H](O)[C@@H](O)[C@H]1O)[C@]3(COC(=O)c1ccccc1)C(=O)O2
REMARK SMILES IDX 1 1 2 2 3 3 4 4 6 5 7 6 8 7 21 8 32 9 33 10 34 11 9 12 10 13
REMARK SMILES IDX 19 14 11 15 17 16 12 17 15 18 20 19 18 21 13 23 14 24 16 26
REMARK SMILES IDX 5 28 22 30 23 31 24 32 25 33 26 34 27 35 31 36 28 37 30 38
REMARK SMILES IDX 29 39
REMARK H PARENT 20 20 18 22 14 25 16 27 5 29
REMARK Flexibility Score: inf
ROOT
ATOM      1  C   UNL     1      -3.135  23.909  -8.622  1.00  0.00     0.060 C 
ATOM      2  C   UNL     1      -3.630  22.990  -7.501  1.00  0.00     0.142 C 
ATOM      3  C   UNL     1      -2.434  22.294  -6.761  1.00  0.00     0.083 C 
ATOM      4  C   UNL     1      -2.950  21.111  -5.855  1.00  0.00     0.123 C 
ATOM      5  C   UNL     1      -4.276  20.513  -6.431  1.00  0.00     0.045 C 
ATOM      6  C   UNL     1      -4.118  20.482  -7.953  1.00  0.00     0.049 C 
ATOM      7  C   UNL     1      -4.698  21.901  -7.960  1.00  0.00     0.131 C 
ATOM      8  C   UNL     1      -5.384  21.606  -6.606  1.00  0.00     0.140 C 
ATOM      9  C   UNL     1      -5.222  22.895  -5.867  1.00  0.00     0.319 C 
ATOM     10  O   UNL     1      -5.821  23.204  -4.804  1.00  0.00    -0.251 OA
ATOM     11  O   UNL     1      -4.308  23.723  -6.490  1.00  0.00    -0.456 OA
ENDROOT
BRANCH   7  12
ATOM     12  O   UNL     1      -5.410  22.152  -9.173  1.00  0.00    -0.338 OA
BRANCH  12  13
ATOM     13  C   UNL     1      -6.754  22.593  -9.053  1.00  0.00     0.282 C 
ATOM     14  C   UNL     1      -7.617  21.768 -10.030  1.00  0.00     0.202 C 
ATOM     15  O   UNL     1      -6.885  23.974  -9.340  1.00  0.00    -0.341 OA
ATOM     16  C   UNL     1      -9.121  22.126  -9.885  1.00  0.00     0.179 C 
ATOM     17  C   UNL     1      -8.224  24.470  -9.316  1.00  0.00     0.178 C 
ATOM     18  C   UNL     1      -9.330  23.406  -9.041  1.00  0.00     0.177 C 
BRANCH  14  19
ATOM     19  O   UNL     1      -7.184  21.996 -11.350  1.00  0.00    -0.385 OA
ATOM     20  H   UNL     1      -6.251  22.332 -11.297  1.00  0.00     0.211 HD
ENDBRANCH  14  19
BRANCH  16  21
ATOM     21  O   UNL     1      -9.714  22.265 -11.155  1.00  0.00    -0.387 OA
ATOM     22  H   UNL     1      -9.860  21.351 -11.513  1.00  0.00     0.211 HD
ENDBRANCH  16  21
BRANCH  17  23
ATOM     23  C   UNL     1      -8.468  25.238 -10.625  1.00  0.00     0.191 C 
BRANCH  23  24
ATOM     24  O   UNL     1      -9.437  26.228 -10.415  1.00  0.00    -0.394 OA
ATOM     25  H   UNL     1      -9.933  26.316 -11.272  1.00  0.00     0.210 HD
ENDBRANCH  23  24
ENDBRANCH  17  23
BRANCH  18  26
ATOM     26  O   UNL     1     -10.609  23.951  -9.248  1.00  0.00    -0.387 OA
ATOM     27  H   UNL     1     -11.026  23.435  -9.986  1.00  0.00     0.211 HD
ENDBRANCH  18  26
ENDBRANCH  12  13
ENDBRANCH   7  12
BRANCH   4  28
ATOM     28  O   UNL     1      -1.980  20.100  -5.780  1.00  0.00    -0.393 OA
ATOM     29  H   UNL     1      -1.581  20.157  -4.872  1.00  0.00     0.210 HD
ENDBRANCH   4  28
BRANCH   8  30
ATOM     30  C   UNL     1      -6.816  21.033  -6.591  1.00  0.00     0.255 C 
BRANCH  30  31
ATOM     31  O   UNL     1      -7.606  21.755  -5.651  1.00  0.00    -0.461 OA
BRANCH  31  32
ATOM     32  C   UNL     1      -8.974  21.982  -5.827  1.00  0.00     0.338 C 
ATOM     33  O   UNL     1      -9.678  21.146  -6.457  1.00  0.00    -0.246 OA
BRANCH  32  34
ATOM     34  C   UNL     1      -9.593  23.205  -5.269  1.00  0.00     0.060 A 
ATOM     35  C   UNL     1      -9.091  24.478  -5.594  1.00  0.00     0.015 A 
ATOM     36  C   UNL     1     -10.699  23.107  -4.404  1.00  0.00     0.015 A 
ATOM     37  C   UNL     1      -9.685  25.629  -5.065  1.00  0.00     0.001 A 
ATOM     38  C   UNL     1     -11.289  24.260  -3.878  1.00  0.00     0.001 A 
ATOM     39  C   UNL     1     -10.783  25.520  -4.207  1.00  0.00     0.000 A 
ENDBRANCH  32  34
ENDBRANCH  31  32
ENDBRANCH  30  31
ENDBRANCH   8  30
TORSDOF 12
ENDMDL
MODEL 7
REMARK VINA RESULT:    -5.873      2.240      4.846
REMARK INTER + INTRA:          -9.295
REMARK INTER:                  -8.332
REMARK INTRA:                  -0.963
REMARK UNBOUND:                -0.159
REMARK SMILES C[C@]12C[C@H](O)[C@@H]3C[C@@]1(O[C@H]1O[C@@H](CO)[C@@H](O)[C@@H](O)[C@H]1O)[C@]3(COC(=O)c1ccccc1)C(=O)O2
REMARK SMILES IDX 1 1 2 2 3 3 4 4 6 5 7 6 8 7 21 8 32 9 33 10 34 11 9 12 10 13
REMARK SMILES IDX 19 14 11 15 17 16 12 17 15 18 20 19 18 21 13 23 14 24 16 26
REMARK SMILES IDX 5 28 22 30 23 31 24 32 25 33 26 34 27 35 31 36 28 37 30 38
REMARK SMILES IDX 29 39
REMARK H PARENT 20 20 18 22 14 25 16 27 5 29
REMARK Flexibility Score: inf
ROOT
ATOM      1  C   UNL     1      -8.962  21.250  -7.474  1.00  0.00     0.060 C 
ATOM      2  C   UNL     1      -8.382  22.181  -8.544  1.00  0.00     0.142 C 
ATOM      3  C   UNL     1      -9.411  22.433  -9.702  1.00  0.00     0.083 C 
ATOM      4  C   UNL     1      -8.703  23.098 -10.944  1.00  0.00     0.123 C 
ATOM      5  C   UNL     1      -7.190  22.700 -10.995  1.00  0.00     0.045 C 
ATOM      6  C   UNL     1      -7.111  21.225 -10.594  1.00  0.00     0.049 C 
ATOM      7  C   UNL     1      -6.985  21.710  -9.145  1.00  0.00     0.131 C 
ATOM      8  C   UNL     1      -6.444  23.062  -9.666  1.00  0.00     0.140 C 
ATOM      9  C   UNL     1      -7.087  24.050  -8.747  1.00  0.00     0.319 C 
ATOM     10  O   UNL     1      -6.765  25.262  -8.644  1.00  0.00    -0.251 OA
ATOM     11  O   UNL     1      -8.106  23.470  -8.015  1.00  0.00    -0.456 OA
ENDROOT
BRANCH   7  12
ATOM     12  O   UNL     1      -6.213  20.792  -8.369  1.00  0.00    -0.338 OA
BRANCH  12  13
ATOM     13  C   UNL     1      -5.345  21.344  -7.391  1.00  0.00     0.282 C 
ATOM     14  C   UNL     1      -4.007  20.579  -7.452  1.00  0.00     0.202 C 
ATOM     15  O   UNL     1      -5.893  21.258  -6.087  1.00  0.00    -0.341 OA
ATOM     16  C   UNL     1      -2.968  21.192  -6.475  1.00  0.00     0.179 C 
ATOM     17  C   UNL     1      -5.039  21.723  -5.042  1.00  0.00     0.178 C 
ATOM     18  C   UNL     1      -3.622  22.192  -5.492  1.00  0.00     0.177 C 
BRANCH  14  19
ATOM     19  O   UNL     1      -4.226  19.222  -7.146  1.00  0.00    -0.385 OA
ATOM     20  H   UNL     1      -3.340  18.820  -6.946  1.00  0.00     0.211 HD
ENDBRANCH  14  19
BRANCH  16  21
ATOM     21  O   UNL     1      -2.296  20.173  -5.774  1.00  0.00    -0.387 OA
ATOM     22  H   UNL     1      -1.799  20.605  -5.031  1.00  0.00     0.211 HD
ENDBRANCH  16  21
BRANCH  17  23
ATOM     23  C   UNL     1      -4.974  20.631  -3.962  1.00  0.00     0.191 C 
BRANCH  23  24
ATOM     24  O   UNL     1      -5.171  19.375  -4.550  1.00  0.00    -0.394 OA
ATOM     25  H   UNL     1      -5.981  19.459  -5.117  1.00  0.00     0.210 HD
ENDBRANCH  23  24
ENDBRANCH  17  23
BRANCH  18  26
ATOM     26  O   UNL     1      -2.797  22.427  -4.378  1.00  0.00    -0.387 OA
ATOM     27  H   UNL     1      -1.921  22.003  -4.574  1.00  0.00     0.211 HD
ENDBRANCH  18  26
ENDBRANCH  12  13
ENDBRANCH   7  12
BRANCH   4  28
ATOM     28  O   UNL     1      -9.328  22.694 -12.133  1.00  0.00    -0.393 OA
ATOM     29  H   UNL     1      -8.722  22.954 -12.874  1.00  0.00     0.210 HD
ENDBRANCH   4  28
BRANCH   8  30
ATOM     30  C   UNL     1      -4.924  23.250  -9.850  1.00  0.00     0.255 C 
BRANCH  30  31
ATOM     31  O   UNL     1      -4.383  23.888  -8.697  1.00  0.00    -0.461 OA
BRANCH  31  32
ATOM     32  C   UNL     1      -3.339  24.815  -8.765  1.00  0.00     0.338 C 
ATOM     33  O   UNL     1      -3.469  25.865  -9.454  1.00  0.00    -0.246 OA
BRANCH  32  34
ATOM     34  C   UNL     1      -2.084  24.565  -8.022  1.00  0.00     0.060 A 
ATOM     35  C   UNL     1      -1.108  23.691  -8.535  1.00  0.00     0.015 A 
ATOM     36  C   UNL     1      -1.851  25.202  -6.789  1.00  0.00     0.015 A 
ATOM     37  C   UNL     1       0.078  23.463  -7.828  1.00  0.00     0.001 A 
ATOM     38  C   UNL     1      -0.664  24.969  -6.087  1.00  0.00     0.001 A 
ATOM     39  C   UNL     1       0.299  24.101  -6.605  1.00  0.00     0.000 A 
ENDBRANCH  32  34
ENDBRANCH  31  32
ENDBRANCH  30  31
ENDBRANCH   8  30
TORSDOF 12
ENDMDL
MODEL 8
REMARK VINA RESULT:    -5.838      1.782      6.498
REMARK INTER + INTRA:          -9.240
REMARK INTER:                  -8.788
REMARK INTRA:                  -0.452
REMARK UNBOUND:                -0.159
REMARK SMILES C[C@]12C[C@H](O)[C@@H]3C[C@@]1(O[C@H]1O[C@@H](CO)[C@@H](O)[C@@H](O)[C@H]1O)[C@]3(COC(=O)c1ccccc1)C(=O)O2
REMARK SMILES IDX 1 1 2 2 3 3 4 4 6 5 7 6 8 7 21 8 32 9 33 10 34 11 9 12 10 13
REMARK SMILES IDX 19 14 11 15 17 16 12 17 15 18 20 19 18 21 13 23 14 24 16 26
REMARK SMILES IDX 5 28 22 30 23 31 24 32 25 33 26 34 27 35 31 36 28 37 30 38
REMARK SMILES IDX 29 39
REMARK H PARENT 20 20 18 22 14 25 16 27 5 29
REMARK Flexibility Score: inf
ROOT
ATOM      1  C   UNL     1      -5.669  19.732  -9.113  1.00  0.00     0.060 C 
ATOM      2  C   UNL     1      -4.907  20.704  -8.208  1.00  0.00     0.142 C 
ATOM      3  C   UNL     1      -3.758  19.977  -7.423  1.00  0.00     0.083 C 
ATOM      4  C   UNL     1      -3.211  20.889  -6.260  1.00  0.00     0.123 C 
ATOM      5  C   UNL     1      -4.323  21.870  -5.758  1.00  0.00     0.045 C 
ATOM      6  C   UNL     1      -5.633  21.077  -5.745  1.00  0.00     0.049 C 
ATOM      7  C   UNL     1      -5.824  21.527  -7.199  1.00  0.00     0.131 C 
ATOM      8  C   UNL     1      -4.905  22.740  -6.923  1.00  0.00     0.140 C 
ATOM      9  C   UNL     1      -4.112  22.845  -8.186  1.00  0.00     0.319 C 
ATOM     10  O   UNL     1      -3.394  23.825  -8.513  1.00  0.00    -0.251 OA
ATOM     11  O   UNL     1      -4.250  21.711  -8.965  1.00  0.00    -0.456 OA
ENDROOT
BRANCH   7  12
ATOM     12  O   UNL     1      -7.212  21.638  -7.516  1.00  0.00    -0.338 OA
BRANCH  12  13
ATOM     13  C   UNL     1      -7.575  22.591  -8.502  1.00  0.00     0.282 C 
ATOM     14  C   UNL     1      -8.773  23.402  -7.967  1.00  0.00     0.202 C 
ATOM     15  O   UNL     1      -7.918  21.977  -9.732  1.00  0.00    -0.341 OA
ATOM     16  C   UNL     1      -9.166  24.535  -8.952  1.00  0.00     0.179 C 
ATOM     17  C   UNL     1      -8.370  22.872 -10.748  1.00  0.00     0.178 C 
ATOM     18  C   UNL     1      -8.473  24.370 -10.326  1.00  0.00     0.177 C 
BRANCH  14  19
ATOM     19  O   UNL     1      -9.865  22.540  -7.749  1.00  0.00    -0.385 OA
ATOM     20  H   UNL     1     -10.605  22.853  -8.333  1.00  0.00     0.211 HD
ENDBRANCH  14  19
BRANCH  16  21
ATOM     21  O   UNL     1     -10.565  24.587  -9.104  1.00  0.00    -0.387 OA
ATOM     22  H   UNL     1     -10.859  23.696  -9.431  1.00  0.00     0.211 HD
ENDBRANCH  16  21
BRANCH  17  23
ATOM     23  C   UNL     1      -9.698  22.331 -11.301  1.00  0.00     0.191 C 
BRANCH  23  24
ATOM     24  O   UNL     1      -9.691  22.409 -12.700  1.00  0.00    -0.394 OA
ATOM     25  H   UNL     1     -10.586  22.750 -12.962  1.00  0.00     0.210 HD
ENDBRANCH  23  24
ENDBRANCH  17  23
BRANCH  18  26
ATOM     26  O   UNL     1      -9.121  25.124 -11.319  1.00  0.00    -0.387 OA
ATOM     27  H   UNL     1      -9.067  24.600 -12.160  1.00  0.00     0.211 HD
ENDBRANCH  18  26
ENDBRANCH  12  13
ENDBRANCH   7  12
BRANCH   4  28
ATOM     28  O   UNL     1      -2.774  20.097  -5.187  1.00  0.00    -0.393 OA
ATOM     29  H   UNL     1      -3.587  19.696  -4.783  1.00  0.00     0.210 HD
ENDBRANCH   4  28
BRANCH   8  30
ATOM     30  C   UNL     1      -5.527  24.067  -6.443  1.00  0.00     0.255 C 
BRANCH  30  31
ATOM     31  O   UNL     1      -5.859  23.963  -5.062  1.00  0.00    -0.461 OA
BRANCH  31  32
ATOM     32  C   UNL     1      -6.941  24.639  -4.489  1.00  0.00     0.338 C 
ATOM     33  O   UNL     1      -6.788  25.808  -4.037  1.00  0.00    -0.246 OA
BRANCH  32  34
ATOM     34  C   UNL     1      -8.264  23.982  -4.420  1.00  0.00     0.060 A 
ATOM     35  C   UNL     1      -9.447  24.743  -4.436  1.00  0.00     0.015 A 
ATOM     36  C   UNL     1      -8.355  22.580  -4.338  1.00  0.00     0.015 A 
ATOM     37  C   UNL     1     -10.695  24.113  -4.373  1.00  0.00     0.001 A 
ATOM     38  C   UNL     1      -9.605  21.955  -4.275  1.00  0.00     0.001 A 
ATOM     39  C   UNL     1     -10.773  22.720  -4.292  1.00  0.00     0.000 A 
ENDBRANCH  32  34
ENDBRANCH  31  32
ENDBRANCH  30  31
ENDBRANCH   8  30
TORSDOF 12
ENDMDL
MODEL 9
REMARK VINA RESULT:    -5.834      2.163      5.767
REMARK INTER + INTRA:          -9.234
REMARK INTER:                  -8.494
REMARK INTRA:                  -0.740
REMARK UNBOUND:                -0.159
REMARK SMILES C[C@]12C[C@H](O)[C@@H]3C[C@@]1(O[C@H]1O[C@@H](CO)[C@@H](O)[C@@H](O)[C@H]1O)[C@]3(COC(=O)c1ccccc1)C(=O)O2
REMARK SMILES IDX 1 1 2 2 3 3 4 4 6 5 7 6 8 7 21 8 32 9 33 10 34 11 9 12 10 13
REMARK SMILES IDX 19 14 11 15 17 16 12 17 15 18 20 19 18 21 13 23 14 24 16 26
REMARK SMILES IDX 5 28 22 30 23 31 24 32 25 33 26 34 27 35 31 36 28 37 30 38
REMARK SMILES IDX 29 39
REMARK H PARENT 20 20 18 22 14 25 16 27 5 29
REMARK Flexibility Score: inf
ROOT
ATOM      1  C   UNL     1      -9.909  26.981  -7.524  1.00  0.00     0.060 C 
ATOM      2  C   UNL     1      -8.755  27.050  -8.529  1.00  0.00     0.142 C 
ATOM      3  C   UNL     1      -8.862  28.325  -9.438  1.00  0.00     0.083 C 
ATOM      4  C   UNL     1      -7.886  28.215 -10.672  1.00  0.00     0.123 C 
ATOM      5  C   UNL     1      -7.637  26.716 -11.046  1.00  0.00     0.045 C 
ATOM      6  C   UNL     1      -8.979  25.996 -10.889  1.00  0.00     0.049 C 
ATOM      7  C   UNL     1      -8.581  25.747  -9.429  1.00  0.00     0.131 C 
ATOM      8  C   UNL     1      -7.095  25.891  -9.830  1.00  0.00     0.140 C 
ATOM      9  C   UNL     1      -6.513  26.642  -8.676  1.00  0.00     0.319 C 
ATOM     10  O   UNL     1      -5.283  26.791  -8.452  1.00  0.00    -0.251 OA
ATOM     11  O   UNL     1      -7.501  27.176  -7.871  1.00  0.00    -0.456 OA
ENDROOT
BRANCH   7  12
ATOM     12  O   UNL     1      -9.159  24.534  -8.945  1.00  0.00    -0.338 OA
BRANCH  12  13
ATOM     13  C   UNL     1      -8.724  24.072  -7.676  1.00  0.00     0.282 C 
ATOM     14  C   UNL     1      -8.061  22.693  -7.871  1.00  0.00     0.202 C 
ATOM     15  O   UNL     1      -9.795  23.968  -6.754  1.00  0.00    -0.341 OA
ATOM     16  C   UNL     1      -7.469  22.165  -6.537  1.00  0.00     0.179 C 
ATOM     17  C   UNL     1      -9.442  23.433  -5.479  1.00  0.00     0.178 C 
ATOM     18  C   UNL     1      -7.955  22.992  -5.323  1.00  0.00     0.177 C 
BRANCH  14  19
ATOM     19  O   UNL     1      -9.007  21.784  -8.382  1.00  0.00    -0.385 OA
ATOM     20  H   UNL     1      -8.515  20.957  -8.627  1.00  0.00     0.211 HD
ENDBRANCH  14  19
BRANCH  16  21
ATOM     21  O   UNL     1      -7.784  20.803  -6.368  1.00  0.00    -0.387 OA
ATOM     22  H   UNL     1      -6.946  20.288  -6.501  1.00  0.00     0.211 HD
ENDBRANCH  16  21
BRANCH  17  23
ATOM     23  C   UNL     1     -10.424  22.295  -5.154  1.00  0.00     0.191 C 
BRANCH  23  24
ATOM     24  O   UNL     1     -10.781  21.632  -6.335  1.00  0.00    -0.394 OA
ATOM     25  H   UNL     1     -10.157  20.864  -6.421  1.00  0.00     0.210 HD
ENDBRANCH  23  24
ENDBRANCH  17  23
BRANCH  18  26
ATOM     26  O   UNL     1      -7.766  22.293  -4.119  1.00  0.00    -0.387 OA
ATOM     27  H   UNL     1      -6.819  21.995  -4.104  1.00  0.00     0.211 HD
ENDBRANCH  18  26
ENDBRANCH  12  13
ENDBRANCH   7  12
BRANCH   4  28
ATOM     28  O   UNL     1      -8.428  28.885 -11.779  1.00  0.00    -0.393 OA
ATOM     29  H   UNL     1      -8.146  28.376 -12.583  1.00  0.00     0.210 HD
ENDBRANCH   4  28
BRANCH   8  30
ATOM     30  C   UNL     1      -6.299  24.638 -10.248  1.00  0.00     0.255 C 
BRANCH  30  31
ATOM     31  O   UNL     1      -5.560  24.151  -9.131  1.00  0.00    -0.461 OA
BRANCH  31  32
ATOM     32  C   UNL     1      -4.468  23.289  -9.263  1.00  0.00     0.338 C 
ATOM     33  O   UNL     1      -3.327  23.751  -9.541  1.00  0.00    -0.246 OA
BRANCH  32  34
ATOM     34  C   UNL     1      -4.654  21.833  -9.072  1.00  0.00     0.060 A 
ATOM     35  C   UNL     1      -5.736  21.162  -9.669  1.00  0.00     0.015 A 
ATOM     36  C   UNL     1      -3.743  21.100  -8.288  1.00  0.00     0.015 A 
ATOM     37  C   UNL     1      -5.902  19.785  -9.486  1.00  0.00     0.001 A 
ATOM     38  C   UNL     1      -3.915  19.724  -8.108  1.00  0.00     0.001 A 
ATOM     39  C   UNL     1      -4.992  19.067  -8.706  1.00  0.00     0.000 A 
ENDBRANCH  32  34
ENDBRANCH  31  32
ENDBRANCH  30  31
ENDBRANCH   8  30
TORSDOF 12
ENDMDL
