MODEL 1
REMARK VINA RESULT:    -2.329      0.000      0.000
REMARK INTER + INTRA:          -2.329
REMARK INTER:                  -2.329
REMARK INTRA:                   0.000
REMARK UNBOUND:                 0.000
REMARK SMILES CC(=O)[O-]
REMARK SMILES IDX 1 1 2 2 3 3 4 4
REMARK H PARENT
REMARK Flexibility Score: inf
ROOT
ATOM      1  C   UNL     1      -9.266   4.886  -9.351  1.00  0.00     0.063 C 
ATOM      2  C   UNL     1      -8.649   5.404  -8.096  1.00  0.00     0.038 C 
ATOM      3  O   UNL     1      -7.407   5.601  -8.037  1.00  0.00    -0.550 OA
ATOM      4  O   UNL     1      -9.434   5.618  -6.972  1.00  0.00    -0.550 OA
ENDROOT
TORSDOF 0
ENDMDL
MODEL 2
REMARK VINA RESULT:    -2.235      2.258      2.712
REMARK INTER + INTRA:          -2.235
REMARK INTER:                  -2.235
REMARK INTRA:                   0.000
REMARK UNBOUND:                 0.000
REMARK SMILES CC(=O)[O-]
REMARK SMILES IDX 1 1 2 2 3 3 4 4
REMARK H PARENT
REMARK Flexibility Score: inf
ROOT
ATOM      1  C   UNL     1      -8.619   4.865 -11.505  1.00  0.00     0.063 C 
ATOM      2  C   UNL     1      -9.311   5.052 -10.198  1.00  0.00     0.038 C 
ATOM      3  O   UNL     1     -10.453   5.581 -10.158  1.00  0.00    -0.550 OA
ATOM      4  O   UNL     1      -8.676   4.695  -9.017  1.00  0.00    -0.550 OA
ENDROOT
TORSDOF 0
ENDMDL
MODEL 3
REMARK VINA RESULT:    -2.198      1.461      2.173
REMARK INTER + INTRA:          -2.198
REMARK INTER:                  -2.198
REMARK INTRA:                   0.000
REMARK UNBOUND:                 0.000
REMARK SMILES CC(=O)[O-]
REMARK SMILES IDX 1 1 2 2 3 3 4 4
REMARK H PARENT
REMARK Flexibility Score: inf
ROOT
ATOM      1  C   UNL     1      -7.324   6.018  -7.500  1.00  0.00     0.063 C 
ATOM      2  C   UNL     1      -8.755   5.610  -7.599  1.00  0.00     0.038 C 
ATOM      3  O   UNL     1      -9.503   5.679  -6.588  1.00  0.00    -0.550 OA
ATOM      4  O   UNL     1      -9.253   5.100  -8.790  1.00  0.00    -0.550 OA
ENDROOT
TORSDOF 0
ENDMDL
MODEL 4
REMARK VINA RESULT:    -2.194      3.892      4.510
REMARK INTER + INTRA:          -2.194
REMARK INTER:                  -2.194
REMARK INTRA:                   0.000
REMARK UNBOUND:                 0.000
REMARK SMILES CC(=O)[O-]
REMARK SMILES IDX 1 1 2 2 3 3 4 4
REMARK H PARENT
REMARK Flexibility Score: inf
ROOT
ATOM      1  C   UNL     1      -9.121   4.927 -10.884  1.00  0.00     0.063 C 
ATOM      2  C   UNL     1      -8.321   4.926 -12.142  1.00  0.00     0.038 C 
ATOM      3  O   UNL     1      -8.731   4.292 -13.150  1.00  0.00    -0.550 OA
ATOM      4  O   UNL     1      -7.095   5.575 -12.188  1.00  0.00    -0.550 OA
ENDROOT
TORSDOF 0
ENDMDL
MODEL 5
REMARK VINA RESULT:    -2.178      4.271      4.683
REMARK INTER + INTRA:          -2.178
REMARK INTER:                  -2.178
REMARK INTRA:                   0.000
REMARK UNBOUND:                 0.000
REMARK SMILES CC(=O)[O-]
REMARK SMILES IDX 1 1 2 2 3 3 4 4
REMARK H PARENT
REMARK Flexibility Score: inf
ROOT
ATOM      1  C   UNL     1      -6.872   5.366 -12.581  1.00  0.00     0.063 C 
ATOM      2  C   UNL     1      -8.253   4.819 -12.447  1.00  0.00     0.038 C 
ATOM      3  O   UNL     1      -8.824   4.297 -13.441  1.00  0.00    -0.550 OA
ATOM      4  O   UNL     1      -8.933   4.934 -11.243  1.00  0.00    -0.550 OA
ENDROOT
TORSDOF 0
ENDMDL
MODEL 6
REMARK VINA RESULT:    -2.023      4.277      4.634
REMARK INTER + INTRA:          -2.023
REMARK INTER:                  -2.023
REMARK INTRA:                   0.000
REMARK UNBOUND:                 0.000
REMARK SMILES CC(=O)[O-]
REMARK SMILES IDX 1 1 2 2 3 3 4 4
REMARK H PARENT
REMARK Flexibility Score: inf
ROOT
ATOM      1  C   UNL     1      -8.037   5.360 -14.037  1.00  0.00     0.063 C 
ATOM      2  C   UNL     1      -7.727   5.290 -12.580  1.00  0.00     0.038 C 
ATOM      3  O   UNL     1      -6.598   5.653 -12.157  1.00  0.00    -0.550 OA
ATOM      4  O   UNL     1      -8.662   4.772 -11.694  1.00  0.00    -0.550 OA
ENDROOT
TORSDOF 0
ENDMDL
MODEL 7
REMARK VINA RESULT:    -1.954      1.774      2.383
REMARK INTER + INTRA:          -1.954
REMARK INTER:                  -1.954
REMARK INTRA:                   0.000
REMARK UNBOUND:                 0.000
REMARK SMILES CC(=O)[O-]
REMARK SMILES IDX 1 1 2 2 3 3 4 4
REMARK H PARENT
REMARK Flexibility Score: inf
ROOT
ATOM      1  C   UNL     1      -8.320   5.591  -7.791  1.00  0.00     0.063 C 
ATOM      2  C   UNL     1      -8.635   5.489  -6.337  1.00  0.00     0.038 C 
ATOM      3  O   UNL     1      -9.720   5.948  -5.893  1.00  0.00    -0.550 OA
ATOM      4  O   UNL     1      -7.710   4.938  -5.461  1.00  0.00    -0.550 OA
ENDROOT
TORSDOF 0
ENDMDL
MODEL 8
REMARK VINA RESULT:    -1.942      7.998      8.651
REMARK INTER + INTRA:          -1.942
REMARK INTER:                  -1.942
REMARK INTRA:                   0.000
REMARK UNBOUND:                 0.000
REMARK SMILES CC(=O)[O-]
REMARK SMILES IDX 1 1 2 2 3 3 4 4
REMARK H PARENT
REMARK Flexibility Score: inf
ROOT
ATOM      1  C   UNL     1     -14.051  10.940  -3.668  1.00  0.00     0.063 C 
ATOM      2  C   UNL     1     -12.983  10.401  -2.778  1.00  0.00     0.038 C 
ATOM      3  O   UNL     1     -13.083  10.520  -1.528  1.00  0.00    -0.550 OA
ATOM      4  O   UNL     1     -11.850   9.815  -3.326  1.00  0.00    -0.550 OA
ENDROOT
TORSDOF 0
ENDMDL
MODEL 9
REMARK VINA RESULT:    -1.932      9.287      9.621
REMARK INTER + INTRA:          -1.932
REMARK INTER:                  -1.932
REMARK INTRA:                   0.000
REMARK UNBOUND:                 0.000
REMARK SMILES CC(=O)[O-]
REMARK SMILES IDX 1 1 2 2 3 3 4 4
REMARK H PARENT
REMARK Flexibility Score: inf
ROOT
ATOM      1  C   UNL     1     -13.993  10.881  -3.746  1.00  0.00     0.063 C 
ATOM      2  C   UNL     1     -13.293  12.037  -3.115  1.00  0.00     0.038 C 
ATOM      3  O   UNL     1     -13.199  12.110  -1.861  1.00  0.00    -0.550 OA
ATOM      4  O   UNL     1     -12.792  13.063  -3.904  1.00  0.00    -0.550 OA
ENDROOT
TORSDOF 0
ENDMDL
