MODEL 1
REMARK VINA RESULT:    -4.652      0.000      0.000
REMARK INTER + INTRA:          -6.067
REMARK INTER:                  -5.740
REMARK INTRA:                  -0.327
REMARK UNBOUND:                -0.327
REMARK SMILES O=c1c(O)c(-c2cc(O)c(O)c(O)c2)oc2cc(O)cc(O)c12
REMARK SMILES IDX 5 1 3 2 2 3 1 4 23 5 21 6 20 7 18 8 17 9 16 10 15 11 6 12
REMARK SMILES IDX 7 13 8 14 14 15 10 16 12 17 9 18 11 20 13 22 4 24 22 26
REMARK SMILES IDX 19 28
REMARK H PARENT 9 19 11 21 13 23 4 25 22 27 19 29
REMARK Flexibility Score: inf
ROOT
ATOM      1  C   UNL     1     165.638 166.996 159.266  1.00  0.00     0.180 A 
ATOM      2  C   UNL     1     164.834 168.026 158.741  1.00  0.00     0.208 A 
ATOM      3  C   UNL     1     165.410 169.286 158.512  1.00  0.00     0.238 A 
ATOM      4  O   UNL     1     164.703 170.213 158.032  1.00  0.00    -0.285 OA
ATOM      5  C   UNL     1     166.768 169.500 158.828  1.00  0.00     0.111 A 
ATOM      6  C   UNL     1     167.423 170.739 158.632  1.00  0.00     0.134 A 
ATOM      7  C   UNL     1     168.774 170.874 158.982  1.00  0.00     0.093 A 
ATOM      8  C   UNL     1     169.483 169.795 159.523  1.00  0.00     0.123 A 
ATOM      9  C   UNL     1     168.840 168.571 159.718  1.00  0.00     0.094 A 
ATOM     10  C   UNL     1     167.494 168.415 159.375  1.00  0.00     0.146 A 
ATOM     11  O   UNL     1     166.910 167.238 159.567  1.00  0.00    -0.452 OA
ENDROOT
BRANCH   1  12
ATOM     12  C   UNL     1     165.108 165.637 159.517  1.00  0.00     0.029 A 
ATOM     13  C   UNL     1     165.376 164.573 158.639  1.00  0.00     0.062 A 
ATOM     14  C   UNL     1     164.885 163.287 158.907  1.00  0.00     0.162 A 
ATOM     15  C   UNL     1     164.371 165.388 160.686  1.00  0.00     0.062 A 
ATOM     16  C   UNL     1     164.128 163.053 160.067  1.00  0.00     0.200 A 
ATOM     17  C   UNL     1     163.875 164.110 160.960  1.00  0.00     0.162 A 
BRANCH  14  18
ATOM     18  O   UNL     1     165.151 162.241 158.025  1.00  0.00    -0.504 OA
ATOM     19  H   UNL     1     166.036 161.747 158.038  1.00  0.00     0.293 HD
ENDBRANCH  14  18
BRANCH  16  20
ATOM     20  O   UNL     1     163.627 161.781 160.346  1.00  0.00    -0.502 OA
ATOM     21  H   UNL     1     163.608 161.044 159.651  1.00  0.00     0.293 HD
ENDBRANCH  16  20
BRANCH  17  22
ATOM     22  O   UNL     1     163.134 163.908 162.124  1.00  0.00    -0.504 OA
ATOM     23  H   UNL     1     163.573 163.807 163.031  1.00  0.00     0.293 HD
ENDBRANCH  17  22
ENDBRANCH   1  12
BRANCH   2  24
ATOM     24  O   UNL     1     163.479 167.804 158.482  1.00  0.00    -0.502 OA
ATOM     25  H   UNL     1     163.085 167.875 157.552  1.00  0.00     0.293 HD
ENDBRANCH   2  24
BRANCH   6  26
ATOM     26  O   UNL     1     166.744 171.834 158.095  1.00  0.00    -0.507 OA
ATOM     27  H   UNL     1     165.815 171.743 157.699  1.00  0.00     0.293 HD
ENDBRANCH   6  26
BRANCH   8  28
ATOM     28  O   UNL     1     170.824 169.930 159.871  1.00  0.00    -0.508 OA
ATOM     29  H   UNL     1     171.160 170.734 160.388  1.00  0.00     0.293 HD
ENDBRANCH   8  28
TORSDOF 7
ENDMDL
MODEL 2
REMARK VINA RESULT:    -4.635     16.157     17.781
REMARK INTER + INTRA:          -6.046
REMARK INTER:                  -5.726
REMARK INTRA:                  -0.321
REMARK UNBOUND:                -0.327
REMARK SMILES O=c1c(O)c(-c2cc(O)c(O)c(O)c2)oc2cc(O)cc(O)c12
REMARK SMILES IDX 5 1 3 2 2 3 1 4 23 5 21 6 20 7 18 8 17 9 16 10 15 11 6 12
REMARK SMILES IDX 7 13 8 14 14 15 10 16 12 17 9 18 11 20 13 22 4 24 22 26
REMARK SMILES IDX 19 28
REMARK H PARENT 9 19 11 21 13 23 4 25 22 27 19 29
REMARK Flexibility Score: inf
ROOT
ATOM      1  C   UNL     1     167.061 165.738 176.734  1.00  0.00     0.180 A 
ATOM      2  C   UNL     1     168.111 164.934 177.218  1.00  0.00     0.208 A 
ATOM      3  C   UNL     1     169.373 165.514 177.419  1.00  0.00     0.238 A 
ATOM      4  O   UNL     1     170.318 164.807 177.862  1.00  0.00    -0.285 OA
ATOM      5  C   UNL     1     169.570 166.877 177.116  1.00  0.00     0.111 A 
ATOM      6  C   UNL     1     170.811 167.538 177.285  1.00  0.00     0.134 A 
ATOM      7  C   UNL     1     170.928 168.894 176.951  1.00  0.00     0.093 A 
ATOM      8  C   UNL     1     169.830 169.603 176.450  1.00  0.00     0.123 A 
ATOM      9  C   UNL     1     168.604 168.956 176.282  1.00  0.00     0.094 A 
ATOM     10  C   UNL     1     168.466 167.604 176.611  1.00  0.00     0.146 A 
ATOM     11  O   UNL     1     167.288 167.016 176.444  1.00  0.00    -0.452 OA
ENDROOT
BRANCH   1  12
ATOM     12  C   UNL     1     165.698 165.203 176.515  1.00  0.00     0.029 A 
ATOM     13  C   UNL     1     164.653 165.472 177.415  1.00  0.00     0.062 A 
ATOM     14  C   UNL     1     163.363 164.976 177.177  1.00  0.00     0.162 A 
ATOM     15  C   UNL     1     165.426 164.462 175.355  1.00  0.00     0.062 A 
ATOM     16  C   UNL     1     163.106 164.214 176.025  1.00  0.00     0.200 A 
ATOM     17  C   UNL     1     164.144 163.962 175.111  1.00  0.00     0.162 A 
BRANCH  14  18
ATOM     18  O   UNL     1     162.336 165.242 178.081  1.00  0.00    -0.504 OA
ATOM     19  H   UNL     1     161.866 164.500 178.586  1.00  0.00     0.293 HD
ENDBRANCH  14  18
BRANCH  16  20
ATOM     20  O   UNL     1     161.830 163.709 175.776  1.00  0.00    -0.502 OA
ATOM     21  H   UNL     1     161.000 164.287 175.829  1.00  0.00     0.293 HD
ENDBRANCH  16  20
BRANCH  17  22
ATOM     22  O   UNL     1     163.918 163.216 173.953  1.00  0.00    -0.504 OA
ATOM     23  H   UNL     1     163.605 162.254 173.985  1.00  0.00     0.293 HD
ENDBRANCH  17  22
ENDBRANCH   1  12
BRANCH   2  24
ATOM     24  O   UNL     1     167.903 163.574 177.465  1.00  0.00    -0.502 OA
ATOM     25  H   UNL     1     166.990 163.194 177.680  1.00  0.00     0.293 HD
ENDBRANCH   2  24
BRANCH   6  26
ATOM     26  O   UNL     1     171.924 166.857 177.781  1.00  0.00    -0.507 OA
ATOM     27  H   UNL     1     172.651 166.506 177.169  1.00  0.00     0.293 HD
ENDBRANCH   6  26
BRANCH   8  28
ATOM     28  O   UNL     1     169.947 170.950 176.117  1.00  0.00    -0.508 OA
ATOM     29  H   UNL     1     170.067 171.250 175.157  1.00  0.00     0.293 HD
ENDBRANCH   8  28
TORSDOF 7
ENDMDL
MODEL 3
REMARK VINA RESULT:    -4.625     16.918     18.209
REMARK INTER + INTRA:          -6.034
REMARK INTER:                  -5.695
REMARK INTRA:                  -0.339
REMARK UNBOUND:                -0.327
REMARK SMILES O=c1c(O)c(-c2cc(O)c(O)c(O)c2)oc2cc(O)cc(O)c12
REMARK SMILES IDX 5 1 3 2 2 3 1 4 23 5 21 6 20 7 18 8 17 9 16 10 15 11 6 12
REMARK SMILES IDX 7 13 8 14 14 15 10 16 12 17 9 18 11 20 13 22 4 24 22 26
REMARK SMILES IDX 19 28
REMARK H PARENT 9 19 11 21 13 23 4 25 22 27 19 29
REMARK Flexibility Score: inf
ROOT
ATOM      1  C   UNL     1     170.356 167.106 176.590  1.00  0.00     0.180 A 
ATOM      2  C   UNL     1     171.132 168.129 177.166  1.00  0.00     0.208 A 
ATOM      3  C   UNL     1     170.544 169.385 177.386  1.00  0.00     0.238 A 
ATOM      4  O   UNL     1     171.226 170.307 177.910  1.00  0.00    -0.285 OA
ATOM      5  C   UNL     1     169.202 169.602 177.009  1.00  0.00     0.111 A 
ATOM      6  C   UNL     1     168.536 170.838 177.191  1.00  0.00     0.134 A 
ATOM      7  C   UNL     1     167.202 170.976 176.781  1.00  0.00     0.093 A 
ATOM      8  C   UNL     1     166.522 169.904 176.192  1.00  0.00     0.123 A 
ATOM      9  C   UNL     1     167.175 168.683 176.010  1.00  0.00     0.094 A 
ATOM     10  C   UNL     1     168.504 168.524 176.414  1.00  0.00     0.146 A 
ATOM     11  O   UNL     1     169.099 167.351 176.233  1.00  0.00    -0.452 OA
ENDROOT
BRANCH   1  12
ATOM     12  C   UNL     1     170.899 165.751 176.345  1.00  0.00     0.029 A 
ATOM     13  C   UNL     1     170.638 164.687 177.225  1.00  0.00     0.062 A 
ATOM     14  C   UNL     1     171.142 163.406 176.963  1.00  0.00     0.162 A 
ATOM     15  C   UNL     1     171.642 165.505 175.180  1.00  0.00     0.062 A 
ATOM     16  C   UNL     1     171.905 163.175 175.807  1.00  0.00     0.200 A 
ATOM     17  C   UNL     1     172.151 164.231 174.911  1.00  0.00     0.162 A 
BRANCH  14  18
ATOM     18  O   UNL     1     170.883 162.360 177.848  1.00  0.00    -0.504 OA
ATOM     19  H   UNL     1     171.522 161.580 177.951  1.00  0.00     0.293 HD
ENDBRANCH  14  18
BRANCH  16  20
ATOM     20  O   UNL     1     172.419 161.906 175.533  1.00  0.00    -0.502 OA
ATOM     21  H   UNL     1     172.726 161.279 176.267  1.00  0.00     0.293 HD
ENDBRANCH  16  20
BRANCH  17  22
ATOM     22  O   UNL     1     172.898 164.032 173.750  1.00  0.00    -0.504 OA
ATOM     23  H   UNL     1     172.983 163.122 173.313  1.00  0.00     0.293 HD
ENDBRANCH  17  22
ENDBRANCH   1  12
BRANCH   2  24
ATOM     24  O   UNL     1     172.474 167.905 177.485  1.00  0.00    -0.502 OA
ATOM     25  H   UNL     1     173.202 168.576 177.274  1.00  0.00     0.293 HD
ENDBRANCH   2  24
BRANCH   6  26
ATOM     26  O   UNL     1     169.187 171.925 177.775  1.00  0.00    -0.507 OA
ATOM     27  H   UNL     1     170.196 171.958 177.863  1.00  0.00     0.293 HD
ENDBRANCH   6  26
BRANCH   8  28
ATOM     28  O   UNL     1     165.198 170.042 175.783  1.00  0.00    -0.508 OA
ATOM     29  H   UNL     1     164.921 169.887 174.821  1.00  0.00     0.293 HD
ENDBRANCH   8  28
TORSDOF 7
ENDMDL
MODEL 4
REMARK VINA RESULT:    -4.624     16.625     18.919
REMARK INTER + INTRA:          -6.032
REMARK INTER:                  -5.689
REMARK INTRA:                  -0.343
REMARK UNBOUND:                -0.327
REMARK SMILES O=c1c(O)c(-c2cc(O)c(O)c(O)c2)oc2cc(O)cc(O)c12
REMARK SMILES IDX 5 1 3 2 2 3 1 4 23 5 21 6 20 7 18 8 17 9 16 10 15 11 6 12
REMARK SMILES IDX 7 13 8 14 14 15 10 16 12 17 9 18 11 20 13 22 4 24 22 26
REMARK SMILES IDX 19 28
REMARK H PARENT 9 19 11 21 13 23 4 25 22 27 19 29
REMARK Flexibility Score: inf
ROOT
ATOM      1  C   UNL     1     168.881 170.378 176.601  1.00  0.00     0.180 A 
ATOM      2  C   UNL     1     167.854 171.134 177.198  1.00  0.00     0.208 A 
ATOM      3  C   UNL     1     166.615 170.520 177.444  1.00  0.00     0.238 A 
ATOM      4  O   UNL     1     165.691 171.184 177.987  1.00  0.00    -0.285 OA
ATOM      5  C   UNL     1     166.418 169.174 177.073  1.00  0.00     0.111 A 
ATOM      6  C   UNL     1     165.201 168.482 177.282  1.00  0.00     0.134 A 
ATOM      7  C   UNL     1     165.081 167.146 176.876  1.00  0.00     0.093 A 
ATOM      8  C   UNL     1     166.154 166.487 176.266  1.00  0.00     0.123 A 
ATOM      9  C   UNL     1     167.357 167.164 176.058  1.00  0.00     0.094 A 
ATOM     10  C   UNL     1     167.497 168.497 176.457  1.00  0.00     0.146 A 
ATOM     11  O   UNL     1     168.654 169.115 176.251  1.00  0.00    -0.452 OA
ENDROOT
BRANCH   1  12
ATOM     12  C   UNL     1     170.219 170.948 176.327  1.00  0.00     0.029 A 
ATOM     13  C   UNL     1     171.301 170.728 177.197  1.00  0.00     0.062 A 
ATOM     14  C   UNL     1     172.566 171.257 176.908  1.00  0.00     0.162 A 
ATOM     15  C   UNL     1     170.431 171.676 175.146  1.00  0.00     0.062 A 
ATOM     16  C   UNL     1     172.763 172.005 175.735  1.00  0.00     0.200 A 
ATOM     17  C   UNL     1     171.689 172.210 174.851  1.00  0.00     0.162 A 
BRANCH  14  18
ATOM     18  O   UNL     1     173.630 171.038 177.781  1.00  0.00    -0.504 OA
ATOM     19  H   UNL     1     173.998 171.778 178.368  1.00  0.00     0.293 HD
ENDBRANCH  14  18
BRANCH  16  20
ATOM     20  O   UNL     1     174.015 172.544 175.434  1.00  0.00    -0.502 OA
ATOM     21  H   UNL     1     174.685 172.058 174.851  1.00  0.00     0.293 HD
ENDBRANCH  16  20
BRANCH  17  22
ATOM     22  O   UNL     1     171.854 172.941 173.674  1.00  0.00    -0.504 OA
ATOM     23  H   UNL     1     171.068 173.330 173.167  1.00  0.00     0.293 HD
ENDBRANCH  17  22
ENDBRANCH   1  12
BRANCH   2  24
ATOM     24  O   UNL     1     168.057 172.480 177.510  1.00  0.00    -0.502 OA
ATOM     25  H   UNL     1     167.889 173.224 176.844  1.00  0.00     0.293 HD
ENDBRANCH   2  24
BRANCH   6  26
ATOM     26  O   UNL     1     164.112 169.113 177.888  1.00  0.00    -0.507 OA
ATOM     27  H   UNL     1     163.763 170.006 177.560  1.00  0.00     0.293 HD
ENDBRANCH   6  26
BRANCH   8  28
ATOM     28  O   UNL     1     166.035 165.159 175.862  1.00  0.00    -0.508 OA
ATOM     29  H   UNL     1     166.012 164.904 174.881  1.00  0.00     0.293 HD
ENDBRANCH   8  28
TORSDOF 7
ENDMDL
MODEL 5
REMARK VINA RESULT:    -4.624      2.901      8.441
REMARK INTER + INTRA:          -6.032
REMARK INTER:                  -5.700
REMARK INTRA:                  -0.332
REMARK UNBOUND:                -0.327
REMARK SMILES O=c1c(O)c(-c2cc(O)c(O)c(O)c2)oc2cc(O)cc(O)c12
REMARK SMILES IDX 5 1 3 2 2 3 1 4 23 5 21 6 20 7 18 8 17 9 16 10 15 11 6 12
REMARK SMILES IDX 7 13 8 14 14 15 10 16 12 17 9 18 11 20 13 22 4 24 22 26
REMARK SMILES IDX 19 28
REMARK H PARENT 9 19 11 21 13 23 4 25 22 27 19 29
REMARK Flexibility Score: inf
ROOT
ATOM      1  C   UNL     1     170.305 168.930 159.369  1.00  0.00     0.180 A 
ATOM      2  C   UNL     1     171.075 167.879 158.835  1.00  0.00     0.208 A 
ATOM      3  C   UNL     1     170.463 166.636 158.608  1.00  0.00     0.238 A 
ATOM      4  O   UNL     1     171.140 165.691 158.121  1.00  0.00    -0.285 OA
ATOM      5  C   UNL     1     169.102 166.459 158.934  1.00  0.00     0.111 A 
ATOM      6  C   UNL     1     168.411 165.239 158.741  1.00  0.00     0.134 A 
ATOM      7  C   UNL     1     167.060 165.140 159.100  1.00  0.00     0.093 A 
ATOM      8  C   UNL     1     166.386 166.237 159.650  1.00  0.00     0.123 A 
ATOM      9  C   UNL     1     167.063 167.443 159.842  1.00  0.00     0.094 A 
ATOM     10  C   UNL     1     168.411 167.562 159.489  1.00  0.00     0.146 A 
ATOM     11  O   UNL     1     169.029 168.722 159.679  1.00  0.00    -0.452 OA
ENDROOT
BRANCH   1  12
ATOM     12  C   UNL     1     170.874 170.273 159.619  1.00  0.00     0.029 A 
ATOM     13  C   UNL     1     170.643 171.342 158.736  1.00  0.00     0.062 A 
ATOM     14  C   UNL     1     171.171 172.613 159.003  1.00  0.00     0.162 A 
ATOM     15  C   UNL     1     171.612 170.503 160.791  1.00  0.00     0.062 A 
ATOM     16  C   UNL     1     171.929 172.828 160.166  1.00  0.00     0.200 A 
ATOM     17  C   UNL     1     172.144 171.767 161.063  1.00  0.00     0.162 A 
BRANCH  14  18
ATOM     18  O   UNL     1     170.941 173.664 158.116  1.00  0.00    -0.504 OA
ATOM     19  H   UNL     1     170.726 173.499 157.140  1.00  0.00     0.293 HD
ENDBRANCH  14  18
BRANCH  16  20
ATOM     20  O   UNL     1     172.466 174.085 160.444  1.00  0.00    -0.502 OA
ATOM     21  H   UNL     1     172.391 174.860 159.796  1.00  0.00     0.293 HD
ENDBRANCH  16  20
BRANCH  17  22
ATOM     22  O   UNL     1     172.884 171.950 162.231  1.00  0.00    -0.504 OA
ATOM     23  H   UNL     1     173.412 172.796 162.408  1.00  0.00     0.293 HD
ENDBRANCH  17  22
ENDBRANCH   1  12
BRANCH   2  24
ATOM     24  O   UNL     1     172.434 168.064 158.567  1.00  0.00    -0.502 OA
ATOM     25  H   UNL     1     173.150 167.933 159.271  1.00  0.00     0.293 HD
ENDBRANCH   2  24
BRANCH   6  26
ATOM     26  O   UNL     1     169.056 164.127 158.196  1.00  0.00    -0.507 OA
ATOM     27  H   UNL     1     168.555 163.274 157.978  1.00  0.00     0.293 HD
ENDBRANCH   6  26
BRANCH   8  28
ATOM     28  O   UNL     1     165.043 166.139 160.007  1.00  0.00    -0.508 OA
ATOM     29  H   UNL     1     164.552 165.253 159.985  1.00  0.00     0.293 HD
ENDBRANCH   8  28
TORSDOF 7
ENDMDL
MODEL 6
REMARK VINA RESULT:    -4.614      3.823      5.934
REMARK INTER + INTRA:          -6.020
REMARK INTER:                  -5.675
REMARK INTRA:                  -0.345
REMARK UNBOUND:                -0.327
REMARK SMILES O=c1c(O)c(-c2cc(O)c(O)c(O)c2)oc2cc(O)cc(O)c12
REMARK SMILES IDX 5 1 3 2 2 3 1 4 23 5 21 6 20 7 18 8 17 9 16 10 15 11 6 12
REMARK SMILES IDX 7 13 8 14 14 15 10 16 12 17 9 18 11 20 13 22 4 24 22 26
REMARK SMILES IDX 19 28
REMARK H PARENT 9 19 11 21 13 23 4 25 22 27 19 29
REMARK Flexibility Score: inf
ROOT
ATOM      1  C   UNL     1     168.913 165.655 159.382  1.00  0.00     0.180 A 
ATOM      2  C   UNL     1     167.885 164.876 158.815  1.00  0.00     0.208 A 
ATOM      3  C   UNL     1     166.630 165.466 158.598  1.00  0.00     0.238 A 
ATOM      4  O   UNL     1     165.705 164.782 158.082  1.00  0.00    -0.285 OA
ATOM      5  C   UNL     1     166.417 166.810 158.967  1.00  0.00     0.111 A 
ATOM      6  C   UNL     1     165.181 167.477 158.787  1.00  0.00     0.134 A 
ATOM      7  C   UNL     1     165.047 168.813 159.189  1.00  0.00     0.093 A 
ATOM      8  C   UNL     1     166.123 169.496 159.769  1.00  0.00     0.123 A 
ATOM      9  C   UNL     1     167.344 168.842 159.948  1.00  0.00     0.094 A 
ATOM     10  C   UNL     1     167.499 167.510 159.553  1.00  0.00     0.146 A 
ATOM     11  O   UNL     1     168.672 166.915 159.732  1.00  0.00    -0.452 OA
ENDROOT
BRANCH   1  12
ATOM     12  C   UNL     1     170.268 165.110 159.624  1.00  0.00     0.029 A 
ATOM     13  C   UNL     1     171.321 165.341 158.722  1.00  0.00     0.062 A 
ATOM     14  C   UNL     1     172.604 164.837 158.981  1.00  0.00     0.162 A 
ATOM     15  C   UNL     1     170.526 164.398 160.806  1.00  0.00     0.062 A 
ATOM     16  C   UNL     1     172.846 164.105 160.155  1.00  0.00     0.200 A 
ATOM     17  C   UNL     1     171.801 163.890 161.071  1.00  0.00     0.162 A 
BRANCH  14  18
ATOM     18  O   UNL     1     173.639 165.066 158.076  1.00  0.00    -0.504 OA
ATOM     19  H   UNL     1     174.160 164.303 157.660  1.00  0.00     0.293 HD
ENDBRANCH  14  18
BRANCH  16  20
ATOM     20  O   UNL     1     174.115 163.592 160.426  1.00  0.00    -0.502 OA
ATOM     21  H   UNL     1     174.400 163.320 161.359  1.00  0.00     0.293 HD
ENDBRANCH  16  20
BRANCH  17  22
ATOM     22  O   UNL     1     172.011 163.175 162.249  1.00  0.00    -0.504 OA
ATOM     23  H   UNL     1     172.935 162.884 162.546  1.00  0.00     0.293 HD
ENDBRANCH  17  22
ENDBRANCH   1  12
BRANCH   2  24
ATOM     24  O   UNL     1     168.106 163.532 158.504  1.00  0.00    -0.502 OA
ATOM     25  H   UNL     1     168.901 163.225 157.958  1.00  0.00     0.293 HD
ENDBRANCH   2  24
BRANCH   6  26
ATOM     26  O   UNL     1     164.090 166.824 158.213  1.00  0.00    -0.507 OA
ATOM     27  H   UNL     1     163.367 166.394 158.779  1.00  0.00     0.293 HD
ENDBRANCH   6  26
BRANCH   8  28
ATOM     28  O   UNL     1     165.990 170.823 160.169  1.00  0.00    -0.508 OA
ATOM     29  H   UNL     1     166.778 171.351 160.525  1.00  0.00     0.293 HD
ENDBRANCH   8  28
TORSDOF 7
ENDMDL
MODEL 7
REMARK VINA RESULT:    -4.612      3.854      6.040
REMARK INTER + INTRA:          -6.018
REMARK INTER:                  -5.684
REMARK INTRA:                  -0.334
REMARK UNBOUND:                -0.327
REMARK SMILES O=c1c(O)c(-c2cc(O)c(O)c(O)c2)oc2cc(O)cc(O)c12
REMARK SMILES IDX 5 1 3 2 2 3 1 4 23 5 21 6 20 7 18 8 17 9 16 10 15 11 6 12
REMARK SMILES IDX 7 13 8 14 14 15 10 16 12 17 9 18 11 20 13 22 4 24 22 26
REMARK SMILES IDX 19 28
REMARK H PARENT 9 19 11 21 13 23 4 25 22 27 19 29
REMARK Flexibility Score: inf
ROOT
ATOM      1  C   UNL     1     167.072 170.344 159.366  1.00  0.00     0.180 A 
ATOM      2  C   UNL     1     168.107 171.115 158.802  1.00  0.00     0.208 A 
ATOM      3  C   UNL     1     169.358 170.515 158.585  1.00  0.00     0.238 A 
ATOM      4  O   UNL     1     170.290 171.191 158.071  1.00  0.00    -0.285 OA
ATOM      5  C   UNL     1     169.558 169.168 158.951  1.00  0.00     0.111 A 
ATOM      6  C   UNL     1     170.788 168.490 158.770  1.00  0.00     0.134 A 
ATOM      7  C   UNL     1     170.910 167.152 159.169  1.00  0.00     0.093 A 
ATOM      8  C   UNL     1     169.827 166.477 159.746  1.00  0.00     0.123 A 
ATOM      9  C   UNL     1     168.612 167.142 159.926  1.00  0.00     0.094 A 
ATOM     10  C   UNL     1     168.470 168.476 159.533  1.00  0.00     0.146 A 
ATOM     11  O   UNL     1     167.302 169.081 159.713  1.00  0.00    -0.452 OA
ENDROOT
BRANCH   1  12
ATOM     12  C   UNL     1     165.722 170.900 159.607  1.00  0.00     0.029 A 
ATOM     13  C   UNL     1     164.657 170.645 158.727  1.00  0.00     0.062 A 
ATOM     14  C   UNL     1     163.379 171.161 158.986  1.00  0.00     0.162 A 
ATOM     15  C   UNL     1     165.481 171.649 160.770  1.00  0.00     0.062 A 
ATOM     16  C   UNL     1     163.154 171.929 160.140  1.00  0.00     0.200 A 
ATOM     17  C   UNL     1     164.211 172.169 161.035  1.00  0.00     0.162 A 
BRANCH  14  18
ATOM     18  O   UNL     1     162.332 170.907 158.101  1.00  0.00    -0.504 OA
ATOM     19  H   UNL     1     162.382 171.177 157.126  1.00  0.00     0.293 HD
ENDBRANCH  14  18
BRANCH  16  20
ATOM     20  O   UNL     1     161.889 172.455 160.410  1.00  0.00    -0.502 OA
ATOM     21  H   UNL     1     161.270 172.776 159.676  1.00  0.00     0.293 HD
ENDBRANCH  16  20
BRANCH  17  22
ATOM     22  O   UNL     1     164.017 172.921 162.194  1.00  0.00    -0.504 OA
ATOM     23  H   UNL     1     163.195 173.496 162.331  1.00  0.00     0.293 HD
ENDBRANCH  17  22
ENDBRANCH   1  12
BRANCH   2  24
ATOM     24  O   UNL     1     167.899 172.461 158.494  1.00  0.00    -0.502 OA
ATOM     25  H   UNL     1     168.322 173.212 159.025  1.00  0.00     0.293 HD
ENDBRANCH   2  24
BRANCH   6  26
ATOM     26  O   UNL     1     171.886 169.135 158.198  1.00  0.00    -0.507 OA
ATOM     27  H   UNL     1     171.883 169.437 157.231  1.00  0.00     0.293 HD
ENDBRANCH   6  26
BRANCH   8  28
ATOM     28  O   UNL     1     169.949 165.148 160.144  1.00  0.00    -0.508 OA
ATOM     29  H   UNL     1     170.831 164.655 160.079  1.00  0.00     0.293 HD
ENDBRANCH   8  28
TORSDOF 7
ENDMDL
MODEL 8
REMARK VINA RESULT:    -4.609     14.039     15.667
REMARK INTER + INTRA:          -6.014
REMARK INTER:                  -5.729
REMARK INTRA:                  -0.285
REMARK UNBOUND:                -0.327
REMARK SMILES O=c1c(O)c(-c2cc(O)c(O)c(O)c2)oc2cc(O)cc(O)c12
REMARK SMILES IDX 5 1 3 2 2 3 1 4 23 5 21 6 20 7 18 8 17 9 16 10 15 11 6 12
REMARK SMILES IDX 7 13 8 14 14 15 10 16 12 17 9 18 11 20 13 22 4 24 22 26
REMARK SMILES IDX 19 28
REMARK H PARENT 9 19 11 21 13 23 4 25 22 27 19 29
REMARK Flexibility Score: inf
ROOT
ATOM      1  C   UNL     1     163.617 162.889 173.964  1.00  0.00     0.180 A 
ATOM      2  C   UNL     1     162.872 162.887 175.158  1.00  0.00     0.208 A 
ATOM      3  C   UNL     1     163.103 163.900 176.103  1.00  0.00     0.238 A 
ATOM      4  O   UNL     1     162.434 163.915 177.172  1.00  0.00    -0.285 OA
ATOM      5  C   UNL     1     164.084 164.880 175.849  1.00  0.00     0.111 A 
ATOM      6  C   UNL     1     164.381 165.931 176.749  1.00  0.00     0.134 A 
ATOM      7  C   UNL     1     165.378 166.862 176.427  1.00  0.00     0.093 A 
ATOM      8  C   UNL     1     166.084 166.764 175.223  1.00  0.00     0.123 A 
ATOM      9  C   UNL     1     165.795 165.729 174.331  1.00  0.00     0.094 A 
ATOM     10  C   UNL     1     164.803 164.791 174.633  1.00  0.00     0.146 A 
ATOM     11  O   UNL     1     164.545 163.821 173.765  1.00  0.00    -0.452 OA
ENDROOT
BRANCH   1  12
ATOM     12  C   UNL     1     163.418 161.866 172.912  1.00  0.00     0.029 A 
ATOM     13  C   UNL     1     162.262 161.854 172.113  1.00  0.00     0.062 A 
ATOM     14  C   UNL     1     162.102 160.892 171.106  1.00  0.00     0.162 A 
ATOM     15  C   UNL     1     164.428 160.924 172.665  1.00  0.00     0.062 A 
ATOM     16  C   UNL     1     163.109 159.937 170.882  1.00  0.00     0.200 A 
ATOM     17  C   UNL     1     164.277 159.959 171.664  1.00  0.00     0.162 A 
BRANCH  14  18
ATOM     18  O   UNL     1     160.948 160.884 170.324  1.00  0.00    -0.504 OA
ATOM     19  H   UNL     1     160.990 160.932 169.313  1.00  0.00     0.293 HD
ENDBRANCH  14  18
BRANCH  16  20
ATOM     20  O   UNL     1     162.963 158.969 169.887  1.00  0.00    -0.502 OA
ATOM     21  H   UNL     1     162.721 159.207 168.933  1.00  0.00     0.293 HD
ENDBRANCH  16  20
BRANCH  17  22
ATOM     22  O   UNL     1     165.297 159.031 171.461  1.00  0.00    -0.504 OA
ATOM     23  H   UNL     1     165.500 158.297 172.129  1.00  0.00     0.293 HD
ENDBRANCH  17  22
ENDBRANCH   1  12
BRANCH   2  24
ATOM     24  O   UNL     1     161.940 161.876 175.409  1.00  0.00    -0.502 OA
ATOM     25  H   UNL     1     161.598 161.261 174.682  1.00  0.00     0.293 HD
ENDBRANCH   2  24
BRANCH   6  26
ATOM     26  O   UNL     1     163.695 166.056 177.959  1.00  0.00    -0.507 OA
ATOM     27  H   UNL     1     164.141 166.428 178.789  1.00  0.00     0.293 HD
ENDBRANCH   6  26
BRANCH   8  28
ATOM     28  O   UNL     1     167.076 167.688 174.903  1.00  0.00    -0.508 OA
ATOM     29  H   UNL     1     167.944 167.404 174.464  1.00  0.00     0.293 HD
ENDBRANCH   8  28
TORSDOF 7
ENDMDL
MODEL 9
REMARK VINA RESULT:    -4.569     15.193     16.494
REMARK INTER + INTRA:          -5.964
REMARK INTER:                  -5.799
REMARK INTRA:                  -0.165
REMARK UNBOUND:                -0.327
REMARK SMILES O=c1c(O)c(-c2cc(O)c(O)c(O)c2)oc2cc(O)cc(O)c12
REMARK SMILES IDX 5 1 3 2 2 3 1 4 23 5 21 6 20 7 18 8 17 9 16 10 15 11 6 12
REMARK SMILES IDX 7 13 8 14 14 15 10 16 12 17 9 18 11 20 13 22 4 24 22 26
REMARK SMILES IDX 19 28
REMARK H PARENT 9 19 11 21 13 23 4 25 22 27 19 29
REMARK Flexibility Score: inf
ROOT
ATOM      1  C   UNL     1     162.762 172.333 173.943  1.00  0.00     0.180 A 
ATOM      2  C   UNL     1     162.845 173.225 175.029  1.00  0.00     0.208 A 
ATOM      3  C   UNL     1     163.829 173.013 176.008  1.00  0.00     0.238 A 
ATOM      4  O   UNL     1     163.920 173.812 176.979  1.00  0.00    -0.285 OA
ATOM      5  C   UNL     1     164.697 171.907 175.896  1.00  0.00     0.111 A 
ATOM      6  C   UNL     1     165.712 171.620 176.840  1.00  0.00     0.134 A 
ATOM      7  C   UNL     1     166.529 170.494 176.662  1.00  0.00     0.093 A 
ATOM      8  C   UNL     1     166.350 169.650 175.560  1.00  0.00     0.123 A 
ATOM      9  C   UNL     1     165.350 169.929 174.626  1.00  0.00     0.094 A 
ATOM     10  C   UNL     1     164.527 171.048 174.784  1.00  0.00     0.146 A 
ATOM     11  O   UNL     1     163.587 171.292 173.879  1.00  0.00    -0.452 OA
ENDROOT
BRANCH   1  12
ATOM     12  C   UNL     1     161.764 172.501 172.863  1.00  0.00     0.029 A 
ATOM     13  C   UNL     1     161.723 173.666 172.079  1.00  0.00     0.062 A 
ATOM     14  C   UNL     1     160.785 173.797 171.045  1.00  0.00     0.162 A 
ATOM     15  C   UNL     1     160.877 171.452 172.573  1.00  0.00     0.062 A 
ATOM     16  C   UNL     1     159.885 172.751 170.778  1.00  0.00     0.200 A 
ATOM     17  C   UNL     1     159.937 171.574 171.546  1.00  0.00     0.162 A 
BRANCH  14  18
ATOM     18  O   UNL     1     160.749 174.961 170.279  1.00  0.00    -0.504 OA
ATOM     19  H   UNL     1     161.580 175.518 170.118  1.00  0.00     0.293 HD
ENDBRANCH  14  18
BRANCH  16  20
ATOM     20  O   UNL     1     158.942 172.867 169.756  1.00  0.00    -0.502 OA
ATOM     21  H   UNL     1     159.203 172.854 168.777  1.00  0.00     0.293 HD
ENDBRANCH  16  20
BRANCH  17  22
ATOM     22  O   UNL     1     159.063 170.515 171.300  1.00  0.00    -0.504 OA
ATOM     23  H   UNL     1     158.156 170.451 171.745  1.00  0.00     0.293 HD
ENDBRANCH  17  22
ENDBRANCH   1  12
BRANCH   2  24
ATOM     24  O   UNL     1     161.942 174.285 175.144  1.00  0.00    -0.502 OA
ATOM     25  H   UNL     1     162.242 175.243 175.272  1.00  0.00     0.293 HD
ENDBRANCH   2  24
BRANCH   6  26
ATOM     26  O   UNL     1     165.914 172.442 177.949  1.00  0.00    -0.507 OA
ATOM     27  H   UNL     1     165.745 172.115 178.893  1.00  0.00     0.293 HD
ENDBRANCH   6  26
BRANCH   8  28
ATOM     28  O   UNL     1     167.160 168.531 175.384  1.00  0.00    -0.508 OA
ATOM     29  H   UNL     1     167.089 167.950 174.557  1.00  0.00     0.293 HD
ENDBRANCH   8  28
TORSDOF 7
ENDMDL
