MODEL 1
REMARK VINA RESULT:    -5.016      0.000      0.000
REMARK INTER + INTRA:          -6.686
REMARK INTER:                  -7.069
REMARK INTRA:                   0.383
REMARK UNBOUND:                 0.383
REMARK SMILES CC1=CCC(=C(C)C)C(=O)CC(C)=CCC1
REMARK SMILES IDX 12 1 14 2 13 3 15 4 16 5 2 6 1 7 3 8 11 10 9 11 10 12 5 13
REMARK SMILES IDX 6 14 7 15 8 16 4 17
REMARK H PARENT
REMARK Flexibility Score: 60.00
ROOT
ATOM      1  C   UNL     1      32.197  21.490  25.525  1.00  0.00    -0.070 C 
ATOM      2  C   UNL     1      31.789  21.457  24.234  1.00  0.00    -0.027 C 
ATOM      3  C   UNL     1      32.165  22.823  26.231  1.00  0.00     0.039 C 
ENDROOT
BRANCH   2   4
ATOM      4  C   UNL     1      31.837  20.263  23.312  1.00  0.00     0.032 C 
BRANCH   4   5
ATOM      5  C   UNL     1      30.746  19.223  23.633  1.00  0.00     0.034 C 
BRANCH   5   6
ATOM      6  C   UNL     1      31.321  17.835  23.837  1.00  0.00    -0.077 C 
ATOM      7  C   UNL     1      32.097  17.209  22.705  1.00  0.00     0.039 C 
ATOM      8  C   UNL     1      31.202  17.135  24.987  1.00  0.00    -0.023 CG0
ATOM      9  G   UNL     1      30.498  17.604  26.238  1.00  0.00     0.000 G0
ENDBRANCH   5   6
ENDBRANCH   4   5
ENDBRANCH   2   4
BRANCH   1  10
ATOM     10  C   UNL     1      32.742  20.283  26.270  1.00  0.00     0.111 C 
BRANCH  10  11
ATOM     11  C   UNL     1      31.700  19.669  27.172  1.00  0.00     0.163 C 
ATOM     12  O   UNL     1      30.979  20.444  27.859  1.00  0.00    -0.294 OA
BRANCH  11  13
ATOM     13  C   UNL     1      31.470  18.192  27.227  1.00  0.00    -0.002 C 
ATOM     14  C   UNL     1      32.169  17.387  28.084  1.00  0.00    -0.069 C 
ATOM     15  C   UNL     1      31.904  15.899  28.160  1.00  0.00     0.039 C 
ATOM     16  C   UNL     1      33.263  17.936  28.972  1.00  0.00     0.039 C 
BRANCH  13  17
ATOM     17  C   UNL     1      30.480  17.611  26.234  1.00  0.00     0.066 CG0
ATOM     18  G   UNL     1      31.209  17.142  24.997  1.00  0.00     0.000 G0
ENDBRANCH  13  17
ENDBRANCH  11  13
ENDBRANCH  10  11
ENDBRANCH   1  10
TORSDOF 0
ENDMDL
MODEL 2
REMARK VINA RESULT:    -4.375      1.468      3.720
REMARK INTER + INTRA:          -5.783
REMARK INTER:                  -7.234
REMARK INTRA:                   1.451
REMARK UNBOUND:                 0.383
REMARK SMILES CC1=CCC(=C(C)C)C(=O)CC(C)=CCC1
REMARK SMILES IDX 12 1 14 2 13 3 15 4 16 5 2 6 1 7 3 8 11 10 9 11 10 12 5 13
REMARK SMILES IDX 6 14 7 15 8 16 4 17
REMARK H PARENT
REMARK Flexibility Score: 60.00
ROOT
ATOM      1  C   UNL     1      32.987  20.951  27.132  1.00  0.00    -0.070 C 
ATOM      2  C   UNL     1      31.895  20.687  27.888  1.00  0.00    -0.027 C 
ATOM      3  C   UNL     1      33.825  22.147  27.515  1.00  0.00     0.039 C 
ENDROOT
BRANCH   2   4
ATOM      4  C   UNL     1      30.866  19.615  27.625  1.00  0.00     0.032 C 
BRANCH   4   5
ATOM      5  C   UNL     1      31.066  18.372  28.514  1.00  0.00     0.034 C 
BRANCH   5   6
ATOM      6  C   UNL     1      31.816  17.268  27.793  1.00  0.00    -0.077 C 
ATOM      7  C   UNL     1      32.693  16.350  28.608  1.00  0.00     0.039 C 
ATOM      8  C   UNL     1      31.724  17.042  26.464  1.00  0.00    -0.023 CG0
ATOM      9  G   UNL     1      30.875  17.826  25.492  1.00  0.00     0.000 G0
ENDBRANCH   5   6
ENDBRANCH   4   5
ENDBRANCH   2   4
BRANCH   1  10
ATOM     10  C   UNL     1      33.372  20.157  25.895  1.00  0.00     0.111 C 
BRANCH  10  11
ATOM     11  C   UNL     1      32.195  19.960  24.972  1.00  0.00     0.163 C 
ATOM     12  O   UNL     1      31.595  20.985  24.548  1.00  0.00    -0.294 OA
BRANCH  11  13
ATOM     13  C   UNL     1      31.766  18.602  24.516  1.00  0.00    -0.002 C 
ATOM     14  C   UNL     1      32.100  18.120  23.280  1.00  0.00    -0.069 C 
ATOM     15  C   UNL     1      31.694  16.730  22.840  1.00  0.00     0.039 C 
ATOM     16  C   UNL     1      32.858  18.962  22.280  1.00  0.00     0.039 C 
BRANCH  13  17
ATOM     17  C   UNL     1      30.877  17.807  25.455  1.00  0.00     0.066 CG0
ATOM     18  G   UNL     1      31.727  17.045  26.443  1.00  0.00     0.000 G0
ENDBRANCH  13  17
ENDBRANCH  11  13
ENDBRANCH  10  11
ENDBRANCH   1  10
TORSDOF 0
ENDMDL
MODEL 3
REMARK VINA RESULT:    -4.086      1.826      3.555
REMARK INTER + INTRA:          -5.376
REMARK INTER:                  -7.103
REMARK INTRA:                   1.727
REMARK UNBOUND:                 0.383
REMARK SMILES CC1=CCC(=C(C)C)C(=O)CC(C)=CCC1
REMARK SMILES IDX 12 1 14 2 13 3 15 4 16 5 2 6 1 7 3 8 11 10 9 11 10 12 5 13
REMARK SMILES IDX 6 14 7 15 8 16 4 17
REMARK H PARENT
REMARK Flexibility Score: 60.00
ROOT
ATOM      1  C   UNL     1      31.658  19.641  23.797  1.00  0.00    -0.070 C 
ATOM      2  C   UNL     1      31.371  20.855  24.326  1.00  0.00    -0.027 C 
ATOM      3  C   UNL     1      31.410  19.450  22.321  1.00  0.00     0.039 C 
ENDROOT
BRANCH   2   4
ATOM      4  C   UNL     1      31.442  21.232  25.785  1.00  0.00     0.032 C 
BRANCH   4   5
ATOM      5  C   UNL     1      32.743  21.976  26.142  1.00  0.00     0.034 C 
BRANCH   5   6
ATOM      6  C   UNL     1      33.664  21.136  27.007  1.00  0.00    -0.077 C 
ATOM      7  C   UNL     1      35.125  21.507  27.066  1.00  0.00     0.039 C 
ATOM      8  C   UNL     1      33.245  20.088  27.751  1.00  0.00    -0.023 CG0
ATOM      9  G   UNL     1      31.824  19.589  27.851  1.00  0.00     0.000 G0
ENDBRANCH   5   6
ENDBRANCH   4   5
ENDBRANCH   2   4
BRANCH   1  10
ATOM     10  C   UNL     1      32.147  18.457  24.614  1.00  0.00     0.111 C 
BRANCH  10  11
ATOM     11  C   UNL     1      31.234  18.171  25.780  1.00  0.00     0.163 C 
ATOM     12  O   UNL     1      30.040  17.848  25.534  1.00  0.00    -0.294 OA
BRANCH  11  13
ATOM     13  C   UNL     1      31.720  18.208  27.195  1.00  0.00    -0.002 C 
ATOM     14  C   UNL     1      31.989  17.063  27.893  1.00  0.00    -0.069 C 
ATOM     15  C   UNL     1      32.516  17.110  29.310  1.00  0.00     0.039 C 
ATOM     16  C   UNL     1      31.739  15.696  27.298  1.00  0.00     0.039 C 
BRANCH  13  17
ATOM     17  C   UNL     1      31.831  19.573  27.850  1.00  0.00     0.066 CG0
ATOM     18  G   UNL     1      33.251  20.075  27.751  1.00  0.00     0.000 G0
ENDBRANCH  13  17
ENDBRANCH  11  13
ENDBRANCH  10  11
ENDBRANCH   1  10
TORSDOF 0
ENDMDL
MODEL 4
REMARK VINA RESULT:    -3.990      1.912      4.718
REMARK INTER + INTRA:          -5.240
REMARK INTER:                  -6.702
REMARK INTRA:                   1.462
REMARK UNBOUND:                 0.383
REMARK SMILES CC1=CCC(=C(C)C)C(=O)CC(C)=CCC1
REMARK SMILES IDX 12 1 14 2 13 3 15 4 16 5 2 6 1 7 3 8 11 10 9 11 10 12 5 13
REMARK SMILES IDX 6 14 7 15 8 16 4 17
REMARK H PARENT
REMARK Flexibility Score: 60.00
ROOT
ATOM      1  C   UNL     1      31.730  17.887  27.952  1.00  0.00    -0.070 C 
ATOM      2  C   UNL     1      31.189  19.067  28.337  1.00  0.00    -0.027 C 
ATOM      3  C   UNL     1      31.865  16.809  28.999  1.00  0.00     0.039 C 
ENDROOT
BRANCH   2   4
ATOM      4  C   UNL     1      31.057  20.308  27.489  1.00  0.00     0.032 C 
BRANCH   4   5
ATOM      5  C   UNL     1      32.243  21.275  27.666  1.00  0.00     0.034 C 
BRANCH   5   6
ATOM      6  C   UNL     1      33.325  21.050  26.628  1.00  0.00    -0.077 C 
ATOM      7  C   UNL     1      34.763  21.237  27.043  1.00  0.00     0.039 C 
ATOM      8  C   UNL     1      33.077  20.665  25.356  1.00  0.00    -0.023 CG0
ATOM      9  G   UNL     1      31.714  20.395  24.766  1.00  0.00     0.000 G0
ENDBRANCH   5   6
ENDBRANCH   4   5
ENDBRANCH   2   4
BRANCH   1  10
ATOM     10  C   UNL     1      32.261  17.616  26.554  1.00  0.00     0.111 C 
BRANCH  10  11
ATOM     11  C   UNL     1      31.252  17.982  25.495  1.00  0.00     0.163 C 
ATOM     12  O   UNL     1      30.090  17.501  25.591  1.00  0.00    -0.294 OA
BRANCH  11  13
ATOM     13  C   UNL     1      31.578  18.929  24.383  1.00  0.00    -0.002 C 
ATOM     14  C   UNL     1      31.815  18.488  23.110  1.00  0.00    -0.069 C 
ATOM     15  C   UNL     1      32.107  19.455  21.983  1.00  0.00     0.039 C 
ATOM     16  C   UNL     1      31.832  17.015  22.772  1.00  0.00     0.039 C 
BRANCH  13  17
ATOM     17  C   UNL     1      31.710  20.397  24.744  1.00  0.00     0.066 CG0
ATOM     18  G   UNL     1      33.063  20.653  25.362  1.00  0.00     0.000 G0
ENDBRANCH  13  17
ENDBRANCH  11  13
ENDBRANCH  10  11
ENDBRANCH   1  10
TORSDOF 0
ENDMDL
MODEL 5
REMARK VINA RESULT:    -3.784     12.679     13.980
REMARK INTER + INTRA:          -4.950
REMARK INTER:                  -5.413
REMARK INTRA:                   0.463
REMARK UNBOUND:                 0.383
REMARK SMILES CC1=CCC(=C(C)C)C(=O)CC(C)=CCC1
REMARK SMILES IDX 12 1 14 2 13 3 15 4 16 5 2 6 1 7 3 8 11 10 9 11 10 12 5 13
REMARK SMILES IDX 6 14 7 15 8 16 4 17
REMARK H PARENT
REMARK Flexibility Score: 60.00
ROOT
ATOM      1  C   UNL     1      17.760  23.657  27.548  1.00  0.00    -0.070 C 
ATOM      2  C   UNL     1      18.566  22.776  26.910  1.00  0.00    -0.027 C 
ATOM      3  C   UNL     1      16.568  23.100  28.287  1.00  0.00     0.039 C 
ENDROOT
BRANCH   2   4
ATOM      4  C   UNL     1      19.743  23.118  26.030  1.00  0.00     0.032 C 
BRANCH   4   5
ATOM      5  C   UNL     1      21.086  23.049  26.783  1.00  0.00     0.034 C 
BRANCH   5   6
ATOM      6  C   UNL     1      21.906  24.312  26.606  1.00  0.00    -0.077 C 
ATOM      7  C   UNL     1      22.702  24.475  25.335  1.00  0.00     0.039 C 
ATOM      8  C   UNL     1      21.946  25.315  27.511  1.00  0.00    -0.023 CG0
ATOM      9  G   UNL     1      21.195  25.352  28.820  1.00  0.00     0.000 G0
ENDBRANCH   5   6
ENDBRANCH   4   5
ENDBRANCH   2   4
BRANCH   1  10
ATOM     10  C   UNL     1      17.952  25.164  27.505  1.00  0.00     0.111 C 
BRANCH  10  11
ATOM     11  C   UNL     1      18.630  25.674  28.753  1.00  0.00     0.163 C 
ATOM     12  O   UNL     1      18.037  25.518  29.855  1.00  0.00    -0.294 OA
BRANCH  11  13
ATOM     13  C   UNL     1      19.988  26.299  28.717  1.00  0.00    -0.002 C 
ATOM     14  C   UNL     1      20.155  27.643  28.522  1.00  0.00    -0.069 C 
ATOM     15  C   UNL     1      21.531  28.274  28.525  1.00  0.00     0.039 C 
ATOM     16  C   UNL     1      18.981  28.558  28.260  1.00  0.00     0.039 C 
BRANCH  13  17
ATOM     17  C   UNL     1      21.180  25.367  28.830  1.00  0.00     0.066 CG0
ATOM     18  G   UNL     1      21.926  25.328  27.518  1.00  0.00     0.000 G0
ENDBRANCH  13  17
ENDBRANCH  11  13
ENDBRANCH  10  11
ENDBRANCH   1  10
TORSDOF 0
ENDMDL
MODEL 6
REMARK VINA RESULT:    -3.619     15.824     17.094
REMARK INTER + INTRA:          -4.717
REMARK INTER:                  -5.135
REMARK INTRA:                   0.418
REMARK UNBOUND:                 0.383
REMARK SMILES CC1=CCC(=C(C)C)C(=O)CC(C)=CCC1
REMARK SMILES IDX 12 1 14 2 13 3 15 4 16 5 2 6 1 7 3 8 11 10 9 11 10 12 5 13
REMARK SMILES IDX 6 14 7 15 8 16 4 17
REMARK H PARENT
REMARK Flexibility Score: 60.00
ROOT
ATOM      1  C   UNL     1      17.309  23.869  27.165  1.00  0.00    -0.070 C 
ATOM      2  C   UNL     1      16.692  22.828  27.772  1.00  0.00    -0.027 C 
ATOM      3  C   UNL     1      17.382  23.853  25.658  1.00  0.00     0.039 C 
ENDROOT
BRANCH   2   4
ATOM      4  C   UNL     1      16.597  22.589  29.259  1.00  0.00     0.032 C 
BRANCH   4   5
ATOM      5  C   UNL     1      15.643  23.577  29.958  1.00  0.00     0.034 C 
BRANCH   5   6
ATOM      6  C   UNL     1      16.299  24.268  31.137  1.00  0.00    -0.077 C 
ATOM      7  C   UNL     1      16.894  23.413  32.228  1.00  0.00     0.039 C 
ATOM      8  C   UNL     1      16.406  25.611  31.256  1.00  0.00    -0.023 CG0
ATOM      9  G   UNL     1      15.907  26.627  30.257  1.00  0.00     0.000 G0
ENDBRANCH   5   6
ENDBRANCH   4   5
ENDBRANCH   2   4
BRANCH   1  10
ATOM     10  C   UNL     1      17.981  25.007  27.916  1.00  0.00     0.111 C 
BRANCH  10  11
ATOM     11  C   UNL     1      17.078  26.209  28.029  1.00  0.00     0.163 C 
ATOM     12  O   UNL     1      16.354  26.503  27.039  1.00  0.00    -0.294 OA
BRANCH  11  13
ATOM     13  C   UNL     1      16.983  27.013  29.287  1.00  0.00    -0.002 C 
ATOM     14  C   UNL     1      17.885  28.000  29.579  1.00  0.00    -0.069 C 
ATOM     15  C   UNL     1      17.761  28.834  30.835  1.00  0.00     0.039 C 
ATOM     16  C   UNL     1      19.068  28.282  28.682  1.00  0.00     0.039 C 
BRANCH  13  17
ATOM     17  C   UNL     1      15.886  26.637  30.266  1.00  0.00     0.066 CG0
ATOM     18  G   UNL     1      16.407  25.622  31.254  1.00  0.00     0.000 G0
ENDBRANCH  13  17
ENDBRANCH  11  13
ENDBRANCH  10  11
ENDBRANCH   1  10
TORSDOF 0
ENDMDL
MODEL 7
REMARK VINA RESULT:    -3.614     12.295     14.375
REMARK INTER + INTRA:          -4.710
REMARK INTER:                  -5.045
REMARK INTRA:                   0.335
REMARK UNBOUND:                 0.383
REMARK SMILES CC1=CCC(=C(C)C)C(=O)CC(C)=CCC1
REMARK SMILES IDX 12 1 14 2 13 3 15 4 16 5 2 6 1 7 3 8 11 10 9 11 10 12 5 13
REMARK SMILES IDX 6 14 7 15 8 16 4 17
REMARK H PARENT
REMARK Flexibility Score: 60.00
ROOT
ATOM      1  C   UNL     1      20.571  26.462  28.085  1.00  0.00    -0.070 C 
ATOM      2  C   UNL     1      21.615  25.624  27.876  1.00  0.00    -0.027 C 
ATOM      3  C   UNL     1      19.202  25.844  28.227  1.00  0.00     0.039 C 
ENDROOT
BRANCH   2   4
ATOM      4  C   UNL     1      23.043  26.028  27.603  1.00  0.00     0.032 C 
BRANCH   4   5
ATOM      5  C   UNL     1      23.825  26.349  28.892  1.00  0.00     0.034 C 
BRANCH   5   6
ATOM      6  C   UNL     1      24.471  27.719  28.844  1.00  0.00    -0.077 C 
ATOM      7  C   UNL     1      25.583  27.952  27.852  1.00  0.00     0.039 C 
ATOM      8  C   UNL     1      24.089  28.757  29.622  1.00  0.00    -0.023 CG0
ATOM      9  G   UNL     1      22.978  28.732  30.644  1.00  0.00     0.000 G0
ENDBRANCH   5   6
ENDBRANCH   4   5
ENDBRANCH   2   4
BRANCH   1  10
ATOM     10  C   UNL     1      20.695  27.976  28.118  1.00  0.00     0.111 C 
BRANCH  10  11
ATOM     11  C   UNL     1      20.658  28.507  29.529  1.00  0.00     0.163 C 
ATOM     12  O   UNL     1      19.718  28.130  30.281  1.00  0.00    -0.294 OA
BRANCH  11  13
ATOM     13  C   UNL     1      21.723  29.411  30.064  1.00  0.00    -0.002 C 
ATOM     14  C   UNL     1      21.620  30.772  29.977  1.00  0.00    -0.069 C 
ATOM     15  C   UNL     1      22.684  31.681  30.554  1.00  0.00     0.039 C 
ATOM     16  C   UNL     1      20.460  31.436  29.272  1.00  0.00     0.039 C 
BRANCH  13  17
ATOM     17  C   UNL     1      22.963  28.752  30.640  1.00  0.00     0.066 CG0
ATOM     18  G   UNL     1      24.070  28.755  29.613  1.00  0.00     0.000 G0
ENDBRANCH  13  17
ENDBRANCH  11  13
ENDBRANCH  10  11
ENDBRANCH   1  10
TORSDOF 0
ENDMDL
MODEL 8
REMARK VINA RESULT:    -3.597     14.028     15.064
REMARK INTER + INTRA:          -4.686
REMARK INTER:                  -5.070
REMARK INTRA:                   0.384
REMARK UNBOUND:                 0.383
REMARK SMILES CC1=CCC(=C(C)C)C(=O)CC(C)=CCC1
REMARK SMILES IDX 12 1 14 2 13 3 15 4 16 5 2 6 1 7 3 8 11 10 9 11 10 12 5 13
REMARK SMILES IDX 6 14 7 15 8 16 4 17
REMARK H PARENT
REMARK Flexibility Score: 60.00
ROOT
ATOM      1  C   UNL     1      21.347  25.199  27.588  1.00  0.00    -0.070 C 
ATOM      2  C   UNL     1      21.118  24.110  26.816  1.00  0.00    -0.027 C 
ATOM      3  C   UNL     1      22.631  25.958  27.358  1.00  0.00     0.039 C 
ENDROOT
BRANCH   2   4
ATOM      4  C   UNL     1      19.960  23.151  26.945  1.00  0.00     0.032 C 
BRANCH   4   5
ATOM      5  C   UNL     1      18.686  23.664  26.247  1.00  0.00     0.034 C 
BRANCH   5   6
ATOM      6  C   UNL     1      17.470  23.595  27.150  1.00  0.00    -0.077 C 
ATOM      7  C   UNL     1      16.970  22.236  27.574  1.00  0.00     0.039 C 
ATOM      8  C   UNL     1      16.822  24.683  27.622  1.00  0.00    -0.023 CG0
ATOM      9  G   UNL     1      17.191  26.120  27.341  1.00  0.00     0.000 G0
ENDBRANCH   5   6
ENDBRANCH   4   5
ENDBRANCH   2   4
BRANCH   1  10
ATOM     10  C   UNL     1      20.422  25.653  28.706  1.00  0.00     0.111 C 
BRANCH  10  11
ATOM     11  C   UNL     1      19.504  26.760  28.253  1.00  0.00     0.163 C 
ATOM     12  O   UNL     1      20.012  27.740  27.642  1.00  0.00    -0.294 OA
BRANCH  11  13
ATOM     13  C   UNL     1      18.024  26.696  28.460  1.00  0.00    -0.002 C 
ATOM     14  C   UNL     1      17.448  27.069  29.644  1.00  0.00    -0.069 C 
ATOM     15  C   UNL     1      15.947  27.037  29.834  1.00  0.00     0.039 C 
ATOM     16  C   UNL     1      18.280  27.496  30.831  1.00  0.00     0.039 C 
BRANCH  13  17
ATOM     17  C   UNL     1      17.192  26.127  27.326  1.00  0.00     0.066 CG0
ATOM     18  G   UNL     1      16.832  24.692  27.624  1.00  0.00     0.000 G0
ENDBRANCH  13  17
ENDBRANCH  11  13
ENDBRANCH  10  11
ENDBRANCH   1  10
TORSDOF 0
ENDMDL
MODEL 9
REMARK VINA RESULT:    -3.553     10.478     12.718
REMARK INTER + INTRA:          -4.624
REMARK INTER:                  -5.083
REMARK INTRA:                   0.459
REMARK UNBOUND:                 0.383
REMARK SMILES CC1=CCC(=C(C)C)C(=O)CC(C)=CCC1
REMARK SMILES IDX 12 1 14 2 13 3 15 4 16 5 2 6 1 7 3 8 11 10 9 11 10 12 5 13
REMARK SMILES IDX 6 14 7 15 8 16 4 17
REMARK H PARENT
REMARK Flexibility Score: 60.00
ROOT
ATOM      1  C   UNL     1      28.919  28.603  27.121  1.00  0.00    -0.070 C 
ATOM      2  C   UNL     1      29.765  29.612  27.440  1.00  0.00    -0.027 C 
ATOM      3  C   UNL     1      29.036  28.009  25.738  1.00  0.00     0.039 C 
ENDROOT
BRANCH   2   4
ATOM      4  C   UNL     1      29.754  30.416  28.717  1.00  0.00     0.032 C 
BRANCH   4   5
ATOM      5  C   UNL     1      28.536  31.354  28.815  1.00  0.00     0.034 C 
BRANCH   5   6
ATOM      6  C   UNL     1      27.759  31.150  30.101  1.00  0.00    -0.077 C 
ATOM      7  C   UNL     1      28.475  31.365  31.412  1.00  0.00     0.039 C 
ATOM      8  C   UNL     1      26.451  30.812  30.143  1.00  0.00    -0.023 CG0
ATOM      9  G   UNL     1      25.559  30.590  28.945  1.00  0.00     0.000 G0
ENDBRANCH   5   6
ENDBRANCH   4   5
ENDBRANCH   2   4
BRANCH   1  10
ATOM     10  C   UNL     1      27.829  28.089  28.046  1.00  0.00     0.111 C 
BRANCH  10  11
ATOM     11  C   UNL     1      26.464  28.570  27.618  1.00  0.00     0.163 C 
ATOM     12  O   UNL     1      26.154  28.470  26.400  1.00  0.00    -0.294 OA
BRANCH  11  13
ATOM     13  C   UNL     1      25.469  29.103  28.600  1.00  0.00    -0.002 C 
ATOM     14  C   UNL     1      24.487  28.311  29.130  1.00  0.00    -0.069 C 
ATOM     15  C   UNL     1      23.508  28.848  30.150  1.00  0.00     0.039 C 
ATOM     16  C   UNL     1      24.309  26.874  28.697  1.00  0.00     0.039 C 
BRANCH  13  17
ATOM     17  C   UNL     1      25.547  30.583  28.927  1.00  0.00     0.066 CG0
ATOM     18  G   UNL     1      26.434  30.796  30.130  1.00  0.00     0.000 G0
ENDBRANCH  13  17
ENDBRANCH  11  13
ENDBRANCH  10  11
ENDBRANCH   1  10
TORSDOF 0
ENDMDL
