MODEL 1
REMARK VINA RESULT:    -6.607      0.000      0.000
REMARK INTER + INTRA:          -8.217
REMARK INTER:                  -7.959
REMARK INTRA:                  -0.258
REMARK UNBOUND:                -0.258
REMARK SMILES O=c1c(O)c(-c2ccc(O)c(O)c2)oc2cc(O)cc(O)c12
REMARK SMILES IDX 5 1 3 2 2 3 1 4 22 5 20 6 19 7 17 8 16 9 15 10 14 11 6 12
REMARK SMILES IDX 7 13 8 14 9 15 13 16 11 17 10 18 12 20 4 22 21 24 18 26
REMARK H PARENT 10 19 12 21 4 23 21 25 18 27
REMARK Flexibility Score: inf
ROOT
ATOM      1  C   UNL     1      14.259 -36.070  -2.607  1.00  0.00     0.180 A 
ATOM      2  C   UNL     1      14.207 -34.715  -2.237  1.00  0.00     0.208 A 
ATOM      3  C   UNL     1      13.052 -33.972  -2.533  1.00  0.00     0.238 A 
ATOM      4  O   UNL     1      13.041 -32.743  -2.267  1.00  0.00    -0.285 OA
ATOM      5  C   UNL     1      11.943 -34.608  -3.143  1.00  0.00     0.111 A 
ATOM      6  C   UNL     1      10.705 -33.964  -3.447  1.00  0.00     0.134 A 
ATOM      7  C   UNL     1       9.716 -34.666  -4.149  1.00  0.00     0.093 A 
ATOM      8  C   UNL     1       9.893 -36.004  -4.500  1.00  0.00     0.123 A 
ATOM      9  C   UNL     1      11.077 -36.658  -4.158  1.00  0.00     0.094 A 
ATOM     10  C   UNL     1      12.098 -35.974  -3.493  1.00  0.00     0.146 A 
ATOM     11  O   UNL     1      13.217 -36.629  -3.206  1.00  0.00    -0.452 OA
ENDROOT
BRANCH   1  12
ATOM     12  C   UNL     1      15.448 -36.913  -2.342  1.00  0.00     0.025 A 
ATOM     13  C   UNL     1      15.464 -37.846  -1.290  1.00  0.00     0.016 A 
ATOM     14  C   UNL     1      16.607 -38.612  -1.043  1.00  0.00     0.051 A 
ATOM     15  C   UNL     1      17.751 -38.448  -1.833  1.00  0.00     0.157 A 
ATOM     16  C   UNL     1      16.606 -36.738  -3.118  1.00  0.00     0.062 A 
ATOM     17  C   UNL     1      17.753 -37.507  -2.871  1.00  0.00     0.158 A 
BRANCH  15  18
ATOM     18  O   UNL     1      18.892 -39.212  -1.592  1.00  0.00    -0.504 OA
ATOM     19  H   UNL     1      18.983 -39.779  -0.757  1.00  0.00     0.293 HD
ENDBRANCH  15  18
BRANCH  17  20
ATOM     20  O   UNL     1      18.895 -37.341  -3.651  1.00  0.00    -0.504 OA
ATOM     21  H   UNL     1      19.821 -37.517  -3.279  1.00  0.00     0.293 HD
ENDBRANCH  17  20
ENDBRANCH   1  12
BRANCH   2  22
ATOM     22  O   UNL     1      15.283 -34.126  -1.567  1.00  0.00    -0.502 OA
ATOM     23  H   UNL     1      15.986 -34.671  -1.082  1.00  0.00     0.293 HD
ENDBRANCH   2  22
BRANCH   6  24
ATOM     24  O   UNL     1      10.387 -32.657  -3.066  1.00  0.00    -0.507 OA
ATOM     25  H   UNL     1       9.660 -32.095  -3.480  1.00  0.00     0.293 HD
ENDBRANCH   6  24
BRANCH   8  26
ATOM     26  O   UNL     1       8.880 -36.675  -5.181  1.00  0.00    -0.508 OA
ATOM     27  H   UNL     1       8.289 -37.354  -4.715  1.00  0.00     0.293 HD
ENDBRANCH   8  26
TORSDOF 6
ENDMDL
MODEL 2
REMARK VINA RESULT:    -6.567      1.330      3.236
REMARK INTER + INTRA:          -8.168
REMARK INTER:                  -8.055
REMARK INTRA:                  -0.113
REMARK UNBOUND:                -0.258
REMARK SMILES O=c1c(O)c(-c2ccc(O)c(O)c2)oc2cc(O)cc(O)c12
REMARK SMILES IDX 5 1 3 2 2 3 1 4 22 5 20 6 19 7 17 8 16 9 15 10 14 11 6 12
REMARK SMILES IDX 7 13 8 14 9 15 13 16 11 17 10 18 12 20 4 22 21 24 18 26
REMARK H PARENT 10 19 12 21 4 23 21 25 18 27
REMARK Flexibility Score: inf
ROOT
ATOM      1  C   UNL     1      14.206 -37.153  -3.271  1.00  0.00     0.180 A 
ATOM      2  C   UNL     1      13.376 -38.139  -3.830  1.00  0.00     0.208 A 
ATOM      3  C   UNL     1      12.051 -37.809  -4.159  1.00  0.00     0.238 A 
ATOM      4  O   UNL     1      11.292 -38.716  -4.588  1.00  0.00    -0.285 OA
ATOM      5  C   UNL     1      11.590 -36.482  -3.978  1.00  0.00     0.111 A 
ATOM      6  C   UNL     1      10.281 -36.024  -4.319  1.00  0.00     0.134 A 
ATOM      7  C   UNL     1       9.903 -34.714  -3.996  1.00  0.00     0.093 A 
ATOM      8  C   UNL     1      10.803 -33.829  -3.405  1.00  0.00     0.123 A 
ATOM      9  C   UNL     1      12.101 -34.250  -3.118  1.00  0.00     0.094 A 
ATOM     10  C   UNL     1      12.498 -35.561  -3.393  1.00  0.00     0.146 A 
ATOM     11  O   UNL     1      13.736 -35.927  -3.084  1.00  0.00    -0.452 OA
ENDROOT
BRANCH   1  12
ATOM     12  C   UNL     1      15.609 -37.429  -2.886  1.00  0.00     0.025 A 
ATOM     13  C   UNL     1      16.684 -36.774  -3.512  1.00  0.00     0.016 A 
ATOM     14  C   UNL     1      18.001 -37.072  -3.149  1.00  0.00     0.051 A 
ATOM     15  C   UNL     1      18.261 -38.035  -2.167  1.00  0.00     0.157 A 
ATOM     16  C   UNL     1      15.878 -38.410  -1.916  1.00  0.00     0.062 A 
ATOM     17  C   UNL     1      17.199 -38.708  -1.551  1.00  0.00     0.158 A 
BRANCH  15  18
ATOM     18  O   UNL     1      19.573 -38.332  -1.800  1.00  0.00    -0.504 OA
ATOM     19  H   UNL     1      19.780 -38.987  -1.055  1.00  0.00     0.293 HD
ENDBRANCH  15  18
BRANCH  17  20
ATOM     20  O   UNL     1      17.462 -39.670  -0.579  1.00  0.00    -0.504 OA
ATOM     21  H   UNL     1      18.245 -40.309  -0.663  1.00  0.00     0.293 HD
ENDBRANCH  17  20
ENDBRANCH   1  12
BRANCH   2  22
ATOM     22  O   UNL     1      13.873 -39.424  -4.071  1.00  0.00    -0.502 OA
ATOM     23  H   UNL     1      13.268 -40.213  -4.268  1.00  0.00     0.293 HD
ENDBRANCH   2  22
BRANCH   6  24
ATOM     24  O   UNL     1       9.331 -36.798  -4.992  1.00  0.00    -0.507 OA
ATOM     25  H   UNL     1       8.655 -36.441  -5.648  1.00  0.00     0.293 HD
ENDBRANCH   6  24
BRANCH   8  26
ATOM     26  O   UNL     1      10.396 -32.528  -3.115  1.00  0.00    -0.508 OA
ATOM     27  H   UNL     1      10.497 -31.779  -3.790  1.00  0.00     0.293 HD
ENDBRANCH   8  26
TORSDOF 6
ENDMDL
MODEL 3
REMARK VINA RESULT:    -6.396      0.602      1.429
REMARK INTER + INTRA:          -7.963
REMARK INTER:                  -7.696
REMARK INTRA:                  -0.267
REMARK UNBOUND:                -0.258
REMARK SMILES O=c1c(O)c(-c2ccc(O)c(O)c2)oc2cc(O)cc(O)c12
REMARK SMILES IDX 5 1 3 2 2 3 1 4 22 5 20 6 19 7 17 8 16 9 15 10 14 11 6 12
REMARK SMILES IDX 7 13 8 14 9 15 13 16 11 17 10 18 12 20 4 22 21 24 18 26
REMARK H PARENT 10 19 12 21 4 23 21 25 18 27
REMARK Flexibility Score: inf
ROOT
ATOM      1  C   UNL     1      14.394 -35.994  -2.806  1.00  0.00     0.180 A 
ATOM      2  C   UNL     1      14.247 -34.640  -2.458  1.00  0.00     0.208 A 
ATOM      3  C   UNL     1      13.027 -33.997  -2.721  1.00  0.00     0.238 A 
ATOM      4  O   UNL     1      12.928 -32.767  -2.476  1.00  0.00    -0.285 OA
ATOM      5  C   UNL     1      11.949 -34.731  -3.274  1.00  0.00     0.111 A 
ATOM      6  C   UNL     1      10.652 -34.194  -3.539  1.00  0.00     0.134 A 
ATOM      7  C   UNL     1       9.696 -34.986  -4.188  1.00  0.00     0.093 A 
ATOM      8  C   UNL     1       9.966 -36.313  -4.522  1.00  0.00     0.123 A 
ATOM      9  C   UNL     1      11.211 -36.864  -4.217  1.00  0.00     0.094 A 
ATOM     10  C   UNL     1      12.199 -36.088  -3.605  1.00  0.00     0.146 A 
ATOM     11  O   UNL     1      13.376 -36.646  -3.352  1.00  0.00    -0.452 OA
ENDROOT
BRANCH   1  12
ATOM     12  C   UNL     1      15.655 -36.735  -2.574  1.00  0.00     0.025 A 
ATOM     13  C   UNL     1      16.788 -36.524  -3.379  1.00  0.00     0.016 A 
ATOM     14  C   UNL     1      17.959 -37.254  -3.157  1.00  0.00     0.051 A 
ATOM     15  C   UNL     1      18.009 -38.212  -2.137  1.00  0.00     0.157 A 
ATOM     16  C   UNL     1      15.705 -37.713  -1.566  1.00  0.00     0.062 A 
ATOM     17  C   UNL     1      16.881 -38.445  -1.342  1.00  0.00     0.158 A 
BRANCH  15  18
ATOM     18  O   UNL     1      19.176 -38.941  -1.911  1.00  0.00    -0.504 OA
ATOM     19  H   UNL     1      19.950 -38.920  -2.565  1.00  0.00     0.293 HD
ENDBRANCH  15  18
BRANCH  17  20
ATOM     20  O   UNL     1      16.932 -39.404  -0.333  1.00  0.00    -0.504 OA
ATOM     21  H   UNL     1      17.780 -39.924  -0.139  1.00  0.00     0.293 HD
ENDBRANCH  17  20
ENDBRANCH   1  12
BRANCH   2  22
ATOM     22  O   UNL     1      15.299 -33.953  -1.843  1.00  0.00    -0.502 OA
ATOM     23  H   UNL     1      15.232 -33.590  -0.899  1.00  0.00     0.293 HD
ENDBRANCH   2  22
BRANCH   6  24
ATOM     24  O   UNL     1      10.246 -32.908  -3.169  1.00  0.00    -0.507 OA
ATOM     25  H   UNL     1      10.377 -32.078  -3.725  1.00  0.00     0.293 HD
ENDBRANCH   6  24
BRANCH   8  26
ATOM     26  O   UNL     1       8.984 -37.076  -5.149  1.00  0.00    -0.508 OA
ATOM     27  H   UNL     1       8.726 -36.915  -6.116  1.00  0.00     0.293 HD
ENDBRANCH   8  26
TORSDOF 6
ENDMDL
MODEL 4
REMARK VINA RESULT:    -6.382      2.105      3.147
REMARK INTER + INTRA:          -7.946
REMARK INTER:                  -7.698
REMARK INTRA:                  -0.248
REMARK UNBOUND:                -0.258
REMARK SMILES O=c1c(O)c(-c2ccc(O)c(O)c2)oc2cc(O)cc(O)c12
REMARK SMILES IDX 5 1 3 2 2 3 1 4 22 5 20 6 19 7 17 8 16 9 15 10 14 11 6 12
REMARK SMILES IDX 7 13 8 14 9 15 13 16 11 17 10 18 12 20 4 22 21 24 18 26
REMARK H PARENT 10 19 12 21 4 23 21 25 18 27
REMARK Flexibility Score: inf
ROOT
ATOM      1  C   UNL     1      14.535 -37.691  -3.618  1.00  0.00     0.180 A 
ATOM      2  C   UNL     1      13.760 -36.546  -3.365  1.00  0.00     0.208 A 
ATOM      3  C   UNL     1      12.446 -36.489  -3.856  1.00  0.00     0.238 A 
ATOM      4  O   UNL     1      11.785 -35.432  -3.691  1.00  0.00    -0.285 OA
ATOM      5  C   UNL     1      11.903 -37.603  -4.543  1.00  0.00     0.111 A 
ATOM      6  C   UNL     1      10.567 -37.675  -5.044  1.00  0.00     0.134 A 
ATOM      7  C   UNL     1      10.173 -38.785  -5.801  1.00  0.00     0.093 A 
ATOM      8  C   UNL     1      11.043 -39.853  -6.022  1.00  0.00     0.123 A 
ATOM      9  C   UNL     1      12.331 -39.817  -5.490  1.00  0.00     0.094 A 
ATOM     10  C   UNL     1      12.767 -38.706  -4.762  1.00  0.00     0.146 A 
ATOM     11  O   UNL     1      14.009 -38.705  -4.292  1.00  0.00    -0.452 OA
ENDROOT
BRANCH   1  12
ATOM     12  C   UNL     1      15.933 -37.817  -3.145  1.00  0.00     0.025 A 
ATOM     13  C   UNL     1      16.972 -37.068  -3.725  1.00  0.00     0.016 A 
ATOM     14  C   UNL     1      18.288 -37.224  -3.279  1.00  0.00     0.051 A 
ATOM     15  C   UNL     1      18.584 -38.136  -2.260  1.00  0.00     0.157 A 
ATOM     16  C   UNL     1      16.240 -38.746  -2.137  1.00  0.00     0.062 A 
ATOM     17  C   UNL     1      17.560 -38.901  -1.689  1.00  0.00     0.158 A 
BRANCH  15  18
ATOM     18  O   UNL     1      19.895 -38.292  -1.810  1.00  0.00    -0.504 OA
ATOM     19  H   UNL     1      20.162 -38.055  -0.862  1.00  0.00     0.293 HD
ENDBRANCH  15  18
BRANCH  17  20
ATOM     20  O   UNL     1      17.859 -39.813  -0.679  1.00  0.00    -0.504 OA
ATOM     21  H   UNL     1      18.816 -40.006  -0.406  1.00  0.00     0.293 HD
ENDBRANCH  17  20
ENDBRANCH   1  12
BRANCH   2  22
ATOM     22  O   UNL     1      14.290 -35.488  -2.619  1.00  0.00    -0.502 OA
ATOM     23  H   UNL     1      14.068 -35.348  -1.640  1.00  0.00     0.293 HD
ENDBRANCH   2  22
BRANCH   6  24
ATOM     24  O   UNL     1       9.589 -36.704  -4.808  1.00  0.00    -0.507 OA
ATOM     25  H   UNL     1       8.892 -36.412  -5.475  1.00  0.00     0.293 HD
ENDBRANCH   6  24
BRANCH   8  26
ATOM     26  O   UNL     1      10.610 -40.949  -6.765  1.00  0.00    -0.508 OA
ATOM     27  H   UNL     1       9.656 -41.017  -7.101  1.00  0.00     0.293 HD
ENDBRANCH   8  26
TORSDOF 6
ENDMDL
MODEL 5
REMARK VINA RESULT:    -6.088     10.775     12.719
REMARK INTER + INTRA:          -7.592
REMARK INTER:                  -7.425
REMARK INTRA:                  -0.167
REMARK UNBOUND:                -0.258
REMARK SMILES O=c1c(O)c(-c2ccc(O)c(O)c2)oc2cc(O)cc(O)c12
REMARK SMILES IDX 5 1 3 2 2 3 1 4 22 5 20 6 19 7 17 8 16 9 15 10 14 11 6 12
REMARK SMILES IDX 7 13 8 14 9 15 13 16 11 17 10 18 12 20 4 22 21 24 18 26
REMARK H PARENT 10 19 12 21 4 23 21 25 18 27
REMARK Flexibility Score: inf
ROOT
ATOM      1  C   UNL     1      24.541 -39.610  -6.971  1.00  0.00     0.180 A 
ATOM      2  C   UNL     1      25.392 -40.678  -7.305  1.00  0.00     0.208 A 
ATOM      3  C   UNL     1      24.849 -41.812  -7.929  1.00  0.00     0.238 A 
ATOM      4  O   UNL     1      25.601 -42.795  -8.156  1.00  0.00    -0.285 OA
ATOM      5  C   UNL     1      23.473 -41.840  -8.264  1.00  0.00     0.111 A 
ATOM      6  C   UNL     1      22.824 -42.919  -8.940  1.00  0.00     0.134 A 
ATOM      7  C   UNL     1      21.436 -42.882  -9.124  1.00  0.00     0.093 A 
ATOM      8  C   UNL     1      20.683 -41.781  -8.717  1.00  0.00     0.123 A 
ATOM      9  C   UNL     1      21.316 -40.698  -8.106  1.00  0.00     0.094 A 
ATOM     10  C   UNL     1      22.693 -40.721  -7.873  1.00  0.00     0.146 A 
ATOM     11  O   UNL     1      23.251 -39.679  -7.270  1.00  0.00    -0.452 OA
ENDROOT
BRANCH   1  12
ATOM     12  C   UNL     1      25.038 -38.387  -6.299  1.00  0.00     0.025 A 
ATOM     13  C   UNL     1      25.059 -37.145  -6.958  1.00  0.00     0.016 A 
ATOM     14  C   UNL     1      25.557 -36.011  -6.311  1.00  0.00     0.051 A 
ATOM     15  C   UNL     1      26.053 -36.104  -5.005  1.00  0.00     0.157 A 
ATOM     16  C   UNL     1      25.557 -38.478  -4.996  1.00  0.00     0.062 A 
ATOM     17  C   UNL     1      26.056 -37.340  -4.347  1.00  0.00     0.158 A 
BRANCH  15  18
ATOM     18  O   UNL     1      26.548 -34.974  -4.355  1.00  0.00    -0.504 OA
ATOM     19  H   UNL     1      27.387 -35.013  -3.789  1.00  0.00     0.293 HD
ENDBRANCH  15  18
BRANCH  17  20
ATOM     20  O   UNL     1      26.557 -37.430  -3.050  1.00  0.00    -0.504 OA
ATOM     21  H   UNL     1      26.360 -38.231  -2.460  1.00  0.00     0.293 HD
ENDBRANCH  17  20
ENDBRANCH   1  12
BRANCH   2  22
ATOM     22  O   UNL     1      26.761 -40.599  -7.033  1.00  0.00    -0.502 OA
ATOM     23  H   UNL     1      27.371 -41.407  -7.074  1.00  0.00     0.293 HD
ENDBRANCH   2  22
BRANCH   6  24
ATOM     24  O   UNL     1      23.492 -44.028  -9.467  1.00  0.00    -0.507 OA
ATOM     25  H   UNL     1      24.293 -43.985 -10.077  1.00  0.00     0.293 HD
ENDBRANCH   6  24
BRANCH   8  26
ATOM     26  O   UNL     1      19.307 -41.772  -8.933  1.00  0.00    -0.508 OA
ATOM     27  H   UNL     1      18.843 -40.976  -9.355  1.00  0.00     0.293 HD
ENDBRANCH   8  26
TORSDOF 6
ENDMDL
MODEL 6
REMARK VINA RESULT:    -6.061      1.998      7.394
REMARK INTER + INTRA:          -7.559
REMARK INTER:                  -7.276
REMARK INTRA:                  -0.283
REMARK UNBOUND:                -0.258
REMARK SMILES O=c1c(O)c(-c2ccc(O)c(O)c2)oc2cc(O)cc(O)c12
REMARK SMILES IDX 5 1 3 2 2 3 1 4 22 5 20 6 19 7 17 8 16 9 15 10 14 11 6 12
REMARK SMILES IDX 7 13 8 14 9 15 13 16 11 17 10 18 12 20 4 22 21 24 18 26
REMARK H PARENT 10 19 12 21 4 23 21 25 18 27
REMARK Flexibility Score: inf
ROOT
ATOM      1  C   UNL     1      14.363 -36.040  -1.665  1.00  0.00     0.180 A 
ATOM      2  C   UNL     1      14.878 -36.936  -2.617  1.00  0.00     0.208 A 
ATOM      3  C   UNL     1      15.894 -37.827  -2.235  1.00  0.00     0.238 A 
ATOM      4  O   UNL     1      16.403 -38.573  -3.110  1.00  0.00    -0.285 OA
ATOM      5  C   UNL     1      16.340 -37.851  -0.891  1.00  0.00     0.111 A 
ATOM      6  C   UNL     1      17.331 -38.745  -0.381  1.00  0.00     0.134 A 
ATOM      7  C   UNL     1      17.770 -38.606   0.943  1.00  0.00     0.093 A 
ATOM      8  C   UNL     1      17.210 -37.651   1.791  1.00  0.00     0.123 A 
ATOM      9  C   UNL     1      16.202 -36.811   1.318  1.00  0.00     0.094 A 
ATOM     10  C   UNL     1      15.770 -36.899  -0.007  1.00  0.00     0.146 A 
ATOM     11  O   UNL     1      14.824 -36.065  -0.421  1.00  0.00    -0.452 OA
ENDROOT
BRANCH   1  12
ATOM     12  C   UNL     1      13.303 -35.061  -1.997  1.00  0.00     0.025 A 
ATOM     13  C   UNL     1      13.596 -33.699  -2.190  1.00  0.00     0.016 A 
ATOM     14  C   UNL     1      12.574 -32.790  -2.478  1.00  0.00     0.051 A 
ATOM     15  C   UNL     1      11.246 -33.225  -2.563  1.00  0.00     0.157 A 
ATOM     16  C   UNL     1      11.965 -35.487  -2.063  1.00  0.00     0.062 A 
ATOM     17  C   UNL     1      10.940 -34.575  -2.353  1.00  0.00     0.158 A 
BRANCH  15  18
ATOM     18  O   UNL     1      10.224 -32.321  -2.852  1.00  0.00    -0.504 OA
ATOM     19  H   UNL     1       9.251 -32.604  -2.851  1.00  0.00     0.293 HD
ENDBRANCH  15  18
BRANCH  17  20
ATOM     20  O   UNL     1       9.616 -35.003  -2.432  1.00  0.00    -0.504 OA
ATOM     21  H   UNL     1       9.242 -35.415  -3.279  1.00  0.00     0.293 HD
ENDBRANCH  17  20
ENDBRANCH   1  12
BRANCH   2  22
ATOM     22  O   UNL     1      14.371 -36.947  -3.920  1.00  0.00    -0.502 OA
ATOM     23  H   UNL     1      14.581 -37.688  -4.579  1.00  0.00     0.293 HD
ENDBRANCH   2  22
BRANCH   6  24
ATOM     24  O   UNL     1      17.894 -39.792  -1.116  1.00  0.00    -0.507 OA
ATOM     25  H   UNL     1      18.069 -39.774  -2.108  1.00  0.00     0.293 HD
ENDBRANCH   6  24
BRANCH   8  26
ATOM     26  O   UNL     1      17.659 -37.554   3.106  1.00  0.00    -0.508 OA
ATOM     27  H   UNL     1      17.221 -36.926   3.771  1.00  0.00     0.293 HD
ENDBRANCH   8  26
TORSDOF 6
ENDMDL
MODEL 7
REMARK VINA RESULT:    -6.042      3.336      6.206
REMARK INTER + INTRA:          -7.537
REMARK INTER:                  -7.420
REMARK INTRA:                  -0.116
REMARK UNBOUND:                -0.258
REMARK SMILES O=c1c(O)c(-c2ccc(O)c(O)c2)oc2cc(O)cc(O)c12
REMARK SMILES IDX 5 1 3 2 2 3 1 4 22 5 20 6 19 7 17 8 16 9 15 10 14 11 6 12
REMARK SMILES IDX 7 13 8 14 9 15 13 16 11 17 10 18 12 20 4 22 21 24 18 26
REMARK H PARENT 10 19 12 21 4 23 21 25 18 27
REMARK Flexibility Score: inf
ROOT
ATOM      1  C   UNL     1      15.113 -38.104  -2.073  1.00  0.00     0.180 A 
ATOM      2  C   UNL     1      16.433 -38.464  -1.754  1.00  0.00     0.208 A 
ATOM      3  C   UNL     1      17.142 -37.694  -0.817  1.00  0.00     0.238 A 
ATOM      4  O   UNL     1      18.347 -37.976  -0.592  1.00  0.00    -0.285 OA
ATOM      5  C   UNL     1      16.502 -36.610  -0.169  1.00  0.00     0.111 A 
ATOM      6  C   UNL     1      17.109 -35.789   0.831  1.00  0.00     0.134 A 
ATOM      7  C   UNL     1      16.415 -34.678   1.325  1.00  0.00     0.093 A 
ATOM      8  C   UNL     1      15.115 -34.394   0.906  1.00  0.00     0.123 A 
ATOM      9  C   UNL     1      14.493 -35.221  -0.029  1.00  0.00     0.094 A 
ATOM     10  C   UNL     1      15.173 -36.315  -0.570  1.00  0.00     0.146 A 
ATOM     11  O   UNL     1      14.551 -37.064  -1.473  1.00  0.00    -0.452 OA
ENDROOT
BRANCH   1  12
ATOM     12  C   UNL     1      14.308 -38.859  -3.062  1.00  0.00     0.025 A 
ATOM     13  C   UNL     1      14.018 -40.223  -2.883  1.00  0.00     0.016 A 
ATOM     14  C   UNL     1      13.278 -40.920  -3.842  1.00  0.00     0.051 A 
ATOM     15  C   UNL     1      12.830 -40.268  -4.998  1.00  0.00     0.157 A 
ATOM     16  C   UNL     1      13.874 -38.216  -4.233  1.00  0.00     0.062 A 
ATOM     17  C   UNL     1      13.131 -38.915  -5.196  1.00  0.00     0.158 A 
BRANCH  15  18
ATOM     18  O   UNL     1      12.090 -40.959  -5.956  1.00  0.00    -0.504 OA
ATOM     19  H   UNL     1      11.107 -40.765  -6.108  1.00  0.00     0.293 HD
ENDBRANCH  15  18
BRANCH  17  20
ATOM     20  O   UNL     1      12.690 -38.271  -6.350  1.00  0.00    -0.504 OA
ATOM     21  H   UNL     1      12.752 -38.713  -7.261  1.00  0.00     0.293 HD
ENDBRANCH  17  20
ENDBRANCH   1  12
BRANCH   2  22
ATOM     22  O   UNL     1      17.021 -39.585  -2.349  1.00  0.00    -0.502 OA
ATOM     23  H   UNL     1      16.514 -40.448  -2.503  1.00  0.00     0.293 HD
ENDBRANCH   2  22
BRANCH   6  24
ATOM     24  O   UNL     1      18.369 -36.033   1.386  1.00  0.00    -0.507 OA
ATOM     25  H   UNL     1      19.173 -35.436   1.278  1.00  0.00     0.293 HD
ENDBRANCH   6  24
BRANCH   8  26
ATOM     26  O   UNL     1      14.449 -33.290   1.434  1.00  0.00    -0.508 OA
ATOM     27  H   UNL     1      14.323 -33.175   2.433  1.00  0.00     0.293 HD
ENDBRANCH   8  26
TORSDOF 6
ENDMDL
MODEL 8
REMARK VINA RESULT:    -6.041      1.726      7.165
REMARK INTER + INTRA:          -7.534
REMARK INTER:                  -7.211
REMARK INTRA:                  -0.323
REMARK UNBOUND:                -0.258
REMARK SMILES O=c1c(O)c(-c2ccc(O)c(O)c2)oc2cc(O)cc(O)c12
REMARK SMILES IDX 5 1 3 2 2 3 1 4 22 5 20 6 19 7 17 8 16 9 15 10 14 11 6 12
REMARK SMILES IDX 7 13 8 14 9 15 13 16 11 17 10 18 12 20 4 22 21 24 18 26
REMARK H PARENT 10 19 12 21 4 23 21 25 18 27
REMARK Flexibility Score: inf
ROOT
ATOM      1  C   UNL     1      14.662 -35.851  -1.658  1.00  0.00     0.180 A 
ATOM      2  C   UNL     1      14.600 -36.615  -0.480  1.00  0.00     0.208 A 
ATOM      3  C   UNL     1      15.658 -37.488  -0.178  1.00  0.00     0.238 A 
ATOM      4  O   UNL     1      15.562 -38.224   0.838  1.00  0.00    -0.285 OA
ATOM      5  C   UNL     1      16.791 -37.542  -1.027  1.00  0.00     0.111 A 
ATOM      6  C   UNL     1      17.942 -38.356  -0.793  1.00  0.00     0.134 A 
ATOM      7  C   UNL     1      18.956 -38.408  -1.758  1.00  0.00     0.093 A 
ATOM      8  C   UNL     1      18.894 -37.630  -2.913  1.00  0.00     0.123 A 
ATOM      9  C   UNL     1      17.800 -36.790  -3.124  1.00  0.00     0.094 A 
ATOM     10  C   UNL     1      16.753 -36.744  -2.199  1.00  0.00     0.146 A 
ATOM     11  O   UNL     1      15.722 -35.947  -2.450  1.00  0.00    -0.452 OA
ENDROOT
BRANCH   1  12
ATOM     12  C   UNL     1      13.579 -34.921  -2.051  1.00  0.00     0.025 A 
ATOM     13  C   UNL     1      13.572 -33.581  -1.624  1.00  0.00     0.016 A 
ATOM     14  C   UNL     1      12.525 -32.729  -1.987  1.00  0.00     0.051 A 
ATOM     15  C   UNL     1      11.466 -33.206  -2.768  1.00  0.00     0.157 A 
ATOM     16  C   UNL     1      12.502 -35.399  -2.817  1.00  0.00     0.062 A 
ATOM     17  C   UNL     1      11.452 -34.544  -3.182  1.00  0.00     0.158 A 
BRANCH  15  18
ATOM     18  O   UNL     1      10.421 -32.359  -3.134  1.00  0.00    -0.504 OA
ATOM     19  H   UNL     1      10.281 -31.463  -2.681  1.00  0.00     0.293 HD
ENDBRANCH  15  18
BRANCH  17  20
ATOM     20  O   UNL     1      10.393 -35.017  -3.953  1.00  0.00    -0.504 OA
ATOM     21  H   UNL     1      10.222 -34.669  -4.890  1.00  0.00     0.293 HD
ENDBRANCH  17  20
ENDBRANCH   1  12
BRANCH   2  22
ATOM     22  O   UNL     1      13.508 -36.491   0.384  1.00  0.00    -0.502 OA
ATOM     23  H   UNL     1      12.558 -36.387   0.047  1.00  0.00     0.293 HD
ENDBRANCH   2  22
BRANCH   6  24
ATOM     24  O   UNL     1      18.148 -39.106   0.368  1.00  0.00    -0.507 OA
ATOM     25  H   UNL     1      17.644 -38.984   1.232  1.00  0.00     0.293 HD
ENDBRANCH   6  24
BRANCH   8  26
ATOM     26  O   UNL     1      19.930 -37.695  -3.842  1.00  0.00    -0.508 OA
ATOM     27  H   UNL     1      20.864 -37.370  -3.616  1.00  0.00     0.293 HD
ENDBRANCH   8  26
TORSDOF 6
ENDMDL
MODEL 9
REMARK VINA RESULT:    -5.978      2.593      7.337
REMARK INTER + INTRA:          -7.459
REMARK INTER:                  -7.136
REMARK INTRA:                  -0.324
REMARK UNBOUND:                -0.258
REMARK SMILES O=c1c(O)c(-c2ccc(O)c(O)c2)oc2cc(O)cc(O)c12
REMARK SMILES IDX 5 1 3 2 2 3 1 4 22 5 20 6 19 7 17 8 16 9 15 10 14 11 6 12
REMARK SMILES IDX 7 13 8 14 9 15 13 16 11 17 10 18 12 20 4 22 21 24 18 26
REMARK H PARENT 10 19 12 21 4 23 21 25 18 27
REMARK Flexibility Score: inf
ROOT
ATOM      1  C   UNL     1      14.217 -35.523  -0.198  1.00  0.00     0.180 A 
ATOM      2  C   UNL     1      14.299 -35.467   1.204  1.00  0.00     0.208 A 
ATOM      3  C   UNL     1      15.217 -36.297   1.867  1.00  0.00     0.238 A 
ATOM      4  O   UNL     1      15.232 -36.296   3.124  1.00  0.00    -0.285 OA
ATOM      5  C   UNL     1      16.082 -37.131   1.116  1.00  0.00     0.111 A 
ATOM      6  C   UNL     1      17.083 -37.979   1.680  1.00  0.00     0.134 A 
ATOM      7  C   UNL     1      17.808 -38.840   0.846  1.00  0.00     0.093 A 
ATOM      8  C   UNL     1      17.615 -38.837  -0.535  1.00  0.00     0.123 A 
ATOM      9  C   UNL     1      16.679 -37.972  -1.102  1.00  0.00     0.094 A 
ATOM     10  C   UNL     1      15.913 -37.129  -0.293  1.00  0.00     0.146 A 
ATOM     11  O   UNL     1      15.018 -36.338  -0.872  1.00  0.00    -0.452 OA
ENDROOT
BRANCH   1  12
ATOM     12  C   UNL     1      13.263 -34.689  -0.965  1.00  0.00     0.025 A 
ATOM     13  C   UNL     1      13.605 -33.396  -1.399  1.00  0.00     0.016 A 
ATOM     14  C   UNL     1      12.678 -32.618  -2.099  1.00  0.00     0.051 A 
ATOM     15  C   UNL     1      11.396 -33.115  -2.364  1.00  0.00     0.157 A 
ATOM     16  C   UNL     1      11.968 -35.174  -1.215  1.00  0.00     0.062 A 
ATOM     17  C   UNL     1      11.039 -34.394  -1.919  1.00  0.00     0.158 A 
BRANCH  15  18
ATOM     18  O   UNL     1      10.470 -32.343  -3.064  1.00  0.00    -0.504 OA
ATOM     19  H   UNL     1      10.751 -31.520  -3.584  1.00  0.00     0.293 HD
ENDBRANCH  15  18
BRANCH  17  20
ATOM     20  O   UNL     1       9.760 -34.883  -2.178  1.00  0.00    -0.504 OA
ATOM     21  H   UNL     1       8.973 -34.651  -1.583  1.00  0.00     0.293 HD
ENDBRANCH  17  20
ENDBRANCH   1  12
BRANCH   2  22
ATOM     22  O   UNL     1      13.488 -34.581   1.922  1.00  0.00    -0.502 OA
ATOM     23  H   UNL     1      13.510 -34.524   2.933  1.00  0.00     0.293 HD
ENDBRANCH   2  22
BRANCH   6  24
ATOM     24  O   UNL     1      17.420 -37.999   3.037  1.00  0.00    -0.507 OA
ATOM     25  H   UNL     1      17.081 -38.672   3.707  1.00  0.00     0.293 HD
ENDBRANCH   6  24
BRANCH   8  26
ATOM     26  O   UNL     1      18.368 -39.694  -1.335  1.00  0.00    -0.508 OA
ATOM     27  H   UNL     1      18.801 -39.373  -2.194  1.00  0.00     0.293 HD
ENDBRANCH   8  26
TORSDOF 6
ENDMDL
