MODEL 1
REMARK VINA RESULT:    -3.178      0.000      0.000
REMARK INTER + INTRA:          -5.476
REMARK INTER:                  -4.664
REMARK INTRA:                  -0.812
REMARK UNBOUND:                -0.812
REMARK SMILES O=C([O-])CCCCCCCC(=O)[O-]
REMARK SMILES IDX 7 1 6 2 5 3 4 4 2 5 1 6 3 7 8 8 9 9 10 10 11 11 12 12 13 13
REMARK H PARENT
REMARK Flexibility Score: inf
ROOT
ATOM      1  C   UNL     1     -94.513 148.822 238.106  1.00  0.00     0.000 C 
ENDROOT
BRANCH   1   2
ATOM      2  C   UNL     1     -95.363 147.851 238.935  1.00  0.00     0.000 C 
BRANCH   2   3
ATOM      3  C   UNL     1     -96.652 148.524 239.423  1.00  0.00     0.006 C 
BRANCH   3   4
ATOM      4  C   UNL     1     -96.680 150.005 239.034  1.00  0.00     0.053 C 
BRANCH   4   5
ATOM      5  C   UNL     1     -98.062 150.557 239.173  1.00  0.00     0.041 C 
ATOM      6  O   UNL     1     -98.618 150.597 240.303  1.00  0.00    -0.550 OA
ATOM      7  O   UNL     1     -98.759 150.981 238.049  1.00  0.00    -0.550 OA
ENDBRANCH   4   5
ENDBRANCH   3   4
ENDBRANCH   2   3
ENDBRANCH   1   2
BRANCH   1   8
ATOM      8  C   UNL     1     -93.788 148.087 236.971  1.00  0.00     0.000 C 
BRANCH   8   9
ATOM      9  C   UNL     1     -94.509 148.206 235.616  1.00  0.00     0.006 C 
BRANCH   9  10
ATOM     10  C   UNL     1     -95.388 149.461 235.484  1.00  0.00     0.053 C 
BRANCH  10  11
ATOM     11  C   UNL     1     -96.844 149.137 235.337  1.00  0.00     0.041 C 
ATOM     12  O   UNL     1     -97.342 148.157 235.951  1.00  0.00    -0.550 OA
ATOM     13  O   UNL     1     -97.645 149.900 234.496  1.00  0.00    -0.550 OA
ENDBRANCH  10  11
ENDBRANCH   9  10
ENDBRANCH   8   9
ENDBRANCH   1   8
TORSDOF 8
ENDMDL
MODEL 2
REMARK VINA RESULT:    -3.132      2.336      5.674
REMARK INTER + INTRA:          -5.408
REMARK INTER:                  -4.898
REMARK INTRA:                  -0.511
REMARK UNBOUND:                -0.812
REMARK SMILES O=C([O-])CCCCCCCC(=O)[O-]
REMARK SMILES IDX 7 1 6 2 5 3 4 4 2 5 1 6 3 7 8 8 9 9 10 10 11 11 12 12 13 13
REMARK H PARENT
REMARK Flexibility Score: inf
ROOT
ATOM      1  C   UNL     1     -96.458 150.108 239.031  1.00  0.00     0.000 C 
ENDROOT
BRANCH   1   2
ATOM      2  C   UNL     1     -96.466 148.585 239.211  1.00  0.00     0.000 C 
BRANCH   2   3
ATOM      3  C   UNL     1     -95.156 147.963 238.711  1.00  0.00     0.006 C 
BRANCH   3   4
ATOM      4  C   UNL     1     -94.473 148.872 237.686  1.00  0.00     0.053 C 
BRANCH   4   5
ATOM      5  C   UNL     1     -93.869 148.058 236.586  1.00  0.00     0.041 C 
ATOM      6  O   UNL     1     -94.263 148.206 235.399  1.00  0.00    -0.550 OA
ATOM      7  O   UNL     1     -92.905 147.101 236.877  1.00  0.00    -0.550 OA
ENDBRANCH   4   5
ENDBRANCH   3   4
ENDBRANCH   2   3
ENDBRANCH   1   2
BRANCH   1   8
ATOM      8  C   UNL     1     -97.884 150.650 238.863  1.00  0.00     0.000 C 
BRANCH   8   9
ATOM      9  C   UNL     1     -98.963 149.688 239.394  1.00  0.00     0.006 C 
BRANCH   9  10
ATOM     10  C   UNL     1     -99.721 150.216 240.624  1.00  0.00     0.053 C 
BRANCH  10  11
ATOM     11  C   UNL     1     -98.935 150.080 241.893  1.00  0.00     0.041 C 
ATOM     12  O   UNL     1     -98.361 148.995 242.173  1.00  0.00    -0.550 OA
ATOM     13  O   UNL     1     -98.864 151.144 242.784  1.00  0.00    -0.550 OA
ENDBRANCH  10  11
ENDBRANCH   9  10
ENDBRANCH   8   9
ENDBRANCH   1   8
TORSDOF 8
ENDMDL
MODEL 3
REMARK VINA RESULT:    -3.130      0.606      4.159
REMARK INTER + INTRA:          -5.405
REMARK INTER:                  -4.716
REMARK INTRA:                  -0.690
REMARK UNBOUND:                -0.812
REMARK SMILES O=C([O-])CCCCCCCC(=O)[O-]
REMARK SMILES IDX 7 1 6 2 5 3 4 4 2 5 1 6 3 7 8 8 9 9 10 10 11 11 12 12 13 13
REMARK H PARENT
REMARK Flexibility Score: inf
ROOT
ATOM      1  C   UNL     1     -94.311 148.747 237.471  1.00  0.00     0.000 C 
ENDROOT
BRANCH   1   2
ATOM      2  C   UNL     1     -93.904 147.816 236.322  1.00  0.00     0.000 C 
BRANCH   2   3
ATOM      3  C   UNL     1     -94.808 148.021 235.100  1.00  0.00     0.006 C 
BRANCH   3   4
ATOM      4  C   UNL     1     -95.359 149.448 235.057  1.00  0.00     0.053 C 
BRANCH   4   5
ATOM      5  C   UNL     1     -96.837 149.432 234.830  1.00  0.00     0.041 C 
ATOM      6  O   UNL     1     -97.611 149.010 235.730  1.00  0.00    -0.550 OA
ATOM      7  O   UNL     1     -97.359 149.836 233.608  1.00  0.00    -0.550 OA
ENDBRANCH   4   5
ENDBRANCH   3   4
ENDBRANCH   2   3
ENDBRANCH   1   2
BRANCH   1   8
ATOM      8  C   UNL     1     -94.943 147.955 238.624  1.00  0.00     0.000 C 
BRANCH   8   9
ATOM      9  C   UNL     1     -96.329 148.486 239.034  1.00  0.00     0.006 C 
BRANCH   9  10
ATOM     10  C   UNL     1     -96.453 150.018 238.977  1.00  0.00     0.053 C 
BRANCH  10  11
ATOM     11  C   UNL     1     -97.825 150.503 239.337  1.00  0.00     0.041 C 
ATOM     12  O   UNL     1     -98.549 151.060 238.471  1.00  0.00    -0.550 OA
ATOM     13  O   UNL     1     -98.292 150.366 240.638  1.00  0.00    -0.550 OA
ENDBRANCH  10  11
ENDBRANCH   9  10
ENDBRANCH   8   9
ENDBRANCH   1   8
TORSDOF 8
ENDMDL
MODEL 4
REMARK VINA RESULT:    -3.119      3.222      6.653
REMARK INTER + INTRA:          -5.389
REMARK INTER:                  -5.028
REMARK INTRA:                  -0.361
REMARK UNBOUND:                -0.812
REMARK SMILES O=C([O-])CCCCCCCC(=O)[O-]
REMARK SMILES IDX 7 1 6 2 5 3 4 4 2 5 1 6 3 7 8 8 9 9 10 10 11 11 12 12 13 13
REMARK H PARENT
REMARK Flexibility Score: inf
ROOT
ATOM      1  C   UNL     1     -97.949 148.792 240.157  1.00  0.00     0.000 C 
ENDROOT
BRANCH   1   2
ATOM      2  C   UNL     1     -97.621 150.097 239.419  1.00  0.00     0.000 C 
BRANCH   2   3
ATOM      3  C   UNL     1     -96.154 150.125 238.974  1.00  0.00     0.006 C 
BRANCH   3   4
ATOM      4  C   UNL     1     -95.940 149.258 237.731  1.00  0.00     0.053 C 
BRANCH   4   5
ATOM      5  C   UNL     1     -94.782 148.332 237.931  1.00  0.00     0.041 C 
ATOM      6  O   UNL     1     -94.774 147.529 238.902  1.00  0.00    -0.550 OA
ATOM      7  O   UNL     1     -93.689 148.388 237.076  1.00  0.00    -0.550 OA
ENDBRANCH   4   5
ENDBRANCH   3   4
ENDBRANCH   2   3
ENDBRANCH   1   2
BRANCH   1   8
ATOM      8  C   UNL     1     -98.372 149.071 241.605  1.00  0.00     0.000 C 
BRANCH   8   9
ATOM      9  C   UNL     1     -98.859 150.515 241.826  1.00  0.00     0.006 C 
BRANCH   9  10
ATOM     10  C   UNL     1     -99.533 150.746 243.190  1.00  0.00     0.053 C 
BRANCH  10  11
ATOM     11  C   UNL     1     -99.135 152.045 243.821  1.00  0.00     0.041 C 
ATOM     12  O   UNL     1     -99.840 153.075 243.654  1.00  0.00    -0.550 OA
ATOM     13  O   UNL     1     -97.967 152.126 244.568  1.00  0.00    -0.550 OA
ENDBRANCH  10  11
ENDBRANCH   9  10
ENDBRANCH   8   9
ENDBRANCH   1   8
TORSDOF 8
ENDMDL
MODEL 5
REMARK VINA RESULT:    -3.106      1.933      2.711
REMARK INTER + INTRA:          -5.370
REMARK INTER:                  -4.923
REMARK INTRA:                  -0.447
REMARK UNBOUND:                -0.812
REMARK SMILES O=C([O-])CCCCCCCC(=O)[O-]
REMARK SMILES IDX 7 1 6 2 5 3 4 4 2 5 1 6 3 7 8 8 9 9 10 10 11 11 12 12 13 13
REMARK H PARENT
REMARK Flexibility Score: inf
ROOT
ATOM      1  C   UNL     1     -95.913 149.788 238.748  1.00  0.00     0.000 C 
ENDROOT
BRANCH   1   2
ATOM      2  C   UNL     1     -97.184 150.258 239.466  1.00  0.00     0.000 C 
BRANCH   2   3
ATOM      3  C   UNL     1     -98.031 149.066 239.926  1.00  0.00     0.006 C 
BRANCH   3   4
ATOM      4  C   UNL     1     -98.288 149.124 241.434  1.00  0.00     0.053 C 
BRANCH   4   5
ATOM      5  C   UNL     1     -99.183 150.274 241.769  1.00  0.00     0.041 C 
ATOM      6  O   UNL     1     -98.830 151.122 242.632  1.00  0.00    -0.550 OA
ATOM      7  O   UNL     1    -100.430 150.384 241.167  1.00  0.00    -0.550 OA
ENDBRANCH   4   5
ENDBRANCH   3   4
ENDBRANCH   2   3
ENDBRANCH   1   2
BRANCH   1   8
ATOM      8  C   UNL     1     -95.701 148.280 238.936  1.00  0.00     0.000 C 
BRANCH   8   9
ATOM      9  C   UNL     1     -94.837 147.648 237.829  1.00  0.00     0.006 C 
BRANCH   9  10
ATOM     10  C   UNL     1     -94.150 148.673 236.910  1.00  0.00     0.053 C 
BRANCH  10  11
ATOM     11  C   UNL     1     -94.656 148.619 235.501  1.00  0.00     0.041 C 
ATOM     12  O   UNL     1     -95.608 149.359 235.139  1.00  0.00    -0.550 OA
ATOM     13  O   UNL     1     -94.096 147.728 234.594  1.00  0.00    -0.550 OA
ENDBRANCH  10  11
ENDBRANCH   9  10
ENDBRANCH   8   9
ENDBRANCH   1   8
TORSDOF 8
ENDMDL
MODEL 6
REMARK VINA RESULT:    -3.092      1.345      1.794
REMARK INTER + INTRA:          -5.350
REMARK INTER:                  -4.843
REMARK INTRA:                  -0.508
REMARK UNBOUND:                -0.812
REMARK SMILES O=C([O-])CCCCCCCC(=O)[O-]
REMARK SMILES IDX 7 1 6 2 5 3 4 4 2 5 1 6 3 7 8 8 9 9 10 10 11 11 12 12 13 13
REMARK H PARENT
REMARK Flexibility Score: inf
ROOT
ATOM      1  C   UNL     1     -94.190 148.791 237.621  1.00  0.00     0.000 C 
ENDROOT
BRANCH   1   2
ATOM      2  C   UNL     1     -94.979 148.029 238.693  1.00  0.00     0.000 C 
BRANCH   2   3
ATOM      3  C   UNL     1     -96.421 148.544 238.786  1.00  0.00     0.006 C 
BRANCH   3   4
ATOM      4  C   UNL     1     -96.451 150.056 239.021  1.00  0.00     0.053 C 
BRANCH   4   5
ATOM      5  C   UNL     1     -97.831 150.503 239.384  1.00  0.00     0.041 C 
ATOM      6  O   UNL     1     -98.565 151.055 238.522  1.00  0.00    -0.550 OA
ATOM      7  O   UNL     1     -98.291 150.356 240.686  1.00  0.00    -0.550 OA
ENDBRANCH   4   5
ENDBRANCH   3   4
ENDBRANCH   2   3
ENDBRANCH   1   2
BRANCH   1   8
ATOM      8  C   UNL     1     -93.794 147.862 236.465  1.00  0.00     0.000 C 
BRANCH   8   9
ATOM      9  C   UNL     1     -94.728 147.981 235.247  1.00  0.00     0.006 C 
BRANCH   9  10
ATOM     10  C   UNL     1     -95.424 149.347 235.124  1.00  0.00     0.053 C 
BRANCH  10  11
ATOM     11  C   UNL     1     -95.675 149.745 233.701  1.00  0.00     0.041 C 
ATOM     12  O   UNL     1     -95.819 150.958 233.396  1.00  0.00    -0.550 OA
ATOM     13  O   UNL     1     -95.781 148.772 232.716  1.00  0.00    -0.550 OA
ENDBRANCH  10  11
ENDBRANCH   9  10
ENDBRANCH   8   9
ENDBRANCH   1   8
TORSDOF 8
ENDMDL
MODEL 7
REMARK VINA RESULT:    -3.076      1.862      2.376
REMARK INTER + INTRA:          -5.327
REMARK INTER:                  -4.826
REMARK INTRA:                  -0.501
REMARK UNBOUND:                -0.812
REMARK SMILES O=C([O-])CCCCCCCC(=O)[O-]
REMARK SMILES IDX 7 1 6 2 5 3 4 4 2 5 1 6 3 7 8 8 9 9 10 10 11 11 12 12 13 13
REMARK H PARENT
REMARK Flexibility Score: inf
ROOT
ATOM      1  C   UNL     1     -95.023 147.687 238.894  1.00  0.00     0.000 C 
ENDROOT
BRANCH   1   2
ATOM      2  C   UNL     1     -95.299 149.109 238.387  1.00  0.00     0.000 C 
BRANCH   2   3
ATOM      3  C   UNL     1     -96.805 149.389 238.322  1.00  0.00     0.006 C 
BRANCH   3   4
ATOM      4  C   UNL     1     -97.225 150.388 239.404  1.00  0.00     0.053 C 
BRANCH   4   5
ATOM      5  C   UNL     1     -97.996 149.697 240.484  1.00  0.00     0.041 C 
ATOM      6  O   UNL     1     -98.073 148.440 240.501  1.00  0.00    -0.550 OA
ATOM      7  O   UNL     1     -98.671 150.441 241.442  1.00  0.00    -0.550 OA
ENDBRANCH   4   5
ENDBRANCH   3   4
ENDBRANCH   2   3
ENDBRANCH   1   2
BRANCH   1   8
ATOM      8  C   UNL     1     -94.228 146.879 237.860  1.00  0.00     0.000 C 
BRANCH   8   9
ATOM      9  C   UNL     1     -93.536 147.761 236.805  1.00  0.00     0.006 C 
BRANCH   9  10
ATOM     10  C   UNL     1     -93.442 147.113 235.413  1.00  0.00     0.053 C 
BRANCH  10  11
ATOM     11  C   UNL     1     -94.404 147.707 234.430  1.00  0.00     0.041 C 
ATOM     12  O   UNL     1     -94.267 147.495 233.197  1.00  0.00    -0.550 OA
ATOM     13  O   UNL     1     -95.437 148.524 234.875  1.00  0.00    -0.550 OA
ENDBRANCH  10  11
ENDBRANCH   9  10
ENDBRANCH   8   9
ENDBRANCH   1   8
TORSDOF 8
ENDMDL
MODEL 8
REMARK VINA RESULT:    -3.063      1.759      5.471
REMARK INTER + INTRA:          -5.307
REMARK INTER:                  -4.876
REMARK INTRA:                  -0.430
REMARK UNBOUND:                -0.812
REMARK SMILES O=C([O-])CCCCCCCC(=O)[O-]
REMARK SMILES IDX 7 1 6 2 5 3 4 4 2 5 1 6 3 7 8 8 9 9 10 10 11 11 12 12 13 13
REMARK H PARENT
REMARK Flexibility Score: inf
ROOT
ATOM      1  C   UNL     1     -96.411 148.321 238.898  1.00  0.00     0.000 C 
ENDROOT
BRANCH   1   2
ATOM      2  C   UNL     1     -94.970 147.853 238.660  1.00  0.00     0.000 C 
BRANCH   2   3
ATOM      3  C   UNL     1     -94.259 148.752 237.641  1.00  0.00     0.006 C 
BRANCH   3   4
ATOM      4  C   UNL     1     -93.863 147.962 236.391  1.00  0.00     0.053 C 
BRANCH   4   5
ATOM      5  C   UNL     1     -94.675 148.401 235.215  1.00  0.00     0.041 C 
ATOM      6  O   UNL     1     -94.439 147.931 234.071  1.00  0.00    -0.550 OA
ATOM      7  O   UNL     1     -95.660 149.368 235.371  1.00  0.00    -0.550 OA
ENDBRANCH   4   5
ENDBRANCH   3   4
ENDBRANCH   2   3
ENDBRANCH   1   2
BRANCH   1   8
ATOM      8  C   UNL     1     -96.518 149.848 238.791  1.00  0.00     0.000 C 
BRANCH   8   9
ATOM      9  C   UNL     1     -97.711 150.427 239.574  1.00  0.00     0.006 C 
BRANCH   9  10
ATOM     10  C   UNL     1     -98.048 149.654 240.861  1.00  0.00     0.053 C 
BRANCH  10  11
ATOM     11  C   UNL     1     -99.101 150.330 241.685  1.00  0.00     0.041 C 
ATOM     12  O   UNL     1    -100.308 150.293 241.330  1.00  0.00    -0.550 OA
ATOM     13  O   UNL     1     -98.744 151.031 242.830  1.00  0.00    -0.550 OA
ENDBRANCH  10  11
ENDBRANCH   9  10
ENDBRANCH   8   9
ENDBRANCH   1   8
TORSDOF 8
ENDMDL
MODEL 9
REMARK VINA RESULT:    -3.027      2.719      3.716
REMARK INTER + INTRA:          -5.254
REMARK INTER:                  -5.074
REMARK INTRA:                  -0.180
REMARK UNBOUND:                -0.812
REMARK SMILES O=C([O-])CCCCCCCC(=O)[O-]
REMARK SMILES IDX 7 1 6 2 5 3 4 4 2 5 1 6 3 7 8 8 9 9 10 10 11 11 12 12 13 13
REMARK H PARENT
REMARK Flexibility Score: inf
ROOT
ATOM      1  C   UNL     1     -97.147 150.338 239.007  1.00  0.00     0.000 C 
ENDROOT
BRANCH   1   2
ATOM      2  C   UNL     1     -97.962 149.436 239.942  1.00  0.00     0.000 C 
BRANCH   2   3
ATOM      3  C   UNL     1     -98.951 150.258 240.778  1.00  0.00     0.006 C 
BRANCH   3   4
ATOM      4  C   UNL     1     -98.765 149.987 242.273  1.00  0.00     0.053 C 
BRANCH   4   5
ATOM      5  C   UNL     1     -99.223 151.160 243.079  1.00  0.00     0.041 C 
ATOM      6  O   UNL     1     -98.428 151.736 243.868  1.00  0.00    -0.550 OA
ATOM      7  O   UNL     1    -100.542 151.587 242.999  1.00  0.00    -0.550 OA
ENDBRANCH   4   5
ENDBRANCH   3   4
ENDBRANCH   2   3
ENDBRANCH   1   2
BRANCH   1   8
ATOM      8  C   UNL     1     -95.733 149.780 238.798  1.00  0.00     0.000 C 
BRANCH   8   9
ATOM      9  C   UNL     1     -95.670 148.680 237.722  1.00  0.00     0.006 C 
BRANCH   9  10
ATOM     10  C   UNL     1     -94.748 149.015 236.537  1.00  0.00     0.053 C 
BRANCH  10  11
ATOM     11  C   UNL     1     -93.947 147.837 236.074  1.00  0.00     0.041 C 
ATOM     12  O   UNL     1     -93.962 147.495 234.863  1.00  0.00    -0.550 OA
ATOM     13  O   UNL     1     -93.207 147.096 236.988  1.00  0.00    -0.550 OA
ENDBRANCH  10  11
ENDBRANCH   9  10
ENDBRANCH   8   9
ENDBRANCH   1   8
TORSDOF 8
ENDMDL
