MODEL 1
REMARK VINA RESULT:    -3.341      0.000      0.000
REMARK INTER + INTRA:          -3.950
REMARK INTER:                  -3.927
REMARK INTRA:                  -0.023
REMARK UNBOUND:                -0.023
REMARK SMILES CCCCC(=O)[O-]
REMARK SMILES IDX 4 1 5 2 6 3 7 4 3 5 2 6 1 7
REMARK H PARENT
REMARK Flexibility Score: inf
ROOT
ATOM      1  C   UNL     1      41.087  13.651 -35.892  1.00  0.00     0.053 C 
ENDROOT
BRANCH   1   2
ATOM      2  C   UNL     1      39.598  13.697 -35.763  1.00  0.00     0.041 C 
ATOM      3  O   UNL     1      39.026  14.758 -35.395  1.00  0.00    -0.550 OA
ATOM      4  O   UNL     1      38.835  12.585 -36.095  1.00  0.00    -0.550 OA
ENDBRANCH   1   2
BRANCH   1   5
ATOM      5  C   UNL     1      41.562  12.206 -36.100  1.00  0.00     0.006 C 
BRANCH   5   6
ATOM      6  C   UNL     1      42.926  11.935 -35.448  1.00  0.00    -0.003 C 
ATOM      7  C   UNL     1      44.076  11.953 -36.455  1.00  0.00     0.004 C 
ENDBRANCH   5   6
ENDBRANCH   1   5
TORSDOF 3
ENDMDL
MODEL 2
REMARK VINA RESULT:    -3.326      0.069      1.225
REMARK INTER + INTRA:          -3.932
REMARK INTER:                  -3.907
REMARK INTRA:                  -0.025
REMARK UNBOUND:                -0.023
REMARK SMILES CCCCC(=O)[O-]
REMARK SMILES IDX 4 1 5 2 6 3 7 4 3 5 2 6 1 7
REMARK H PARENT
REMARK Flexibility Score: inf
ROOT
ATOM      1  C   UNL     1      41.062  13.616 -35.922  1.00  0.00     0.053 C 
ENDROOT
BRANCH   1   2
ATOM      2  C   UNL     1      39.572  13.631 -35.794  1.00  0.00     0.041 C 
ATOM      3  O   UNL     1      38.903  12.597 -36.060  1.00  0.00    -0.550 OA
ATOM      4  O   UNL     1      38.924  14.770 -35.334  1.00  0.00    -0.550 OA
ENDBRANCH   1   2
BRANCH   1   5
ATOM      5  C   UNL     1      41.570  12.181 -36.112  1.00  0.00     0.006 C 
BRANCH   5   6
ATOM      6  C   UNL     1      42.938  11.947 -35.453  1.00  0.00    -0.003 C 
ATOM      7  C   UNL     1      44.093  12.009 -36.453  1.00  0.00     0.004 C 
ENDBRANCH   5   6
ENDBRANCH   1   5
TORSDOF 3
ENDMDL
MODEL 3
REMARK VINA RESULT:    -3.016      1.533      2.206
REMARK INTER + INTRA:          -3.567
REMARK INTER:                  -3.493
REMARK INTRA:                  -0.074
REMARK UNBOUND:                -0.023
REMARK SMILES CCCCC(=O)[O-]
REMARK SMILES IDX 4 1 5 2 6 3 7 4 3 5 2 6 1 7
REMARK H PARENT
REMARK Flexibility Score: inf
ROOT
ATOM      1  C   UNL     1      39.008  14.458 -35.361  1.00  0.00     0.053 C 
ENDROOT
BRANCH   1   2
ATOM      2  C   UNL     1      37.950  13.650 -36.043  1.00  0.00     0.041 C 
ATOM      3  O   UNL     1      37.296  12.789 -35.397  1.00  0.00    -0.550 OA
ATOM      4  O   UNL     1      37.652  13.880 -37.380  1.00  0.00    -0.550 OA
ENDBRANCH   1   2
BRANCH   1   5
ATOM      5  C   UNL     1      40.384  14.166 -35.974  1.00  0.00     0.006 C 
BRANCH   5   6
ATOM      6  C   UNL     1      40.754  12.677 -35.907  1.00  0.00    -0.003 C 
ATOM      7  C   UNL     1      42.254  12.433 -36.076  1.00  0.00     0.004 C 
ENDBRANCH   5   6
ENDBRANCH   1   5
TORSDOF 3
ENDMDL
MODEL 4
REMARK VINA RESULT:    -2.970     20.385     21.243
REMARK INTER + INTRA:          -3.513
REMARK INTER:                  -3.414
REMARK INTRA:                  -0.099
REMARK UNBOUND:                -0.023
REMARK SMILES CCCCC(=O)[O-]
REMARK SMILES IDX 4 1 5 2 6 3 7 4 3 5 2 6 1 7
REMARK H PARENT
REMARK Flexibility Score: inf
ROOT
ATOM      1  C   UNL     1      56.334  28.814 -36.482  1.00  0.00     0.053 C 
ENDROOT
BRANCH   1   2
ATOM      2  C   UNL     1      55.891  27.900 -35.385  1.00  0.00     0.041 C 
ATOM      3  O   UNL     1      55.983  28.262 -34.182  1.00  0.00    -0.550 OA
ATOM      4  O   UNL     1      55.330  26.666 -35.691  1.00  0.00    -0.550 OA
ENDBRANCH   1   2
BRANCH   1   5
ATOM      5  C   UNL     1      55.122  29.360 -37.248  1.00  0.00     0.006 C 
BRANCH   5   6
ATOM      6  C   UNL     1      55.117  28.936 -38.724  1.00  0.00    -0.003 C 
ATOM      7  C   UNL     1      54.106  27.827 -39.017  1.00  0.00     0.004 C 
ENDBRANCH   5   6
ENDBRANCH   1   5
TORSDOF 3
ENDMDL
MODEL 5
REMARK VINA RESULT:    -2.927     20.296     21.172
REMARK INTER + INTRA:          -3.463
REMARK INTER:                  -3.393
REMARK INTRA:                  -0.070
REMARK UNBOUND:                -0.023
REMARK SMILES CCCCC(=O)[O-]
REMARK SMILES IDX 4 1 5 2 6 3 7 4 3 5 2 6 1 7
REMARK H PARENT
REMARK Flexibility Score: inf
ROOT
ATOM      1  C   UNL     1      57.029  26.942 -34.577  1.00  0.00     0.053 C 
ENDROOT
BRANCH   1   2
ATOM      2  C   UNL     1      55.807  26.938 -35.439  1.00  0.00     0.041 C 
ATOM      3  O   UNL     1      55.457  27.984 -36.048  1.00  0.00    -0.550 OA
ATOM      4  O   UNL     1      55.081  25.767 -35.611  1.00  0.00    -0.550 OA
ENDBRANCH   1   2
BRANCH   1   5
ATOM      5  C   UNL     1      57.024  28.162 -33.647  1.00  0.00     0.006 C 
BRANCH   5   6
ATOM      6  C   UNL     1      56.031  28.013 -32.485  1.00  0.00    -0.003 C 
ATOM      7  C   UNL     1      56.718  27.978 -31.120  1.00  0.00     0.004 C 
ENDBRANCH   5   6
ENDBRANCH   1   5
TORSDOF 3
ENDMDL
MODEL 6
REMARK VINA RESULT:    -2.905     20.655     21.535
REMARK INTER + INTRA:          -3.437
REMARK INTER:                  -3.329
REMARK INTRA:                  -0.109
REMARK UNBOUND:                -0.023
REMARK SMILES CCCCC(=O)[O-]
REMARK SMILES IDX 4 1 5 2 6 3 7 4 3 5 2 6 1 7
REMARK H PARENT
REMARK Flexibility Score: inf
ROOT
ATOM      1  C   UNL     1      56.673  29.028 -36.024  1.00  0.00     0.053 C 
ENDROOT
BRANCH   1   2
ATOM      2  C   UNL     1      55.614  29.601 -36.911  1.00  0.00     0.041 C 
ATOM      3  O   UNL     1      54.910  28.842 -37.630  1.00  0.00    -0.550 OA
ATOM      4  O   UNL     1      55.370  30.968 -36.911  1.00  0.00    -0.550 OA
ENDBRANCH   1   2
BRANCH   1   5
ATOM      5  C   UNL     1      56.037  28.235 -34.875  1.00  0.00     0.006 C 
BRANCH   5   6
ATOM      6  C   UNL     1      56.377  26.738 -34.932  1.00  0.00    -0.003 C 
ATOM      7  C   UNL     1      55.254  25.900 -35.543  1.00  0.00     0.004 C 
ENDBRANCH   5   6
ENDBRANCH   1   5
TORSDOF 3
ENDMDL
MODEL 7
REMARK VINA RESULT:    -2.879     20.423     21.331
REMARK INTER + INTRA:          -3.406
REMARK INTER:                  -3.326
REMARK INTRA:                  -0.080
REMARK UNBOUND:                -0.023
REMARK SMILES CCCCC(=O)[O-]
REMARK SMILES IDX 4 1 5 2 6 3 7 4 3 5 2 6 1 7
REMARK H PARENT
REMARK Flexibility Score: inf
ROOT
ATOM      1  C   UNL     1      57.103  26.970 -34.542  1.00  0.00     0.053 C 
ENDROOT
BRANCH   1   2
ATOM      2  C   UNL     1      55.880  27.021 -35.401  1.00  0.00     0.041 C 
ATOM      3  O   UNL     1      55.109  26.027 -35.465  1.00  0.00    -0.550 OA
ATOM      4  O   UNL     1      55.563  28.183 -36.093  1.00  0.00    -0.550 OA
ENDBRANCH   1   2
BRANCH   1   5
ATOM      5  C   UNL     1      57.125  28.158 -33.571  1.00  0.00     0.006 C 
BRANCH   5   6
ATOM      6  C   UNL     1      56.073  28.029 -32.458  1.00  0.00    -0.003 C 
ATOM      7  C   UNL     1      56.650  28.290 -31.067  1.00  0.00     0.004 C 
ENDBRANCH   5   6
ENDBRANCH   1   5
TORSDOF 3
ENDMDL
MODEL 8
REMARK VINA RESULT:    -0.851      5.692      6.485
REMARK INTER + INTRA:          -1.023
REMARK INTER:                  -0.979
REMARK INTRA:                  -0.044
REMARK UNBOUND:                -0.023
REMARK SMILES CCCCC(=O)[O-]
REMARK SMILES IDX 4 1 5 2 6 3 7 4 3 5 2 6 1 7
REMARK H PARENT
REMARK Flexibility Score: inf
ROOT
ATOM      1  C   UNL     1      44.926  12.488 -32.007  1.00  0.00     0.053 C 
ENDROOT
BRANCH   1   2
ATOM      2  C   UNL     1      45.102  12.636 -33.485  1.00  0.00     0.041 C 
ATOM      3  O   UNL     1      46.214  12.993 -33.959  1.00  0.00    -0.550 OA
ATOM      4  O   UNL     1      44.053  12.334 -34.344  1.00  0.00    -0.550 OA
ENDBRANCH   1   2
BRANCH   1   5
ATOM      5  C   UNL     1      46.184  11.875 -31.377  1.00  0.00     0.006 C 
BRANCH   5   6
ATOM      6  C   UNL     1      46.296  12.173 -29.875  1.00  0.00    -0.003 C 
ATOM      7  C   UNL     1      45.490  13.402 -29.455  1.00  0.00     0.004 C 
ENDBRANCH   5   6
ENDBRANCH   1   5
TORSDOF 3
ENDMDL
