MODEL 1
REMARK VINA RESULT:    -4.062      0.000      0.000
REMARK INTER + INTRA:          -9.006
REMARK INTER:                  -7.150
REMARK INTRA:                  -1.856
REMARK UNBOUND:                -1.856
REMARK SMILES CCCCCCCCCCCCCCC(=O)[O-]
REMARK SMILES IDX 9 1 10 2 11 3 12 4 13 5 14 6 15 7 16 8 17 9 8 10 7 11 6 12
REMARK SMILES IDX 5 13 4 14 3 15 2 16 1 17
REMARK H PARENT
REMARK Flexibility Score: inf
ROOT
ATOM      1  C   UNL     1      95.700 105.082  89.500  1.00  0.00     0.000 C 
ENDROOT
BRANCH   1   2
ATOM      2  C   UNL     1      94.575 104.279  90.184  1.00  0.00     0.000 C 
BRANCH   2   3
ATOM      3  C   UNL     1      94.021 103.100  89.364  1.00  0.00     0.000 C 
BRANCH   3   4
ATOM      4  C   UNL     1      92.681 102.575  89.906  1.00  0.00     0.000 C 
BRANCH   4   5
ATOM      5  C   UNL     1      92.662 102.468  91.443  1.00  0.00     0.006 C 
BRANCH   5   6
ATOM      6  C   UNL     1      92.423 101.048  91.979  1.00  0.00     0.053 C 
BRANCH   6   7
ATOM      7  C   UNL     1      91.007 100.602  91.776  1.00  0.00     0.041 C 
ATOM      8  O   UNL     1      90.711  99.848  90.812  1.00  0.00    -0.550 OA
ATOM      9  O   UNL     1      90.008 101.046  92.634  1.00  0.00    -0.550 OA
ENDBRANCH   6   7
ENDBRANCH   5   6
ENDBRANCH   4   5
ENDBRANCH   3   4
ENDBRANCH   2   3
ENDBRANCH   1   2
BRANCH   1  10
ATOM     10  C   UNL     1      96.773 104.233  88.787  1.00  0.00     0.000 C 
BRANCH  10  11
ATOM     11  C   UNL     1      98.226 104.647  89.077  1.00  0.00    -0.000 C 
BRANCH  11  12
ATOM     12  C   UNL     1      99.007 103.578  89.856  1.00  0.00    -0.000 C 
BRANCH  12  13
ATOM     13  C   UNL     1      98.273 102.232  89.828  1.00  0.00    -0.000 C 
BRANCH  13  14
ATOM     14  C   UNL     1      98.081 101.681  91.249  1.00  0.00    -0.000 C 
BRANCH  14  15
ATOM     15  C   UNL     1      96.604 101.628  91.669  1.00  0.00    -0.000 C 
BRANCH  15  16
ATOM     16  C   UNL     1      96.030 100.205  91.637  1.00  0.00    -0.003 C 
ATOM     17  C   UNL     1      95.531  99.845  90.240  1.00  0.00     0.004 C 
ENDBRANCH  15  16
ENDBRANCH  14  15
ENDBRANCH  13  14
ENDBRANCH  12  13
ENDBRANCH  11  12
ENDBRANCH  10  11
ENDBRANCH   1  10
TORSDOF 13
ENDMDL
MODEL 2
REMARK VINA RESULT:    -4.051      9.773     12.529
REMARK INTER + INTRA:          -8.985
REMARK INTER:                  -7.203
REMARK INTRA:                  -1.782
REMARK UNBOUND:                -1.856
REMARK SMILES CCCCCCCCCCCCCCC(=O)[O-]
REMARK SMILES IDX 9 1 10 2 11 3 12 4 13 5 14 6 15 7 16 8 17 9 8 10 7 11 6 12
REMARK SMILES IDX 5 13 4 14 3 15 2 16 1 17
REMARK H PARENT
REMARK Flexibility Score: inf
ROOT
ATOM      1  C   UNL     1     103.198  93.619  89.753  1.00  0.00     0.000 C 
ENDROOT
BRANCH   1   2
ATOM      2  C   UNL     1     103.450  94.937  88.992  1.00  0.00     0.000 C 
BRANCH   2   3
ATOM      3  C   UNL     1     104.616  95.787  89.527  1.00  0.00     0.000 C 
BRANCH   3   4
ATOM      4  C   UNL     1     105.409  95.079  90.639  1.00  0.00     0.000 C 
BRANCH   4   5
ATOM      5  C   UNL     1     105.430  95.877  91.957  1.00  0.00     0.006 C 
BRANCH   5   6
ATOM      6  C   UNL     1     105.794  97.361  91.796  1.00  0.00     0.053 C 
BRANCH   6   7
ATOM      7  C   UNL     1     107.276  97.582  91.835  1.00  0.00     0.041 C 
ATOM      8  O   UNL     1     107.977  97.028  92.722  1.00  0.00    -0.550 OA
ATOM      9  O   UNL     1     107.877  98.427  90.911  1.00  0.00    -0.550 OA
ENDBRANCH   6   7
ENDBRANCH   5   6
ENDBRANCH   4   5
ENDBRANCH   3   4
ENDBRANCH   2   3
ENDBRANCH   1   2
BRANCH   1  10
ATOM     10  C   UNL     1     101.912  92.867  89.353  1.00  0.00     0.000 C 
BRANCH  10  11
ATOM     11  C   UNL     1     100.791  93.754  88.785  1.00  0.00    -0.000 C 
BRANCH  11  12
ATOM     12  C   UNL     1      99.395  93.342  89.280  1.00  0.00    -0.000 C 
BRANCH  12  13
ATOM     13  C   UNL     1      98.741  94.475  90.079  1.00  0.00    -0.000 C 
BRANCH  13  14
ATOM     14  C   UNL     1      99.572  95.763  89.988  1.00  0.00    -0.000 C 
BRANCH  14  15
ATOM     15  C   UNL     1      99.913  96.347  91.368  1.00  0.00    -0.000 C 
BRANCH  15  16
ATOM     16  C   UNL     1     101.419  96.322  91.665  1.00  0.00    -0.003 C 
ATOM     17  C   UNL     1     101.997  97.734  91.692  1.00  0.00     0.004 C 
ENDBRANCH  15  16
ENDBRANCH  14  15
ENDBRANCH  13  14
ENDBRANCH  12  13
ENDBRANCH  11  12
ENDBRANCH  10  11
ENDBRANCH   1  10
TORSDOF 13
ENDMDL
MODEL 3
REMARK VINA RESULT:    -4.029      3.194      6.524
REMARK INTER + INTRA:          -8.947
REMARK INTER:                  -6.888
REMARK INTRA:                  -2.059
REMARK UNBOUND:                -1.856
REMARK SMILES CCCCCCCCCCCCCCC(=O)[O-]
REMARK SMILES IDX 9 1 10 2 11 3 12 4 13 5 14 6 15 7 16 8 17 9 8 10 7 11 6 12
REMARK SMILES IDX 5 13 4 14 3 15 2 16 1 17
REMARK H PARENT
REMARK Flexibility Score: inf
ROOT
ATOM      1  C   UNL     1      92.519  98.112  89.475  1.00  0.00     0.000 C 
ENDROOT
BRANCH   1   2
ATOM      2  C   UNL     1      93.296  99.351  88.987  1.00  0.00     0.000 C 
BRANCH   2   3
ATOM      3  C   UNL     1      92.428 100.577  88.650  1.00  0.00     0.000 C 
BRANCH   3   4
ATOM      4  C   UNL     1      93.226 101.892  88.659  1.00  0.00     0.000 C 
BRANCH   4   5
ATOM      5  C   UNL     1      92.743 102.873  89.745  1.00  0.00     0.006 C 
BRANCH   5   6
ATOM      6  C   UNL     1      93.835 103.810  90.286  1.00  0.00     0.053 C 
BRANCH   6   7
ATOM      7  C   UNL     1      94.564 103.208  91.448  1.00  0.00     0.041 C 
ATOM      8  O   UNL     1      95.586 102.498  91.257  1.00  0.00    -0.550 OA
ATOM      9  O   UNL     1      94.096 103.405  92.741  1.00  0.00    -0.550 OA
ENDBRANCH   6   7
ENDBRANCH   5   6
ENDBRANCH   4   5
ENDBRANCH   3   4
ENDBRANCH   2   3
ENDBRANCH   1   2
BRANCH   1  10
ATOM     10  C   UNL     1      91.151  97.887  88.800  1.00  0.00     0.000 C 
BRANCH  10  11
ATOM     11  C   UNL     1      89.972  97.692  89.769  1.00  0.00    -0.000 C 
BRANCH  11  12
ATOM     12  C   UNL     1      89.515  99.006  90.423  1.00  0.00    -0.000 C 
BRANCH  12  13
ATOM     13  C   UNL     1      89.139  98.785  91.893  1.00  0.00    -0.000 C 
BRANCH  13  14
ATOM     14  C   UNL     1      89.971  99.689  92.814  1.00  0.00    -0.000 C 
BRANCH  14  15
ATOM     15  C   UNL     1      90.973 100.560  92.042  1.00  0.00    -0.000 C 
BRANCH  15  16
ATOM     16  C   UNL     1      92.426 100.316  92.476  1.00  0.00    -0.003 C 
ATOM     17  C   UNL     1      92.554  99.015  93.263  1.00  0.00     0.004 C 
ENDBRANCH  15  16
ENDBRANCH  14  15
ENDBRANCH  13  14
ENDBRANCH  12  13
ENDBRANCH  11  12
ENDBRANCH  10  11
ENDBRANCH   1  10
TORSDOF 13
ENDMDL
MODEL 4
REMARK VINA RESULT:    -4.004     10.314     12.164
REMARK INTER + INTRA:          -8.903
REMARK INTER:                  -6.749
REMARK INTRA:                  -2.154
REMARK UNBOUND:                -1.856
REMARK SMILES CCCCCCCCCCCCCCC(=O)[O-]
REMARK SMILES IDX 9 1 10 2 11 3 12 4 13 5 14 6 15 7 16 8 17 9 8 10 7 11 6 12
REMARK SMILES IDX 5 13 4 14 3 15 2 16 1 17
REMARK H PARENT
REMARK Flexibility Score: inf
ROOT
ATOM      1  C   UNL     1     106.604 100.252  89.179  1.00  0.00     0.000 C 
ENDROOT
BRANCH   1   2
ATOM      2  C   UNL     1     106.395  99.205  88.066  1.00  0.00     0.000 C 
BRANCH   2   3
ATOM      3  C   UNL     1     105.251  98.205  88.315  1.00  0.00     0.000 C 
BRANCH   3   4
ATOM      4  C   UNL     1     105.740  96.750  88.403  1.00  0.00     0.000 C 
BRANCH   4   5
ATOM      5  C   UNL     1     104.674  95.797  88.978  1.00  0.00     0.006 C 
BRANCH   5   6
ATOM      6  C   UNL     1     105.104  95.056  90.253  1.00  0.00     0.053 C 
BRANCH   6   7
ATOM      7  C   UNL     1     103.943  94.413  90.947  1.00  0.00     0.041 C 
ATOM      8  O   UNL     1     103.852  94.452  92.202  1.00  0.00    -0.550 OA
ATOM      9  O   UNL     1     102.977  93.741  90.208  1.00  0.00    -0.550 OA
ENDBRANCH   6   7
ENDBRANCH   5   6
ENDBRANCH   4   5
ENDBRANCH   3   4
ENDBRANCH   2   3
ENDBRANCH   1   2
BRANCH   1  10
ATOM     10  C   UNL     1     108.033 100.322  89.754  1.00  0.00     0.000 C 
BRANCH  10  11
ATOM     11  C   UNL     1     108.197  99.725  91.162  1.00  0.00    -0.000 C 
BRANCH  11  12
ATOM     12  C   UNL     1     108.350  98.195  91.147  1.00  0.00    -0.000 C 
BRANCH  12  13
ATOM     13  C   UNL     1     107.216  97.523  91.930  1.00  0.00    -0.000 C 
BRANCH  13  14
ATOM     14  C   UNL     1     106.772  98.396  93.113  1.00  0.00    -0.000 C 
BRANCH  14  15
ATOM     15  C   UNL     1     105.251  98.605  93.157  1.00  0.00    -0.000 C 
BRANCH  15  16
ATOM     16  C   UNL     1     104.609  98.573  91.763  1.00  0.00    -0.003 C 
ATOM     17  C   UNL     1     103.233  97.914  91.806  1.00  0.00     0.004 C 
ENDBRANCH  15  16
ENDBRANCH  14  15
ENDBRANCH  13  14
ENDBRANCH  12  13
ENDBRANCH  11  12
ENDBRANCH  10  11
ENDBRANCH   1  10
TORSDOF 13
ENDMDL
MODEL 5
REMARK VINA RESULT:    -3.995     10.674     12.019
REMARK INTER + INTRA:          -8.887
REMARK INTER:                  -6.846
REMARK INTRA:                  -2.041
REMARK UNBOUND:                -1.856
REMARK SMILES CCCCCCCCCCCCCCC(=O)[O-]
REMARK SMILES IDX 9 1 10 2 11 3 12 4 13 5 14 6 15 7 16 8 17 9 8 10 7 11 6 12
REMARK SMILES IDX 5 13 4 14 3 15 2 16 1 17
REMARK H PARENT
REMARK Flexibility Score: inf
ROOT
ATOM      1  C   UNL     1     104.620  97.633  89.863  1.00  0.00     0.000 C 
ENDROOT
BRANCH   1   2
ATOM      2  C   UNL     1     105.581  96.554  89.325  1.00  0.00     0.000 C 
BRANCH   2   3
ATOM      3  C   UNL     1     105.726  95.306  90.214  1.00  0.00     0.000 C 
BRANCH   3   4
ATOM      4  C   UNL     1     104.841  95.363  91.471  1.00  0.00     0.000 C 
BRANCH   4   5
ATOM      5  C   UNL     1     103.635  94.407  91.394  1.00  0.00     0.006 C 
BRANCH   5   6
ATOM      6  C   UNL     1     103.546  93.601  90.089  1.00  0.00     0.053 C 
BRANCH   6   7
ATOM      7  C   UNL     1     102.315  93.939  89.304  1.00  0.00     0.041 C 
ATOM      8  O   UNL     1     101.981  95.141  89.134  1.00  0.00    -0.550 OA
ATOM      9  O   UNL     1     101.519  92.924  88.788  1.00  0.00    -0.550 OA
ENDBRANCH   6   7
ENDBRANCH   5   6
ENDBRANCH   4   5
ENDBRANCH   3   4
ENDBRANCH   2   3
ENDBRANCH   1   2
BRANCH   1  10
ATOM     10  C   UNL     1     104.633  98.968  89.091  1.00  0.00     0.000 C 
BRANCH  10  11
ATOM     11  C   UNL     1     105.507 100.070  89.715  1.00  0.00    -0.000 C 
BRANCH  11  12
ATOM     12  C   UNL     1     106.868 100.220  89.016  1.00  0.00    -0.000 C 
BRANCH  12  13
ATOM     13  C   UNL     1     108.011 100.228  90.037  1.00  0.00    -0.000 C 
BRANCH  13  14
ATOM     14  C   UNL     1     108.140  98.863  90.730  1.00  0.00    -0.000 C 
BRANCH  14  15
ATOM     15  C   UNL     1     108.083  98.969  92.261  1.00  0.00    -0.000 C 
BRANCH  15  16
ATOM     16  C   UNL     1     107.014  98.054  92.878  1.00  0.00    -0.003 C 
ATOM     17  C   UNL     1     105.748  98.837  93.213  1.00  0.00     0.004 C 
ENDBRANCH  15  16
ENDBRANCH  14  15
ENDBRANCH  13  14
ENDBRANCH  12  13
ENDBRANCH  11  12
ENDBRANCH  10  11
ENDBRANCH   1  10
TORSDOF 13
ENDMDL
MODEL 6
REMARK VINA RESULT:    -3.964     10.255     11.874
REMARK INTER + INTRA:          -8.833
REMARK INTER:                  -6.921
REMARK INTRA:                  -1.912
REMARK UNBOUND:                -1.856
REMARK SMILES CCCCCCCCCCCCCCC(=O)[O-]
REMARK SMILES IDX 9 1 10 2 11 3 12 4 13 5 14 6 15 7 16 8 17 9 8 10 7 11 6 12
REMARK SMILES IDX 5 13 4 14 3 15 2 16 1 17
REMARK H PARENT
REMARK Flexibility Score: inf
ROOT
ATOM      1  C   UNL     1     105.070  98.767  89.105  1.00  0.00     0.000 C 
ENDROOT
BRANCH   1   2
ATOM      2  C   UNL     1     105.918  97.506  88.836  1.00  0.00     0.000 C 
BRANCH   2   3
ATOM      3  C   UNL     1     105.147  96.175  88.899  1.00  0.00     0.000 C 
BRANCH   3   4
ATOM      4  C   UNL     1     105.543  95.314  90.111  1.00  0.00     0.000 C 
BRANCH   4   5
ATOM      5  C   UNL     1     104.355  94.527  90.695  1.00  0.00     0.006 C 
BRANCH   5   6
ATOM      6  C   UNL     1     103.669  95.205  91.891  1.00  0.00     0.053 C 
BRANCH   6   7
ATOM      7  C   UNL     1     102.584  96.144  91.458  1.00  0.00     0.041 C 
ATOM      8  O   UNL     1     101.606  95.718  90.789  1.00  0.00    -0.550 OA
ATOM      9  O   UNL     1     102.670  97.496  91.765  1.00  0.00    -0.550 OA
ENDBRANCH   6   7
ENDBRANCH   5   6
ENDBRANCH   4   5
ENDBRANCH   3   4
ENDBRANCH   2   3
ENDBRANCH   1   2
BRANCH   1  10
ATOM     10  C   UNL     1     105.875 100.047  89.408  1.00  0.00     0.000 C 
BRANCH  10  11
ATOM     11  C   UNL     1     107.286 100.087  88.795  1.00  0.00    -0.000 C 
BRANCH  11  12
ATOM     12  C   UNL     1     108.375 100.426  89.826  1.00  0.00    -0.000 C 
BRANCH  12  13
ATOM     13  C   UNL     1     108.725  99.199  90.677  1.00  0.00    -0.000 C 
BRANCH  13  14
ATOM     14  C   UNL     1     108.189  99.353  92.108  1.00  0.00    -0.000 C 
BRANCH  14  15
ATOM     15  C   UNL     1     107.581  98.053  92.655  1.00  0.00    -0.000 C 
BRANCH  15  16
ATOM     16  C   UNL     1     106.048  98.030  92.557  1.00  0.00    -0.003 C 
ATOM     17  C   UNL     1     105.421  99.045  93.508  1.00  0.00     0.004 C 
ENDBRANCH  15  16
ENDBRANCH  14  15
ENDBRANCH  13  14
ENDBRANCH  12  13
ENDBRANCH  11  12
ENDBRANCH  10  11
ENDBRANCH   1  10
TORSDOF 13
ENDMDL
MODEL 7
REMARK VINA RESULT:    -3.946      3.129      6.191
REMARK INTER + INTRA:          -8.800
REMARK INTER:                  -6.749
REMARK INTRA:                  -2.051
REMARK UNBOUND:                -1.856
REMARK SMILES CCCCCCCCCCCCCCC(=O)[O-]
REMARK SMILES IDX 9 1 10 2 11 3 12 4 13 5 14 6 15 7 16 8 17 9 8 10 7 11 6 12
REMARK SMILES IDX 5 13 4 14 3 15 2 16 1 17
REMARK H PARENT
REMARK Flexibility Score: inf
ROOT
ATOM      1  C   UNL     1      94.162  99.767  90.287  1.00  0.00     0.000 C 
ENDROOT
BRANCH   1   2
ATOM      2  C   UNL     1      93.986 101.006  89.385  1.00  0.00     0.000 C 
BRANCH   2   3
ATOM      3  C   UNL     1      92.584 101.640  89.410  1.00  0.00     0.000 C 
BRANCH   3   4
ATOM      4  C   UNL     1      92.520 102.912  90.272  1.00  0.00     0.000 C 
BRANCH   4   5
ATOM      5  C   UNL     1      93.916 103.455  90.636  1.00  0.00     0.006 C 
BRANCH   5   6
ATOM      6  C   UNL     1      94.388 104.630  89.766  1.00  0.00     0.053 C 
BRANCH   6   7
ATOM      7  C   UNL     1      95.844 104.530  89.431  1.00  0.00     0.041 C 
ATOM      8  O   UNL     1      96.445 105.509  88.914  1.00  0.00    -0.550 OA
ATOM      9  O   UNL     1      96.531 103.345  89.660  1.00  0.00    -0.550 OA
ENDBRANCH   6   7
ENDBRANCH   5   6
ENDBRANCH   4   5
ENDBRANCH   3   4
ENDBRANCH   2   3
ENDBRANCH   1   2
BRANCH   1  10
ATOM     10  C   UNL     1      94.652 100.061  91.719  1.00  0.00     0.000 C 
BRANCH  10  11
ATOM     11  C   UNL     1      93.543 100.136  92.783  1.00  0.00    -0.000 C 
BRANCH  11  12
ATOM     12  C   UNL     1      92.444  99.082  92.573  1.00  0.00    -0.000 C 
BRANCH  12  13
ATOM     13  C   UNL     1      91.069  99.640  92.958  1.00  0.00    -0.000 C 
BRANCH  13  14
ATOM     14  C   UNL     1      90.283 100.071  91.710  1.00  0.00    -0.000 C 
BRANCH  14  15
ATOM     15  C   UNL     1      89.703  98.878  90.934  1.00  0.00    -0.000 C 
BRANCH  15  16
ATOM     16  C   UNL     1      90.135  98.865  89.460  1.00  0.00    -0.003 C 
ATOM     17  C   UNL     1      91.223  97.825  89.215  1.00  0.00     0.004 C 
ENDBRANCH  15  16
ENDBRANCH  14  15
ENDBRANCH  13  14
ENDBRANCH  12  13
ENDBRANCH  11  12
ENDBRANCH  10  11
ENDBRANCH   1  10
TORSDOF 13
ENDMDL
MODEL 8
REMARK VINA RESULT:    -3.926     10.060     12.529
REMARK INTER + INTRA:          -8.765
REMARK INTER:                  -6.788
REMARK INTRA:                  -1.977
REMARK UNBOUND:                -1.856
REMARK SMILES CCCCCCCCCCCCCCC(=O)[O-]
REMARK SMILES IDX 9 1 10 2 11 3 12 4 13 5 14 6 15 7 16 8 17 9 8 10 7 11 6 12
REMARK SMILES IDX 5 13 4 14 3 15 2 16 1 17
REMARK H PARENT
REMARK Flexibility Score: inf
ROOT
ATOM      1  C   UNL     1     105.582  96.380  89.991  1.00  0.00     0.000 C 
ENDROOT
BRANCH   1   2
ATOM      2  C   UNL     1     104.328  97.277  89.965  1.00  0.00     0.000 C 
BRANCH   2   3
ATOM      3  C   UNL     1     104.249  98.325  91.089  1.00  0.00     0.000 C 
BRANCH   3   4
ATOM      4  C   UNL     1     104.708  97.774  92.450  1.00  0.00     0.000 C 
BRANCH   4   5
ATOM      5  C   UNL     1     105.783  98.653  93.116  1.00  0.00     0.006 C 
BRANCH   5   6
ATOM      6  C   UNL     1     107.229  98.249  92.786  1.00  0.00     0.053 C 
BRANCH   6   7
ATOM      7  C   UNL     1     107.901  99.249  91.895  1.00  0.00     0.041 C 
ATOM      8  O   UNL     1     108.726 100.071  92.373  1.00  0.00    -0.550 OA
ATOM      9  O   UNL     1     107.591  99.294  90.542  1.00  0.00    -0.550 OA
ENDBRANCH   6   7
ENDBRANCH   5   6
ENDBRANCH   4   5
ENDBRANCH   3   4
ENDBRANCH   2   3
ENDBRANCH   1   2
BRANCH   1  10
ATOM     10  C   UNL     1     105.305  94.868  90.121  1.00  0.00     0.000 C 
BRANCH  10  11
ATOM     11  C   UNL     1     103.893  94.507  90.613  1.00  0.00    -0.000 C 
BRANCH  11  12
ATOM     12  C   UNL     1     103.200  93.464  89.722  1.00  0.00    -0.000 C 
BRANCH  12  13
ATOM     13  C   UNL     1     101.751  93.868  89.429  1.00  0.00    -0.000 C 
BRANCH  13  14
ATOM     14  C   UNL     1     101.698  95.143  88.572  1.00  0.00    -0.000 C 
BRANCH  14  15
ATOM     15  C   UNL     1     100.905  96.275  89.243  1.00  0.00    -0.000 C 
BRANCH  15  16
ATOM     16  C   UNL     1     100.304  95.857  90.592  1.00  0.00    -0.003 C 
ATOM     17  C   UNL     1     100.961  96.611  91.745  1.00  0.00     0.004 C 
ENDBRANCH  15  16
ENDBRANCH  14  15
ENDBRANCH  13  14
ENDBRANCH  12  13
ENDBRANCH  11  12
ENDBRANCH  10  11
ENDBRANCH   1  10
TORSDOF 13
ENDMDL
MODEL 9
REMARK VINA RESULT:    -3.890      1.043      2.257
REMARK INTER + INTRA:          -8.702
REMARK INTER:                  -7.170
REMARK INTRA:                  -1.532
REMARK UNBOUND:                -1.856
REMARK SMILES CCCCCCCCCCCCCCC(=O)[O-]
REMARK SMILES IDX 9 1 10 2 11 3 12 4 13 5 14 6 15 7 16 8 17 9 8 10 7 11 6 12
REMARK SMILES IDX 5 13 4 14 3 15 2 16 1 17
REMARK H PARENT
REMARK Flexibility Score: inf
ROOT
ATOM      1  C   UNL     1      94.586 103.603  90.918  1.00  0.00     0.000 C 
ENDROOT
BRANCH   1   2
ATOM      2  C   UNL     1      93.292 102.800  91.166  1.00  0.00     0.000 C 
BRANCH   2   3
ATOM      3  C   UNL     1      93.062 101.618  90.207  1.00  0.00     0.000 C 
BRANCH   3   4
ATOM      4  C   UNL     1      93.274 100.253  90.882  1.00  0.00     0.000 C 
BRANCH   4   5
ATOM      5  C   UNL     1      93.263 100.341  92.420  1.00  0.00     0.006 C 
BRANCH   5   6
ATOM      6  C   UNL     1      92.235  99.424  93.102  1.00  0.00     0.053 C 
BRANCH   6   7
ATOM      7  C   UNL     1      90.832  99.746  92.686  1.00  0.00     0.041 C 
ATOM      8  O   UNL     1      90.385 100.916  92.816  1.00  0.00    -0.550 OA
ATOM      9  O   UNL     1      90.009  98.746  92.184  1.00  0.00    -0.550 OA
ENDBRANCH   6   7
ENDBRANCH   5   6
ENDBRANCH   4   5
ENDBRANCH   3   4
ENDBRANCH   2   3
ENDBRANCH   1   2
BRANCH   1  10
ATOM     10  C   UNL     1      94.525 104.600  89.744  1.00  0.00     0.000 C 
BRANCH  10  11
ATOM     11  C   UNL     1      95.868 105.256  89.379  1.00  0.00    -0.000 C 
BRANCH  11  12
ATOM     12  C   UNL     1      96.885 104.256  88.807  1.00  0.00    -0.000 C 
BRANCH  12  13
ATOM     13  C   UNL     1      98.301 104.570  89.302  1.00  0.00    -0.000 C 
BRANCH  13  14
ATOM     14  C   UNL     1      98.953 103.328  89.928  1.00  0.00    -0.000 C 
BRANCH  14  15
ATOM     15  C   UNL     1      97.968 102.161  90.092  1.00  0.00    -0.000 C 
BRANCH  15  16
ATOM     16  C   UNL     1      97.931 101.616  91.527  1.00  0.00    -0.003 C 
ATOM     17  C   UNL     1      96.900 100.499  91.665  1.00  0.00     0.004 C 
ENDBRANCH  15  16
ENDBRANCH  14  15
ENDBRANCH  13  14
ENDBRANCH  12  13
ENDBRANCH  11  12
ENDBRANCH  10  11
ENDBRANCH   1  10
TORSDOF 13
ENDMDL
