MODEL 1
REMARK VINA RESULT:    -7.168      0.000      0.000
REMARK INTER + INTRA:         -10.826
REMARK INTER:                  -9.682
REMARK INTRA:                  -1.144
REMARK UNBOUND:                -1.144
REMARK SMILES O=c1c(-c2ccc(O)cc2)coc2c([C@@H]3O[C@H](CO)[C@@H](O)[C@@H](O)[C@H]3O)c(O)ccc12
REMARK SMILES IDX 3 1 11 2 12 3 13 4 30 5 2 6 1 7 29 8 28 9 26 10 14 11 4 12
REMARK SMILES IDX 5 13 6 14 7 15 10 16 9 17 8 18 15 20 24 21 16 22 22 23 17 24
REMARK SMILES IDX 20 25 25 26 23 28 18 30 19 31 21 33 27 35
REMARK H PARENT 8 19 25 27 23 29 19 32 21 34 27 36
REMARK Flexibility Score: inf
ROOT
ATOM      1  C   UNL     1      -4.509  15.598   9.795  1.00  0.00     0.065 A 
ATOM      2  C   UNL     1      -5.222  14.391   9.762  1.00  0.00     0.208 A 
ATOM      3  O   UNL     1      -6.119  14.105  10.697  1.00  0.00    -0.463 OA
ATOM      4  C   UNL     1      -6.402  14.920  11.710  1.00  0.00     0.147 A 
ATOM      5  C   UNL     1      -5.721  16.155  11.826  1.00  0.00     0.066 A 
ATOM      6  C   UNL     1      -4.762  16.489  10.853  1.00  0.00     0.200 A 
ATOM      7  O   UNL     1      -4.114  17.570  10.941  1.00  0.00    -0.288 OA
ATOM      8  C   UNL     1      -6.007  17.005  12.905  1.00  0.00     0.020 A 
ATOM      9  C   UNL     1      -6.949  16.634  13.861  1.00  0.00     0.047 A 
ATOM     10  C   UNL     1      -7.627  15.414  13.758  1.00  0.00     0.125 A 
ATOM     11  C   UNL     1      -7.375  14.549  12.668  1.00  0.00     0.069 A 
ENDROOT
BRANCH   1  12
ATOM     12  C   UNL     1      -3.516  15.900   8.733  1.00  0.00    -0.011 A 
ATOM     13  C   UNL     1      -3.921  16.529   7.542  1.00  0.00     0.013 A 
ATOM     14  C   UNL     1      -2.987  16.822   6.543  1.00  0.00     0.047 A 
ATOM     15  C   UNL     1      -1.639  16.497   6.723  1.00  0.00     0.115 A 
ATOM     16  C   UNL     1      -2.158  15.582   8.909  1.00  0.00     0.013 A 
ATOM     17  C   UNL     1      -1.226  15.877   7.909  1.00  0.00     0.047 A 
BRANCH  15  18
ATOM     18  O   UNL     1      -0.720  16.795   5.719  1.00  0.00    -0.508 OA
ATOM     19  H   UNL     1       0.225  17.089   5.937  1.00  0.00     0.293 HD
ENDBRANCH  15  18
ENDBRANCH   1  12
BRANCH  11  20
ATOM     20  C   UNL     1      -8.091  13.210  12.560  1.00  0.00     0.188 C 
ATOM     21  C   UNL     1      -7.428  12.172  13.494  1.00  0.00     0.179 C 
ATOM     22  O   UNL     1      -9.460  13.385  12.893  1.00  0.00    -0.362 OA
ATOM     23  C   UNL     1      -8.181  10.830  13.410  1.00  0.00     0.177 C 
ATOM     24  C   UNL     1     -10.195  12.191  12.676  1.00  0.00     0.176 C 
ATOM     25  C   UNL     1      -9.687  11.072  13.624  1.00  0.00     0.177 C 
BRANCH  21  26
ATOM     26  O   UNL     1      -6.080  11.998  13.133  1.00  0.00    -0.387 OA
ATOM     27  H   UNL     1      -5.737  12.892  12.871  1.00  0.00     0.211 HD
ENDBRANCH  21  26
BRANCH  23  28
ATOM     28  O   UNL     1      -7.964  10.227  12.157  1.00  0.00    -0.387 OA
ATOM     29  H   UNL     1      -8.458   9.365  12.160  1.00  0.00     0.211 HD
ENDBRANCH  23  28
BRANCH  24  30
ATOM     30  C   UNL     1     -11.681  12.482  12.931  1.00  0.00     0.191 C 
BRANCH  30  31
ATOM     31  O   UNL     1     -12.465  11.379  12.564  1.00  0.00    -0.394 OA
ATOM     32  H   UNL     1     -11.868  10.586  12.578  1.00  0.00     0.210 HD
ENDBRANCH  30  31
ENDBRANCH  24  30
BRANCH  25  33
ATOM     33  O   UNL     1     -10.411   9.875  13.463  1.00  0.00    -0.388 OA
ATOM     34  H   UNL     1     -11.370  10.110  13.362  1.00  0.00     0.211 HD
ENDBRANCH  25  33
ENDBRANCH  11  20
BRANCH  10  35
ATOM     35  O   UNL     1      -8.551  15.059  14.743  1.00  0.00    -0.507 OA
ATOM     36  H   UNL     1      -9.273  14.371  14.572  1.00  0.00     0.293 HD
ENDBRANCH  10  35
TORSDOF 9
ENDMDL
MODEL 2
REMARK VINA RESULT:    -7.058      4.600      5.900
REMARK INTER + INTRA:         -10.678
REMARK INTER:                  -9.883
REMARK INTRA:                  -0.795
REMARK UNBOUND:                -1.144
REMARK SMILES O=c1c(-c2ccc(O)cc2)coc2c([C@@H]3O[C@H](CO)[C@@H](O)[C@@H](O)[C@H]3O)c(O)ccc12
REMARK SMILES IDX 3 1 11 2 12 3 13 4 30 5 2 6 1 7 29 8 28 9 26 10 14 11 4 12
REMARK SMILES IDX 5 13 6 14 7 15 10 16 9 17 8 18 15 20 24 21 16 22 22 23 17 24
REMARK SMILES IDX 20 25 25 26 23 28 18 30 19 31 21 33 27 35
REMARK H PARENT 8 19 25 27 23 29 19 32 21 34 27 36
REMARK Flexibility Score: inf
ROOT
ATOM      1  C   UNL     1      -6.190  15.421   8.244  1.00  0.00     0.065 A 
ATOM      2  C   UNL     1      -7.122  15.493   9.289  1.00  0.00     0.208 A 
ATOM      3  O   UNL     1      -8.418  15.625   9.037  1.00  0.00    -0.463 OA
ATOM      4  C   UNL     1      -8.918  15.698   7.806  1.00  0.00     0.147 A 
ATOM      5  C   UNL     1      -8.047  15.644   6.693  1.00  0.00     0.066 A 
ATOM      6  C   UNL     1      -6.666  15.506   6.924  1.00  0.00     0.200 A 
ATOM      7  O   UNL     1      -5.857  15.483   5.954  1.00  0.00    -0.288 OA
ATOM      8  C   UNL     1      -8.573  15.739   5.395  1.00  0.00     0.020 A 
ATOM      9  C   UNL     1      -9.944  15.895   5.203  1.00  0.00     0.047 A 
ATOM     10  C   UNL     1     -10.816  15.952   6.297  1.00  0.00     0.125 A 
ATOM     11  C   UNL     1     -10.314  15.835   7.614  1.00  0.00     0.069 A 
ENDROOT
BRANCH   1  12
ATOM     12  C   UNL     1      -4.745  15.264   8.551  1.00  0.00    -0.011 A 
ATOM     13  C   UNL     1      -4.077  16.227   9.329  1.00  0.00     0.013 A 
ATOM     14  C   UNL     1      -2.719  16.078   9.625  1.00  0.00     0.047 A 
ATOM     15  C   UNL     1      -2.014  14.966   9.156  1.00  0.00     0.115 A 
ATOM     16  C   UNL     1      -4.031  14.145   8.087  1.00  0.00     0.013 A 
ATOM     17  C   UNL     1      -2.673  13.998   8.387  1.00  0.00     0.047 A 
BRANCH  15  18
ATOM     18  O   UNL     1      -0.661  14.830   9.459  1.00  0.00    -0.508 OA
ATOM     19  H   UNL     1      -0.249  15.291  10.263  1.00  0.00     0.293 HD
ENDBRANCH  15  18
ENDBRANCH   1  12
BRANCH  11  20
ATOM     20  C   UNL     1     -11.251  15.919   8.811  1.00  0.00     0.188 C 
ATOM     21  C   UNL     1     -11.601  17.394   9.112  1.00  0.00     0.179 C 
ATOM     22  O   UNL     1     -12.424  15.168   8.538  1.00  0.00    -0.362 OA
ATOM     23  C   UNL     1     -12.581  17.470  10.299  1.00  0.00     0.177 C 
ATOM     24  C   UNL     1     -13.268  15.107   9.677  1.00  0.00     0.176 C 
ATOM     25  C   UNL     1     -13.772  16.528  10.044  1.00  0.00     0.177 C 
BRANCH  21  26
ATOM     26  O   UNL     1     -10.429  18.114   9.401  1.00  0.00    -0.387 OA
ATOM     27  H   UNL     1      -9.668  17.502   9.223  1.00  0.00     0.211 HD
ENDBRANCH  21  26
BRANCH  23  28
ATOM     28  O   UNL     1     -11.930  17.110  11.493  1.00  0.00    -0.387 OA
ATOM     29  H   UNL     1     -12.635  16.836  12.137  1.00  0.00     0.211 HD
ENDBRANCH  23  28
BRANCH  24  30
ATOM     30  C   UNL     1     -14.449  14.179   9.357  1.00  0.00     0.191 C 
BRANCH  30  31
ATOM     31  O   UNL     1     -14.153  12.863   9.740  1.00  0.00    -0.394 OA
ATOM     32  H   UNL     1     -14.157  12.315   8.912  1.00  0.00     0.210 HD
ENDBRANCH  30  31
ENDBRANCH  24  30
BRANCH  25  33
ATOM     33  O   UNL     1     -14.639  16.509  11.153  1.00  0.00    -0.388 OA
ATOM     34  H   UNL     1     -15.492  16.938  10.882  1.00  0.00     0.211 HD
ENDBRANCH  25  33
ENDBRANCH  11  20
BRANCH  10  35
ATOM     35  O   UNL     1     -12.182  16.130   6.075  1.00  0.00    -0.507 OA
ATOM     36  H   UNL     1     -12.830  15.352   6.093  1.00  0.00     0.293 HD
ENDBRANCH  10  35
TORSDOF 9
ENDMDL
MODEL 3
REMARK VINA RESULT:    -6.880      4.700      6.068
REMARK INTER + INTRA:         -10.437
REMARK INTER:                 -10.373
REMARK INTRA:                  -0.064
REMARK UNBOUND:                -1.144
REMARK SMILES O=c1c(-c2ccc(O)cc2)coc2c([C@@H]3O[C@H](CO)[C@@H](O)[C@@H](O)[C@H]3O)c(O)ccc12
REMARK SMILES IDX 3 1 11 2 12 3 13 4 30 5 2 6 1 7 29 8 28 9 26 10 14 11 4 12
REMARK SMILES IDX 5 13 6 14 7 15 10 16 9 17 8 18 15 20 24 21 16 22 22 23 17 24
REMARK SMILES IDX 20 25 25 26 23 28 18 30 19 31 21 33 27 35
REMARK H PARENT 8 19 25 27 23 29 19 32 21 34 27 36
REMARK Flexibility Score: inf
ROOT
ATOM      1  C   UNL     1      -6.788  15.699   8.320  1.00  0.00     0.065 A 
ATOM      2  C   UNL     1      -7.573  15.986   9.445  1.00  0.00     0.208 A 
ATOM      3  O   UNL     1      -8.871  16.234   9.325  1.00  0.00    -0.463 OA
ATOM      4  C   UNL     1      -9.510  16.230   8.157  1.00  0.00     0.147 A 
ATOM      5  C   UNL     1      -8.791  15.959   6.968  1.00  0.00     0.066 A 
ATOM      6  C   UNL     1      -7.413  15.695   7.059  1.00  0.00     0.200 A 
ATOM      7  O   UNL     1      -6.735  15.478   6.016  1.00  0.00    -0.288 OA
ATOM      8  C   UNL     1      -9.461  15.973   5.736  1.00  0.00     0.020 A 
ATOM      9  C   UNL     1     -10.823  16.259   5.680  1.00  0.00     0.047 A 
ATOM     10  C   UNL     1     -11.544  16.530   6.849  1.00  0.00     0.125 A 
ATOM     11  C   UNL     1     -10.898  16.500   8.107  1.00  0.00     0.069 A 
ENDROOT
BRANCH   1  12
ATOM     12  C   UNL     1      -5.339  15.416   8.480  1.00  0.00    -0.011 A 
ATOM     13  C   UNL     1      -4.538  16.253   9.278  1.00  0.00     0.013 A 
ATOM     14  C   UNL     1      -3.175  15.984   9.438  1.00  0.00     0.047 A 
ATOM     15  C   UNL     1      -2.597  14.877   8.809  1.00  0.00     0.115 A 
ATOM     16  C   UNL     1      -4.753  14.301   7.856  1.00  0.00     0.013 A 
ATOM     17  C   UNL     1      -3.390  14.035   8.019  1.00  0.00     0.047 A 
BRANCH  15  18
ATOM     18  O   UNL     1      -1.238  14.622   8.977  1.00  0.00    -0.508 OA
ATOM     19  H   UNL     1      -0.796  13.810   8.562  1.00  0.00     0.293 HD
ENDBRANCH  15  18
ENDBRANCH   1  12
BRANCH  11  20
ATOM     20  C   UNL     1     -11.668  16.815   9.382  1.00  0.00     0.188 C 
ATOM     21  C   UNL     1     -11.920  15.519  10.187  1.00  0.00     0.179 C 
ATOM     22  O   UNL     1     -10.930  17.751  10.152  1.00  0.00    -0.362 OA
ATOM     23  C   UNL     1     -12.664  15.849  11.495  1.00  0.00     0.177 C 
ATOM     24  C   UNL     1     -11.671  18.176  11.286  1.00  0.00     0.176 C 
ATOM     25  C   UNL     1     -11.923  16.977  12.238  1.00  0.00     0.177 C 
BRANCH  21  26
ATOM     26  O   UNL     1     -12.669  14.615   9.414  1.00  0.00    -0.387 OA
ATOM     27  H   UNL     1     -12.995  13.912  10.034  1.00  0.00     0.211 HD
ENDBRANCH  21  26
BRANCH  23  28
ATOM     28  O   UNL     1     -13.986  16.243  11.218  1.00  0.00    -0.387 OA
ATOM     29  H   UNL     1     -14.366  15.568  10.598  1.00  0.00     0.211 HD
ENDBRANCH  23  28
BRANCH  24  30
ATOM     30  C   UNL     1     -10.874  19.277  12.001  1.00  0.00     0.191 C 
BRANCH  30  31
ATOM     31  O   UNL     1     -11.406  20.539  11.699  1.00  0.00    -0.394 OA
ATOM     32  H   UNL     1     -12.301  20.384  11.298  1.00  0.00     0.210 HD
ENDBRANCH  30  31
ENDBRANCH  24  30
BRANCH  25  33
ATOM     33  O   UNL     1     -12.631  17.361  13.393  1.00  0.00    -0.388 OA
ATOM     34  H   UNL     1     -12.894  16.537  13.879  1.00  0.00     0.211 HD
ENDBRANCH  25  33
ENDBRANCH  11  20
BRANCH  10  35
ATOM     35  O   UNL     1     -12.903  16.834   6.761  1.00  0.00    -0.507 OA
ATOM     36  H   UNL     1     -13.308  17.616   7.260  1.00  0.00     0.293 HD
ENDBRANCH  10  35
TORSDOF 9
ENDMDL
MODEL 4
REMARK VINA RESULT:    -6.709      1.339      2.348
REMARK INTER + INTRA:         -10.206
REMARK INTER:                  -9.810
REMARK INTRA:                  -0.396
REMARK UNBOUND:                -1.144
REMARK SMILES O=c1c(-c2ccc(O)cc2)coc2c([C@@H]3O[C@H](CO)[C@@H](O)[C@@H](O)[C@H]3O)c(O)ccc12
REMARK SMILES IDX 3 1 11 2 12 3 13 4 30 5 2 6 1 7 29 8 28 9 26 10 14 11 4 12
REMARK SMILES IDX 5 13 6 14 7 15 10 16 9 17 8 18 15 20 24 21 16 22 22 23 17 24
REMARK SMILES IDX 20 25 25 26 23 28 18 30 19 31 21 33 27 35
REMARK H PARENT 8 19 25 27 23 29 19 32 21 34 27 36
REMARK Flexibility Score: inf
ROOT
ATOM      1  C   UNL     1      -5.220  15.860  10.616  1.00  0.00     0.065 A 
ATOM      2  C   UNL     1      -6.189  14.849  10.686  1.00  0.00     0.208 A 
ATOM      3  O   UNL     1      -6.947  14.704  11.765  1.00  0.00    -0.463 OA
ATOM      4  C   UNL     1      -6.846  15.488  12.837  1.00  0.00     0.147 A 
ATOM      5  C   UNL     1      -5.887  16.528  12.856  1.00  0.00     0.066 A 
ATOM      6  C   UNL     1      -5.066  16.707  11.728  1.00  0.00     0.200 A 
ATOM      7  O   UNL     1      -4.179  17.607  11.723  1.00  0.00    -0.288 OA
ATOM      8  C   UNL     1      -5.770  17.341  13.993  1.00  0.00     0.020 A 
ATOM      9  C   UNL     1      -6.586  17.123  15.100  1.00  0.00     0.047 A 
ATOM     10  C   UNL     1      -7.537  16.095  15.093  1.00  0.00     0.125 A 
ATOM     11  C   UNL     1      -7.692  15.276  13.951  1.00  0.00     0.069 A 
ENDROOT
BRANCH   1  12
ATOM     12  C   UNL     1      -4.390  16.008   9.394  1.00  0.00    -0.011 A 
ATOM     13  C   UNL     1      -4.875  16.734   8.291  1.00  0.00     0.013 A 
ATOM     14  C   UNL     1      -4.092  16.882   7.142  1.00  0.00     0.047 A 
ATOM     15  C   UNL     1      -2.817  16.313   7.081  1.00  0.00     0.115 A 
ATOM     16  C   UNL     1      -3.104  15.443   9.328  1.00  0.00     0.013 A 
ATOM     17  C   UNL     1      -2.323  15.594   8.178  1.00  0.00     0.047 A 
BRANCH  15  18
ATOM     18  O   UNL     1      -2.048  16.468   5.929  1.00  0.00    -0.508 OA
ATOM     19  H   UNL     1      -1.882  17.380   5.522  1.00  0.00     0.293 HD
ENDBRANCH  15  18
ENDBRANCH   1  12
BRANCH  11  20
ATOM     20  C   UNL     1      -8.708  14.142  13.943  1.00  0.00     0.188 C 
ATOM     21  C   UNL     1      -9.636  14.267  12.713  1.00  0.00     0.179 C 
ATOM     22  O   UNL     1      -8.021  12.900  13.931  1.00  0.00    -0.362 OA
ATOM     23  C   UNL     1     -10.636  13.095  12.687  1.00  0.00     0.177 C 
ATOM     24  C   UNL     1      -8.926  11.815  14.058  1.00  0.00     0.176 C 
ATOM     25  C   UNL     1      -9.874  11.765  12.830  1.00  0.00     0.177 C 
BRANCH  21  26
ATOM     26  O   UNL     1     -10.323  15.493  12.755  1.00  0.00    -0.387 OA
ATOM     27  H   UNL     1     -10.395  15.812  11.818  1.00  0.00     0.211 HD
ENDBRANCH  21  26
BRANCH  23  28
ATOM     28  O   UNL     1     -11.570  13.228  13.731  1.00  0.00    -0.387 OA
ATOM     29  H   UNL     1     -11.056  13.259  14.579  1.00  0.00     0.211 HD
ENDBRANCH  23  28
BRANCH  24  30
ATOM     30  C   UNL     1      -8.113  10.516  14.168  1.00  0.00     0.191 C 
BRANCH  30  31
ATOM     31  O   UNL     1      -8.321   9.915  15.417  1.00  0.00    -0.394 OA
ATOM     32  H   UNL     1      -7.884  10.497  16.092  1.00  0.00     0.210 HD
ENDBRANCH  30  31
ENDBRANCH  24  30
BRANCH  25  33
ATOM     33  O   UNL     1     -10.770  10.681  12.900  1.00  0.00    -0.388 OA
ATOM     34  H   UNL     1     -10.760  10.336  13.831  1.00  0.00     0.211 HD
ENDBRANCH  25  33
ENDBRANCH  11  20
BRANCH  10  35
ATOM     35  O   UNL     1      -8.327  15.886  16.225  1.00  0.00    -0.507 OA
ATOM     36  H   UNL     1      -8.026  15.282  16.980  1.00  0.00     0.293 HD
ENDBRANCH  10  35
TORSDOF 9
ENDMDL
MODEL 5
REMARK VINA RESULT:    -6.704      4.566      9.093
REMARK INTER + INTRA:         -10.199
REMARK INTER:                  -9.608
REMARK INTRA:                  -0.592
REMARK UNBOUND:                -1.144
REMARK SMILES O=c1c(-c2ccc(O)cc2)coc2c([C@@H]3O[C@H](CO)[C@@H](O)[C@@H](O)[C@H]3O)c(O)ccc12
REMARK SMILES IDX 3 1 11 2 12 3 13 4 30 5 2 6 1 7 29 8 28 9 26 10 14 11 4 12
REMARK SMILES IDX 5 13 6 14 7 15 10 16 9 17 8 18 15 20 24 21 16 22 22 23 17 24
REMARK SMILES IDX 20 25 25 26 23 28 18 30 19 31 21 33 27 35
REMARK H PARENT 8 19 25 27 23 29 19 32 21 34 27 36
REMARK Flexibility Score: inf
ROOT
ATOM      1  C   UNL     1      -9.905  16.251   7.820  1.00  0.00     0.065 A 
ATOM      2  C   UNL     1      -8.744  16.657   8.492  1.00  0.00     0.208 A 
ATOM      3  O   UNL     1      -7.547  16.242   8.096  1.00  0.00    -0.463 OA
ATOM      4  C   UNL     1      -7.364  15.430   7.057  1.00  0.00     0.147 A 
ATOM      5  C   UNL     1      -8.483  14.964   6.328  1.00  0.00     0.066 A 
ATOM      6  C   UNL     1      -9.767  15.382   6.723  1.00  0.00     0.200 A 
ATOM      7  O   UNL     1     -10.790  14.962   6.112  1.00  0.00    -0.288 OA
ATOM      8  C   UNL     1      -8.291  14.093   5.245  1.00  0.00     0.020 A 
ATOM      9  C   UNL     1      -7.007  13.682   4.893  1.00  0.00     0.047 A 
ATOM     10  C   UNL     1      -5.892  14.135   5.609  1.00  0.00     0.125 A 
ATOM     11  C   UNL     1      -6.057  15.032   6.690  1.00  0.00     0.069 A 
ENDROOT
BRANCH   1  12
ATOM     12  C   UNL     1     -11.232  16.736   8.277  1.00  0.00    -0.011 A 
ATOM     13  C   UNL     1     -12.168  17.224   7.346  1.00  0.00     0.013 A 
ATOM     14  C   UNL     1     -13.421  17.673   7.773  1.00  0.00     0.047 A 
ATOM     15  C   UNL     1     -13.759  17.636   9.129  1.00  0.00     0.115 A 
ATOM     16  C   UNL     1     -11.581  16.696   9.638  1.00  0.00     0.013 A 
ATOM     17  C   UNL     1     -12.836  17.145  10.061  1.00  0.00     0.047 A 
BRANCH  15  18
ATOM     18  O   UNL     1     -15.011  18.087   9.539  1.00  0.00    -0.508 OA
ATOM     19  H   UNL     1     -15.866  17.676   9.183  1.00  0.00     0.293 HD
ENDBRANCH  15  18
ENDBRANCH   1  12
BRANCH  11  20
ATOM     20  C   UNL     1      -4.853  15.513   7.488  1.00  0.00     0.188 C 
ATOM     21  C   UNL     1      -4.455  14.455   8.542  1.00  0.00     0.179 C 
ATOM     22  O   UNL     1      -3.776  15.769   6.600  1.00  0.00    -0.362 OA
ATOM     23  C   UNL     1      -3.211  14.929   9.320  1.00  0.00     0.177 C 
ATOM     24  C   UNL     1      -2.675  16.346   7.284  1.00  0.00     0.176 C 
ATOM     25  C   UNL     1      -2.111  15.345   8.327  1.00  0.00     0.177 C 
BRANCH  21  26
ATOM     26  O   UNL     1      -5.526  14.233   9.425  1.00  0.00    -0.387 OA
ATOM     27  H   UNL     1      -5.658  13.250   9.472  1.00  0.00     0.211 HD
ENDBRANCH  21  26
BRANCH  23  28
ATOM     28  O   UNL     1      -3.542  16.013  10.154  1.00  0.00    -0.387 OA
ATOM     29  H   UNL     1      -2.794  16.664  10.095  1.00  0.00     0.211 HD
ENDBRANCH  23  28
BRANCH  24  30
ATOM     30  C   UNL     1      -1.601  16.715   6.250  1.00  0.00     0.191 C 
BRANCH  30  31
ATOM     31  O   UNL     1      -1.854  17.986   5.715  1.00  0.00    -0.394 OA
ATOM     32  H   UNL     1      -2.840  18.091   5.681  1.00  0.00     0.210 HD
ENDBRANCH  30  31
ENDBRANCH  24  30
BRANCH  25  33
ATOM     33  O   UNL     1      -0.996  15.868   9.009  1.00  0.00    -0.388 OA
ATOM     34  H   UNL     1      -0.863  16.804   8.707  1.00  0.00     0.211 HD
ENDBRANCH  25  33
ENDBRANCH  11  20
BRANCH  10  35
ATOM     35  O   UNL     1      -4.620  13.690   5.247  1.00  0.00    -0.507 OA
ATOM     36  H   UNL     1      -4.072  13.094   5.854  1.00  0.00     0.293 HD
ENDBRANCH  10  35
TORSDOF 9
ENDMDL
MODEL 6
REMARK VINA RESULT:    -6.615      4.253      7.146
REMARK INTER + INTRA:         -10.078
REMARK INTER:                  -9.137
REMARK INTRA:                  -0.941
REMARK UNBOUND:                -1.144
REMARK SMILES O=c1c(-c2ccc(O)cc2)coc2c([C@@H]3O[C@H](CO)[C@@H](O)[C@@H](O)[C@H]3O)c(O)ccc12
REMARK SMILES IDX 3 1 11 2 12 3 13 4 30 5 2 6 1 7 29 8 28 9 26 10 14 11 4 12
REMARK SMILES IDX 5 13 6 14 7 15 10 16 9 17 8 18 15 20 24 21 16 22 22 23 17 24
REMARK SMILES IDX 20 25 25 26 23 28 18 30 19 31 21 33 27 35
REMARK H PARENT 8 19 25 27 23 29 19 32 21 34 27 36
REMARK Flexibility Score: inf
ROOT
ATOM      1  C   UNL     1     -11.830  16.844  10.734  1.00  0.00     0.065 A 
ATOM      2  C   UNL     1     -11.394  15.511  10.715  1.00  0.00     0.208 A 
ATOM      3  O   UNL     1     -10.315  15.137  11.392  1.00  0.00    -0.463 OA
ATOM      4  C   UNL     1      -9.586  15.977  12.122  1.00  0.00     0.147 A 
ATOM      5  C   UNL     1      -9.949  17.343  12.190  1.00  0.00     0.066 A 
ATOM      6  C   UNL     1     -11.086  17.774  11.482  1.00  0.00     0.200 A 
ATOM      7  O   UNL     1     -11.422  18.991  11.496  1.00  0.00    -0.288 OA
ATOM      8  C   UNL     1      -9.168  18.231  12.945  1.00  0.00     0.020 A 
ATOM      9  C   UNL     1      -8.038  17.774  13.618  1.00  0.00     0.047 A 
ATOM     10  C   UNL     1      -7.667  16.426  13.556  1.00  0.00     0.125 A 
ATOM     11  C   UNL     1      -8.449  15.505  12.821  1.00  0.00     0.069 A 
ENDROOT
BRANCH   1  12
ATOM     12  C   UNL     1     -13.045  17.236   9.976  1.00  0.00    -0.011 A 
ATOM     13  C   UNL     1     -13.061  17.151   8.572  1.00  0.00     0.013 A 
ATOM     14  C   UNL     1     -14.207  17.513   7.855  1.00  0.00     0.047 A 
ATOM     15  C   UNL     1     -15.348  17.956   8.529  1.00  0.00     0.115 A 
ATOM     16  C   UNL     1     -14.199  17.677  10.647  1.00  0.00     0.013 A 
ATOM     17  C   UNL     1     -15.343  18.036   9.927  1.00  0.00     0.047 A 
BRANCH  15  18
ATOM     18  O   UNL     1     -16.482  18.313   7.802  1.00  0.00    -0.508 OA
ATOM     19  H   UNL     1     -17.347  17.792   7.880  1.00  0.00     0.293 HD
ENDBRANCH  15  18
ENDBRANCH   1  12
BRANCH  11  20
ATOM     20  C   UNL     1      -8.042  14.041  12.730  1.00  0.00     0.188 C 
ATOM     21  C   UNL     1      -6.735  13.901  11.917  1.00  0.00     0.179 C 
ATOM     22  O   UNL     1      -7.879  13.520  14.040  1.00  0.00    -0.362 OA
ATOM     23  C   UNL     1      -6.306  12.421  11.861  1.00  0.00     0.177 C 
ATOM     24  C   UNL     1      -7.630  12.124  14.007  1.00  0.00     0.176 C 
ATOM     25  C   UNL     1      -6.286  11.838  13.286  1.00  0.00     0.177 C 
BRANCH  21  26
ATOM     26  O   UNL     1      -6.925  14.402  10.617  1.00  0.00    -0.387 OA
ATOM     27  H   UNL     1      -6.561  13.721   9.993  1.00  0.00     0.211 HD
ENDBRANCH  21  26
BRANCH  23  28
ATOM     28  O   UNL     1      -7.194  11.686  11.054  1.00  0.00    -0.387 OA
ATOM     29  H   UNL     1      -6.760  10.813  10.866  1.00  0.00     0.211 HD
ENDBRANCH  23  28
BRANCH  24  30
ATOM     30  C   UNL     1      -7.592  11.603  15.451  1.00  0.00     0.191 C 
BRANCH  30  31
ATOM     31  O   UNL     1      -6.267  11.392  15.859  1.00  0.00    -0.394 OA
ATOM     32  H   UNL     1      -5.760  12.211  15.621  1.00  0.00     0.210 HD
ENDBRANCH  30  31
ENDBRANCH  24  30
BRANCH  25  33
ATOM     33  O   UNL     1      -5.984  10.463  13.258  1.00  0.00    -0.388 OA
ATOM     34  H   UNL     1      -6.594  10.003  13.891  1.00  0.00     0.211 HD
ENDBRANCH  25  33
ENDBRANCH  11  20
BRANCH  10  35
ATOM     35  O   UNL     1      -6.517  16.001  14.223  1.00  0.00    -0.507 OA
ATOM     36  H   UNL     1      -5.591  16.272  13.914  1.00  0.00     0.293 HD
ENDBRANCH  10  35
TORSDOF 9
ENDMDL
MODEL 7
REMARK VINA RESULT:    -6.614      3.385      4.786
REMARK INTER + INTRA:         -10.078
REMARK INTER:                  -9.775
REMARK INTRA:                  -0.303
REMARK UNBOUND:                -1.144
REMARK SMILES O=c1c(-c2ccc(O)cc2)coc2c([C@@H]3O[C@H](CO)[C@@H](O)[C@@H](O)[C@H]3O)c(O)ccc12
REMARK SMILES IDX 3 1 11 2 12 3 13 4 30 5 2 6 1 7 29 8 28 9 26 10 14 11 4 12
REMARK SMILES IDX 5 13 6 14 7 15 10 16 9 17 8 18 15 20 24 21 16 22 22 23 17 24
REMARK SMILES IDX 20 25 25 26 23 28 18 30 19 31 21 33 27 35
REMARK H PARENT 8 19 25 27 23 29 19 32 21 34 27 36
REMARK Flexibility Score: inf
ROOT
ATOM      1  C   UNL     1      -4.981  16.087   8.316  1.00  0.00     0.065 A 
ATOM      2  C   UNL     1      -5.514  16.222   9.606  1.00  0.00     0.208 A 
ATOM      3  O   UNL     1      -6.826  16.223   9.805  1.00  0.00    -0.463 OA
ATOM      4  C   UNL     1      -7.712  16.098   8.820  1.00  0.00     0.147 A 
ATOM      5  C   UNL     1      -7.262  15.967   7.486  1.00  0.00     0.066 A 
ATOM      6  C   UNL     1      -5.877  15.965   7.239  1.00  0.00     0.200 A 
ATOM      7  O   UNL     1      -5.441  15.879   6.057  1.00  0.00    -0.288 OA
ATOM      8  C   UNL     1      -8.198  15.854   6.446  1.00  0.00     0.020 A 
ATOM      9  C   UNL     1      -9.562  15.880   6.725  1.00  0.00     0.047 A 
ATOM     10  C   UNL     1     -10.020  16.012   8.041  1.00  0.00     0.125 A 
ATOM     11  C   UNL     1      -9.098  16.104   9.109  1.00  0.00     0.069 A 
ENDROOT
BRANCH   1  12
ATOM     12  C   UNL     1      -3.509  16.080   8.120  1.00  0.00    -0.011 A 
ATOM     13  C   UNL     1      -2.668  15.491   9.081  1.00  0.00     0.013 A 
ATOM     14  C   UNL     1      -1.283  15.476   8.894  1.00  0.00     0.047 A 
ATOM     15  C   UNL     1      -0.720  16.043   7.747  1.00  0.00     0.115 A 
ATOM     16  C   UNL     1      -2.938  16.643   6.965  1.00  0.00     0.013 A 
ATOM     17  C   UNL     1      -1.551  16.625   6.781  1.00  0.00     0.047 A 
BRANCH  15  18
ATOM     18  O   UNL     1       0.662  16.021   7.575  1.00  0.00    -0.508 OA
ATOM     19  H   UNL     1       1.097  16.384   6.734  1.00  0.00     0.293 HD
ENDBRANCH  15  18
ENDBRANCH   1  12
BRANCH  11  20
ATOM     20  C   UNL     1      -9.585  16.270  10.542  1.00  0.00     0.188 C 
ATOM     21  C   UNL     1     -10.301  17.629  10.707  1.00  0.00     0.179 C 
ATOM     22  O   UNL     1     -10.458  15.198  10.865  1.00  0.00    -0.362 OA
ATOM     23  C   UNL     1     -10.827  17.775  12.149  1.00  0.00     0.177 C 
ATOM     24  C   UNL     1     -10.832  15.238  12.233  1.00  0.00     0.176 C 
ATOM     25  C   UNL     1     -11.645  16.526  12.526  1.00  0.00     0.177 C 
BRANCH  21  26
ATOM     26  O   UNL     1      -9.414  18.677  10.405  1.00  0.00    -0.387 OA
ATOM     27  H   UNL     1      -8.599  18.527  10.952  1.00  0.00     0.211 HD
ENDBRANCH  21  26
BRANCH  23  28
ATOM     28  O   UNL     1      -9.755  17.936  13.045  1.00  0.00    -0.387 OA
ATOM     29  H   UNL     1      -9.228  18.717  12.730  1.00  0.00     0.211 HD
ENDBRANCH  23  28
BRANCH  24  30
ATOM     30  C   UNL     1     -11.666  13.987  12.545  1.00  0.00     0.191 C 
BRANCH  30  31
ATOM     31  O   UNL     1     -12.426  13.616  11.427  1.00  0.00    -0.394 OA
ATOM     32  H   UNL     1     -11.824  13.669  10.640  1.00  0.00     0.210 HD
ENDBRANCH  30  31
ENDBRANCH  24  30
BRANCH  25  33
ATOM     33  O   UNL     1     -12.064  16.591  13.869  1.00  0.00    -0.388 OA
ATOM     34  H   UNL     1     -12.972  16.196  13.926  1.00  0.00     0.211 HD
ENDBRANCH  25  33
ENDBRANCH  11  20
BRANCH  10  35
ATOM     35  O   UNL     1     -11.393  16.056   8.287  1.00  0.00    -0.507 OA
ATOM     36  H   UNL     1     -12.008  16.666   7.764  1.00  0.00     0.293 HD
ENDBRANCH  10  35
TORSDOF 9
ENDMDL
MODEL 8
REMARK VINA RESULT:    -6.543      4.727      7.585
REMARK INTER + INTRA:          -9.981
REMARK INTER:                  -8.920
REMARK INTRA:                  -1.061
REMARK UNBOUND:                -1.144
REMARK SMILES O=c1c(-c2ccc(O)cc2)coc2c([C@@H]3O[C@H](CO)[C@@H](O)[C@@H](O)[C@H]3O)c(O)ccc12
REMARK SMILES IDX 3 1 11 2 12 3 13 4 30 5 2 6 1 7 29 8 28 9 26 10 14 11 4 12
REMARK SMILES IDX 5 13 6 14 7 15 10 16 9 17 8 18 15 20 24 21 16 22 22 23 17 24
REMARK SMILES IDX 20 25 25 26 23 28 18 30 19 31 21 33 27 35
REMARK H PARENT 8 19 25 27 23 29 19 32 21 34 27 36
REMARK Flexibility Score: inf
ROOT
ATOM      1  C   UNL     1      -8.539  13.952  12.213  1.00  0.00     0.065 A 
ATOM      2  C   UNL     1      -9.938  14.029  12.265  1.00  0.00     0.208 A 
ATOM      3  O   UNL     1     -10.612  14.785  11.408  1.00  0.00    -0.463 OA
ATOM      4  C   UNL     1     -10.025  15.510  10.458  1.00  0.00     0.147 A 
ATOM      5  C   UNL     1      -8.615  15.499  10.340  1.00  0.00     0.066 A 
ATOM      6  C   UNL     1      -7.870  14.709  11.235  1.00  0.00     0.200 A 
ATOM      7  O   UNL     1      -6.608  14.698  11.177  1.00  0.00    -0.288 OA
ATOM      8  C   UNL     1      -7.996  16.278   9.351  1.00  0.00     0.020 A 
ATOM      9  C   UNL     1      -8.763  17.064   8.494  1.00  0.00     0.047 A 
ATOM     10  C   UNL     1     -10.159  17.085   8.603  1.00  0.00     0.125 A 
ATOM     11  C   UNL     1     -10.809  16.291   9.576  1.00  0.00     0.069 A 
ENDROOT
BRANCH   1  12
ATOM     12  C   UNL     1      -7.809  13.091  13.177  1.00  0.00    -0.011 A 
ATOM     13  C   UNL     1      -7.128  11.944  12.730  1.00  0.00     0.013 A 
ATOM     14  C   UNL     1      -6.432  11.137  13.635  1.00  0.00     0.047 A 
ATOM     15  C   UNL     1      -6.402  11.466  14.993  1.00  0.00     0.115 A 
ATOM     16  C   UNL     1      -7.769  13.419  14.544  1.00  0.00     0.013 A 
ATOM     17  C   UNL     1      -7.071  12.610  15.446  1.00  0.00     0.047 A 
BRANCH  15  18
ATOM     18  O   UNL     1      -5.705  10.652  15.883  1.00  0.00    -0.508 OA
ATOM     19  H   UNL     1      -5.284   9.780  15.585  1.00  0.00     0.293 HD
ENDBRANCH  15  18
ENDBRANCH   1  12
BRANCH  11  20
ATOM     20  C   UNL     1     -12.324  16.324   9.717  1.00  0.00     0.188 C 
ATOM     21  C   UNL     1     -12.765  17.617  10.441  1.00  0.00     0.179 C 
ATOM     22  O   UNL     1     -12.914  16.243   8.429  1.00  0.00    -0.362 OA
ATOM     23  C   UNL     1     -14.302  17.664  10.545  1.00  0.00     0.177 C 
ATOM     24  C   UNL     1     -14.326  16.135   8.519  1.00  0.00     0.176 C 
ATOM     25  C   UNL     1     -14.919  17.420   9.156  1.00  0.00     0.177 C 
BRANCH  21  26
ATOM     26  O   UNL     1     -12.188  17.667  11.722  1.00  0.00    -0.387 OA
ATOM     27  H   UNL     1     -11.219  17.837  11.592  1.00  0.00     0.211 HD
ENDBRANCH  21  26
BRANCH  23  28
ATOM     28  O   UNL     1     -14.759  16.690  11.452  1.00  0.00    -0.387 OA
ATOM     29  H   UNL     1     -15.369  16.088  10.950  1.00  0.00     0.211 HD
ENDBRANCH  23  28
BRANCH  24  30
ATOM     30  C   UNL     1     -14.888  15.922   7.106  1.00  0.00     0.191 C 
BRANCH  30  31
ATOM     31  O   UNL     1     -15.380  17.129   6.589  1.00  0.00    -0.394 OA
ATOM     32  H   UNL     1     -16.357  17.009   6.460  1.00  0.00     0.210 HD
ENDBRANCH  30  31
ENDBRANCH  24  30
BRANCH  25  33
ATOM     33  O   UNL     1     -16.324  17.368   9.237  1.00  0.00    -0.388 OA
ATOM     34  H   UNL     1     -16.565  16.732   9.959  1.00  0.00     0.211 HD
ENDBRANCH  25  33
ENDBRANCH  11  20
BRANCH  10  35
ATOM     35  O   UNL     1     -10.900  17.899   7.745  1.00  0.00    -0.507 OA
ATOM     36  H   UNL     1     -11.863  18.143   7.941  1.00  0.00     0.293 HD
ENDBRANCH  10  35
TORSDOF 9
ENDMDL
MODEL 9
REMARK VINA RESULT:    -6.489      5.552      6.672
REMARK INTER + INTRA:          -9.909
REMARK INTER:                  -8.908
REMARK INTRA:                  -1.001
REMARK UNBOUND:                -1.144
REMARK SMILES O=c1c(-c2ccc(O)cc2)coc2c([C@@H]3O[C@H](CO)[C@@H](O)[C@@H](O)[C@H]3O)c(O)ccc12
REMARK SMILES IDX 3 1 11 2 12 3 13 4 30 5 2 6 1 7 29 8 28 9 26 10 14 11 4 12
REMARK SMILES IDX 5 13 6 14 7 15 10 16 9 17 8 18 15 20 24 21 16 22 22 23 17 24
REMARK SMILES IDX 20 25 25 26 23 28 18 30 19 31 21 33 27 35
REMARK H PARENT 8 19 25 27 23 29 19 32 21 34 27 36
REMARK Flexibility Score: inf
ROOT
ATOM      1  C   UNL     1      -7.861  16.036   7.967  1.00  0.00     0.065 A 
ATOM      2  C   UNL     1      -8.923  16.213   7.068  1.00  0.00     0.208 A 
ATOM      3  O   UNL     1     -10.180  16.228   7.493  1.00  0.00    -0.463 OA
ATOM      4  C   UNL     1     -10.519  16.081   8.772  1.00  0.00     0.147 A 
ATOM      5  C   UNL     1      -9.510  15.889   9.746  1.00  0.00     0.066 A 
ATOM      6  C   UNL     1      -8.167  15.864   9.329  1.00  0.00     0.200 A 
ATOM      7  O   UNL     1      -7.243  15.665  10.167  1.00  0.00    -0.288 OA
ATOM      8  C   UNL     1      -9.870  15.715  11.091  1.00  0.00     0.020 A 
ATOM      9  C   UNL     1     -11.211  15.725  11.466  1.00  0.00     0.047 A 
ATOM     10  C   UNL     1     -12.218  15.913  10.511  1.00  0.00     0.125 A 
ATOM     11  C   UNL     1     -11.881  16.113   9.152  1.00  0.00     0.069 A 
ENDROOT
BRANCH   1  12
ATOM     12  C   UNL     1      -6.462  16.031   7.468  1.00  0.00    -0.011 A 
ATOM     13  C   UNL     1      -5.557  17.022   7.888  1.00  0.00     0.013 A 
ATOM     14  C   UNL     1      -4.237  17.015   7.427  1.00  0.00     0.047 A 
ATOM     15  C   UNL     1      -3.803  16.018   6.548  1.00  0.00     0.115 A 
ATOM     16  C   UNL     1      -6.018  15.027   6.589  1.00  0.00     0.013 A 
ATOM     17  C   UNL     1      -4.697  15.022   6.131  1.00  0.00     0.047 A 
BRANCH  15  18
ATOM     18  O   UNL     1      -2.486  16.023   6.096  1.00  0.00    -0.508 OA
ATOM     19  H   UNL     1      -2.007  16.886   5.867  1.00  0.00     0.293 HD
ENDBRANCH  15  18
ENDBRANCH   1  12
BRANCH  11  20
ATOM     20  C   UNL     1     -12.969  16.296   8.103  1.00  0.00     0.188 C 
ATOM     21  C   UNL     1     -13.525  14.922   7.666  1.00  0.00     0.179 C 
ATOM     22  O   UNL     1     -14.002  17.109   8.639  1.00  0.00    -0.362 OA
ATOM     23  C   UNL     1     -14.653  15.114   6.633  1.00  0.00     0.177 C 
ATOM     24  C   UNL     1     -14.974  17.417   7.653  1.00  0.00     0.176 C 
ATOM     25  C   UNL     1     -15.683  16.121   7.180  1.00  0.00     0.177 C 
BRANCH  21  26
ATOM     26  O   UNL     1     -12.492  14.142   7.118  1.00  0.00    -0.387 OA
ATOM     27  H   UNL     1     -12.503  13.274   7.600  1.00  0.00     0.211 HD
ENDBRANCH  21  26
BRANCH  23  28
ATOM     28  O   UNL     1     -14.125  15.580   5.415  1.00  0.00    -0.387 OA
ATOM     29  H   UNL     1     -13.955  14.783   4.848  1.00  0.00     0.211 HD
ENDBRANCH  23  28
BRANCH  24  30
ATOM     30  C   UNL     1     -15.988  18.398   8.259  1.00  0.00     0.191 C 
BRANCH  30  31
ATOM     31  O   UNL     1     -16.615  19.140   7.248  1.00  0.00    -0.394 OA
ATOM     32  H   UNL     1     -16.885  20.005   7.653  1.00  0.00     0.210 HD
ENDBRANCH  30  31
ENDBRANCH  24  30
BRANCH  25  33
ATOM     33  O   UNL     1     -16.679  16.384   6.220  1.00  0.00    -0.388 OA
ATOM     34  H   UNL     1     -16.913  15.527   5.778  1.00  0.00     0.211 HD
ENDBRANCH  25  33
ENDBRANCH  11  20
BRANCH  10  35
ATOM     35  O   UNL     1     -13.554  15.897  10.913  1.00  0.00    -0.507 OA
ATOM     36  H   UNL     1     -13.897  15.231  11.595  1.00  0.00     0.293 HD
ENDBRANCH  10  35
TORSDOF 9
ENDMDL
