MODEL 1
REMARK VINA RESULT:    -3.991      0.000      0.000
REMARK INTER + INTRA:          -5.916
REMARK INTER:                  -5.507
REMARK INTRA:                  -0.409
REMARK UNBOUND:                -0.409
REMARK SMILES CCCCCCCCO
REMARK SMILES IDX 5 1 4 2 3 3 2 4 1 5 6 6 7 7 8 8 9 9
REMARK H PARENT 9 10
REMARK Flexibility Score: inf
ROOT
ATOM      1  C   UNL     1     202.499 201.024 229.888  1.00  0.00     0.000 C 
ENDROOT
BRANCH   1   2
ATOM      2  C   UNL     1     202.613 202.551 229.796  1.00  0.00    -0.000 C 
BRANCH   2   3
ATOM      3  C   UNL     1     203.955 202.967 229.182  1.00  0.00    -0.000 C 
BRANCH   3   4
ATOM      4  C   UNL     1     205.031 203.119 230.263  1.00  0.00    -0.003 C 
ATOM      5  C   UNL     1     206.076 202.011 230.160  1.00  0.00     0.004 C 
ENDBRANCH   3   4
ENDBRANCH   2   3
ENDBRANCH   1   2
BRANCH   1   6
ATOM      6  C   UNL     1     202.208 200.581 231.330  1.00  0.00     0.002 C 
BRANCH   6   7
ATOM      7  C   UNL     1     203.380 199.812 231.961  1.00  0.00     0.028 C 
BRANCH   7   8
ATOM      8  C   UNL     1     202.931 198.848 233.064  1.00  0.00     0.156 C 
BRANCH   8   9
ATOM      9  O   UNL     1     202.229 197.770 232.506  1.00  0.00    -0.396 OA
ATOM     10  H   UNL     1     201.532 197.512 233.164  1.00  0.00     0.210 HD
ENDBRANCH   8   9
ENDBRANCH   7   8
ENDBRANCH   6   7
ENDBRANCH   1   6
TORSDOF 7
ENDMDL
MODEL 2
REMARK VINA RESULT:    -3.908      7.963      9.293
REMARK INTER + INTRA:          -5.803
REMARK INTER:                  -5.573
REMARK INTRA:                  -0.230
REMARK UNBOUND:                -0.409
REMARK SMILES CCCCCCCCO
REMARK SMILES IDX 5 1 4 2 3 3 2 4 1 5 6 6 7 7 8 8 9 9
REMARK H PARENT 9 10
REMARK Flexibility Score: inf
ROOT
ATOM      1  C   UNL     1     203.861 202.504 239.789  1.00  0.00     0.000 C 
ENDROOT
BRANCH   1   2
ATOM      2  C   UNL     1     202.943 203.259 238.820  1.00  0.00    -0.000 C 
BRANCH   2   3
ATOM      3  C   UNL     1     202.708 202.448 237.540  1.00  0.00    -0.000 C 
BRANCH   3   4
ATOM      4  C   UNL     1     203.600 201.203 237.506  1.00  0.00    -0.003 C 
ATOM      5  C   UNL     1     204.015 200.861 236.077  1.00  0.00     0.004 C 
ENDBRANCH   3   4
ENDBRANCH   2   3
ENDBRANCH   1   2
BRANCH   1   6
ATOM      6  C   UNL     1     203.698 203.031 241.223  1.00  0.00     0.002 C 
BRANCH   6   7
ATOM      7  C   UNL     1     203.945 201.946 242.284  1.00  0.00     0.028 C 
BRANCH   7   8
ATOM      8  C   UNL     1     202.649 201.434 242.921  1.00  0.00     0.156 C 
BRANCH   8   9
ATOM      9  O   UNL     1     202.204 200.285 242.252  1.00  0.00    -0.396 OA
ATOM     10  H   UNL     1     202.999 199.883 241.815  1.00  0.00     0.210 HD
ENDBRANCH   8   9
ENDBRANCH   7   8
ENDBRANCH   6   7
ENDBRANCH   1   6
TORSDOF 7
ENDMDL
MODEL 3
REMARK VINA RESULT:    -3.904      4.405      5.875
REMARK INTER + INTRA:          -5.797
REMARK INTER:                  -5.375
REMARK INTRA:                  -0.422
REMARK UNBOUND:                -0.409
REMARK SMILES CCCCCCCCO
REMARK SMILES IDX 5 1 4 2 3 3 2 4 1 5 6 6 7 7 8 8 9 9
REMARK H PARENT 9 10
REMARK Flexibility Score: inf
ROOT
ATOM      1  C   UNL     1     204.969 204.544 230.205  1.00  0.00     0.000 C 
ENDROOT
BRANCH   1   2
ATOM      2  C   UNL     1     204.469 203.123 229.911  1.00  0.00    -0.000 C 
BRANCH   2   3
ATOM      3  C   UNL     1     203.120 203.153 229.183  1.00  0.00    -0.000 C 
BRANCH   3   4
ATOM      4  C   UNL     1     201.958 203.007 230.171  1.00  0.00    -0.003 C 
ATOM      5  C   UNL     1     201.050 204.234 230.139  1.00  0.00     0.004 C 
ENDBRANCH   3   4
ENDBRANCH   2   3
ENDBRANCH   1   2
BRANCH   1   6
ATOM      6  C   UNL     1     204.846 204.871 231.701  1.00  0.00     0.002 C 
BRANCH   6   7
ATOM      7  C   UNL     1     203.955 206.094 231.968  1.00  0.00     0.028 C 
BRANCH   7   8
ATOM      8  C   UNL     1     204.426 206.920 233.170  1.00  0.00     0.156 C 
BRANCH   8   9
ATOM      9  O   UNL     1     204.926 208.156 232.740  1.00  0.00    -0.396 OA
ATOM     10  H   UNL     1     205.574 208.458 233.428  1.00  0.00     0.210 HD
ENDBRANCH   8   9
ENDBRANCH   7   8
ENDBRANCH   6   7
ENDBRANCH   1   6
TORSDOF 7
ENDMDL
MODEL 4
REMARK VINA RESULT:    -3.899      3.387      4.286
REMARK INTER + INTRA:          -5.790
REMARK INTER:                  -5.407
REMARK INTRA:                  -0.383
REMARK UNBOUND:                -0.409
REMARK SMILES CCCCCCCCO
REMARK SMILES IDX 5 1 4 2 3 3 2 4 1 5 6 6 7 7 8 8 9 9
REMARK H PARENT 9 10
REMARK Flexibility Score: inf
ROOT
ATOM      1  C   UNL     1     201.511 203.813 229.875  1.00  0.00     0.000 C 
ENDROOT
BRANCH   1   2
ATOM      2  C   UNL     1     203.038 203.763 230.017  1.00  0.00    -0.000 C 
BRANCH   2   3
ATOM      3  C   UNL     1     203.579 202.372 229.664  1.00  0.00    -0.000 C 
BRANCH   3   4
ATOM      4  C   UNL     1     202.497 201.301 229.837  1.00  0.00    -0.003 C 
ATOM      5  C   UNL     1     202.841 200.350 230.981  1.00  0.00     0.004 C 
ENDBRANCH   3   4
ENDBRANCH   2   3
ENDBRANCH   1   2
BRANCH   1   6
ATOM      6  C   UNL     1     200.858 204.352 231.157  1.00  0.00     0.002 C 
BRANCH   6   7
ATOM      7  C   UNL     1     200.356 203.232 232.082  1.00  0.00     0.028 C 
BRANCH   7   8
ATOM      8  C   UNL     1     199.449 203.751 233.203  1.00  0.00     0.156 C 
BRANCH   8   9
ATOM      9  O   UNL     1     198.228 204.190 232.671  1.00  0.00    -0.396 OA
ATOM     10  H   UNL     1     197.997 203.567 231.935  1.00  0.00     0.210 HD
ENDBRANCH   8   9
ENDBRANCH   7   8
ENDBRANCH   6   7
ENDBRANCH   1   6
TORSDOF 7
ENDMDL
MODEL 5
REMARK VINA RESULT:    -3.863      1.742      2.689
REMARK INTER + INTRA:          -5.740
REMARK INTER:                  -5.191
REMARK INTRA:                  -0.549
REMARK UNBOUND:                -0.409
REMARK SMILES CCCCCCCCO
REMARK SMILES IDX 5 1 4 2 3 3 2 4 1 5 6 6 7 7 8 8 9 9
REMARK H PARENT 9 10
REMARK Flexibility Score: inf
ROOT
ATOM      1  C   UNL     1     203.671 203.789 229.847  1.00  0.00     0.000 C 
ENDROOT
BRANCH   1   2
ATOM      2  C   UNL     1     205.103 203.608 230.368  1.00  0.00    -0.000 C 
BRANCH   2   3
ATOM      3  C   UNL     1     205.701 202.281 229.886  1.00  0.00    -0.000 C 
BRANCH   3   4
ATOM      4  C   UNL     1     206.320 201.502 231.051  1.00  0.00    -0.003 C 
ATOM      5  C   UNL     1     205.526 201.711 232.338  1.00  0.00     0.004 C 
ENDBRANCH   3   4
ENDBRANCH   2   3
ENDBRANCH   1   2
BRANCH   1   6
ATOM      6  C   UNL     1     203.054 202.437 229.456  1.00  0.00     0.002 C 
BRANCH   6   7
ATOM      7  C   UNL     1     202.156 201.855 230.560  1.00  0.00     0.028 C 
BRANCH   7   8
ATOM      8  C   UNL     1     202.020 200.331 230.472  1.00  0.00     0.156 C 
BRANCH   8   9
ATOM      9  O   UNL     1     203.289 199.735 230.431  1.00  0.00    -0.396 OA
ATOM     10  H   UNL     1     203.196 198.902 229.901  1.00  0.00     0.210 HD
ENDBRANCH   8   9
ENDBRANCH   7   8
ENDBRANCH   6   7
ENDBRANCH   1   6
TORSDOF 7
ENDMDL
MODEL 6
REMARK VINA RESULT:    -3.853      1.368      2.498
REMARK INTER + INTRA:          -5.726
REMARK INTER:                  -5.394
REMARK INTRA:                  -0.333
REMARK UNBOUND:                -0.409
REMARK SMILES CCCCCCCCO
REMARK SMILES IDX 5 1 4 2 3 3 2 4 1 5 6 6 7 7 8 8 9 9
REMARK H PARENT 9 10
REMARK Flexibility Score: inf
ROOT
ATOM      1  C   UNL     1     202.510 201.193 230.021  1.00  0.00     0.000 C 
ENDROOT
BRANCH   1   2
ATOM      2  C   UNL     1     203.291 202.427 229.553  1.00  0.00    -0.000 C 
BRANCH   2   3
ATOM      3  C   UNL     1     202.816 203.690 230.282  1.00  0.00    -0.000 C 
BRANCH   3   4
ATOM      4  C   UNL     1     201.309 203.897 230.097  1.00  0.00    -0.003 C 
ATOM      5  C   UNL     1     200.603 204.043 231.443  1.00  0.00     0.004 C 
ENDBRANCH   3   4
ENDBRANCH   2   3
ENDBRANCH   1   2
BRANCH   1   6
ATOM      6  C   UNL     1     203.335 200.367 231.019  1.00  0.00     0.002 C 
BRANCH   6   7
ATOM      7  C   UNL     1     202.654 200.242 232.391  1.00  0.00     0.028 C 
BRANCH   7   8
ATOM      8  C   UNL     1     202.926 198.895 233.068  1.00  0.00     0.156 C 
BRANCH   8   9
ATOM      9  O   UNL     1     202.212 197.877 232.421  1.00  0.00    -0.396 OA
ATOM     10  H   UNL     1     201.318 198.248 232.206  1.00  0.00     0.210 HD
ENDBRANCH   8   9
ENDBRANCH   7   8
ENDBRANCH   6   7
ENDBRANCH   1   6
TORSDOF 7
ENDMDL
MODEL 7
REMARK VINA RESULT:    -3.846      3.566      4.092
REMARK INTER + INTRA:          -5.717
REMARK INTER:                  -5.332
REMARK INTRA:                  -0.385
REMARK UNBOUND:                -0.409
REMARK SMILES CCCCCCCCO
REMARK SMILES IDX 5 1 4 2 3 3 2 4 1 5 6 6 7 7 8 8 9 9
REMARK H PARENT 9 10
REMARK Flexibility Score: inf
ROOT
ATOM      1  C   UNL     1     201.306 204.074 229.864  1.00  0.00     0.000 C 
ENDROOT
BRANCH   1   2
ATOM      2  C   UNL     1     202.257 202.889 230.078  1.00  0.00    -0.000 C 
BRANCH   2   3
ATOM      3  C   UNL     1     203.669 203.219 229.580  1.00  0.00    -0.000 C 
BRANCH   3   4
ATOM      4  C   UNL     1     204.452 204.011 230.633  1.00  0.00    -0.003 C 
ATOM      5  C   UNL     1     204.777 205.417 230.136  1.00  0.00     0.004 C 
ENDBRANCH   3   4
ENDBRANCH   2   3
ENDBRANCH   1   2
BRANCH   1   6
ATOM      6  C   UNL     1     200.608 204.462 231.176  1.00  0.00     0.002 C 
BRANCH   6   7
ATOM      7  C   UNL     1     200.674 203.348 232.233  1.00  0.00     0.028 C 
BRANCH   7   8
ATOM      8  C   UNL     1     199.416 203.285 233.107  1.00  0.00     0.156 C 
BRANCH   8   9
ATOM      9  O   UNL     1     198.441 204.163 232.614  1.00  0.00    -0.396 OA
ATOM     10  H   UNL     1     198.385 204.917 233.256  1.00  0.00     0.210 HD
ENDBRANCH   8   9
ENDBRANCH   7   8
ENDBRANCH   6   7
ENDBRANCH   1   6
TORSDOF 7
ENDMDL
MODEL 8
REMARK VINA RESULT:    -3.843      8.434      9.455
REMARK INTER + INTRA:          -5.713
REMARK INTER:                  -5.520
REMARK INTRA:                  -0.193
REMARK UNBOUND:                -0.409
REMARK SMILES CCCCCCCCO
REMARK SMILES IDX 5 1 4 2 3 3 2 4 1 5 6 6 7 7 8 8 9 9
REMARK H PARENT 9 10
REMARK Flexibility Score: inf
ROOT
ATOM      1  C   UNL     1     203.164 202.553 239.921  1.00  0.00     0.000 C 
ENDROOT
BRANCH   1   2
ATOM      2  C   UNL     1     204.364 202.585 238.966  1.00  0.00    -0.000 C 
BRANCH   2   3
ATOM      3  C   UNL     1     203.943 203.053 237.568  1.00  0.00    -0.000 C 
BRANCH   3   4
ATOM      4  C   UNL     1     203.560 204.537 237.577  1.00  0.00    -0.003 C 
ATOM      5  C   UNL     1     202.960 204.960 236.239  1.00  0.00     0.004 C 
ENDBRANCH   3   4
ENDBRANCH   2   3
ENDBRANCH   1   2
BRANCH   1   6
ATOM      6  C   UNL     1     203.564 203.040 241.322  1.00  0.00     0.002 C 
BRANCH   6   7
ATOM      7  C   UNL     1     202.585 202.576 242.412  1.00  0.00     0.028 C 
BRANCH   7   8
ATOM      8  C   UNL     1     202.910 201.176 242.944  1.00  0.00     0.156 C 
BRANCH   8   9
ATOM      9  O   UNL     1     202.093 200.222 242.323  1.00  0.00    -0.396 OA
ATOM     10  H   UNL     1     201.602 200.693 241.601  1.00  0.00     0.210 HD
ENDBRANCH   8   9
ENDBRANCH   7   8
ENDBRANCH   6   7
ENDBRANCH   1   6
TORSDOF 7
ENDMDL
MODEL 9
REMARK VINA RESULT:    -3.842      4.378      5.465
REMARK INTER + INTRA:          -5.711
REMARK INTER:                  -5.352
REMARK INTRA:                  -0.359
REMARK UNBOUND:                -0.409
REMARK SMILES CCCCCCCCO
REMARK SMILES IDX 5 1 4 2 3 3 2 4 1 5 6 6 7 7 8 8 9 9
REMARK H PARENT 9 10
REMARK Flexibility Score: inf
ROOT
ATOM      1  C   UNL     1     202.806 204.251 231.332  1.00  0.00     0.000 C 
ENDROOT
BRANCH   1   2
ATOM      2  C   UNL     1     202.536 203.754 229.906  1.00  0.00    -0.000 C 
BRANCH   2   3
ATOM      3  C   UNL     1     203.792 203.118 229.297  1.00  0.00    -0.000 C 
BRANCH   3   4
ATOM      4  C   UNL     1     204.423 202.112 230.265  1.00  0.00    -0.003 C 
ATOM      5  C   UNL     1     205.946 202.216 230.253  1.00  0.00     0.004 C 
ENDBRANCH   3   4
ENDBRANCH   2   3
ENDBRANCH   1   2
BRANCH   1   6
ATOM      6  C   UNL     1     203.208 205.733 231.329  1.00  0.00     0.002 C 
BRANCH   6   7
ATOM      7  C   UNL     1     204.543 205.986 232.049  1.00  0.00     0.028 C 
BRANCH   7   8
ATOM      8  C   UNL     1     204.423 207.017 233.176  1.00  0.00     0.156 C 
BRANCH   8   9
ATOM      9  O   UNL     1     204.962 208.244 232.767  1.00  0.00    -0.396 OA
ATOM     10  H   UNL     1     205.740 208.426 233.355  1.00  0.00     0.210 HD
ENDBRANCH   8   9
ENDBRANCH   7   8
ENDBRANCH   6   7
ENDBRANCH   1   6
TORSDOF 7
ENDMDL
