MODEL 1
REMARK VINA RESULT:    -5.474      0.000      0.000
REMARK INTER + INTRA:         -12.717
REMARK INTER:                  -8.995
REMARK INTRA:                  -3.722
REMARK UNBOUND:                -3.722
REMARK SMILES COc1ccc([C@@H]2CC(=O)c3c(O)cc(O[C@H]4O[C@@H](CO[C@H]5O[C@@H](C)[C@@H](O)[C@H](O)[C@@H]5O)[C@@H](O)[C@@H](O)[C@@H]4O)cc3O2)cc1O
REMARK SMILES IDX 19 1 32 2 34 3 36 4 17 5 18 6 20 7 21 8 22 9 25 10 24 11
REMARK SMILES IDX 26 12 23 13 28 14 30 15 27 16 29 18 31 20 33 22 35 24 16 26
REMARK SMILES IDX 15 27 14 28 38 29 12 30 39 31 11 32 40 33 9 34 7 35 10 36
REMARK SMILES IDX 8 37 13 38 6 40 41 41 5 42 42 43 4 44 3 45 43 46 2 48 1 49
REMARK SMILES IDX 37 50
REMARK H PARENT 27 17 29 19 31 21 33 23 35 25 13 39 43 47 37 51
REMARK Flexibility Score: inf
ROOT
ATOM      1  C   UNL     1      31.564  -8.437 -27.296  1.00  0.00     0.180 C 
ATOM      2  C   UNL     1      32.885  -8.259 -26.565  1.00  0.00     0.177 C 
ATOM      3  C   UNL     1      32.994  -6.806 -26.105  1.00  0.00     0.180 C 
ATOM      4  C   UNL     1      31.770  -6.428 -25.227  1.00  0.00     0.214 C 
ATOM      5  C   UNL     1      30.379  -6.879 -25.751  1.00  0.00     0.339 C 
ATOM      6  O   UNL     1      30.421  -8.164 -26.474  1.00  0.00    -0.332 OA
ENDROOT
BRANCH   1   7
ATOM      7  C   UNL     1      31.414  -7.767 -28.659  1.00  0.00     0.198 C 
BRANCH   7   8
ATOM      8  O   UNL     1      32.600  -7.851 -29.471  1.00  0.00    -0.347 OA
BRANCH   8   9
ATOM      9  C   UNL     1      32.374  -8.332 -30.784  1.00  0.00     0.281 C 
ATOM     10  C   UNL     1      28.927  -7.361 -31.544  1.00  0.00     0.041 C 
ATOM     11  C   UNL     1      30.414  -7.508 -31.984  1.00  0.00     0.150 C 
ATOM     12  C   UNL     1      31.129  -6.095 -32.081  1.00  0.00     0.174 C 
ATOM     13  O   UNL     1      30.984  -8.480 -31.121  1.00  0.00    -0.344 OA
ATOM     14  C   UNL     1      32.643  -6.074 -31.780  1.00  0.00     0.179 C 
ATOM     15  C   UNL     1      33.196  -7.492 -31.776  1.00  0.00     0.202 C 
BRANCH  12  16
ATOM     16  O   UNL     1      30.497  -5.143 -31.269  1.00  0.00    -0.388 OA
ATOM     17  H   UNL     1      30.279  -4.367 -31.839  1.00  0.00     0.211 HD
ENDBRANCH  12  16
BRANCH  14  18
ATOM     18  O   UNL     1      33.310  -5.283 -32.747  1.00  0.00    -0.387 OA
ATOM     19  H   UNL     1      32.682  -4.562 -32.932  1.00  0.00     0.211 HD
ENDBRANCH  14  18
BRANCH  15  20
ATOM     20  O   UNL     1      33.202  -8.083 -33.035  1.00  0.00    -0.385 OA
ATOM     21  H   UNL     1      33.276  -9.059 -32.899  1.00  0.00     0.211 HD
ENDBRANCH  15  20
ENDBRANCH   8   9
ENDBRANCH   7   8
ENDBRANCH   1   7
BRANCH   2  22
ATOM     22  O   UNL     1      34.037  -8.629 -27.332  1.00  0.00    -0.387 OA
ATOM     23  H   UNL     1      34.834  -8.516 -26.723  1.00  0.00     0.211 HD
ENDBRANCH   2  22
BRANCH   3  24
ATOM     24  O   UNL     1      33.117  -5.973 -27.247  1.00  0.00    -0.387 OA
ATOM     25  H   UNL     1      34.053  -6.075 -27.573  1.00  0.00     0.211 HD
ENDBRANCH   3  24
BRANCH   5  26
ATOM     26  O   UNL     1      29.646  -5.896 -26.551  1.00  0.00    -0.462 OA
BRANCH  26  27
ATOM     27  C   UNL     1      29.935  -4.495 -26.685  1.00  0.00     0.130 A 
ATOM     28  C   UNL     1      30.612  -3.934 -27.775  1.00  0.00     0.093 A 
ATOM     29  C   UNL     1      29.039  -3.654 -26.023  1.00  0.00     0.094 A 
ATOM     30  C   UNL     1      30.065  -2.716 -28.403  1.00  0.00     0.133 A 
ATOM     31  C   UNL     1      28.329  -2.737 -26.782  1.00  0.00     0.138 A 
ATOM     32  C   UNL     1      28.913  -1.999 -27.883  1.00  0.00     0.102 A 
ATOM     33  O   UNL     1      26.956  -2.959 -26.822  1.00  0.00    -0.484 OA
ATOM     34  C   UNL     1      27.845  -1.615 -28.880  1.00  0.00     0.174 C 
ATOM     35  C   UNL     1      26.261  -3.271 -28.100  1.00  0.00     0.211 C 
ATOM     36  O   UNL     1      27.024  -0.619 -28.796  1.00  0.00    -0.294 OA
ATOM     37  C   UNL     1      27.221  -2.875 -29.293  1.00  0.00     0.131 C 
BRANCH  30  38
ATOM     38  O   UNL     1      30.329  -2.612 -29.780  1.00  0.00    -0.507 OA
ATOM     39  H   UNL     1      29.660  -2.886 -30.495  1.00  0.00     0.293 HD
ENDBRANCH  30  38
BRANCH  35  40
ATOM     40  C   UNL     1      25.800  -4.694 -28.187  1.00  0.00    -0.003 A 
ATOM     41  C   UNL     1      26.723  -5.694 -28.682  1.00  0.00     0.057 A 
ATOM     42  C   UNL     1      25.096  -5.093 -27.041  1.00  0.00     0.011 A 
ATOM     43  C   UNL     1      26.952  -6.892 -27.923  1.00  0.00     0.158 A 
ATOM     44  C   UNL     1      25.826  -5.866 -26.100  1.00  0.00     0.051 A 
ATOM     45  C   UNL     1      26.420  -6.970 -26.578  1.00  0.00     0.160 A 
BRANCH  43  46
ATOM     46  O   UNL     1      27.094  -8.119 -28.569  1.00  0.00    -0.504 OA
ATOM     47  H   UNL     1      27.034  -8.010 -29.602  1.00  0.00     0.293 HD
ENDBRANCH  43  46
BRANCH  45  48
ATOM     48  O   UNL     1      25.863  -8.151 -25.918  1.00  0.00    -0.493 OA
ATOM     49  C   UNL     1      25.974  -8.192 -24.468  1.00  0.00     0.278 C 
ENDBRANCH  45  48
ENDBRANCH  35  40
ENDBRANCH  26  27
ENDBRANCH   5  26
BRANCH   4  50
ATOM     50  O   UNL     1      31.943  -6.929 -23.917  1.00  0.00    -0.384 OA
ATOM     51  H   UNL     1      32.369  -6.184 -23.400  1.00  0.00     0.211 HD
ENDBRANCH   4  50
TORSDOF 15
ENDMDL
MODEL 2
REMARK VINA RESULT:    -5.387      2.297      5.205
REMARK INTER + INTRA:         -12.573
REMARK INTER:                  -9.625
REMARK INTRA:                  -2.949
REMARK UNBOUND:                -3.722
REMARK SMILES COc1ccc([C@@H]2CC(=O)c3c(O)cc(O[C@H]4O[C@@H](CO[C@H]5O[C@@H](C)[C@@H](O)[C@H](O)[C@@H]5O)[C@@H](O)[C@@H](O)[C@@H]4O)cc3O2)cc1O
REMARK SMILES IDX 19 1 32 2 34 3 36 4 17 5 18 6 20 7 21 8 22 9 25 10 24 11
REMARK SMILES IDX 26 12 23 13 28 14 30 15 27 16 29 18 31 20 33 22 35 24 16 26
REMARK SMILES IDX 15 27 14 28 38 29 12 30 39 31 11 32 40 33 9 34 7 35 10 36
REMARK SMILES IDX 8 37 13 38 6 40 41 41 5 42 42 43 4 44 3 45 43 46 2 48 1 49
REMARK SMILES IDX 37 50
REMARK H PARENT 27 17 29 19 31 21 33 23 35 25 13 39 43 47 37 51
REMARK Flexibility Score: inf
ROOT
ATOM      1  C   UNL     1      31.856  -9.158 -26.471  1.00  0.00     0.180 C 
ATOM      2  C   UNL     1      33.175  -8.787 -25.811  1.00  0.00     0.177 C 
ATOM      3  C   UNL     1      32.884  -8.232 -24.418  1.00  0.00     0.180 C 
ATOM      4  C   UNL     1      32.071  -9.262 -23.589  1.00  0.00     0.214 C 
ATOM      5  C   UNL     1      30.882  -9.950 -24.315  1.00  0.00     0.339 C 
ATOM      6  O   UNL     1      31.129 -10.165 -25.754  1.00  0.00    -0.332 OA
ENDROOT
BRANCH   1   7
ATOM      7  C   UNL     1      30.927  -8.019 -26.882  1.00  0.00     0.198 C 
BRANCH   7   8
ATOM      8  O   UNL     1      30.392  -8.169 -28.209  1.00  0.00    -0.347 OA
BRANCH   8   9
ATOM      9  C   UNL     1      30.358  -6.970 -28.964  1.00  0.00     0.281 C 
ATOM     10  C   UNL     1      32.313  -7.714 -31.968  1.00  0.00     0.041 C 
ATOM     11  C   UNL     1      31.064  -7.067 -31.299  1.00  0.00     0.150 C 
ATOM     12  C   UNL     1      29.748  -7.895 -31.611  1.00  0.00     0.174 C 
ATOM     13  O   UNL     1      31.411  -6.863 -29.938  1.00  0.00    -0.344 OA
ATOM     14  C   UNL     1      28.650  -7.866 -30.526  1.00  0.00     0.179 C 
ATOM     15  C   UNL     1      28.938  -6.764 -29.518  1.00  0.00     0.202 C 
BRANCH  12  16
ATOM     16  O   UNL     1      30.043  -9.231 -31.915  1.00  0.00    -0.388 OA
ATOM     17  H   UNL     1      30.934  -9.430 -31.539  1.00  0.00     0.211 HD
ENDBRANCH  12  16
BRANCH  14  18
ATOM     18  O   UNL     1      27.386  -7.667 -31.132  1.00  0.00    -0.387 OA
ATOM     19  H   UNL     1      27.211  -8.510 -31.588  1.00  0.00     0.211 HD
ENDBRANCH  14  18
BRANCH  15  20
ATOM     20  O   UNL     1      28.798  -5.485 -30.047  1.00  0.00    -0.385 OA
ATOM     21  H   UNL     1      29.055  -5.533 -31.000  1.00  0.00     0.211 HD
ENDBRANCH  15  20
ENDBRANCH   8   9
ENDBRANCH   7   8
ENDBRANCH   1   7
BRANCH   2  22
ATOM     22  O   UNL     1      33.970  -7.863 -26.563  1.00  0.00    -0.387 OA
ATOM     23  H   UNL     1      34.360  -8.383 -27.335  1.00  0.00     0.211 HD
ENDBRANCH   2  22
BRANCH   3  24
ATOM     24  O   UNL     1      32.205  -6.992 -24.553  1.00  0.00    -0.387 OA
ATOM     25  H   UNL     1      31.239  -7.210 -24.666  1.00  0.00     0.211 HD
ENDBRANCH   3  24
BRANCH   5  26
ATOM     26  O   UNL     1      29.572  -9.321 -24.137  1.00  0.00    -0.462 OA
BRANCH  26  27
ATOM     27  C   UNL     1      28.709  -9.420 -22.993  1.00  0.00     0.130 A 
ATOM     28  C   UNL     1      28.732  -8.529 -21.913  1.00  0.00     0.093 A 
ATOM     29  C   UNL     1      27.487 -10.047 -23.243  1.00  0.00     0.094 A 
ATOM     30  C   UNL     1      27.455  -7.993 -21.403  1.00  0.00     0.133 A 
ATOM     31  C   UNL     1      26.328  -9.319 -23.021  1.00  0.00     0.138 A 
ATOM     32  C   UNL     1      26.156  -8.426 -21.893  1.00  0.00     0.102 A 
ATOM     33  O   UNL     1      25.589  -9.045 -24.168  1.00  0.00    -0.484 OA
ATOM     34  C   UNL     1      25.163  -7.340 -22.232  1.00  0.00     0.174 C 
ATOM     35  C   UNL     1      25.364  -7.647 -24.624  1.00  0.00     0.211 C 
ATOM     36  O   UNL     1      23.872  -7.433 -22.211  1.00  0.00    -0.294 OA
ATOM     37  C   UNL     1      25.698  -6.675 -23.422  1.00  0.00     0.131 C 
BRANCH  30  38
ATOM     38  O   UNL     1      27.549  -6.699 -20.866  1.00  0.00    -0.507 OA
ATOM     39  H   UNL     1      28.119  -5.965 -21.280  1.00  0.00     0.293 HD
ENDBRANCH  30  38
BRANCH  35  40
ATOM     40  C   UNL     1      26.130  -7.303 -25.866  1.00  0.00    -0.003 A 
ATOM     41  C   UNL     1      25.514  -6.430 -26.843  1.00  0.00     0.057 A 
ATOM     42  C   UNL     1      27.469  -6.987 -25.591  1.00  0.00     0.011 A 
ATOM     43  C   UNL     1      26.225  -5.277 -27.319  1.00  0.00     0.158 A 
ATOM     44  C   UNL     1      27.787  -5.603 -25.560  1.00  0.00     0.051 A 
ATOM     45  C   UNL     1      27.452  -4.897 -26.650  1.00  0.00     0.160 A 
BRANCH  43  46
ATOM     46  O   UNL     1      26.152  -4.909 -28.662  1.00  0.00    -0.504 OA
ATOM     47  H   UNL     1      27.096  -4.709 -29.050  1.00  0.00     0.293 HD
ENDBRANCH  43  46
BRANCH  45  48
ATOM     48  O   UNL     1      28.659  -4.346 -27.267  1.00  0.00    -0.493 OA
ATOM     49  C   UNL     1      29.842  -4.278 -26.423  1.00  0.00     0.278 C 
ENDBRANCH  45  48
ENDBRANCH  35  40
ENDBRANCH  26  27
ENDBRANCH   5  26
BRANCH   4  50
ATOM     50  O   UNL     1      32.932 -10.264 -23.086  1.00  0.00    -0.384 OA
ATOM     51  H   UNL     1      32.350 -10.859 -22.527  1.00  0.00     0.211 HD
ENDBRANCH   4  50
TORSDOF 15
ENDMDL
MODEL 3
REMARK VINA RESULT:    -5.376      1.275      2.167
REMARK INTER + INTRA:         -12.555
REMARK INTER:                  -8.920
REMARK INTRA:                  -3.635
REMARK UNBOUND:                -3.722
REMARK SMILES COc1ccc([C@@H]2CC(=O)c3c(O)cc(O[C@H]4O[C@@H](CO[C@H]5O[C@@H](C)[C@@H](O)[C@H](O)[C@@H]5O)[C@@H](O)[C@@H](O)[C@@H]4O)cc3O2)cc1O
REMARK SMILES IDX 19 1 32 2 34 3 36 4 17 5 18 6 20 7 21 8 22 9 25 10 24 11
REMARK SMILES IDX 26 12 23 13 28 14 30 15 27 16 29 18 31 20 33 22 35 24 16 26
REMARK SMILES IDX 15 27 14 28 38 29 12 30 39 31 11 32 40 33 9 34 7 35 10 36
REMARK SMILES IDX 8 37 13 38 6 40 41 41 5 42 42 43 4 44 3 45 43 46 2 48 1 49
REMARK SMILES IDX 37 50
REMARK H PARENT 27 17 29 19 31 21 33 23 35 25 13 39 43 47 37 51
REMARK Flexibility Score: inf
ROOT
ATOM      1  C   UNL     1      31.471  -7.861 -25.950  1.00  0.00     0.180 C 
ATOM      2  C   UNL     1      32.331  -7.512 -24.746  1.00  0.00     0.177 C 
ATOM      3  C   UNL     1      32.062  -6.058 -24.360  1.00  0.00     0.180 C 
ATOM      4  C   UNL     1      30.547  -5.845 -24.095  1.00  0.00     0.214 C 
ATOM      5  C   UNL     1      29.569  -6.474 -25.125  1.00  0.00     0.339 C 
ATOM      6  O   UNL     1      30.064  -7.742 -25.695  1.00  0.00    -0.332 OA
ENDROOT
BRANCH   1   7
ATOM      7  C   UNL     1      31.829  -7.214 -27.285  1.00  0.00     0.198 C 
BRANCH   7   8
ATOM      8  O   UNL     1      30.837  -7.424 -28.307  1.00  0.00    -0.347 OA
BRANCH   8   9
ATOM      9  C   UNL     1      30.789  -6.407 -29.291  1.00  0.00     0.281 C 
ATOM     10  C   UNL     1      32.695  -7.759 -32.109  1.00  0.00     0.041 C 
ATOM     11  C   UNL     1      31.456  -6.985 -31.567  1.00  0.00     0.150 C 
ATOM     12  C   UNL     1      30.136  -7.857 -31.680  1.00  0.00     0.174 C 
ATOM     13  O   UNL     1      31.825  -6.506 -30.283  1.00  0.00    -0.344 OA
ATOM     14  C   UNL     1      29.056  -7.602 -30.606  1.00  0.00     0.179 C 
ATOM     15  C   UNL     1      29.360  -6.316 -29.853  1.00  0.00     0.202 C 
BRANCH  12  16
ATOM     16  O   UNL     1      30.428  -9.228 -31.707  1.00  0.00    -0.388 OA
ATOM     17  H   UNL     1      30.789  -9.470 -30.821  1.00  0.00     0.211 HD
ENDBRANCH  12  16
BRANCH  14  18
ATOM     18  O   UNL     1      27.782  -7.530 -31.220  1.00  0.00    -0.387 OA
ATOM     19  H   UNL     1      27.336  -8.346 -30.928  1.00  0.00     0.211 HD
ENDBRANCH  14  18
BRANCH  15  20
ATOM     20  O   UNL     1      29.209  -5.174 -30.631  1.00  0.00    -0.385 OA
ATOM     21  H   UNL     1      28.449  -4.664 -30.257  1.00  0.00     0.211 HD
ENDBRANCH  15  20
ENDBRANCH   8   9
ENDBRANCH   7   8
ENDBRANCH   1   7
BRANCH   2  22
ATOM     22  O   UNL     1      33.734  -7.727 -24.941  1.00  0.00    -0.387 OA
ATOM     23  H   UNL     1      34.196  -6.880 -24.647  1.00  0.00     0.211 HD
ENDBRANCH   2  22
BRANCH   3  24
ATOM     24  O   UNL     1      32.552  -5.214 -25.392  1.00  0.00    -0.387 OA
ATOM     25  H   UNL     1      33.274  -4.661 -24.984  1.00  0.00     0.211 HD
ENDBRANCH   3  24
BRANCH   5  26
ATOM     26  O   UNL     1      29.129  -5.595 -26.209  1.00  0.00    -0.462 OA
BRANCH  26  27
ATOM     27  C   UNL     1      29.418  -4.196 -26.367  1.00  0.00     0.130 A 
ATOM     28  C   UNL     1      30.147  -3.661 -27.436  1.00  0.00     0.093 A 
ATOM     29  C   UNL     1      28.487  -3.343 -25.773  1.00  0.00     0.094 A 
ATOM     30  C   UNL     1      29.627  -2.464 -28.124  1.00  0.00     0.133 A 
ATOM     31  C   UNL     1      27.812  -2.449 -26.591  1.00  0.00     0.138 A 
ATOM     32  C   UNL     1      28.447  -1.739 -27.681  1.00  0.00     0.102 A 
ATOM     33  O   UNL     1      26.444  -2.680 -26.693  1.00  0.00    -0.484 OA
ATOM     34  C   UNL     1      27.429  -1.388 -28.740  1.00  0.00     0.174 C 
ATOM     35  C   UNL     1      25.815  -3.030 -27.995  1.00  0.00     0.211 C 
ATOM     36  O   UNL     1      26.601  -0.394 -28.724  1.00  0.00    -0.294 OA
ATOM     37  C   UNL     1      26.831  -2.661 -29.149  1.00  0.00     0.131 C 
BRANCH  30  38
ATOM     38  O   UNL     1      29.958  -2.396 -29.488  1.00  0.00    -0.507 OA
ATOM     39  H   UNL     1      29.737  -3.135 -30.151  1.00  0.00     0.293 HD
ENDBRANCH  30  38
BRANCH  35  40
ATOM     40  C   UNL     1      25.364  -4.457 -28.066  1.00  0.00    -0.003 A 
ATOM     41  C   UNL     1      26.329  -5.473 -28.430  1.00  0.00     0.057 A 
ATOM     42  C   UNL     1      24.555  -4.811 -26.976  1.00  0.00     0.011 A 
ATOM     43  C   UNL     1      26.486  -6.637 -27.604  1.00  0.00     0.158 A 
ATOM     44  C   UNL     1      25.193  -5.541 -25.940  1.00  0.00     0.051 A 
ATOM     45  C   UNL     1      25.829  -6.663 -26.313  1.00  0.00     0.160 A 
BRANCH  43  46
ATOM     46  O   UNL     1      26.688  -7.889 -28.183  1.00  0.00    -0.504 OA
ATOM     47  H   UNL     1      25.785  -8.342 -28.428  1.00  0.00     0.293 HD
ENDBRANCH  43  46
BRANCH  45  48
ATOM     48  O   UNL     1      25.212  -7.817 -25.660  1.00  0.00    -0.493 OA
ATOM     49  C   UNL     1      25.860  -8.296 -24.448  1.00  0.00     0.278 C 
ENDBRANCH  45  48
ENDBRANCH  35  40
ENDBRANCH  26  27
ENDBRANCH   5  26
BRANCH   4  50
ATOM     50  O   UNL     1      30.212  -6.322 -22.806  1.00  0.00    -0.384 OA
ATOM     51  H   UNL     1      29.294  -5.963 -22.620  1.00  0.00     0.211 HD
ENDBRANCH   4  50
TORSDOF 15
ENDMDL
MODEL 4
REMARK VINA RESULT:    -5.267      1.629      2.507
REMARK INTER + INTRA:         -12.377
REMARK INTER:                  -9.688
REMARK INTRA:                  -2.689
REMARK UNBOUND:                -3.722
REMARK SMILES COc1ccc([C@@H]2CC(=O)c3c(O)cc(O[C@H]4O[C@@H](CO[C@H]5O[C@@H](C)[C@@H](O)[C@H](O)[C@@H]5O)[C@@H](O)[C@@H](O)[C@@H]4O)cc3O2)cc1O
REMARK SMILES IDX 19 1 32 2 34 3 36 4 17 5 18 6 20 7 21 8 22 9 25 10 24 11
REMARK SMILES IDX 26 12 23 13 28 14 30 15 27 16 29 18 31 20 33 22 35 24 16 26
REMARK SMILES IDX 15 27 14 28 38 29 12 30 39 31 11 32 40 33 9 34 7 35 10 36
REMARK SMILES IDX 8 37 13 38 6 40 41 41 5 42 42 43 4 44 3 45 43 46 2 48 1 49
REMARK SMILES IDX 37 50
REMARK H PARENT 27 17 29 19 31 21 33 23 35 25 13 39 43 47 37 51
REMARK Flexibility Score: inf
ROOT
ATOM      1  C   UNL     1      31.339  -8.624 -27.572  1.00  0.00     0.180 C 
ATOM      2  C   UNL     1      31.510  -9.551 -26.379  1.00  0.00     0.177 C 
ATOM      3  C   UNL     1      31.610  -8.702 -25.113  1.00  0.00     0.180 C 
ATOM      4  C   UNL     1      30.366  -7.784 -24.983  1.00  0.00     0.214 C 
ATOM      5  C   UNL     1      29.915  -7.042 -26.272  1.00  0.00     0.339 C 
ATOM      6  O   UNL     1      30.151  -7.823 -27.501  1.00  0.00    -0.332 OA
ENDROOT
BRANCH   1   7
ATOM      7  C   UNL     1      32.536  -7.770 -27.980  1.00  0.00     0.198 C 
BRANCH   7   8
ATOM      8  O   UNL     1      32.358  -7.100 -29.241  1.00  0.00    -0.347 OA
BRANCH   8   9
ATOM      9  C   UNL     1      32.302  -7.967 -30.360  1.00  0.00     0.281 C 
ATOM     10  C   UNL     1      28.823  -7.799 -31.487  1.00  0.00     0.041 C 
ATOM     11  C   UNL     1      30.346  -7.835 -31.814  1.00  0.00     0.150 C 
ATOM     12  C   UNL     1      30.865  -6.418 -32.301  1.00  0.00     0.174 C 
ATOM     13  O   UNL     1      30.976  -8.418 -30.684  1.00  0.00    -0.344 OA
ATOM     14  C   UNL     1      32.334  -6.078 -31.970  1.00  0.00     0.179 C 
ATOM     15  C   UNL     1      33.074  -7.332 -31.528  1.00  0.00     0.202 C 
BRANCH  12  16
ATOM     16  O   UNL     1      30.047  -5.382 -31.828  1.00  0.00    -0.388 OA
ATOM     17  H   UNL     1      29.819  -5.591 -30.891  1.00  0.00     0.211 HD
ENDBRANCH  12  16
BRANCH  14  18
ATOM     18  O   UNL     1      32.959  -5.506 -33.105  1.00  0.00    -0.387 OA
ATOM     19  H   UNL     1      32.321  -5.663 -33.825  1.00  0.00     0.211 HD
ENDBRANCH  14  18
BRANCH  15  20
ATOM     20  O   UNL     1      33.258  -8.252 -32.555  1.00  0.00    -0.385 OA
ATOM     21  H   UNL     1      33.881  -7.844 -33.204  1.00  0.00     0.211 HD
ENDBRANCH  15  20
ENDBRANCH   8   9
ENDBRANCH   7   8
ENDBRANCH   1   7
BRANCH   2  22
ATOM     22  O   UNL     1      32.630 -10.439 -26.478  1.00  0.00    -0.387 OA
ATOM     23  H   UNL     1      32.254 -11.375 -26.477  1.00  0.00     0.211 HD
ENDBRANCH   2  22
BRANCH   3  24
ATOM     24  O   UNL     1      32.823  -7.964 -25.153  1.00  0.00    -0.387 OA
ATOM     25  H   UNL     1      32.647  -7.162 -25.717  1.00  0.00     0.211 HD
ENDBRANCH   3  24
BRANCH   5  26
ATOM     26  O   UNL     1      30.441  -5.688 -26.449  1.00  0.00    -0.462 OA
BRANCH  26  27
ATOM     27  C   UNL     1      29.816  -4.596 -27.143  1.00  0.00     0.130 A 
ATOM     28  C   UNL     1      29.549  -4.591 -28.518  1.00  0.00     0.093 A 
ATOM     29  C   UNL     1      28.972  -3.816 -26.352  1.00  0.00     0.094 A 
ATOM     30  C   UNL     1      28.219  -4.152 -28.983  1.00  0.00     0.133 A 
ATOM     31  C   UNL     1      27.637  -3.729 -26.719  1.00  0.00     0.138 A 
ATOM     32  C   UNL     1      27.199  -3.618 -28.095  1.00  0.00     0.102 A 
ATOM     33  O   UNL     1      26.751  -4.303 -25.813  1.00  0.00    -0.484 OA
ATOM     34  C   UNL     1      25.805  -4.180 -28.247  1.00  0.00     0.174 C 
ATOM     35  C   UNL     1      25.898  -5.460 -26.195  1.00  0.00     0.211 C 
ATOM     36  O   UNL     1      24.692  -3.585 -27.963  1.00  0.00    -0.294 OA
ATOM     37  C   UNL     1      25.885  -5.564 -27.773  1.00  0.00     0.131 C 
BRANCH  30  38
ATOM     38  O   UNL     1      27.789  -4.778 -30.165  1.00  0.00    -0.507 OA
ATOM     39  H   UNL     1      28.155  -4.541 -31.084  1.00  0.00     0.293 HD
ENDBRANCH  30  38
BRANCH  35  40
ATOM     40  C   UNL     1      26.320  -6.742 -25.543  1.00  0.00    -0.003 A 
ATOM     41  C   UNL     1      26.737  -6.712 -24.158  1.00  0.00     0.057 A 
ATOM     42  C   UNL     1      25.453  -7.802 -25.849  1.00  0.00     0.011 A 
ATOM     43  C   UNL     1      26.150  -7.622 -23.215  1.00  0.00     0.158 A 
ATOM     44  C   UNL     1      24.503  -8.136 -24.848  1.00  0.00     0.051 A 
ATOM     45  C   UNL     1      24.999  -8.399 -23.629  1.00  0.00     0.160 A 
BRANCH  43  46
ATOM     46  O   UNL     1      26.933  -8.217 -22.227  1.00  0.00    -0.504 OA
ATOM     47  H   UNL     1      27.528  -7.515 -21.744  1.00  0.00     0.293 HD
ENDBRANCH  43  46
BRANCH  45  48
ATOM     48  O   UNL     1      24.688  -9.780 -23.261  1.00  0.00    -0.493 OA
ATOM     49  C   UNL     1      23.488 -10.352 -23.852  1.00  0.00     0.278 C 
ENDBRANCH  45  48
ENDBRANCH  35  40
ENDBRANCH  26  27
ENDBRANCH   5  26
BRANCH   4  50
ATOM     50  O   UNL     1      29.270  -8.524 -24.482  1.00  0.00    -0.384 OA
ATOM     51  H   UNL     1      29.563  -8.860 -23.584  1.00  0.00     0.211 HD
ENDBRANCH   4  50
TORSDOF 15
ENDMDL
MODEL 5
REMARK VINA RESULT:    -5.244      1.873      4.103
REMARK INTER + INTRA:         -12.338
REMARK INTER:                  -8.750
REMARK INTRA:                  -3.588
REMARK UNBOUND:                -3.722
REMARK SMILES COc1ccc([C@@H]2CC(=O)c3c(O)cc(O[C@H]4O[C@@H](CO[C@H]5O[C@@H](C)[C@@H](O)[C@H](O)[C@@H]5O)[C@@H](O)[C@@H](O)[C@@H]4O)cc3O2)cc1O
REMARK SMILES IDX 19 1 32 2 34 3 36 4 17 5 18 6 20 7 21 8 22 9 25 10 24 11
REMARK SMILES IDX 26 12 23 13 28 14 30 15 27 16 29 18 31 20 33 22 35 24 16 26
REMARK SMILES IDX 15 27 14 28 38 29 12 30 39 31 11 32 40 33 9 34 7 35 10 36
REMARK SMILES IDX 8 37 13 38 6 40 41 41 5 42 42 43 4 44 3 45 43 46 2 48 1 49
REMARK SMILES IDX 37 50
REMARK H PARENT 27 17 29 19 31 21 33 23 35 25 13 39 43 47 37 51
REMARK Flexibility Score: inf
ROOT
ATOM      1  C   UNL     1      32.120  -9.184 -27.089  1.00  0.00     0.180 C 
ATOM      2  C   UNL     1      33.426  -8.510 -26.701  1.00  0.00     0.177 C 
ATOM      3  C   UNL     1      33.137  -7.478 -25.613  1.00  0.00     0.180 C 
ATOM      4  C   UNL     1      32.431  -8.153 -24.406  1.00  0.00     0.214 C 
ATOM      5  C   UNL     1      31.277  -9.137 -24.743  1.00  0.00     0.339 C 
ATOM      6  O   UNL     1      31.495  -9.877 -26.000  1.00  0.00    -0.332 OA
ENDROOT
BRANCH   1   7
ATOM      7  C   UNL     1      31.095  -8.350 -27.852  1.00  0.00     0.198 C 
BRANCH   7   8
ATOM      8  O   UNL     1      31.667  -7.577 -28.922  1.00  0.00    -0.347 OA
BRANCH   8   9
ATOM      9  C   UNL     1      31.594  -8.198 -30.194  1.00  0.00     0.281 C 
ATOM     10  C   UNL     1      28.195  -7.506 -31.364  1.00  0.00     0.041 C 
ATOM     11  C   UNL     1      29.724  -7.609 -31.648  1.00  0.00     0.150 C 
ATOM     12  C   UNL     1      30.376  -6.175 -31.825  1.00  0.00     0.174 C 
ATOM     13  O   UNL     1      30.252  -8.457 -30.640  1.00  0.00    -0.344 OA
ATOM     14  C   UNL     1      31.851  -6.038 -31.390  1.00  0.00     0.179 C 
ATOM     15  C   UNL     1      32.468  -7.414 -31.188  1.00  0.00     0.202 C 
BRANCH  12  16
ATOM     16  O   UNL     1      29.624  -5.185 -31.178  1.00  0.00    -0.388 OA
ATOM     17  H   UNL     1      29.016  -5.642 -30.547  1.00  0.00     0.211 HD
ENDBRANCH  12  16
BRANCH  14  18
ATOM     18  O   UNL     1      32.571  -5.309 -32.368  1.00  0.00    -0.387 OA
ATOM     19  H   UNL     1      33.272  -5.926 -32.648  1.00  0.00     0.211 HD
ENDBRANCH  14  18
BRANCH  15  20
ATOM     20  O   UNL     1      32.624  -8.125 -32.372  1.00  0.00    -0.385 OA
ATOM     21  H   UNL     1      32.452  -7.497 -33.115  1.00  0.00     0.211 HD
ENDBRANCH  15  20
ENDBRANCH   8   9
ENDBRANCH   7   8
ENDBRANCH   1   7
BRANCH   2  22
ATOM     22  O   UNL     1      34.125  -7.904 -27.795  1.00  0.00    -0.387 OA
ATOM     23  H   UNL     1      35.094  -7.850 -27.520  1.00  0.00     0.211 HD
ENDBRANCH   2  22
BRANCH   3  24
ATOM     24  O   UNL     1      32.361  -6.429 -26.174  1.00  0.00    -0.387 OA
ATOM     25  H   UNL     1      32.424  -5.662 -25.541  1.00  0.00     0.211 HD
ENDBRANCH   3  24
BRANCH   5  26
ATOM     26  O   UNL     1      29.929  -8.566 -24.743  1.00  0.00    -0.462 OA
BRANCH  26  27
ATOM     27  C   UNL     1      29.056  -8.395 -23.614  1.00  0.00     0.130 A 
ATOM     28  C   UNL     1      29.116  -7.306 -22.735  1.00  0.00     0.093 A 
ATOM     29  C   UNL     1      27.808  -9.004 -23.750  1.00  0.00     0.094 A 
ATOM     30  C   UNL     1      27.862  -6.624 -22.361  1.00  0.00     0.133 A 
ATOM     31  C   UNL     1      26.683  -8.196 -23.695  1.00  0.00     0.138 A 
ATOM     32  C   UNL     1      26.547  -7.088 -22.772  1.00  0.00     0.102 A 
ATOM     33  O   UNL     1      25.963  -8.126 -24.884  1.00  0.00    -0.484 OA
ATOM     34  C   UNL     1      25.606  -6.050 -23.336  1.00  0.00     0.174 C 
ATOM     35  C   UNL     1      25.804  -6.840 -25.615  1.00  0.00     0.211 C 
ATOM     36  O   UNL     1      24.313  -6.080 -23.314  1.00  0.00    -0.294 OA
ATOM     37  C   UNL     1      26.177  -5.662 -24.628  1.00  0.00     0.131 C 
BRANCH  30  38
ATOM     38  O   UNL     1      28.013  -5.252 -22.094  1.00  0.00    -0.507 OA
ATOM     39  H   UNL     1      28.793  -4.701 -22.442  1.00  0.00     0.293 HD
ENDBRANCH  30  38
BRANCH  35  40
ATOM     40  C   UNL     1      26.591  -6.787 -26.890  1.00  0.00    -0.003 A 
ATOM     41  C   UNL     1      26.257  -5.776 -27.870  1.00  0.00     0.057 A 
ATOM     42  C   UNL     1      27.969  -6.925 -26.667  1.00  0.00     0.011 A 
ATOM     43  C   UNL     1      27.287  -4.929 -28.402  1.00  0.00     0.158 A 
ATOM     44  C   UNL     1      28.724  -5.722 -26.685  1.00  0.00     0.051 A 
ATOM     45  C   UNL     1      28.596  -4.962 -27.784  1.00  0.00     0.160 A 
BRANCH  43  46
ATOM     46  O   UNL     1      27.285  -4.579 -29.751  1.00  0.00    -0.504 OA
ATOM     47  H   UNL     1      28.123  -4.955 -30.239  1.00  0.00     0.293 HD
ENDBRANCH  43  46
BRANCH  45  48
ATOM     48  O   UNL     1      29.892  -4.849 -28.454  1.00  0.00    -0.493 OA
ATOM     49  C   UNL     1      30.656  -3.641 -28.183  1.00  0.00     0.278 C 
ENDBRANCH  45  48
ENDBRANCH  35  40
ENDBRANCH  26  27
ENDBRANCH   5  26
BRANCH   4  50
ATOM     50  O   UNL     1      33.381  -8.829 -23.608  1.00  0.00    -0.384 OA
ATOM     51  H   UNL     1      33.916  -9.388 -24.246  1.00  0.00     0.211 HD
ENDBRANCH   4  50
TORSDOF 15
ENDMDL
MODEL 6
REMARK VINA RESULT:    -5.241      1.815      5.767
REMARK INTER + INTRA:         -12.333
REMARK INTER:                  -8.429
REMARK INTRA:                  -3.904
REMARK UNBOUND:                -3.722
REMARK SMILES COc1ccc([C@@H]2CC(=O)c3c(O)cc(O[C@H]4O[C@@H](CO[C@H]5O[C@@H](C)[C@@H](O)[C@H](O)[C@@H]5O)[C@@H](O)[C@@H](O)[C@@H]4O)cc3O2)cc1O
REMARK SMILES IDX 19 1 32 2 34 3 36 4 17 5 18 6 20 7 21 8 22 9 25 10 24 11
REMARK SMILES IDX 26 12 23 13 28 14 30 15 27 16 29 18 31 20 33 22 35 24 16 26
REMARK SMILES IDX 15 27 14 28 38 29 12 30 39 31 11 32 40 33 9 34 7 35 10 36
REMARK SMILES IDX 8 37 13 38 6 40 41 41 5 42 42 43 4 44 3 45 43 46 2 48 1 49
REMARK SMILES IDX 37 50
REMARK H PARENT 27 17 29 19 31 21 33 23 35 25 13 39 43 47 37 51
REMARK Flexibility Score: inf
ROOT
ATOM      1  C   UNL     1      30.214  -6.020 -30.348  1.00  0.00     0.180 C 
ATOM      2  C   UNL     1      30.074  -7.383 -31.008  1.00  0.00     0.177 C 
ATOM      3  C   UNL     1      28.949  -8.147 -30.313  1.00  0.00     0.180 C 
ATOM      4  C   UNL     1      27.633  -7.323 -30.358  1.00  0.00     0.214 C 
ATOM      5  C   UNL     1      27.751  -5.812 -30.014  1.00  0.00     0.339 C 
ATOM      6  O   UNL     1      29.030  -5.218 -30.449  1.00  0.00    -0.332 OA
ENDROOT
BRANCH   1   7
ATOM      7  C   UNL     1      30.770  -5.977 -28.927  1.00  0.00     0.198 C 
BRANCH   7   8
ATOM      8  O   UNL     1      31.829  -6.924 -28.698  1.00  0.00    -0.347 OA
BRANCH   8   9
ATOM      9  C   UNL     1      32.588  -6.679 -27.527  1.00  0.00     0.281 C 
ATOM     10  C   UNL     1      30.116  -5.696 -25.013  1.00  0.00     0.041 C 
ATOM     11  C   UNL     1      31.393  -6.495 -25.406  1.00  0.00     0.150 C 
ATOM     12  C   UNL     1      31.096  -8.050 -25.496  1.00  0.00     0.174 C 
ATOM     13  O   UNL     1      31.917  -5.854 -26.559  1.00  0.00    -0.344 OA
ATOM     14  C   UNL     1      31.939  -8.850 -26.513  1.00  0.00     0.179 C 
ATOM     15  C   UNL     1      33.121  -8.015 -26.983  1.00  0.00     0.202 C 
BRANCH  12  16
ATOM     16  O   UNL     1      29.739  -8.300 -25.744  1.00  0.00    -0.388 OA
ATOM     17  H   UNL     1      29.251  -7.455 -25.590  1.00  0.00     0.211 HD
ENDBRANCH  12  16
BRANCH  14  18
ATOM     18  O   UNL     1      32.386 -10.055 -25.919  1.00  0.00    -0.387 OA
ATOM     19  H   UNL     1      31.573 -10.584 -25.826  1.00  0.00     0.211 HD
ENDBRANCH  14  18
BRANCH  15  20
ATOM     20  O   UNL     1      34.070  -7.798 -25.990  1.00  0.00    -0.385 OA
ATOM     21  H   UNL     1      33.638  -7.999 -25.125  1.00  0.00     0.211 HD
ENDBRANCH  15  20
ENDBRANCH   8   9
ENDBRANCH   7   8
ENDBRANCH   1   7
BRANCH   2  22
ATOM     22  O   UNL     1      31.277  -8.160 -31.016  1.00  0.00    -0.387 OA
ATOM     23  H   UNL     1      31.034  -9.059 -31.404  1.00  0.00     0.211 HD
ENDBRANCH   2  22
BRANCH   3  24
ATOM     24  O   UNL     1      29.352  -8.446 -28.985  1.00  0.00    -0.387 OA
ATOM     25  H   UNL     1      28.728  -7.956 -28.383  1.00  0.00     0.211 HD
ENDBRANCH   3  24
BRANCH   5  26
ATOM     26  O   UNL     1      27.499  -5.452 -28.618  1.00  0.00    -0.462 OA
BRANCH  26  27
ATOM     27  C   UNL     1      26.525  -6.028 -27.733  1.00  0.00     0.130 A 
ATOM     28  C   UNL     1      26.824  -6.975 -26.745  1.00  0.00     0.093 A 
ATOM     29  C   UNL     1      25.416  -5.217 -27.487  1.00  0.00     0.094 A 
ATOM     30  C   UNL     1      26.270  -6.790 -25.390  1.00  0.00     0.133 A 
ATOM     31  C   UNL     1      25.167  -4.838 -26.177  1.00  0.00     0.138 A 
ATOM     32  C   UNL     1      25.334  -5.731 -25.049  1.00  0.00     0.102 A 
ATOM     33  O   UNL     1      25.301  -3.475 -25.935  1.00  0.00    -0.484 OA
ATOM     34  C   UNL     1      25.632  -4.941 -23.796  1.00  0.00     0.174 C 
ATOM     35  C   UNL     1      26.328  -2.955 -24.992  1.00  0.00     0.211 C 
ATOM     36  O   UNL     1      24.777  -4.329 -23.042  1.00  0.00    -0.294 OA
ATOM     37  C   UNL     1      26.833  -4.159 -24.100  1.00  0.00     0.131 C 
BRANCH  30  38
ATOM     38  O   UNL     1      27.084  -7.295 -24.363  1.00  0.00    -0.507 OA
ATOM     39  H   UNL     1      26.765  -7.404 -23.403  1.00  0.00     0.293 HD
ENDBRANCH  30  38
BRANCH  35  40
ATOM     40  C   UNL     1      27.454  -2.245 -25.681  1.00  0.00    -0.003 A 
ATOM     41  C   UNL     1      28.283  -2.989 -26.605  1.00  0.00     0.057 A 
ATOM     42  C   UNL     1      27.069  -0.982 -26.158  1.00  0.00     0.011 A 
ATOM     43  C   UNL     1      28.514  -2.479 -27.927  1.00  0.00     0.158 A 
ATOM     44  C   UNL     1      26.777  -0.905 -27.545  1.00  0.00     0.051 A 
ATOM     45  C   UNL     1      27.735  -1.343 -28.375  1.00  0.00     0.160 A 
BRANCH  43  46
ATOM     46  O   UNL     1      29.770  -2.599 -28.519  1.00  0.00    -0.504 OA
ATOM     47  H   UNL     1      30.384  -3.239 -27.976  1.00  0.00     0.293 HD
ENDBRANCH  43  46
BRANCH  45  48
ATOM     48  O   UNL     1      28.191  -0.241 -29.222  1.00  0.00    -0.493 OA
ATOM     49  C   UNL     1      27.231   0.825 -29.467  1.00  0.00     0.278 C 
ENDBRANCH  45  48
ENDBRANCH  35  40
ENDBRANCH  26  27
ENDBRANCH   5  26
BRANCH   4  50
ATOM     50  O   UNL     1      27.028  -7.450 -31.629  1.00  0.00    -0.384 OA
ATOM     51  H   UNL     1      26.377  -8.206 -31.540  1.00  0.00     0.211 HD
ENDBRANCH   4  50
TORSDOF 15
ENDMDL
MODEL 7
REMARK VINA RESULT:    -5.163      1.766      4.466
REMARK INTER + INTRA:         -12.205
REMARK INTER:                  -8.539
REMARK INTRA:                  -3.666
REMARK UNBOUND:                -3.722
REMARK SMILES COc1ccc([C@@H]2CC(=O)c3c(O)cc(O[C@H]4O[C@@H](CO[C@H]5O[C@@H](C)[C@@H](O)[C@H](O)[C@@H]5O)[C@@H](O)[C@@H](O)[C@@H]4O)cc3O2)cc1O
REMARK SMILES IDX 19 1 32 2 34 3 36 4 17 5 18 6 20 7 21 8 22 9 25 10 24 11
REMARK SMILES IDX 26 12 23 13 28 14 30 15 27 16 29 18 31 20 33 22 35 24 16 26
REMARK SMILES IDX 15 27 14 28 38 29 12 30 39 31 11 32 40 33 9 34 7 35 10 36
REMARK SMILES IDX 8 37 13 38 6 40 41 41 5 42 42 43 4 44 3 45 43 46 2 48 1 49
REMARK SMILES IDX 37 50
REMARK H PARENT 27 17 29 19 31 21 33 23 35 25 13 39 43 47 37 51
REMARK Flexibility Score: inf
ROOT
ATOM      1  C   UNL     1      30.476  -6.338 -30.746  1.00  0.00     0.180 C 
ATOM      2  C   UNL     1      30.053  -7.753 -31.105  1.00  0.00     0.177 C 
ATOM      3  C   UNL     1      28.869  -8.146 -30.224  1.00  0.00     0.180 C 
ATOM      4  C   UNL     1      27.716  -7.119 -30.385  1.00  0.00     0.214 C 
ATOM      5  C   UNL     1      28.118  -5.619 -30.364  1.00  0.00     0.339 C 
ATOM      6  O   UNL     1      29.443  -5.366 -30.962  1.00  0.00    -0.332 OA
ENDROOT
BRANCH   1   7
ATOM      7  C   UNL     1      31.137  -6.122 -29.387  1.00  0.00     0.198 C 
BRANCH   7   8
ATOM      8  O   UNL     1      31.884  -7.262 -28.927  1.00  0.00    -0.347 OA
BRANCH   8   9
ATOM      9  C   UNL     1      32.673  -7.016 -27.776  1.00  0.00     0.281 C 
ATOM     10  C   UNL     1      30.292  -5.834 -25.259  1.00  0.00     0.041 C 
ATOM     11  C   UNL     1      31.524  -6.708 -25.645  1.00  0.00     0.150 C 
ATOM     12  C   UNL     1      31.150  -8.248 -25.679  1.00  0.00     0.174 C 
ATOM     13  O   UNL     1      32.059  -6.130 -26.825  1.00  0.00    -0.344 OA
ATOM     14  C   UNL     1      31.937  -9.119 -26.682  1.00  0.00     0.179 C 
ATOM     15  C   UNL     1      33.150  -8.359 -27.196  1.00  0.00     0.202 C 
BRANCH  12  16
ATOM     16  O   UNL     1      29.779  -8.439 -25.899  1.00  0.00    -0.388 OA
ATOM     17  H   UNL     1      29.666  -9.337 -26.294  1.00  0.00     0.211 HD
ENDBRANCH  12  16
BRANCH  14  18
ATOM     18  O   UNL     1      32.335 -10.325 -26.056  1.00  0.00    -0.387 OA
ATOM     19  H   UNL     1      32.319 -10.979 -26.778  1.00  0.00     0.211 HD
ENDBRANCH  14  18
BRANCH  15  20
ATOM     20  O   UNL     1      34.125  -8.157 -26.226  1.00  0.00    -0.385 OA
ATOM     21  H   UNL     1      34.298  -9.032 -25.799  1.00  0.00     0.211 HD
ENDBRANCH  15  20
ENDBRANCH   8   9
ENDBRANCH   7   8
ENDBRANCH   1   7
BRANCH   2  22
ATOM     22  O   UNL     1      31.100  -8.726 -31.001  1.00  0.00    -0.387 OA
ATOM     23  H   UNL     1      30.783  -9.542 -31.502  1.00  0.00     0.211 HD
ENDBRANCH   2  22
BRANCH   3  24
ATOM     24  O   UNL     1      29.314  -8.250 -28.879  1.00  0.00    -0.387 OA
ATOM     25  H   UNL     1      30.130  -7.683 -28.808  1.00  0.00     0.211 HD
ENDBRANCH   3  24
BRANCH   5  26
ATOM     26  O   UNL     1      28.039  -4.953 -29.063  1.00  0.00    -0.462 OA
BRANCH  26  27
ATOM     27  C   UNL     1      28.407  -3.598 -28.756  1.00  0.00     0.130 A 
ATOM     28  C   UNL     1      27.773  -2.471 -29.293  1.00  0.00     0.093 A 
ATOM     29  C   UNL     1      28.994  -3.429 -27.501  1.00  0.00     0.094 A 
ATOM     30  C   UNL     1      27.394  -1.368 -28.390  1.00  0.00     0.133 A 
ATOM     31  C   UNL     1      28.362  -2.589 -26.597  1.00  0.00     0.138 A 
ATOM     32  C   UNL     1      27.741  -1.337 -26.979  1.00  0.00     0.102 A 
ATOM     33  O   UNL     1      27.862  -3.228 -25.467  1.00  0.00    -0.484 OA
ATOM     34  C   UNL     1      26.633  -0.987 -26.014  1.00  0.00     0.174 C 
ATOM     35  C   UNL     1      26.404  -3.244 -25.170  1.00  0.00     0.211 C 
ATOM     36  O   UNL     1      26.760  -0.439 -24.850  1.00  0.00    -0.294 OA
ATOM     37  C   UNL     1      25.710  -2.125 -26.046  1.00  0.00     0.131 C 
BRANCH  30  38
ATOM     38  O   UNL     1      26.245  -0.665 -28.793  1.00  0.00    -0.507 OA
ATOM     39  H   UNL     1      25.683  -0.107 -28.154  1.00  0.00     0.293 HD
ENDBRANCH  30  38
BRANCH  35  40
ATOM     40  C   UNL     1      25.778  -4.591 -25.365  1.00  0.00    -0.003 A 
ATOM     41  C   UNL     1      26.246  -5.423 -26.454  1.00  0.00     0.057 A 
ATOM     42  C   UNL     1      25.619  -5.282 -24.155  1.00  0.00     0.011 A 
ATOM     43  C   UNL     1      26.639  -6.780 -26.197  1.00  0.00     0.158 A 
ATOM     44  C   UNL     1      26.591  -6.279 -23.876  1.00  0.00     0.051 A 
ATOM     45  C   UNL     1      26.763  -7.216 -24.822  1.00  0.00     0.160 A 
BRANCH  43  46
ATOM     46  O   UNL     1      26.320  -7.789 -27.105  1.00  0.00    -0.504 OA
ATOM     47  H   UNL     1      25.359  -7.667 -27.482  1.00  0.00     0.293 HD
ENDBRANCH  43  46
BRANCH  45  48
ATOM     48  O   UNL     1      26.418  -8.529 -24.278  1.00  0.00    -0.493 OA
ATOM     49  C   UNL     1      27.408  -9.150 -23.411  1.00  0.00     0.278 C 
ENDBRANCH  45  48
ENDBRANCH  35  40
ENDBRANCH  26  27
ENDBRANCH   5  26
BRANCH   4  50
ATOM     50  O   UNL     1      27.002  -7.378 -31.578  1.00  0.00    -0.384 OA
ATOM     51  H   UNL     1      27.515  -6.910 -32.301  1.00  0.00     0.211 HD
ENDBRANCH   4  50
TORSDOF 15
ENDMDL
MODEL 8
REMARK VINA RESULT:    -5.138      1.543      5.824
REMARK INTER + INTRA:         -12.164
REMARK INTER:                  -8.508
REMARK INTRA:                  -3.657
REMARK UNBOUND:                -3.722
REMARK SMILES COc1ccc([C@@H]2CC(=O)c3c(O)cc(O[C@H]4O[C@@H](CO[C@H]5O[C@@H](C)[C@@H](O)[C@H](O)[C@@H]5O)[C@@H](O)[C@@H](O)[C@@H]4O)cc3O2)cc1O
REMARK SMILES IDX 19 1 32 2 34 3 36 4 17 5 18 6 20 7 21 8 22 9 25 10 24 11
REMARK SMILES IDX 26 12 23 13 28 14 30 15 27 16 29 18 31 20 33 22 35 24 16 26
REMARK SMILES IDX 15 27 14 28 38 29 12 30 39 31 11 32 40 33 9 34 7 35 10 36
REMARK SMILES IDX 8 37 13 38 6 40 41 41 5 42 42 43 4 44 3 45 43 46 2 48 1 49
REMARK SMILES IDX 37 50
REMARK H PARENT 27 17 29 19 31 21 33 23 35 25 13 39 43 47 37 51
REMARK Flexibility Score: inf
ROOT
ATOM      1  C   UNL     1      33.215  -6.943 -30.554  1.00  0.00     0.180 C 
ATOM      2  C   UNL     1      33.095  -7.233 -32.042  1.00  0.00     0.177 C 
ATOM      3  C   UNL     1      31.614  -7.272 -32.413  1.00  0.00     0.180 C 
ATOM      4  C   UNL     1      30.924  -5.942 -32.007  1.00  0.00     0.214 C 
ATOM      5  C   UNL     1      31.263  -5.390 -30.594  1.00  0.00     0.339 C 
ATOM      6  O   UNL     1      32.649  -5.681 -30.177  1.00  0.00    -0.332 OA
ENDROOT
BRANCH   1   7
ATOM      7  C   UNL     1      32.778  -8.037 -29.584  1.00  0.00     0.198 C 
BRANCH   7   8
ATOM      8  O   UNL     1      32.742  -7.604 -28.212  1.00  0.00    -0.347 OA
BRANCH   8   9
ATOM      9  C   UNL     1      32.683  -8.658 -27.268  1.00  0.00     0.281 C 
ATOM     10  C   UNL     1      34.114  -7.243 -24.211  1.00  0.00     0.041 C 
ATOM     11  C   UNL     1      33.027  -8.109 -24.915  1.00  0.00     0.150 C 
ATOM     12  C   UNL     1      31.624  -7.370 -24.933  1.00  0.00     0.174 C 
ATOM     13  O   UNL     1      33.585  -8.501 -26.160  1.00  0.00    -0.344 OA
ATOM     14  C   UNL     1      30.703  -7.684 -26.132  1.00  0.00     0.179 C 
ATOM     15  C   UNL     1      31.215  -8.905 -26.880  1.00  0.00     0.202 C 
BRANCH  12  16
ATOM     16  O   UNL     1      31.774  -5.980 -24.834  1.00  0.00    -0.388 OA
ATOM     17  H   UNL     1      32.740  -5.793 -24.747  1.00  0.00     0.211 HD
ENDBRANCH  12  16
BRANCH  14  18
ATOM     18  O   UNL     1      29.381  -7.900 -25.673  1.00  0.00    -0.387 OA
ATOM     19  H   UNL     1      29.469  -8.642 -25.048  1.00  0.00     0.211 HD
ENDBRANCH  14  18
BRANCH  15  20
ATOM     20  O   UNL     1      31.090 -10.086 -26.156  1.00  0.00    -0.385 OA
ATOM     21  H   UNL     1      30.930  -9.835 -25.214  1.00  0.00     0.211 HD
ENDBRANCH  15  20
ENDBRANCH   8   9
ENDBRANCH   7   8
ENDBRANCH   1   7
BRANCH   2  22
ATOM     22  O   UNL     1      33.749  -8.437 -32.462  1.00  0.00    -0.387 OA
ATOM     23  H   UNL     1      33.021  -9.119 -32.614  1.00  0.00     0.211 HD
ENDBRANCH   2  22
BRANCH   3  24
ATOM     24  O   UNL     1      31.017  -8.401 -31.792  1.00  0.00    -0.387 OA
ATOM     25  H   UNL     1      31.750  -8.885 -31.323  1.00  0.00     0.211 HD
ENDBRANCH   3  24
BRANCH   5  26
ATOM     26  O   UNL     1      30.344  -5.770 -29.521  1.00  0.00    -0.462 OA
BRANCH  26  27
ATOM     27  C   UNL     1      28.979  -6.198 -29.655  1.00  0.00     0.130 A 
ATOM     28  C   UNL     1      28.411  -7.251 -28.928  1.00  0.00     0.093 A 
ATOM     29  C   UNL     1      28.098  -5.199 -30.074  1.00  0.00     0.094 A 
ATOM     30  C   UNL     1      27.091  -7.053 -28.299  1.00  0.00     0.133 A 
ATOM     31  C   UNL     1      27.046  -4.869 -29.234  1.00  0.00     0.138 A 
ATOM     32  C   UNL     1      26.291  -5.853 -28.485  1.00  0.00     0.102 A 
ATOM     33  O   UNL     1      27.105  -3.580 -28.712  1.00  0.00    -0.484 OA
ATOM     34  C   UNL     1      25.707  -5.228 -27.241  1.00  0.00     0.174 C 
ATOM     35  C   UNL     1      27.228  -3.345 -27.248  1.00  0.00     0.211 C 
ATOM     36  O   UNL     1      24.633  -4.510 -27.162  1.00  0.00    -0.294 OA
ATOM     37  C   UNL     1      26.848  -4.685 -26.499  1.00  0.00     0.131 C 
BRANCH  30  38
ATOM     38  O   UNL     1      26.905  -7.781 -27.112  1.00  0.00    -0.507 OA
ATOM     39  H   UNL     1      27.145  -8.765 -27.021  1.00  0.00     0.293 HD
ENDBRANCH  30  38
BRANCH  35  40
ATOM     40  C   UNL     1      28.577  -2.830 -26.847  1.00  0.00    -0.003 A 
ATOM     41  C   UNL     1      29.661  -3.775 -26.685  1.00  0.00     0.057 A 
ATOM     42  C   UNL     1      28.935  -1.675 -27.558  1.00  0.00     0.011 A 
ATOM     43  C   UNL     1      30.911  -3.550 -27.355  1.00  0.00     0.158 A 
ATOM     44  C   UNL     1      29.835  -1.866 -28.640  1.00  0.00     0.051 A 
ATOM     45  C   UNL     1      30.983  -2.497 -28.348  1.00  0.00     0.160 A 
BRANCH  43  46
ATOM     46  O   UNL     1      32.116  -3.833 -26.713  1.00  0.00    -0.504 OA
ATOM     47  H   UNL     1      32.903  -3.302 -27.138  1.00  0.00     0.293 HD
ENDBRANCH  43  46
BRANCH  45  48
ATOM     48  O   UNL     1      32.112  -1.605 -28.607  1.00  0.00    -0.493 OA
ATOM     49  C   UNL     1      31.941  -0.642 -29.684  1.00  0.00     0.278 C 
ENDBRANCH  45  48
ENDBRANCH  35  40
ENDBRANCH  26  27
ENDBRANCH   5  26
BRANCH   4  50
ATOM     50  O   UNL     1      31.208  -4.939 -32.962  1.00  0.00    -0.384 OA
ATOM     51  H   UNL     1      32.205  -4.945 -33.066  1.00  0.00     0.211 HD
ENDBRANCH   4  50
TORSDOF 15
ENDMDL
MODEL 9
REMARK VINA RESULT:    -5.101      2.657      6.750
REMARK INTER + INTRA:         -12.103
REMARK INTER:                  -9.520
REMARK INTRA:                  -2.583
REMARK UNBOUND:                -3.722
REMARK SMILES COc1ccc([C@@H]2CC(=O)c3c(O)cc(O[C@H]4O[C@@H](CO[C@H]5O[C@@H](C)[C@@H](O)[C@H](O)[C@@H]5O)[C@@H](O)[C@@H](O)[C@@H]4O)cc3O2)cc1O
REMARK SMILES IDX 19 1 32 2 34 3 36 4 17 5 18 6 20 7 21 8 22 9 25 10 24 11
REMARK SMILES IDX 26 12 23 13 28 14 30 15 27 16 29 18 31 20 33 22 35 24 16 26
REMARK SMILES IDX 15 27 14 28 38 29 12 30 39 31 11 32 40 33 9 34 7 35 10 36
REMARK SMILES IDX 8 37 13 38 6 40 41 41 5 42 42 43 4 44 3 45 43 46 2 48 1 49
REMARK SMILES IDX 37 50
REMARK H PARENT 27 17 29 19 31 21 33 23 35 25 13 39 43 47 37 51
REMARK Flexibility Score: inf
ROOT
ATOM      1  C   UNL     1      27.886  -5.065 -27.292  1.00  0.00     0.180 C 
ATOM      2  C   UNL     1      27.607  -3.630 -27.711  1.00  0.00     0.177 C 
ATOM      3  C   UNL     1      26.159  -3.293 -27.361  1.00  0.00     0.180 C 
ATOM      4  C   UNL     1      25.902  -3.534 -25.849  1.00  0.00     0.214 C 
ATOM      5  C   UNL     1      26.461  -4.857 -25.256  1.00  0.00     0.339 C 
ATOM      6  O   UNL     1      27.726  -5.285 -25.884  1.00  0.00    -0.332 OA
ENDROOT
BRANCH   1   7
ATOM      7  C   UNL     1      27.207  -6.177 -28.088  1.00  0.00     0.198 C 
BRANCH   7   8
ATOM      8  O   UNL     1      28.115  -6.920 -28.921  1.00  0.00    -0.347 OA
BRANCH   8   9
ATOM      9  C   UNL     1      28.003  -6.635 -30.304  1.00  0.00     0.281 C 
ATOM     10  C   UNL     1      30.687  -4.237 -30.972  1.00  0.00     0.041 C 
ATOM     11  C   UNL     1      29.867  -5.493 -31.391  1.00  0.00     0.150 C 
ATOM     12  C   UNL     1      30.717  -6.821 -31.217  1.00  0.00     0.174 C 
ATOM     13  O   UNL     1      28.632  -5.403 -30.699  1.00  0.00    -0.344 OA
ATOM     14  C   UNL     1      29.923  -8.100 -30.877  1.00  0.00     0.179 C 
ATOM     15  C   UNL     1      28.437  -7.871 -31.110  1.00  0.00     0.202 C 
BRANCH  12  16
ATOM     16  O   UNL     1      31.735  -6.658 -30.267  1.00  0.00    -0.388 OA
ATOM     17  H   UNL     1      32.519  -6.285 -30.736  1.00  0.00     0.211 HD
ENDBRANCH  12  16
BRANCH  14  18
ATOM     18  O   UNL     1      30.390  -9.176 -31.671  1.00  0.00    -0.387 OA
ATOM     19  H   UNL     1      29.616  -9.763 -31.747  1.00  0.00     0.211 HD
ENDBRANCH  14  18
BRANCH  15  20
ATOM     20  O   UNL     1      28.107  -7.725 -32.452  1.00  0.00    -0.385 OA
ATOM     21  H   UNL     1      28.952  -7.600 -32.949  1.00  0.00     0.211 HD
ENDBRANCH  15  20
ENDBRANCH   8   9
ENDBRANCH   7   8
ENDBRANCH   1   7
BRANCH   2  22
ATOM     22  O   UNL     1      27.865  -3.359 -29.094  1.00  0.00    -0.387 OA
ATOM     23  H   UNL     1      28.866  -3.280 -29.189  1.00  0.00     0.211 HD
ENDBRANCH   2  22
BRANCH   3  24
ATOM     24  O   UNL     1      25.298  -4.065 -28.185  1.00  0.00    -0.387 OA
ATOM     25  H   UNL     1      25.233  -3.584 -29.055  1.00  0.00     0.211 HD
ENDBRANCH   3  24
BRANCH   5  26
ATOM     26  O   UNL     1      25.531  -5.986 -25.220  1.00  0.00    -0.462 OA
BRANCH  26  27
ATOM     27  C   UNL     1      24.363  -6.125 -24.395  1.00  0.00     0.130 A 
ATOM     28  C   UNL     1      23.143  -6.648 -24.842  1.00  0.00     0.093 A 
ATOM     29  C   UNL     1      24.631  -6.279 -23.034  1.00  0.00     0.094 A 
ATOM     30  C   UNL     1      22.451  -7.653 -24.013  1.00  0.00     0.133 A 
ATOM     31  C   UNL     1      24.195  -7.440 -22.414  1.00  0.00     0.138 A 
ATOM     32  C   UNL     1      22.914  -8.054 -22.694  1.00  0.00     0.102 A 
ATOM     33  O   UNL     1      25.215  -8.271 -21.962  1.00  0.00    -0.484 OA
ATOM     34  C   UNL     1      22.974  -9.538 -22.419  1.00  0.00     0.174 C 
ATOM     35  C   UNL     1      25.391  -9.644 -22.508  1.00  0.00     0.211 C 
ATOM     36  O   UNL     1      22.874 -10.120 -21.268  1.00  0.00    -0.294 OA
ATOM     37  C   UNL     1      24.060 -10.050 -23.260  1.00  0.00     0.131 C 
BRANCH  30  38
ATOM     38  O   UNL     1      21.695  -8.581 -24.748  1.00  0.00    -0.507 OA
ATOM     39  H   UNL     1      21.504  -8.480 -25.741  1.00  0.00     0.293 HD
ENDBRANCH  30  38
BRANCH  35  40
ATOM     40  C   UNL     1      26.602  -9.779 -23.381  1.00  0.00    -0.003 A 
ATOM     41  C   UNL     1      27.041  -8.629 -24.142  1.00  0.00     0.057 A 
ATOM     42  C   UNL     1      27.645 -10.461 -22.736  1.00  0.00     0.011 A 
ATOM     43  C   UNL     1      28.410  -8.201 -24.065  1.00  0.00     0.158 A 
ATOM     44  C   UNL     1      28.681  -9.651 -22.203  1.00  0.00     0.051 A 
ATOM     45  C   UNL     1      29.265  -8.799 -23.061  1.00  0.00     0.160 A 
BRANCH  43  46
ATOM     46  O   UNL     1      29.072  -7.751 -25.206  1.00  0.00    -0.504 OA
ATOM     47  H   UNL     1      28.713  -8.220 -26.061  1.00  0.00     0.293 HD
ENDBRANCH  43  46
BRANCH  45  48
ATOM     48  O   UNL     1      30.682  -9.134 -23.195  1.00  0.00    -0.493 OA
ATOM     49  C   UNL     1      30.990 -10.376 -23.889  1.00  0.00     0.278 C 
ENDBRANCH  45  48
ENDBRANCH  35  40
ENDBRANCH  26  27
ENDBRANCH   5  26
BRANCH   4  50
ATOM     50  O   UNL     1      26.409  -2.452 -25.095  1.00  0.00    -0.384 OA
ATOM     51  H   UNL     1      25.821  -1.671 -25.318  1.00  0.00     0.211 HD
ENDBRANCH   4  50
TORSDOF 15
ENDMDL
