MODEL 1
REMARK VINA RESULT:    -4.762      0.000      0.000
REMARK INTER + INTRA:          -6.059
REMARK INTER:                  -5.736
REMARK INTRA:                  -0.323
REMARK UNBOUND:                -0.323
REMARK SMILES O=c1c(O)c(-c2ccc(O)c(O)c2)oc2cc(O)cc(O)c12
REMARK SMILES IDX 5 1 3 2 2 3 1 4 22 5 20 6 19 7 17 8 16 9 15 10 14 11 6 12
REMARK SMILES IDX 7 13 8 14 9 15 13 16 11 17 10 18 12 20 4 22 21 24 18 26
REMARK H PARENT 10 19 12 21 4 23 21 25 18 27
REMARK Flexibility Score: inf
ROOT
ATOM      1  C   UNL     1      -6.822 -12.749  25.402  1.00  0.00     0.180 A 
ATOM      2  C   UNL     1      -6.633 -14.141  25.363  1.00  0.00     0.208 A 
ATOM      3  C   UNL     1      -6.461 -14.839  26.570  1.00  0.00     0.238 A 
ATOM      4  O   UNL     1      -6.347 -16.091  26.534  1.00  0.00    -0.285 OA
ATOM      5  C   UNL     1      -6.461 -14.132  27.798  1.00  0.00     0.111 A 
ATOM      6  C   UNL     1      -6.255 -14.731  29.077  1.00  0.00     0.134 A 
ATOM      7  C   UNL     1      -6.406 -13.956  30.234  1.00  0.00     0.093 A 
ATOM      8  C   UNL     1      -6.692 -12.594  30.157  1.00  0.00     0.123 A 
ATOM      9  C   UNL     1      -6.836 -11.985  28.909  1.00  0.00     0.094 A 
ATOM     10  C   UNL     1      -6.728 -12.739  27.737  1.00  0.00     0.146 A 
ATOM     11  O   UNL     1      -6.883 -12.124  26.571  1.00  0.00    -0.452 OA
ENDROOT
BRANCH   1  12
ATOM     12  C   UNL     1      -6.986 -11.943  24.169  1.00  0.00     0.025 A 
ATOM     13  C   UNL     1      -5.875 -11.508  23.426  1.00  0.00     0.016 A 
ATOM     14  C   UNL     1      -6.053 -10.727  22.281  1.00  0.00     0.051 A 
ATOM     15  C   UNL     1      -7.338 -10.360  21.868  1.00  0.00     0.157 A 
ATOM     16  C   UNL     1      -8.273 -11.555  23.764  1.00  0.00     0.062 A 
ATOM     17  C   UNL     1      -8.454 -10.772  22.615  1.00  0.00     0.158 A 
BRANCH  15  18
ATOM     18  O   UNL     1      -7.484  -9.583  20.719  1.00  0.00    -0.504 OA
ATOM     19  H   UNL     1      -8.356  -9.542  20.206  1.00  0.00     0.293 HD
ENDBRANCH  15  18
BRANCH  17  20
ATOM     20  O   UNL     1      -9.737 -10.403  22.213  1.00  0.00    -0.504 OA
ATOM     21  H   UNL     1     -10.410 -10.022  22.868  1.00  0.00     0.293 HD
ENDBRANCH  17  20
ENDBRANCH   1  12
BRANCH   2  22
ATOM     22  O   UNL     1      -6.659 -14.822  24.143  1.00  0.00    -0.502 OA
ATOM     23  H   UNL     1      -6.905 -15.802  24.071  1.00  0.00     0.293 HD
ENDBRANCH   2  22
BRANCH   6  24
ATOM     24  O   UNL     1      -5.875 -16.063  29.263  1.00  0.00    -0.507 OA
ATOM     25  H   UNL     1      -4.981 -16.361  29.623  1.00  0.00     0.293 HD
ENDBRANCH   6  24
BRANCH   8  26
ATOM     26  O   UNL     1      -6.820 -11.851  31.328  1.00  0.00    -0.508 OA
ATOM     27  H   UNL     1      -6.357 -12.129  32.186  1.00  0.00     0.293 HD
ENDBRANCH   8  26
TORSDOF 6
ENDMDL
MODEL 2
REMARK VINA RESULT:    -4.676      3.126      7.302
REMARK INTER + INTRA:          -5.956
REMARK INTER:                  -6.490
REMARK INTRA:                   0.534
REMARK UNBOUND:                -0.323
REMARK SMILES O=c1c(O)c(-c2ccc(O)c(O)c2)oc2cc(O)cc(O)c12
REMARK SMILES IDX 5 1 3 2 2 3 1 4 22 5 20 6 19 7 17 8 16 9 15 10 14 11 6 12
REMARK SMILES IDX 7 13 8 14 9 15 13 16 11 17 10 18 12 20 4 22 21 24 18 26
REMARK H PARENT 10 19 12 21 4 23 21 25 18 27
REMARK Flexibility Score: inf
ROOT
ATOM      1  C   UNL     1      -6.337 -13.677  29.257  1.00  0.00     0.180 A 
ATOM      2  C   UNL     1      -6.591 -12.759  28.224  1.00  0.00     0.208 A 
ATOM      3  C   UNL     1      -6.607 -13.215  26.896  1.00  0.00     0.238 A 
ATOM      4  O   UNL     1      -6.889 -12.401  25.980  1.00  0.00    -0.285 OA
ATOM      5  C   UNL     1      -6.350 -14.580  26.618  1.00  0.00     0.111 A 
ATOM      6  C   UNL     1      -6.301 -15.143  25.307  1.00  0.00     0.134 A 
ATOM      7  C   UNL     1      -6.169 -16.529  25.157  1.00  0.00     0.093 A 
ATOM      8  C   UNL     1      -6.020 -17.363  26.264  1.00  0.00     0.123 A 
ATOM      9  C   UNL     1      -6.006 -16.816  27.548  1.00  0.00     0.094 A 
ATOM     10  C   UNL     1      -6.173 -15.440  27.732  1.00  0.00     0.146 A 
ATOM     11  O   UNL     1      -6.165 -14.961  28.970  1.00  0.00    -0.452 OA
ENDROOT
BRANCH   1  12
ATOM     12  C   UNL     1      -6.280 -13.265  30.680  1.00  0.00     0.025 A 
ATOM     13  C   UNL     1      -5.905 -14.169  31.688  1.00  0.00     0.016 A 
ATOM     14  C   UNL     1      -5.883 -13.765  33.026  1.00  0.00     0.051 A 
ATOM     15  C   UNL     1      -6.246 -12.461  33.377  1.00  0.00     0.157 A 
ATOM     16  C   UNL     1      -6.665 -11.963  31.038  1.00  0.00     0.062 A 
ATOM     17  C   UNL     1      -6.643 -11.556  32.380  1.00  0.00     0.158 A 
BRANCH  15  18
ATOM     18  O   UNL     1      -6.212 -12.086  34.720  1.00  0.00    -0.504 OA
ATOM     19  H   UNL     1      -6.648 -12.643  35.445  1.00  0.00     0.293 HD
ENDBRANCH  15  18
BRANCH  17  20
ATOM     20  O   UNL     1      -7.014 -10.256  32.723  1.00  0.00    -0.504 OA
ATOM     21  H   UNL     1      -6.497  -9.721  33.411  1.00  0.00     0.293 HD
ENDBRANCH  17  20
ENDBRANCH   1  12
BRANCH   2  22
ATOM     22  O   UNL     1      -6.864 -11.420  28.522  1.00  0.00    -0.502 OA
ATOM     23  H   UNL     1      -6.545 -10.976  29.375  1.00  0.00     0.293 HD
ENDBRANCH   2  22
BRANCH   6  24
ATOM     24  O   UNL     1      -6.348 -14.390  24.131  1.00  0.00    -0.507 OA
ATOM     25  H   UNL     1      -6.089 -14.732  23.218  1.00  0.00     0.293 HD
ENDBRANCH   6  24
BRANCH   8  26
ATOM     26  O   UNL     1      -5.875 -18.737  26.077  1.00  0.00    -0.508 OA
ATOM     27  H   UNL     1      -5.071 -19.238  26.435  1.00  0.00     0.293 HD
ENDBRANCH   8  26
TORSDOF 6
ENDMDL
MODEL 3
REMARK VINA RESULT:    -4.620      2.892      7.749
REMARK INTER + INTRA:          -5.888
REMARK INTER:                  -6.201
REMARK INTRA:                   0.313
REMARK UNBOUND:                -0.323
REMARK SMILES O=c1c(O)c(-c2ccc(O)c(O)c2)oc2cc(O)cc(O)c12
REMARK SMILES IDX 5 1 3 2 2 3 1 4 22 5 20 6 19 7 17 8 16 9 15 10 14 11 6 12
REMARK SMILES IDX 7 13 8 14 9 15 13 16 11 17 10 18 12 20 4 22 21 24 18 26
REMARK H PARENT 10 19 12 21 4 23 21 25 18 27
REMARK Flexibility Score: inf
ROOT
ATOM      1  C   UNL     1      -6.283 -11.995  31.150  1.00  0.00     0.180 A 
ATOM      2  C   UNL     1      -6.121 -13.352  31.476  1.00  0.00     0.208 A 
ATOM      3  C   UNL     1      -6.076 -14.300  30.440  1.00  0.00     0.238 A 
ATOM      4  O   UNL     1      -5.877 -15.507  30.733  1.00  0.00    -0.285 OA
ATOM      5  C   UNL     1      -6.211 -13.879  29.095  1.00  0.00     0.111 A 
ATOM      6  C   UNL     1      -6.220 -14.757  27.969  1.00  0.00     0.134 A 
ATOM      7  C   UNL     1      -6.228 -14.220  26.675  1.00  0.00     0.093 A 
ATOM      8  C   UNL     1      -6.291 -12.843  26.467  1.00  0.00     0.123 A 
ATOM      9  C   UNL     1      -6.343 -11.978  27.561  1.00  0.00     0.094 A 
ATOM     10  C   UNL     1      -6.300 -12.482  28.864  1.00  0.00     0.146 A 
ATOM     11  O   UNL     1      -6.341 -11.624  29.877  1.00  0.00    -0.452 OA
ENDROOT
BRANCH   1  12
ATOM     12  C   UNL     1      -6.364 -10.941  32.188  1.00  0.00     0.025 A 
ATOM     13  C   UNL     1      -5.875  -9.644  31.955  1.00  0.00     0.016 A 
ATOM     14  C   UNL     1      -5.940  -8.673  32.958  1.00  0.00     0.051 A 
ATOM     15  C   UNL     1      -6.481  -8.984  34.210  1.00  0.00     0.157 A 
ATOM     16  C   UNL     1      -6.888 -11.256  33.453  1.00  0.00     0.062 A 
ATOM     17  C   UNL     1      -6.954 -10.283  34.461  1.00  0.00     0.158 A 
BRANCH  15  18
ATOM     18  O   UNL     1      -6.535  -7.994  35.190  1.00  0.00    -0.504 OA
ATOM     19  H   UNL     1      -7.204  -8.025  35.949  1.00  0.00     0.293 HD
ENDBRANCH  15  18
BRANCH  17  20
ATOM     20  O   UNL     1      -7.488 -10.602  35.709  1.00  0.00    -0.504 OA
ATOM     21  H   UNL     1      -8.488 -10.667  35.858  1.00  0.00     0.293 HD
ENDBRANCH  17  20
ENDBRANCH   1  12
BRANCH   2  22
ATOM     22  O   UNL     1      -5.968 -13.743  32.809  1.00  0.00    -0.502 OA
ATOM     23  H   UNL     1      -5.474 -14.586  33.076  1.00  0.00     0.293 HD
ENDBRANCH   2  22
BRANCH   6  24
ATOM     24  O   UNL     1      -6.251 -16.151  28.066  1.00  0.00    -0.507 OA
ATOM     25  H   UNL     1      -6.080 -16.785  27.300  1.00  0.00     0.293 HD
ENDBRANCH   6  24
BRANCH   8  26
ATOM     26  O   UNL     1      -6.313 -12.345  25.166  1.00  0.00    -0.508 OA
ATOM     27  H   UNL     1      -5.461 -12.219  24.633  1.00  0.00     0.293 HD
ENDBRANCH   8  26
TORSDOF 6
ENDMDL
MODEL 4
REMARK VINA RESULT:    -4.594      2.707      4.989
REMARK INTER + INTRA:          -5.857
REMARK INTER:                  -6.254
REMARK INTRA:                   0.398
REMARK UNBOUND:                -0.323
REMARK SMILES O=c1c(O)c(-c2ccc(O)c(O)c2)oc2cc(O)cc(O)c12
REMARK SMILES IDX 5 1 3 2 2 3 1 4 22 5 20 6 19 7 17 8 16 9 15 10 14 11 6 12
REMARK SMILES IDX 7 13 8 14 9 15 13 16 11 17 10 18 12 20 4 22 21 24 18 26
REMARK H PARENT 10 19 12 21 4 23 21 25 18 27
REMARK Flexibility Score: inf
ROOT
ATOM      1  C   UNL     1      -6.324 -13.650  29.814  1.00  0.00     0.180 A 
ATOM      2  C   UNL     1      -6.075 -14.835  30.527  1.00  0.00     0.208 A 
ATOM      3  C   UNL     1      -6.072 -14.797  31.931  1.00  0.00     0.238 A 
ATOM      4  O   UNL     1      -5.903 -15.871  32.564  1.00  0.00    -0.285 OA
ATOM      5  C   UNL     1      -6.300 -13.571  32.602  1.00  0.00     0.111 A 
ATOM      6  C   UNL     1      -6.280 -13.409  34.021  1.00  0.00     0.134 A 
ATOM      7  C   UNL     1      -6.648 -12.179  34.580  1.00  0.00     0.093 A 
ATOM      8  C   UNL     1      -6.972 -11.089  33.773  1.00  0.00     0.123 A 
ATOM      9  C   UNL     1      -6.938 -11.220  32.384  1.00  0.00     0.094 A 
ATOM     10  C   UNL     1      -6.610 -12.445  31.797  1.00  0.00     0.146 A 
ATOM     11  O   UNL     1      -6.599 -12.530  30.472  1.00  0.00    -0.452 OA
ENDROOT
BRANCH   1  12
ATOM     12  C   UNL     1      -6.319 -13.606  28.333  1.00  0.00     0.025 A 
ATOM     13  C   UNL     1      -6.097 -12.406  27.637  1.00  0.00     0.016 A 
ATOM     14  C   UNL     1      -6.122 -12.385  26.240  1.00  0.00     0.051 A 
ATOM     15  C   UNL     1      -6.381 -13.555  25.519  1.00  0.00     0.157 A 
ATOM     16  C   UNL     1      -6.599 -14.775  27.607  1.00  0.00     0.062 A 
ATOM     17  C   UNL     1      -6.624 -14.756  26.205  1.00  0.00     0.158 A 
BRANCH  15  18
ATOM     18  O   UNL     1      -6.396 -13.503  24.125  1.00  0.00    -0.504 OA
ATOM     19  H   UNL     1      -5.834 -12.839  23.606  1.00  0.00     0.293 HD
ENDBRANCH  15  18
BRANCH  17  20
ATOM     20  O   UNL     1      -6.890 -15.925  25.493  1.00  0.00    -0.504 OA
ATOM     21  H   UNL     1      -6.597 -16.038  24.529  1.00  0.00     0.293 HD
ENDBRANCH  17  20
ENDBRANCH   1  12
BRANCH   2  22
ATOM     22  O   UNL     1      -5.875 -16.038  29.845  1.00  0.00    -0.502 OA
ATOM     23  H   UNL     1      -5.353 -16.810  30.243  1.00  0.00     0.293 HD
ENDBRANCH   2  22
BRANCH   6  24
ATOM     24  O   UNL     1      -5.881 -14.406  34.915  1.00  0.00    -0.507 OA
ATOM     25  H   UNL     1      -5.270 -14.260  35.705  1.00  0.00     0.293 HD
ENDBRANCH   6  24
BRANCH   8  26
ATOM     26  O   UNL     1      -7.319  -9.875  34.364  1.00  0.00    -0.508 OA
ATOM     27  H   UNL     1      -6.619  -9.262  34.765  1.00  0.00     0.293 HD
ENDBRANCH   8  26
TORSDOF 6
ENDMDL
MODEL 5
REMARK VINA RESULT:    -4.423      4.507     10.286
REMARK INTER + INTRA:          -5.651
REMARK INTER:                  -5.499
REMARK INTRA:                  -0.153
REMARK UNBOUND:                -0.323
REMARK SMILES O=c1c(O)c(-c2ccc(O)c(O)c2)oc2cc(O)cc(O)c12
REMARK SMILES IDX 5 1 3 2 2 3 1 4 22 5 20 6 19 7 17 8 16 9 15 10 14 11 6 12
REMARK SMILES IDX 7 13 8 14 9 15 13 16 11 17 10 18 12 20 4 22 21 24 18 26
REMARK H PARENT 10 19 12 21 4 23 21 25 18 27
REMARK Flexibility Score: inf
ROOT
ATOM      1  C   UNL     1      -7.040 -13.171  33.818  1.00  0.00     0.180 A 
ATOM      2  C   UNL     1      -6.786 -11.791  33.895  1.00  0.00     0.208 A 
ATOM      3  C   UNL     1      -6.561 -11.073  32.709  1.00  0.00     0.238 A 
ATOM      4  O   UNL     1      -6.387  -9.829  32.778  1.00  0.00    -0.285 OA
ATOM      5  C   UNL     1      -6.576 -11.748  31.464  1.00  0.00     0.111 A 
ATOM      6  C   UNL     1      -6.321 -11.128  30.203  1.00  0.00     0.134 A 
ATOM      7  C   UNL     1      -6.492 -11.865  29.025  1.00  0.00     0.093 A 
ATOM      8  C   UNL     1      -6.844 -13.213  29.063  1.00  0.00     0.123 A 
ATOM      9  C   UNL     1      -7.038 -13.845  30.292  1.00  0.00     0.094 A 
ATOM     10  C   UNL     1      -6.911 -13.127  31.484  1.00  0.00     0.146 A 
ATOM     11  O   UNL     1      -7.113 -13.763  32.632  1.00  0.00    -0.452 OA
ENDROOT
BRANCH   1  12
ATOM     12  C   UNL     1      -7.262 -13.999  35.026  1.00  0.00     0.025 A 
ATOM     13  C   UNL     1      -6.384 -15.041  35.371  1.00  0.00     0.016 A 
ATOM     14  C   UNL     1      -6.628 -15.825  36.502  1.00  0.00     0.051 A 
ATOM     15  C   UNL     1      -7.754 -15.590  37.296  1.00  0.00     0.157 A 
ATOM     16  C   UNL     1      -8.404 -13.779  35.814  1.00  0.00     0.062 A 
ATOM     17  C   UNL     1      -8.650 -14.565  36.950  1.00  0.00     0.158 A 
BRANCH  15  18
ATOM     18  O   UNL     1      -7.969 -16.386  38.421  1.00  0.00    -0.504 OA
ATOM     19  H   UNL     1      -8.483 -17.257  38.372  1.00  0.00     0.293 HD
ENDBRANCH  15  18
BRANCH  17  20
ATOM     20  O   UNL     1      -9.779 -14.329  37.733  1.00  0.00    -0.504 OA
ATOM     21  H   UNL     1      -9.791 -14.539  38.724  1.00  0.00     0.293 HD
ENDBRANCH  17  20
ENDBRANCH   1  12
BRANCH   2  22
ATOM     22  O   UNL     1      -6.797 -11.141  35.132  1.00  0.00    -0.502 OA
ATOM     23  H   UNL     1      -6.958 -11.631  36.004  1.00  0.00     0.293 HD
ENDBRANCH   2  22
BRANCH   6  24
ATOM     24  O   UNL     1      -5.875  -9.811  30.057  1.00  0.00    -0.507 OA
ATOM     25  H   UNL     1      -6.388  -8.994  30.351  1.00  0.00     0.293 HD
ENDBRANCH   6  24
BRANCH   8  26
ATOM     26  O   UNL     1      -6.990 -13.920  27.870  1.00  0.00    -0.508 OA
ATOM     27  H   UNL     1      -6.571 -14.833  27.741  1.00  0.00     0.293 HD
ENDBRANCH   8  26
TORSDOF 6
ENDMDL
MODEL 6
REMARK VINA RESULT:    -4.406      2.201      7.090
REMARK INTER + INTRA:          -5.630
REMARK INTER:                  -6.092
REMARK INTRA:                   0.462
REMARK UNBOUND:                -0.323
REMARK SMILES O=c1c(O)c(-c2ccc(O)c(O)c2)oc2cc(O)cc(O)c12
REMARK SMILES IDX 5 1 3 2 2 3 1 4 22 5 20 6 19 7 17 8 16 9 15 10 14 11 6 12
REMARK SMILES IDX 7 13 8 14 9 15 13 16 11 17 10 18 12 20 4 22 21 24 18 26
REMARK H PARENT 10 19 12 21 4 23 21 25 18 27
REMARK Flexibility Score: inf
ROOT
ATOM      1  C   UNL     1      -6.172 -13.895  29.405  1.00  0.00     0.180 A 
ATOM      2  C   UNL     1      -6.043 -15.267  29.132  1.00  0.00     0.208 A 
ATOM      3  C   UNL     1      -6.045 -15.699  27.795  1.00  0.00     0.238 A 
ATOM      4  O   UNL     1      -5.875 -16.922  27.555  1.00  0.00    -0.285 OA
ATOM      5  C   UNL     1      -6.194 -14.754  26.751  1.00  0.00     0.111 A 
ATOM      6  C   UNL     1      -6.251 -15.084  25.363  1.00  0.00     0.134 A 
ATOM      7  C   UNL     1      -6.268 -14.058  24.410  1.00  0.00     0.093 A 
ATOM      8  C   UNL     1      -6.297 -12.718  24.795  1.00  0.00     0.123 A 
ATOM      9  C   UNL     1      -6.302 -12.385  26.150  1.00  0.00     0.094 A 
ATOM     10  C   UNL     1      -6.248 -13.386  27.124  1.00  0.00     0.146 A 
ATOM     11  O   UNL     1      -6.244 -13.027  28.402  1.00  0.00    -0.452 OA
ENDROOT
BRANCH   1  12
ATOM     12  C   UNL     1      -6.203 -13.367  30.789  1.00  0.00     0.025 A 
ATOM     13  C   UNL     1      -5.922 -14.191  31.892  1.00  0.00     0.016 A 
ATOM     14  C   UNL     1      -5.982 -13.677  33.191  1.00  0.00     0.051 A 
ATOM     15  C   UNL     1      -6.334 -12.341  33.407  1.00  0.00     0.157 A 
ATOM     16  C   UNL     1      -6.577 -12.031  31.011  1.00  0.00     0.062 A 
ATOM     17  C   UNL     1      -6.637 -11.514  32.313  1.00  0.00     0.158 A 
BRANCH  15  18
ATOM     18  O   UNL     1      -6.382 -11.856  34.714  1.00  0.00    -0.504 OA
ATOM     19  H   UNL     1      -6.548 -10.878  34.919  1.00  0.00     0.293 HD
ENDBRANCH  15  18
BRANCH  17  20
ATOM     20  O   UNL     1      -6.996 -10.183  32.522  1.00  0.00    -0.504 OA
ATOM     21  H   UNL     1      -6.745  -9.692  33.372  1.00  0.00     0.293 HD
ENDBRANCH  17  20
ENDBRANCH   1  12
BRANCH   2  22
ATOM     22  O   UNL     1      -5.875 -16.180  30.177  1.00  0.00    -0.502 OA
ATOM     23  H   UNL     1      -5.089 -16.817  30.222  1.00  0.00     0.293 HD
ENDBRANCH   2  22
BRANCH   6  24
ATOM     24  O   UNL     1      -6.320 -16.391  24.873  1.00  0.00    -0.507 OA
ATOM     25  H   UNL     1      -6.074 -17.217  25.399  1.00  0.00     0.293 HD
ENDBRANCH   6  24
BRANCH   8  26
ATOM     26  O   UNL     1      -6.329 -11.723  23.819  1.00  0.00    -0.508 OA
ATOM     27  H   UNL     1      -5.545 -11.564  23.199  1.00  0.00     0.293 HD
ENDBRANCH   8  26
TORSDOF 6
ENDMDL
MODEL 7
REMARK VINA RESULT:    -4.231      3.372      5.329
REMARK INTER + INTRA:          -5.420
REMARK INTER:                  -5.815
REMARK INTRA:                   0.396
REMARK UNBOUND:                -0.323
REMARK SMILES O=c1c(O)c(-c2ccc(O)c(O)c2)oc2cc(O)cc(O)c12
REMARK SMILES IDX 5 1 3 2 2 3 1 4 22 5 20 6 19 7 17 8 16 9 15 10 14 11 6 12
REMARK SMILES IDX 7 13 8 14 9 15 13 16 11 17 10 18 12 20 4 22 21 24 18 26
REMARK H PARENT 10 19 12 21 4 23 21 25 18 27
REMARK Flexibility Score: inf
ROOT
ATOM      1  C   UNL     1      -6.218 -13.890  28.833  1.00  0.00     0.180 A 
ATOM      2  C   UNL     1      -6.068 -12.514  28.592  1.00  0.00     0.208 A 
ATOM      3  C   UNL     1      -6.073 -11.627  29.681  1.00  0.00     0.238 A 
ATOM      4  O   UNL     1      -5.884 -10.402  29.465  1.00  0.00    -0.285 OA
ATOM      5  C   UNL     1      -6.247 -12.127  30.994  1.00  0.00     0.111 A 
ATOM      6  C   UNL     1      -6.310 -11.316  32.168  1.00  0.00     0.134 A 
ATOM      7  C   UNL     1      -6.353 -11.927  33.427  1.00  0.00     0.093 A 
ATOM      8  C   UNL     1      -6.401 -13.314  33.553  1.00  0.00     0.123 A 
ATOM      9  C   UNL     1      -6.401 -14.116  32.411  1.00  0.00     0.094 A 
ATOM     10  C   UNL     1      -6.322 -13.537  31.141  1.00  0.00     0.146 A 
ATOM     11  O   UNL     1      -6.313 -14.334  30.080  1.00  0.00    -0.452 OA
ENDROOT
BRANCH   1  12
ATOM     12  C   UNL     1      -6.247 -14.883  27.733  1.00  0.00     0.025 A 
ATOM     13  C   UNL     1      -5.875 -16.222  27.947  1.00  0.00     0.016 A 
ATOM     14  C   UNL     1      -5.886 -17.135  26.888  1.00  0.00     0.051 A 
ATOM     15  C   UNL     1      -6.254 -16.724  25.603  1.00  0.00     0.157 A 
ATOM     16  C   UNL     1      -6.595 -14.469  26.437  1.00  0.00     0.062 A 
ATOM     17  C   UNL     1      -6.607 -15.384  25.375  1.00  0.00     0.158 A 
BRANCH  15  18
ATOM     18  O   UNL     1      -6.258 -17.659  24.568  1.00  0.00    -0.504 OA
ATOM     19  H   UNL     1      -6.650 -17.451  23.658  1.00  0.00     0.293 HD
ENDBRANCH  15  18
BRANCH  17  20
ATOM     20  O   UNL     1      -6.968 -14.966  24.094  1.00  0.00    -0.504 OA
ATOM     21  H   UNL     1      -6.353 -14.392  23.530  1.00  0.00     0.293 HD
ENDBRANCH  17  20
ENDBRANCH   1  12
BRANCH   2  22
ATOM     22  O   UNL     1      -5.875 -12.044  27.289  1.00  0.00    -0.502 OA
ATOM     23  H   UNL     1      -6.133 -12.583  26.472  1.00  0.00     0.293 HD
ENDBRANCH   2  22
BRANCH   6  24
ATOM     24  O   UNL     1      -6.360  -9.919  32.150  1.00  0.00    -0.507 OA
ATOM     25  H   UNL     1      -6.977  -9.359  32.719  1.00  0.00     0.293 HD
ENDBRANCH   6  24
BRANCH   8  26
ATOM     26  O   UNL     1      -6.459 -13.888  34.822  1.00  0.00    -0.508 OA
ATOM     27  H   UNL     1      -5.962 -14.744  35.040  1.00  0.00     0.293 HD
ENDBRANCH   8  26
TORSDOF 6
ENDMDL
MODEL 8
REMARK VINA RESULT:    -4.168      2.909      5.551
REMARK INTER + INTRA:          -5.343
REMARK INTER:                  -5.814
REMARK INTRA:                   0.471
REMARK UNBOUND:                -0.323
REMARK SMILES O=c1c(O)c(-c2ccc(O)c(O)c2)oc2cc(O)cc(O)c12
REMARK SMILES IDX 5 1 3 2 2 3 1 4 22 5 20 6 19 7 17 8 16 9 15 10 14 11 6 12
REMARK SMILES IDX 7 13 8 14 9 15 13 16 11 17 10 18 12 20 4 22 21 24 18 26
REMARK H PARENT 10 19 12 21 4 23 21 25 18 27
REMARK Flexibility Score: inf
ROOT
ATOM      1  C   UNL     1      -6.057 -13.296  29.617  1.00  0.00     0.180 A 
ATOM      2  C   UNL     1      -6.001 -11.957  30.041  1.00  0.00     0.208 A 
ATOM      3  C   UNL     1      -5.980 -11.679  31.418  1.00  0.00     0.238 A 
ATOM      4  O   UNL     1      -5.875 -10.483  31.792  1.00  0.00    -0.285 OA
ATOM      5  C   UNL     1      -6.033 -12.743  32.351  1.00  0.00     0.111 A 
ATOM      6  C   UNL     1      -6.058 -12.575  33.769  1.00  0.00     0.134 A 
ATOM      7  C   UNL     1      -5.978 -13.701  34.598  1.00  0.00     0.093 A 
ATOM      8  C   UNL     1      -5.939 -14.988  34.064  1.00  0.00     0.123 A 
ATOM      9  C   UNL     1      -5.975 -15.166  32.680  1.00  0.00     0.094 A 
ATOM     10  C   UNL     1      -6.017 -14.061  31.826  1.00  0.00     0.146 A 
ATOM     11  O   UNL     1      -6.039 -14.273  30.515  1.00  0.00    -0.452 OA
ENDROOT
BRANCH   1  12
ATOM     12  C   UNL     1      -6.107 -13.666  28.183  1.00  0.00     0.025 A 
ATOM     13  C   UNL     1      -6.076 -12.688  27.174  1.00  0.00     0.016 A 
ATOM     14  C   UNL     1      -6.150 -13.059  25.829  1.00  0.00     0.051 A 
ATOM     15  C   UNL     1      -6.267 -14.406  25.472  1.00  0.00     0.157 A 
ATOM     16  C   UNL     1      -6.246 -15.016  27.822  1.00  0.00     0.062 A 
ATOM     17  C   UNL     1      -6.319 -15.390  26.473  1.00  0.00     0.158 A 
BRANCH  15  18
ATOM     18  O   UNL     1      -6.336 -14.746  24.121  1.00  0.00    -0.504 OA
ATOM     19  H   UNL     1      -7.178 -14.612  23.575  1.00  0.00     0.293 HD
ENDBRANCH  15  18
BRANCH  17  20
ATOM     20  O   UNL     1      -6.444 -16.735  26.125  1.00  0.00    -0.504 OA
ATOM     21  H   UNL     1      -6.995 -17.028  25.327  1.00  0.00     0.293 HD
ENDBRANCH  17  20
ENDBRANCH   1  12
BRANCH   2  22
ATOM     22  O   UNL     1      -5.927 -10.924  29.103  1.00  0.00    -0.502 OA
ATOM     23  H   UNL     1      -5.142 -10.816  28.471  1.00  0.00     0.293 HD
ENDBRANCH   2  22
BRANCH   6  24
ATOM     24  O   UNL     1      -6.188 -11.338  34.407  1.00  0.00    -0.507 OA
ATOM     25  H   UNL     1      -6.859 -10.628  34.154  1.00  0.00     0.293 HD
ENDBRANCH   6  24
BRANCH   8  26
ATOM     26  O   UNL     1      -5.876 -16.086  34.920  1.00  0.00    -0.508 OA
ATOM     27  H   UNL     1      -5.755 -17.028  34.565  1.00  0.00     0.293 HD
ENDBRANCH   8  26
TORSDOF 6
ENDMDL
