MODEL 1
REMARK VINA RESULT:    -4.221      0.000      0.000
REMARK INTER + INTRA:          -5.995
REMARK INTER:                  -5.702
REMARK INTRA:                  -0.293
REMARK UNBOUND:                -0.293
REMARK SMILES CCCCCCCC(=O)[O-]
REMARK SMILES IDX 5 1 6 2 7 3 8 4 9 5 10 6 4 7 3 8 2 9 1 10
REMARK H PARENT
REMARK Flexibility Score: inf
ROOT
ATOM      1  C   UNL     1      24.015   3.801  14.916  1.00  0.00     0.000 C 
ENDROOT
BRANCH   1   2
ATOM      2  C   UNL     1      25.050   3.955  13.792  1.00  0.00     0.006 C 
BRANCH   2   3
ATOM      3  C   UNL     1      25.890   2.687  13.597  1.00  0.00     0.053 C 
BRANCH   3   4
ATOM      4  C   UNL     1      26.140   2.404  12.148  1.00  0.00     0.041 C 
ATOM      5  O   UNL     1      25.592   1.417  11.590  1.00  0.00    -0.550 OA
ATOM      6  O   UNL     1      27.007   3.211  11.421  1.00  0.00    -0.550 OA
ENDBRANCH   3   4
ENDBRANCH   2   3
ENDBRANCH   1   2
BRANCH   1   7
ATOM      7  C   UNL     1      23.197   5.086  15.092  1.00  0.00     0.000 C 
BRANCH   7   8
ATOM      8  C   UNL     1      23.068   5.841  13.762  1.00  0.00    -0.000 C 
BRANCH   8   9
ATOM      9  C   UNL     1      23.140   7.366  13.940  1.00  0.00    -0.003 C 
ATOM     10  C   UNL     1      23.588   7.777  15.342  1.00  0.00     0.004 C 
ENDBRANCH   8   9
ENDBRANCH   7   8
ENDBRANCH   1   7
TORSDOF 6
ENDMDL
MODEL 2
REMARK VINA RESULT:    -3.915      6.624      7.164
REMARK INTER + INTRA:          -5.582
REMARK INTER:                  -5.282
REMARK INTRA:                  -0.300
REMARK UNBOUND:                -0.293
REMARK SMILES CCCCCCCC(=O)[O-]
REMARK SMILES IDX 5 1 6 2 7 3 8 4 9 5 10 6 4 7 3 8 2 9 1 10
REMARK H PARENT
REMARK Flexibility Score: inf
ROOT
ATOM      1  C   UNL     1      25.455   4.681   5.899  1.00  0.00     0.000 C 
ENDROOT
BRANCH   1   2
ATOM      2  C   UNL     1      25.292   3.727   7.092  1.00  0.00     0.006 C 
BRANCH   2   3
ATOM      3  C   UNL     1      26.588   2.973   7.416  1.00  0.00     0.053 C 
BRANCH   3   4
ATOM      4  C   UNL     1      26.343   1.509   7.616  1.00  0.00     0.041 C 
ATOM      5  O   UNL     1      25.198   1.024   7.413  1.00  0.00    -0.550 OA
ATOM      6  O   UNL     1      27.370   0.685   8.059  1.00  0.00    -0.550 OA
ENDBRANCH   3   4
ENDBRANCH   2   3
ENDBRANCH   1   2
BRANCH   1   7
ATOM      7  C   UNL     1      24.197   5.534   5.700  1.00  0.00     0.000 C 
BRANCH   7   8
ATOM      8  C   UNL     1      23.343   5.560   6.975  1.00  0.00    -0.000 C 
BRANCH   8   9
ATOM      9  C   UNL     1      21.840   5.664   6.677  1.00  0.00    -0.003 C 
ATOM     10  C   UNL     1      21.169   4.297   6.541  1.00  0.00     0.004 C 
ENDBRANCH   8   9
ENDBRANCH   7   8
ENDBRANCH   1   7
TORSDOF 6
ENDMDL
MODEL 3
REMARK VINA RESULT:    -3.791      1.940      3.126
REMARK INTER + INTRA:          -5.414
REMARK INTER:                  -5.223
REMARK INTRA:                  -0.191
REMARK UNBOUND:                -0.293
REMARK SMILES CCCCCCCC(=O)[O-]
REMARK SMILES IDX 5 1 6 2 7 3 8 4 9 5 10 6 4 7 3 8 2 9 1 10
REMARK H PARENT
REMARK Flexibility Score: inf
ROOT
ATOM      1  C   UNL     1      23.572   6.831  14.407  1.00  0.00     0.000 C 
ENDROOT
BRANCH   1   2
ATOM      2  C   UNL     1      23.220   5.389  14.011  1.00  0.00     0.006 C 
BRANCH   2   3
ATOM      3  C   UNL     1      24.155   4.362  14.661  1.00  0.00     0.053 C 
BRANCH   3   4
ATOM      4  C   UNL     1      25.285   3.987  13.752  1.00  0.00     0.041 C 
ATOM      5  O   UNL     1      26.364   4.635  13.779  1.00  0.00    -0.550 OA
ATOM      6  O   UNL     1      25.133   2.942  12.848  1.00  0.00    -0.550 OA
ENDBRANCH   3   4
ENDBRANCH   2   3
ENDBRANCH   1   2
BRANCH   1   7
ATOM      7  C   UNL     1      23.568   6.999  15.931  1.00  0.00     0.000 C 
BRANCH   7   8
ATOM      8  C   UNL     1      23.052   8.389  16.329  1.00  0.00    -0.000 C 
BRANCH   8   9
ATOM      9  C   UNL     1      22.945   8.566  17.852  1.00  0.00    -0.003 C 
ATOM     10  C   UNL     1      21.499   8.686  18.332  1.00  0.00     0.004 C 
ENDBRANCH   8   9
ENDBRANCH   7   8
ENDBRANCH   1   7
TORSDOF 6
ENDMDL
MODEL 4
REMARK VINA RESULT:    -3.752     10.581     11.975
REMARK INTER + INTRA:          -5.361
REMARK INTER:                  -4.977
REMARK INTRA:                  -0.385
REMARK UNBOUND:                -0.293
REMARK SMILES CCCCCCCC(=O)[O-]
REMARK SMILES IDX 5 1 6 2 7 3 8 4 9 5 10 6 4 7 3 8 2 9 1 10
REMARK H PARENT
REMARK Flexibility Score: inf
ROOT
ATOM      1  C   UNL     1      16.934   9.437   9.150  1.00  0.00     0.000 C 
ENDROOT
BRANCH   1   2
ATOM      2  C   UNL     1      15.927  10.281   9.945  1.00  0.00     0.006 C 
BRANCH   2   3
ATOM      3  C   UNL     1      15.115  11.218   9.043  1.00  0.00     0.053 C 
BRANCH   3   4
ATOM      4  C   UNL     1      14.886  12.550   9.689  1.00  0.00     0.041 C 
ATOM      5  O   UNL     1      13.762  13.112   9.604  1.00  0.00    -0.550 OA
ATOM      6  O   UNL     1      15.925  13.188  10.356  1.00  0.00    -0.550 OA
ENDBRANCH   3   4
ENDBRANCH   2   3
ENDBRANCH   1   2
BRANCH   1   7
ATOM      7  C   UNL     1      18.375   9.861   9.460  1.00  0.00     0.000 C 
BRANCH   7   8
ATOM      8  C   UNL     1      18.442  10.664  10.767  1.00  0.00    -0.000 C 
BRANCH   8   9
ATOM      9  C   UNL     1      19.194  11.994  10.605  1.00  0.00    -0.003 C 
ATOM     10  C   UNL     1      19.515  12.657  11.944  1.00  0.00     0.004 C 
ENDBRANCH   8   9
ENDBRANCH   7   8
ENDBRANCH   1   7
TORSDOF 6
ENDMDL
MODEL 5
REMARK VINA RESULT:    -3.728      9.833     10.856
REMARK INTER + INTRA:          -5.329
REMARK INTER:                  -5.115
REMARK INTRA:                  -0.214
REMARK UNBOUND:                -0.293
REMARK SMILES CCCCCCCC(=O)[O-]
REMARK SMILES IDX 5 1 6 2 7 3 8 4 9 5 10 6 4 7 3 8 2 9 1 10
REMARK H PARENT
REMARK Flexibility Score: inf
ROOT
ATOM      1  C   UNL     1      21.755   5.716   4.696  1.00  0.00     0.000 C 
ENDROOT
BRANCH   1   2
ATOM      2  C   UNL     1      20.346   5.801   4.091  1.00  0.00     0.006 C 
BRANCH   2   3
ATOM      3  C   UNL     1      20.199   6.981   3.122  1.00  0.00     0.053 C 
BRANCH   3   4
ATOM      4  C   UNL     1      18.868   7.653   3.264  1.00  0.00     0.041 C 
ATOM      5  O   UNL     1      18.462   8.024   4.398  1.00  0.00    -0.550 OA
ATOM      6  O   UNL     1      18.060   7.840   2.150  1.00  0.00    -0.550 OA
ENDBRANCH   3   4
ENDBRANCH   2   3
ENDBRANCH   1   2
BRANCH   1   7
ATOM      7  C   UNL     1      21.692   5.612   6.225  1.00  0.00     0.000 C 
BRANCH   7   8
ATOM      8  C   UNL     1      23.091   5.749   6.843  1.00  0.00    -0.000 C 
BRANCH   8   9
ATOM      9  C   UNL     1      24.210   5.362   5.864  1.00  0.00    -0.003 C 
ATOM     10  C   UNL     1      25.219   4.391   6.475  1.00  0.00     0.004 C 
ENDBRANCH   8   9
ENDBRANCH   7   8
ENDBRANCH   1   7
TORSDOF 6
ENDMDL
MODEL 6
REMARK VINA RESULT:    -3.727     10.933     12.778
REMARK INTER + INTRA:          -5.327
REMARK INTER:                  -4.883
REMARK INTRA:                  -0.444
REMARK UNBOUND:                -0.293
REMARK SMILES CCCCCCCC(=O)[O-]
REMARK SMILES IDX 5 1 6 2 7 3 8 4 9 5 10 6 4 7 3 8 2 9 1 10
REMARK H PARENT
REMARK Flexibility Score: inf
ROOT
ATOM      1  C   UNL     1      18.748  13.106  10.647  1.00  0.00     0.000 C 
ENDROOT
BRANCH   1   2
ATOM      2  C   UNL     1      17.601  13.649  11.513  1.00  0.00     0.006 C 
BRANCH   2   3
ATOM      3  C   UNL     1      16.264  13.665  10.761  1.00  0.00     0.053 C 
BRANCH   3   4
ATOM      4  C   UNL     1      15.490  14.919  11.032  1.00  0.00     0.041 C 
ATOM      5  O   UNL     1      15.907  15.750  11.882  1.00  0.00    -0.550 OA
ATOM      6  O   UNL     1      14.291  15.154  10.371  1.00  0.00    -0.550 OA
ENDBRANCH   3   4
ENDBRANCH   2   3
ENDBRANCH   1   2
BRANCH   1   7
ATOM      7  C   UNL     1      19.532  12.018  11.392  1.00  0.00     0.000 C 
BRANCH   7   8
ATOM      8  C   UNL     1      18.808  10.667  11.311  1.00  0.00    -0.000 C 
BRANCH   8   9
ATOM      9  C   UNL     1      18.406  10.297   9.875  1.00  0.00    -0.003 C 
ATOM     10  C   UNL     1      16.992   9.724   9.786  1.00  0.00     0.004 C 
ENDBRANCH   8   9
ENDBRANCH   7   8
ENDBRANCH   1   7
TORSDOF 6
ENDMDL
MODEL 7
REMARK VINA RESULT:    -3.677      8.923      9.628
REMARK INTER + INTRA:          -5.261
REMARK INTER:                  -5.007
REMARK INTRA:                  -0.253
REMARK UNBOUND:                -0.293
REMARK SMILES CCCCCCCC(=O)[O-]
REMARK SMILES IDX 5 1 6 2 7 3 8 4 9 5 10 6 4 7 3 8 2 9 1 10
REMARK H PARENT
REMARK Flexibility Score: inf
ROOT
ATOM      1  C   UNL     1      21.754   5.710   4.737  1.00  0.00     0.000 C 
ENDROOT
BRANCH   1   2
ATOM      2  C   UNL     1      21.794   5.568   6.266  1.00  0.00     0.006 C 
BRANCH   2   3
ATOM      3  C   UNL     1      23.212   5.733   6.828  1.00  0.00     0.053 C 
BRANCH   3   4
ATOM      4  C   UNL     1      24.151   4.704   6.277  1.00  0.00     0.041 C 
ATOM      5  O   UNL     1      25.269   5.049   5.811  1.00  0.00    -0.550 OA
ATOM      6  O   UNL     1      23.776   3.366   6.246  1.00  0.00    -0.550 OA
ENDBRANCH   3   4
ENDBRANCH   2   3
ENDBRANCH   1   2
BRANCH   1   7
ATOM      7  C   UNL     1      20.344   5.445   4.197  1.00  0.00     0.000 C 
BRANCH   7   8
ATOM      8  C   UNL     1      20.199   5.965   2.760  1.00  0.00    -0.000 C 
BRANCH   8   9
ATOM      9  C   UNL     1      19.912   7.473   2.703  1.00  0.00    -0.003 C 
ATOM     10  C   UNL     1      18.730   7.883   3.581  1.00  0.00     0.004 C 
ENDBRANCH   8   9
ENDBRANCH   7   8
ENDBRANCH   1   7
TORSDOF 6
ENDMDL
MODEL 8
REMARK VINA RESULT:    -3.665      9.232     10.664
REMARK INTER + INTRA:          -5.243
REMARK INTER:                  -4.885
REMARK INTRA:                  -0.359
REMARK UNBOUND:                -0.293
REMARK SMILES CCCCCCCC(=O)[O-]
REMARK SMILES IDX 5 1 6 2 7 3 8 4 9 5 10 6 4 7 3 8 2 9 1 10
REMARK H PARENT
REMARK Flexibility Score: inf
ROOT
ATOM      1  C   UNL     1      19.469  11.907  11.368  1.00  0.00     0.000 C 
ENDROOT
BRANCH   1   2
ATOM      2  C   UNL     1      18.756  10.574  11.092  1.00  0.00     0.006 C 
BRANCH   2   3
ATOM      3  C   UNL     1      17.700  10.698   9.988  1.00  0.00     0.053 C 
BRANCH   3   4
ATOM      4  C   UNL     1      17.646   9.471   9.130  1.00  0.00     0.041 C 
ATOM      5  O   UNL     1      18.653   9.123   8.457  1.00  0.00    -0.550 OA
ATOM      6  O   UNL     1      16.474   8.730   9.047  1.00  0.00    -0.550 OA
ENDBRANCH   3   4
ENDBRANCH   2   3
ENDBRANCH   1   2
BRANCH   1   7
ATOM      7  C   UNL     1      18.612  13.094  10.914  1.00  0.00     0.000 C 
BRANCH   7   8
ATOM      8  C   UNL     1      17.966  13.797  12.116  1.00  0.00    -0.000 C 
BRANCH   8   9
ATOM      9  C   UNL     1      16.594  14.402  11.779  1.00  0.00    -0.003 C 
ATOM     10  C   UNL     1      15.879  13.654  10.654  1.00  0.00     0.004 C 
ENDBRANCH   8   9
ENDBRANCH   7   8
ENDBRANCH   1   7
TORSDOF 6
ENDMDL
MODEL 9
REMARK VINA RESULT:    -3.661     10.444     11.419
REMARK INTER + INTRA:          -5.238
REMARK INTER:                  -4.807
REMARK INTRA:                  -0.431
REMARK UNBOUND:                -0.293
REMARK SMILES CCCCCCCC(=O)[O-]
REMARK SMILES IDX 5 1 6 2 7 3 8 4 9 5 10 6 4 7 3 8 2 9 1 10
REMARK H PARENT
REMARK Flexibility Score: inf
ROOT
ATOM      1  C   UNL     1      18.403   9.876   9.344  1.00  0.00     0.000 C 
ENDROOT
BRANCH   1   2
ATOM      2  C   UNL     1      17.201   9.163   8.705  1.00  0.00     0.006 C 
BRANCH   2   3
ATOM      3  C   UNL     1      15.866   9.645   9.284  1.00  0.00     0.053 C 
BRANCH   3   4
ATOM      4  C   UNL     1      15.084  10.444   8.287  1.00  0.00     0.041 C 
ATOM      5  O   UNL     1      14.675   9.906   7.223  1.00  0.00    -0.550 OA
ATOM      6  O   UNL     1      14.836  11.792   8.514  1.00  0.00    -0.550 OA
ENDBRANCH   3   4
ENDBRANCH   2   3
ENDBRANCH   1   2
BRANCH   1   7
ATOM      7  C   UNL     1      18.041  10.436  10.724  1.00  0.00     0.000 C 
BRANCH   7   8
ATOM      8  C   UNL     1      19.069  11.482  11.180  1.00  0.00    -0.000 C 
BRANCH   8   9
ATOM      9  C   UNL     1      18.723  12.899  10.698  1.00  0.00    -0.003 C 
ATOM     10  C   UNL     1      17.229  13.208  10.794  1.00  0.00     0.004 C 
ENDBRANCH   8   9
ENDBRANCH   7   8
ENDBRANCH   1   7
TORSDOF 6
ENDMDL
