MODEL 1
REMARK VINA RESULT:    -4.704      0.000      0.000
REMARK INTER + INTRA:          -6.157
REMARK INTER:                  -5.804
REMARK INTRA:                  -0.352
REMARK UNBOUND:                -0.352
REMARK SMILES Oc1cc(O)c2cc(O)c(-c3cc(O)c(O)c(O)c3)[o+]c2c1
REMARK SMILES IDX 10 1 20 2 21 3 22 4 2 5 3 6 4 7 6 8 7 9 8 10 11 11 12 12
REMARK SMILES IDX 13 13 19 14 15 15 17 16 14 17 16 19 18 21 9 23 1 25 5 27
REMARK H PARENT 14 18 16 20 18 22 9 24 1 26 5 28
REMARK Flexibility Score: inf
ROOT
ATOM      1  C   UNL     1     125.497  16.254 151.080  1.00  0.00     0.402 A 
ATOM      2  O   UNL     1     125.217  17.517 150.773  1.00  0.00    -0.202 OA
ATOM      3  C   UNL     1     126.123  18.489 150.783  1.00  0.00     0.368 A 
ATOM      4  C   UNL     1     125.732  19.787 150.443  1.00  0.00     0.162 A 
ATOM      5  C   UNL     1     126.666  20.828 150.442  1.00  0.00     0.128 A 
ATOM      6  C   UNL     1     127.995  20.570 150.782  1.00  0.00     0.093 A 
ATOM      7  C   UNL     1     128.412  19.277 151.127  1.00  0.00     0.136 A 
ATOM      8  C   UNL     1     127.468  18.218 151.132  1.00  0.00     0.125 A 
ATOM      9  C   UNL     1     127.792  16.896 151.476  1.00  0.00     0.078 A 
ATOM     10  C   UNL     1     126.806  15.905 151.463  1.00  0.00     0.223 A 
ENDROOT
BRANCH   1  11
ATOM     11  C   UNL     1     124.402  15.259 151.022  1.00  0.00     0.091 A 
ATOM     12  C   UNL     1     123.727  14.845 152.183  1.00  0.00     0.068 A 
ATOM     13  C   UNL     1     122.708  13.884 152.112  1.00  0.00     0.162 A 
ATOM     14  C   UNL     1     124.065  14.675 149.791  1.00  0.00     0.068 A 
ATOM     15  C   UNL     1     122.363  13.322 150.871  1.00  0.00     0.200 A 
ATOM     16  C   UNL     1     123.046  13.716 149.712  1.00  0.00     0.162 A 
BRANCH  13  17
ATOM     17  O   UNL     1     122.041  13.485 153.268  1.00  0.00    -0.504 OA
ATOM     18  H   UNL     1     122.537  13.313 154.135  1.00  0.00     0.293 HD
ENDBRANCH  13  17
BRANCH  15  19
ATOM     19  O   UNL     1     121.350  12.368 150.773  1.00  0.00    -0.502 OA
ATOM     20  H   UNL     1     120.699  12.194 151.529  1.00  0.00     0.293 HD
ENDBRANCH  15  19
BRANCH  16  21
ATOM     21  O   UNL     1     122.706  13.149 148.485  1.00  0.00    -0.504 OA
ATOM     22  H   UNL     1     122.056  13.602 147.854  1.00  0.00     0.293 HD
ENDBRANCH  16  21
ENDBRANCH   1  11
BRANCH  10  23
ATOM     23  O   UNL     1     127.117  14.602 151.853  1.00  0.00    -0.500 OA
ATOM     24  H   UNL     1     127.513  13.932 151.204  1.00  0.00     0.294 HD
ENDBRANCH  10  23
BRANCH   5  25
ATOM     25  O   UNL     1     126.283  22.125 150.104  1.00  0.00    -0.507 OA
ATOM     26  H   UNL     1     125.475  22.565 150.527  1.00  0.00     0.293 HD
ENDBRANCH   5  25
BRANCH   7  27
ATOM     27  O   UNL     1     129.761  19.102 151.452  1.00  0.00    -0.507 OA
ATOM     28  H   UNL     1     130.091  18.722 152.327  1.00  0.00     0.293 HD
ENDBRANCH   7  27
TORSDOF 7
ENDMDL
MODEL 2
REMARK VINA RESULT:    -4.453     10.225     11.821
REMARK INTER + INTRA:          -5.846
REMARK INTER:                  -5.827
REMARK INTRA:                  -0.019
REMARK UNBOUND:                -0.352
REMARK SMILES Oc1cc(O)c2cc(O)c(-c3cc(O)c(O)c(O)c3)[o+]c2c1
REMARK SMILES IDX 10 1 20 2 21 3 22 4 2 5 3 6 4 7 6 8 7 9 8 10 11 11 12 12
REMARK SMILES IDX 13 13 19 14 15 15 17 16 14 17 16 19 18 21 9 23 1 25 5 27
REMARK H PARENT 14 18 16 20 18 22 9 24 1 26 5 28
REMARK Flexibility Score: inf
ROOT
ATOM      1  C   UNL     1     115.226  14.936 147.968  1.00  0.00     0.402 A 
ATOM      2  O   UNL     1     115.469  15.888 148.864  1.00  0.00    -0.202 OA
ATOM      3  C   UNL     1     115.218  15.748 150.162  1.00  0.00     0.368 A 
ATOM      4  C   UNL     1     115.510  16.805 151.029  1.00  0.00     0.162 A 
ATOM      5  C   UNL     1     115.260  16.684 152.399  1.00  0.00     0.128 A 
ATOM      6  C   UNL     1     114.716  15.501 152.905  1.00  0.00     0.093 A 
ATOM      7  C   UNL     1     114.415  14.428 152.057  1.00  0.00     0.136 A 
ATOM      8  C   UNL     1     114.665  14.546 150.665  1.00  0.00     0.125 A 
ATOM      9  C   UNL     1     114.383  13.528 149.740  1.00  0.00     0.078 A 
ATOM     10  C   UNL     1     114.652  13.720 148.382  1.00  0.00     0.223 A 
ENDROOT
BRANCH   1  11
ATOM     11  C   UNL     1     115.559  15.209 146.550  1.00  0.00     0.091 A 
ATOM     12  C   UNL     1     114.639  14.948 145.520  1.00  0.00     0.068 A 
ATOM     13  C   UNL     1     114.980  15.190 144.181  1.00  0.00     0.162 A 
ATOM     14  C   UNL     1     116.837  15.685 146.220  1.00  0.00     0.068 A 
ATOM     15  C   UNL     1     116.255  15.688 143.864  1.00  0.00     0.200 A 
ATOM     16  C   UNL     1     117.183  15.931 144.885  1.00  0.00     0.162 A 
BRANCH  13  17
ATOM     17  O   UNL     1     114.059  14.933 143.168  1.00  0.00    -0.504 OA
ATOM     18  H   UNL     1     113.234  14.368 143.330  1.00  0.00     0.293 HD
ENDBRANCH  13  17
BRANCH  15  19
ATOM     19  O   UNL     1     116.616  15.942 142.541  1.00  0.00    -0.502 OA
ATOM     20  H   UNL     1     117.306  16.642 142.295  1.00  0.00     0.293 HD
ENDBRANCH  15  19
BRANCH  16  21
ATOM     21  O   UNL     1     118.449  16.417 144.564  1.00  0.00    -0.504 OA
ATOM     22  H   UNL     1     119.060  16.812 145.269  1.00  0.00     0.293 HD
ENDBRANCH  16  21
ENDBRANCH   1  11
BRANCH  10  23
ATOM     23  O   UNL     1     114.326  12.728 147.456  1.00  0.00    -0.500 OA
ATOM     24  H   UNL     1     113.832  11.886 147.730  1.00  0.00     0.294 HD
ENDBRANCH  10  23
BRANCH   5  25
ATOM     25  O   UNL     1     115.548  17.735 153.268  1.00  0.00    -0.507 OA
ATOM     26  H   UNL     1     115.956  18.600 152.936  1.00  0.00     0.293 HD
ENDBRANCH   5  25
BRANCH   7  27
ATOM     27  O   UNL     1     113.876  13.278 152.642  1.00  0.00    -0.507 OA
ATOM     28  H   UNL     1     114.353  12.711 153.329  1.00  0.00     0.293 HD
ENDBRANCH   7  27
TORSDOF 7
ENDMDL
MODEL 3
REMARK VINA RESULT:    -4.293     14.541     16.518
REMARK INTER + INTRA:          -5.649
REMARK INTER:                  -5.273
REMARK INTRA:                  -0.375
REMARK UNBOUND:                -0.352
REMARK SMILES Oc1cc(O)c2cc(O)c(-c3cc(O)c(O)c(O)c3)[o+]c2c1
REMARK SMILES IDX 10 1 20 2 21 3 22 4 2 5 3 6 4 7 6 8 7 9 8 10 11 11 12 12
REMARK SMILES IDX 13 13 19 14 15 15 17 16 14 17 16 19 18 21 9 23 1 25 5 27
REMARK H PARENT 14 18 16 20 18 22 9 24 1 26 5 28
REMARK Flexibility Score: inf
ROOT
ATOM      1  C   UNL     1     126.609   8.012 137.363  1.00  0.00     0.402 A 
ATOM      2  O   UNL     1     126.707   7.790 138.670  1.00  0.00    -0.202 OA
ATOM      3  C   UNL     1     127.793   7.283 139.245  1.00  0.00     0.368 A 
ATOM      4  C   UNL     1     127.802   7.088 140.628  1.00  0.00     0.162 A 
ATOM      5  C   UNL     1     128.932   6.559 141.259  1.00  0.00     0.128 A 
ATOM      6  C   UNL     1     130.058   6.225 140.503  1.00  0.00     0.093 A 
ATOM      7  C   UNL     1     130.074   6.411 139.115  1.00  0.00     0.136 A 
ATOM      8  C   UNL     1     128.928   6.945 138.470  1.00  0.00     0.125 A 
ATOM      9  C   UNL     1     128.849   7.154 137.083  1.00  0.00     0.078 A 
ATOM     10  C   UNL     1     127.684   7.680 136.517  1.00  0.00     0.223 A 
ENDROOT
BRANCH   1  11
ATOM     11  C   UNL     1     125.349   8.591 136.843  1.00  0.00     0.091 A 
ATOM     12  C   UNL     1     125.230   9.966 136.576  1.00  0.00     0.068 A 
ATOM     13  C   UNL     1     124.021  10.499 136.107  1.00  0.00     0.162 A 
ATOM     14  C   UNL     1     124.231   7.762 136.665  1.00  0.00     0.068 A 
ATOM     15  C   UNL     1     122.914   9.656 135.910  1.00  0.00     0.200 A 
ATOM     16  C   UNL     1     123.020   8.288 136.194  1.00  0.00     0.162 A 
BRANCH  13  17
ATOM     17  O   UNL     1     123.915  11.863 135.840  1.00  0.00    -0.504 OA
ATOM     18  H   UNL     1     123.016  12.330 135.806  1.00  0.00     0.293 HD
ENDBRANCH  13  17
BRANCH  15  19
ATOM     19  O   UNL     1     121.702  10.162 135.440  1.00  0.00    -0.502 OA
ATOM     20  H   UNL     1     120.810   9.858 135.812  1.00  0.00     0.293 HD
ENDBRANCH  15  19
BRANCH  16  21
ATOM     21  O   UNL     1     121.917   7.457 136.005  1.00  0.00    -0.504 OA
ATOM     22  H   UNL     1     121.077   7.787 135.544  1.00  0.00     0.293 HD
ENDBRANCH  16  21
ENDBRANCH   1  11
BRANCH  10  23
ATOM     23  O   UNL     1     127.588   7.840 135.135  1.00  0.00    -0.500 OA
ATOM     24  H   UNL     1     128.071   7.224 134.492  1.00  0.00     0.294 HD
ENDBRANCH  10  23
BRANCH   5  25
ATOM     25  O   UNL     1     128.948   6.361 142.639  1.00  0.00    -0.507 OA
ATOM     26  H   UNL     1     128.762   5.452 143.045  1.00  0.00     0.293 HD
ENDBRANCH   5  25
BRANCH   7  27
ATOM     27  O   UNL     1     131.240   6.055 138.431  1.00  0.00    -0.507 OA
ATOM     28  H   UNL     1     132.169   6.348 138.698  1.00  0.00     0.293 HD
ENDBRANCH   7  27
TORSDOF 7
ENDMDL
MODEL 4
REMARK VINA RESULT:    -4.283     11.485     14.040
REMARK INTER + INTRA:          -5.637
REMARK INTER:                  -5.315
REMARK INTRA:                  -0.323
REMARK UNBOUND:                -0.352
REMARK SMILES Oc1cc(O)c2cc(O)c(-c3cc(O)c(O)c(O)c3)[o+]c2c1
REMARK SMILES IDX 10 1 20 2 21 3 22 4 2 5 3 6 4 7 6 8 7 9 8 10 11 11 12 12
REMARK SMILES IDX 13 13 19 14 15 15 17 16 14 17 16 19 18 21 9 23 1 25 5 27
REMARK H PARENT 14 18 16 20 18 22 9 24 1 26 5 28
REMARK Flexibility Score: inf
ROOT
ATOM      1  C   UNL     1     115.969  16.930 141.766  1.00  0.00     0.402 A 
ATOM      2  O   UNL     1     116.349  16.216 140.711  1.00  0.00    -0.202 OA
ATOM      3  C   UNL     1     116.434  16.715 139.483  1.00  0.00     0.368 A 
ATOM      4  C   UNL     1     116.846  15.885 138.437  1.00  0.00     0.162 A 
ATOM      5  C   UNL     1     116.947  16.385 137.136  1.00  0.00     0.128 A 
ATOM      6  C   UNL     1     116.636  17.722 136.879  1.00  0.00     0.093 A 
ATOM      7  C   UNL     1     116.220  18.575 137.910  1.00  0.00     0.136 A 
ATOM      8  C   UNL     1     116.114  18.071 139.232  1.00  0.00     0.125 A 
ATOM      9  C   UNL     1     115.694  18.848 140.324  1.00  0.00     0.078 A 
ATOM     10  C   UNL     1     115.608  18.281 141.598  1.00  0.00     0.223 A 
ENDROOT
BRANCH   1  11
ATOM     11  C   UNL     1     115.924  16.262 143.087  1.00  0.00     0.091 A 
ATOM     12  C   UNL     1     116.875  16.543 144.083  1.00  0.00     0.068 A 
ATOM     13  C   UNL     1     116.830  15.882 145.319  1.00  0.00     0.162 A 
ATOM     14  C   UNL     1     114.947  15.285 143.332  1.00  0.00     0.068 A 
ATOM     15  C   UNL     1     115.833  14.922 145.563  1.00  0.00     0.200 A 
ATOM     16  C   UNL     1     114.895  14.623 144.567  1.00  0.00     0.162 A 
BRANCH  13  17
ATOM     17  O   UNL     1     117.775  16.173 146.302  1.00  0.00    -0.504 OA
ATOM     18  H   UNL     1     117.762  17.050 146.808  1.00  0.00     0.293 HD
ENDBRANCH  13  17
BRANCH  15  19
ATOM     19  O   UNL     1     115.765  14.255 146.785  1.00  0.00    -0.502 OA
ATOM     20  H   UNL     1     116.065  13.294 146.893  1.00  0.00     0.293 HD
ENDBRANCH  15  19
BRANCH  16  21
ATOM     21  O   UNL     1     113.913  13.664 144.810  1.00  0.00    -0.504 OA
ATOM     22  H   UNL     1     113.002  13.714 144.369  1.00  0.00     0.293 HD
ENDBRANCH  16  21
ENDBRANCH   1  11
BRANCH  10  23
ATOM     23  O   UNL     1     115.144  19.039 142.673  1.00  0.00    -0.500 OA
ATOM     24  H   UNL     1     115.710  19.195 143.499  1.00  0.00     0.294 HD
ENDBRANCH  10  23
BRANCH   5  25
ATOM     25  O   UNL     1     117.357  15.562 136.089  1.00  0.00    -0.507 OA
ATOM     26  H   UNL     1     116.836  14.732 135.833  1.00  0.00     0.293 HD
ENDBRANCH   5  25
BRANCH   7  27
ATOM     27  O   UNL     1     115.930  19.900 137.571  1.00  0.00    -0.507 OA
ATOM     28  H   UNL     1     115.452  20.181 136.727  1.00  0.00     0.293 HD
ENDBRANCH   7  27
TORSDOF 7
ENDMDL
MODEL 5
REMARK VINA RESULT:    -4.259     11.303     14.351
REMARK INTER + INTRA:          -5.607
REMARK INTER:                  -5.305
REMARK INTRA:                  -0.301
REMARK UNBOUND:                -0.352
REMARK SMILES Oc1cc(O)c2cc(O)c(-c3cc(O)c(O)c(O)c3)[o+]c2c1
REMARK SMILES IDX 10 1 20 2 21 3 22 4 2 5 3 6 4 7 6 8 7 9 8 10 11 11 12 12
REMARK SMILES IDX 13 13 19 14 15 15 17 16 14 17 16 19 18 21 9 23 1 25 5 27
REMARK H PARENT 14 18 16 20 18 22 9 24 1 26 5 28
REMARK Flexibility Score: inf
ROOT
ATOM      1  C   UNL     1     115.931  16.378 141.432  1.00  0.00     0.402 A 
ATOM      2  O   UNL     1     116.589  16.869 142.477  1.00  0.00    -0.202 OA
ATOM      3  C   UNL     1     116.428  16.420 143.718  1.00  0.00     0.368 A 
ATOM      4  C   UNL     1     117.168  17.000 144.752  1.00  0.00     0.162 A 
ATOM      5  C   UNL     1     117.021  16.545 146.066  1.00  0.00     0.128 A 
ATOM      6  C   UNL     1     116.130  15.506 146.346  1.00  0.00     0.093 A 
ATOM      7  C   UNL     1     115.377  14.909 145.327  1.00  0.00     0.136 A 
ATOM      8  C   UNL     1     115.521  15.369 143.992  1.00  0.00     0.125 A 
ATOM      9  C   UNL     1     114.799  14.840 142.910  1.00  0.00     0.078 A 
ATOM     10  C   UNL     1     114.991  15.348 141.622  1.00  0.00     0.223 A 
ENDROOT
BRANCH   1  11
ATOM     11  C   UNL     1     116.205  16.956 140.096  1.00  0.00     0.091 A 
ATOM     12  C   UNL     1     116.875  16.220 139.103  1.00  0.00     0.068 A 
ATOM     13  C   UNL     1     117.146  16.793 137.852  1.00  0.00     0.162 A 
ATOM     14  C   UNL     1     115.840  18.285 139.832  1.00  0.00     0.068 A 
ATOM     15  C   UNL     1     116.757  18.118 137.590  1.00  0.00     0.200 A 
ATOM     16  C   UNL     1     116.107  18.863 138.582  1.00  0.00     0.162 A 
BRANCH  13  17
ATOM     17  O   UNL     1     117.806  16.053 136.873  1.00  0.00    -0.504 OA
ATOM     18  H   UNL     1     118.584  15.444 137.100  1.00  0.00     0.293 HD
ENDBRANCH  13  17
BRANCH  15  19
ATOM     19  O   UNL     1     117.011  18.708 136.352  1.00  0.00    -0.502 OA
ATOM     20  H   UNL     1     117.641  18.293 135.676  1.00  0.00     0.293 HD
ENDBRANCH  15  19
BRANCH  16  21
ATOM     21  O   UNL     1     115.729  20.179 138.321  1.00  0.00    -0.504 OA
ATOM     22  H   UNL     1     115.847  20.591 137.403  1.00  0.00     0.293 HD
ENDBRANCH  16  21
ENDBRANCH   1  11
BRANCH  10  23
ATOM     23  O   UNL     1     114.238  14.856 140.556  1.00  0.00    -0.500 OA
ATOM     24  H   UNL     1     114.361  13.913 140.207  1.00  0.00     0.294 HD
ENDBRANCH  10  23
BRANCH   5  25
ATOM     25  O   UNL     1     117.755  17.118 147.102  1.00  0.00    -0.507 OA
ATOM     26  H   UNL     1     118.422  16.578 147.641  1.00  0.00     0.293 HD
ENDBRANCH   5  25
BRANCH   7  27
ATOM     27  O   UNL     1     114.511  13.873 145.690  1.00  0.00    -0.507 OA
ATOM     28  H   UNL     1     114.098  13.769 146.606  1.00  0.00     0.293 HD
ENDBRANCH   7  27
TORSDOF 7
ENDMDL
MODEL 6
REMARK VINA RESULT:    -4.186     14.760     16.210
REMARK INTER + INTRA:          -5.517
REMARK INTER:                  -5.158
REMARK INTRA:                  -0.358
REMARK UNBOUND:                -0.352
REMARK SMILES Oc1cc(O)c2cc(O)c(-c3cc(O)c(O)c(O)c3)[o+]c2c1
REMARK SMILES IDX 10 1 20 2 21 3 22 4 2 5 3 6 4 7 6 8 7 9 8 10 11 11 12 12
REMARK SMILES IDX 13 13 19 14 15 15 17 16 14 17 16 19 18 21 9 23 1 25 5 27
REMARK H PARENT 14 18 16 20 18 22 9 24 1 26 5 28
REMARK Flexibility Score: inf
ROOT
ATOM      1  C   UNL     1     116.902   7.043 141.882  1.00  0.00     0.402 A 
ATOM      2  O   UNL     1     117.304   7.038 140.614  1.00  0.00    -0.202 OA
ATOM      3  C   UNL     1     117.444   8.143 139.889  1.00  0.00     0.368 A 
ATOM      4  C   UNL     1     117.875   8.036 138.564  1.00  0.00     0.162 A 
ATOM      5  C   UNL     1     118.035   9.182 137.779  1.00  0.00     0.128 A 
ATOM      6  C   UNL     1     117.763  10.440 138.322  1.00  0.00     0.093 A 
ATOM      7  C   UNL     1     117.329  10.574 139.647  1.00  0.00     0.136 A 
ATOM      8  C   UNL     1     117.163   9.413 140.447  1.00  0.00     0.125 A 
ATOM      9  C   UNL     1     116.722   9.450 141.779  1.00  0.00     0.078 A 
ATOM     10  C   UNL     1     116.577   8.264 142.504  1.00  0.00     0.223 A 
ENDROOT
BRANCH   1  11
ATOM     11  C   UNL     1     116.794   5.746 142.588  1.00  0.00     0.091 A 
ATOM     12  C   UNL     1     115.561   5.085 142.719  1.00  0.00     0.068 A 
ATOM     13  C   UNL     1     115.474   3.868 143.411  1.00  0.00     0.162 A 
ATOM     14  C   UNL     1     117.934   5.190 143.187  1.00  0.00     0.068 A 
ATOM     15  C   UNL     1     116.627   3.308 143.989  1.00  0.00     0.200 A 
ATOM     16  C   UNL     1     117.855   3.973 143.878  1.00  0.00     0.162 A 
BRANCH  13  17
ATOM     17  O   UNL     1     114.247   3.218 143.531  1.00  0.00    -0.504 OA
ATOM     18  H   UNL     1     113.386   3.731 143.677  1.00  0.00     0.293 HD
ENDBRANCH  13  17
BRANCH  15  19
ATOM     19  O   UNL     1     116.567   2.097 144.678  1.00  0.00    -0.502 OA
ATOM     20  H   UNL     1     117.396   1.645 145.045  1.00  0.00     0.293 HD
ENDBRANCH  15  19
BRANCH  16  21
ATOM     21  O   UNL     1     118.994   3.418 144.459  1.00  0.00    -0.504 OA
ATOM     22  H   UNL     1     119.871   3.361 143.956  1.00  0.00     0.293 HD
ENDBRANCH  16  21
ENDBRANCH   1  11
BRANCH  10  23
ATOM     23  O   UNL     1     116.091   8.296 143.811  1.00  0.00    -0.500 OA
ATOM     24  H   UNL     1     116.677   8.570 144.591  1.00  0.00     0.294 HD
ENDBRANCH  10  23
BRANCH   5  25
ATOM     25  O   UNL     1     118.464   9.083 136.457  1.00  0.00    -0.507 OA
ATOM     26  H   UNL     1     117.868   8.697 135.734  1.00  0.00     0.293 HD
ENDBRANCH   5  25
BRANCH   7  27
ATOM     27  O   UNL     1     117.081  11.868 140.115  1.00  0.00    -0.507 OA
ATOM     28  H   UNL     1     117.288  12.710 139.599  1.00  0.00     0.293 HD
ENDBRANCH   7  27
TORSDOF 7
ENDMDL
MODEL 7
REMARK VINA RESULT:    -4.151     14.582     16.731
REMARK INTER + INTRA:          -5.475
REMARK INTER:                  -5.096
REMARK INTRA:                  -0.379
REMARK UNBOUND:                -0.352
REMARK SMILES Oc1cc(O)c2cc(O)c(-c3cc(O)c(O)c(O)c3)[o+]c2c1
REMARK SMILES IDX 10 1 20 2 21 3 22 4 2 5 3 6 4 7 6 8 7 9 8 10 11 11 12 12
REMARK SMILES IDX 13 13 19 14 15 15 17 16 14 17 16 19 18 21 9 23 1 25 5 27
REMARK H PARENT 14 18 16 20 18 22 9 24 1 26 5 28
REMARK Flexibility Score: inf
ROOT
ATOM      1  C   UNL     1     126.901   7.254 138.126  1.00  0.00     0.402 A 
ATOM      2  O   UNL     1     126.597   8.512 137.821  1.00  0.00    -0.202 OA
ATOM      3  C   UNL     1     125.574   8.848 137.042  1.00  0.00     0.368 A 
ATOM      4  C   UNL     1     125.333  10.199 136.781  1.00  0.00     0.162 A 
ATOM      5  C   UNL     1     124.262  10.581 135.967  1.00  0.00     0.128 A 
ATOM      6  C   UNL     1     123.428   9.607 135.414  1.00  0.00     0.093 A 
ATOM      7  C   UNL     1     123.648   8.246 135.660  1.00  0.00     0.136 A 
ATOM      8  C   UNL     1     124.736   7.853 136.484  1.00  0.00     0.125 A 
ATOM      9  C   UNL     1     125.040   6.514 136.775  1.00  0.00     0.078 A 
ATOM     10  C   UNL     1     126.132   6.203 137.590  1.00  0.00     0.223 A 
ENDROOT
BRANCH   1  11
ATOM     11  C   UNL     1     128.061   7.008 139.013  1.00  0.00     0.091 A 
ATOM     12  C   UNL     1     129.359   6.862 138.496  1.00  0.00     0.068 A 
ATOM     13  C   UNL     1     130.442   6.606 139.350  1.00  0.00     0.162 A 
ATOM     14  C   UNL     1     127.855   6.863 140.394  1.00  0.00     0.068 A 
ATOM     15  C   UNL     1     130.228   6.485 140.734  1.00  0.00     0.200 A 
ATOM     16  C   UNL     1     128.933   6.610 141.253  1.00  0.00     0.162 A 
BRANCH  13  17
ATOM     17  O   UNL     1     131.727   6.468 138.828  1.00  0.00    -0.504 OA
ATOM     18  H   UNL     1     132.009   6.941 137.977  1.00  0.00     0.293 HD
ENDBRANCH  13  17
BRANCH  15  19
ATOM     19  O   UNL     1     131.289   6.236 141.604  1.00  0.00    -0.502 OA
ATOM     20  H   UNL     1     131.146   5.884 142.543  1.00  0.00     0.293 HD
ENDBRANCH  15  19
BRANCH  16  21
ATOM     21  O   UNL     1     128.725   6.481 142.625  1.00  0.00    -0.504 OA
ATOM     22  H   UNL     1     127.998   5.880 142.996  1.00  0.00     0.293 HD
ENDBRANCH  16  21
ENDBRANCH   1  11
BRANCH  10  23
ATOM     23  O   UNL     1     126.464   4.871 137.839  1.00  0.00    -0.500 OA
ATOM     24  H   UNL     1     126.990   4.598 138.661  1.00  0.00     0.294 HD
ENDBRANCH  10  23
BRANCH   5  25
ATOM     25  O   UNL     1     124.016  11.927 135.702  1.00  0.00    -0.507 OA
ATOM     26  H   UNL     1     123.089  12.324 135.793  1.00  0.00     0.293 HD
ENDBRANCH   5  25
BRANCH   7  27
ATOM     27  O   UNL     1     122.766   7.334 135.072  1.00  0.00    -0.507 OA
ATOM     28  H   UNL     1     122.998   6.376 134.855  1.00  0.00     0.293 HD
ENDBRANCH   7  27
TORSDOF 7
ENDMDL
