MODEL 1
REMARK VINA RESULT:    -4.046      0.000      0.000
REMARK INTER + INTRA:          -6.543
REMARK INTER:                  -5.938
REMARK INTRA:                  -0.605
REMARK UNBOUND:                -0.605
REMARK SMILES O=C([O-])CCCCCCCC(=O)[O-]
REMARK SMILES IDX 7 1 6 2 5 3 4 4 2 5 1 6 3 7 8 8 9 9 10 10 11 11 12 12 13 13
REMARK H PARENT
REMARK Flexibility Score: inf
ROOT
ATOM      1  C   UNL     1      18.510  12.488  18.239  1.00  0.00     0.000 C 
ENDROOT
BRANCH   1   2
ATOM      2  C   UNL     1      17.495  12.009  19.292  1.00  0.00     0.000 C 
BRANCH   2   3
ATOM      3  C   UNL     1      16.031  11.970  18.815  1.00  0.00     0.006 C 
BRANCH   3   4
ATOM      4  C   UNL     1      15.870  12.378  17.345  1.00  0.00     0.053 C 
BRANCH   4   5
ATOM      5  C   UNL     1      14.486  12.067  16.867  1.00  0.00     0.041 C 
ATOM      6  O   UNL     1      13.515  12.107  17.667  1.00  0.00    -0.550 OA
ATOM      7  O   UNL     1      14.277  11.685  15.547  1.00  0.00    -0.550 OA
ENDBRANCH   4   5
ENDBRANCH   3   4
ENDBRANCH   2   3
ENDBRANCH   1   2
BRANCH   1   8
ATOM      8  C   UNL     1      19.544  11.415  17.869  1.00  0.00     0.000 C 
BRANCH   8   9
ATOM      9  C   UNL     1      19.695  11.300  16.345  1.00  0.00     0.006 C 
BRANCH   9  10
ATOM     10  C   UNL     1      19.312  12.598  15.622  1.00  0.00     0.053 C 
BRANCH  10  11
ATOM     11  C   UNL     1      18.515  12.331  14.383  1.00  0.00     0.041 C 
ATOM     12  O   UNL     1      18.865  12.835  13.284  1.00  0.00    -0.550 OA
ATOM     13  O   UNL     1      17.405  11.496  14.436  1.00  0.00    -0.550 OA
ENDBRANCH  10  11
ENDBRANCH   9  10
ENDBRANCH   8   9
ENDBRANCH   1   8
TORSDOF 8
ENDMDL
MODEL 2
REMARK VINA RESULT:    -3.902      0.607      4.356
REMARK INTER + INTRA:          -6.332
REMARK INTER:                  -5.818
REMARK INTRA:                  -0.514
REMARK UNBOUND:                -0.605
REMARK SMILES O=C([O-])CCCCCCCC(=O)[O-]
REMARK SMILES IDX 7 1 6 2 5 3 4 4 2 5 1 6 3 7 8 8 9 9 10 10 11 11 12 12 13 13
REMARK H PARENT
REMARK Flexibility Score: inf
ROOT
ATOM      1  C   UNL     1      18.583  11.964  18.266  1.00  0.00     0.000 C 
ENDROOT
BRANCH   1   2
ATOM      2  C   UNL     1      19.289  13.138  17.564  1.00  0.00     0.000 C 
BRANCH   2   3
ATOM      3  C   UNL     1      19.789  12.838  16.139  1.00  0.00     0.006 C 
BRANCH   3   4
ATOM      4  C   UNL     1      19.002  11.715  15.452  1.00  0.00     0.053 C 
BRANCH   4   5
ATOM      5  C   UNL     1      18.298  12.237  14.239  1.00  0.00     0.041 C 
ATOM      6  O   UNL     1      18.946  12.830  13.336  1.00  0.00    -0.550 OA
ATOM      7  O   UNL     1      16.919  12.113  14.128  1.00  0.00    -0.550 OA
ENDBRANCH   4   5
ENDBRANCH   3   4
ENDBRANCH   2   3
ENDBRANCH   1   2
BRANCH   1   8
ATOM      8  C   UNL     1      17.494  12.419  19.248  1.00  0.00     0.000 C 
BRANCH   8   9
ATOM      9  C   UNL     1      16.106  11.956  18.784  1.00  0.00     0.006 C 
BRANCH   9  10
ATOM     10  C   UNL     1      15.796  12.395  17.346  1.00  0.00     0.053 C 
BRANCH  10  11
ATOM     11  C   UNL     1      14.398  12.040  16.945  1.00  0.00     0.041 C 
ATOM     12  O   UNL     1      14.157  11.645  15.774  1.00  0.00    -0.550 OA
ATOM     13  O   UNL     1      13.367  12.111  17.874  1.00  0.00    -0.550 OA
ENDBRANCH  10  11
ENDBRANCH   9  10
ENDBRANCH   8   9
ENDBRANCH   1   8
TORSDOF 8
ENDMDL
MODEL 3
REMARK VINA RESULT:    -3.857      2.085      3.840
REMARK INTER + INTRA:          -6.266
REMARK INTER:                  -5.709
REMARK INTRA:                  -0.556
REMARK UNBOUND:                -0.605
REMARK SMILES O=C([O-])CCCCCCCC(=O)[O-]
REMARK SMILES IDX 7 1 6 2 5 3 4 4 2 5 1 6 3 7 8 8 9 9 10 10 11 11 12 12 13 13
REMARK H PARENT
REMARK Flexibility Score: inf
ROOT
ATOM      1  C   UNL     1      19.070  11.617  15.462  1.00  0.00     0.000 C 
ENDROOT
BRANCH   1   2
ATOM      2  C   UNL     1      19.602  12.610  16.511  1.00  0.00     0.000 C 
BRANCH   2   3
ATOM      3  C   UNL     1      18.633  12.915  17.668  1.00  0.00     0.006 C 
BRANCH   3   4
ATOM      4  C   UNL     1      18.303  11.678  18.514  1.00  0.00     0.053 C 
BRANCH   4   5
ATOM      5  C   UNL     1      17.218  11.992  19.496  1.00  0.00     0.041 C 
ATOM      6  O   UNL     1      16.834  13.181  19.657  1.00  0.00    -0.550 OA
ATOM      7  O   UNL     1      16.665  10.978  20.269  1.00  0.00    -0.550 OA
ENDBRANCH   4   5
ENDBRANCH   3   4
ENDBRANCH   2   3
ENDBRANCH   1   2
BRANCH   1   8
ATOM      8  C   UNL     1      18.547  12.307  14.194  1.00  0.00     0.000 C 
BRANCH   8   9
ATOM      9  C   UNL     1      17.026  12.505  14.262  1.00  0.00     0.006 C 
BRANCH   9  10
ATOM     10  C   UNL     1      16.334  11.410  15.085  1.00  0.00     0.053 C 
BRANCH  10  11
ATOM     11  C   UNL     1      14.913  11.765  15.398  1.00  0.00     0.041 C 
ATOM     12  O   UNL     1      14.591  12.119  16.563  1.00  0.00    -0.550 OA
ATOM     13  O   UNL     1      13.951  11.737  14.396  1.00  0.00    -0.550 OA
ENDBRANCH  10  11
ENDBRANCH   9  10
ENDBRANCH   8   9
ENDBRANCH   1   8
TORSDOF 8
ENDMDL
MODEL 4
REMARK VINA RESULT:    -3.840      2.089      3.967
REMARK INTER + INTRA:          -6.241
REMARK INTER:                  -5.666
REMARK INTRA:                  -0.575
REMARK UNBOUND:                -0.605
REMARK SMILES O=C([O-])CCCCCCCC(=O)[O-]
REMARK SMILES IDX 7 1 6 2 5 3 4 4 2 5 1 6 3 7 8 8 9 9 10 10 11 11 12 12 13 13
REMARK H PARENT
REMARK Flexibility Score: inf
ROOT
ATOM      1  C   UNL     1      19.071  11.701  15.572  1.00  0.00     0.000 C 
ENDROOT
BRANCH   1   2
ATOM      2  C   UNL     1      18.547  12.287  14.249  1.00  0.00     0.000 C 
BRANCH   2   3
ATOM      3  C   UNL     1      17.016  12.423  14.158  1.00  0.00     0.006 C 
BRANCH   3   4
ATOM      4  C   UNL     1      16.271  11.305  14.898  1.00  0.00     0.053 C 
BRANCH   4   5
ATOM      5  C   UNL     1      14.887  11.746  15.253  1.00  0.00     0.041 C 
ATOM      6  O   UNL     1      13.996  11.816  14.365  1.00  0.00    -0.550 OA
ATOM      7  O   UNL     1      14.591  12.128  16.556  1.00  0.00    -0.550 OA
ENDBRANCH   4   5
ENDBRANCH   3   4
ENDBRANCH   2   3
ENDBRANCH   1   2
BRANCH   1   8
ATOM      8  C   UNL     1      19.680  12.763  16.499  1.00  0.00     0.000 C 
BRANCH   8   9
ATOM      9  C   UNL     1      18.754  13.051  17.689  1.00  0.00     0.006 C 
BRANCH   9  10
ATOM     10  C   UNL     1      18.177  11.768  18.301  1.00  0.00     0.053 C 
BRANCH  10  11
ATOM     11  C   UNL     1      17.233  12.063  19.426  1.00  0.00     0.041 C 
ATOM     12  O   UNL     1      16.877  13.248  19.658  1.00  0.00    -0.550 OA
ATOM     13  O   UNL     1      16.720  11.026  20.195  1.00  0.00    -0.550 OA
ENDBRANCH  10  11
ENDBRANCH   9  10
ENDBRANCH   8   9
ENDBRANCH   1   8
TORSDOF 8
ENDMDL
MODEL 5
REMARK VINA RESULT:    -3.608      7.452      8.393
REMARK INTER + INTRA:          -5.901
REMARK INTER:                  -5.134
REMARK INTRA:                  -0.767
REMARK UNBOUND:                -0.605
REMARK SMILES O=C([O-])CCCCCCCC(=O)[O-]
REMARK SMILES IDX 7 1 6 2 5 3 4 4 2 5 1 6 3 7 8 8 9 9 10 10 11 11 12 12 13 13
REMARK H PARENT
REMARK Flexibility Score: inf
ROOT
ATOM      1  C   UNL     1      11.013  14.788  10.489  1.00  0.00     0.000 C 
ENDROOT
BRANCH   1   2
ATOM      2  C   UNL     1      10.733  15.059  11.978  1.00  0.00     0.000 C 
BRANCH   2   3
ATOM      3  C   UNL     1       9.523  14.305  12.561  1.00  0.00     0.006 C 
BRANCH   3   4
ATOM      4  C   UNL     1       9.617  12.786  12.371  1.00  0.00     0.053 C 
BRANCH   4   5
ATOM      5  C   UNL     1      10.250  12.148  13.567  1.00  0.00     0.041 C 
ATOM      6  O   UNL     1       9.654  12.152  14.677  1.00  0.00    -0.550 OA
ATOM      7  O   UNL     1      11.520  11.593  13.470  1.00  0.00    -0.550 OA
ENDBRANCH   4   5
ENDBRANCH   3   4
ENDBRANCH   2   3
ENDBRANCH   1   2
BRANCH   1   8
ATOM      8  C   UNL     1      12.507  14.607  10.183  1.00  0.00     0.000 C 
BRANCH   8   9
ATOM      9  C   UNL     1      13.010  13.243  10.675  1.00  0.00     0.006 C 
BRANCH   9  10
ATOM     10  C   UNL     1      12.962  12.174   9.575  1.00  0.00     0.053 C 
BRANCH  10  11
ATOM     11  C   UNL     1      11.956  11.106   9.880  1.00  0.00     0.041 C 
ATOM     12  O   UNL     1      12.272  10.128  10.606  1.00  0.00    -0.550 OA
ATOM     13  O   UNL     1      10.660  11.211   9.389  1.00  0.00    -0.550 OA
ENDBRANCH  10  11
ENDBRANCH   9  10
ENDBRANCH   8   9
ENDBRANCH   1   8
TORSDOF 8
ENDMDL
MODEL 6
REMARK VINA RESULT:    -3.607      6.990      8.662
REMARK INTER + INTRA:          -5.898
REMARK INTER:                  -5.207
REMARK INTRA:                  -0.691
REMARK UNBOUND:                -0.605
REMARK SMILES O=C([O-])CCCCCCCC(=O)[O-]
REMARK SMILES IDX 7 1 6 2 5 3 4 4 2 5 1 6 3 7 8 8 9 9 10 10 11 11 12 12 13 13
REMARK H PARENT
REMARK Flexibility Score: inf
ROOT
ATOM      1  C   UNL     1      13.014  12.349   9.616  1.00  0.00     0.000 C 
ENDROOT
BRANCH   1   2
ATOM      2  C   UNL     1      12.811  13.470  10.651  1.00  0.00     0.000 C 
BRANCH   2   3
ATOM      3  C   UNL     1      12.406  14.834  10.061  1.00  0.00     0.006 C 
BRANCH   3   4
ATOM      4  C   UNL     1      10.886  15.019   9.969  1.00  0.00     0.053 C 
BRANCH   4   5
ATOM      5  C   UNL     1      10.227  14.561  11.232  1.00  0.00     0.041 C 
ATOM      6  O   UNL     1      10.384  15.210  12.300  1.00  0.00    -0.550 OA
ATOM      7  O   UNL     1       9.480  13.390  11.241  1.00  0.00    -0.550 OA
ENDBRANCH   4   5
ENDBRANCH   3   4
ENDBRANCH   2   3
ENDBRANCH   1   2
BRANCH   1   8
ATOM      8  C   UNL     1      11.873  11.321   9.614  1.00  0.00     0.000 C 
BRANCH   8   9
ATOM      9  C   UNL     1      12.123  10.219  10.653  1.00  0.00     0.006 C 
BRANCH   9  10
ATOM     10  C   UNL     1      11.111  10.266  11.806  1.00  0.00     0.053 C 
BRANCH  10  11
ATOM     11  C   UNL     1      11.664  10.977  13.003  1.00  0.00     0.041 C 
ATOM     12  O   UNL     1      12.889  10.892  13.280  1.00  0.00    -0.550 OA
ATOM     13  O   UNL     1      10.832  11.762  13.792  1.00  0.00    -0.550 OA
ENDBRANCH  10  11
ENDBRANCH   9  10
ENDBRANCH   8   9
ENDBRANCH   1   8
TORSDOF 8
ENDMDL
MODEL 7
REMARK VINA RESULT:    -3.605      7.017      8.999
REMARK INTER + INTRA:          -5.896
REMARK INTER:                  -5.203
REMARK INTRA:                  -0.693
REMARK UNBOUND:                -0.605
REMARK SMILES O=C([O-])CCCCCCCC(=O)[O-]
REMARK SMILES IDX 7 1 6 2 5 3 4 4 2 5 1 6 3 7 8 8 9 9 10 10 11 11 12 12 13 13
REMARK H PARENT
REMARK Flexibility Score: inf
ROOT
ATOM      1  C   UNL     1      10.713  15.013  11.930  1.00  0.00     0.000 C 
ENDROOT
BRANCH   1   2
ATOM      2  C   UNL     1      11.158  14.780  10.475  1.00  0.00     0.000 C 
BRANCH   2   3
ATOM      3  C   UNL     1      12.657  14.478  10.292  1.00  0.00     0.006 C 
BRANCH   3   4
ATOM      4  C   UNL     1      13.101  13.197  11.009  1.00  0.00     0.053 C 
BRANCH   4   5
ATOM      5  C   UNL     1      12.839  12.001  10.149  1.00  0.00     0.041 C 
ATOM      6  O   UNL     1      12.418  10.930  10.662  1.00  0.00    -0.550 OA
ATOM      7  O   UNL     1      13.106  12.052   8.786  1.00  0.00    -0.550 OA
ENDBRANCH   4   5
ENDBRANCH   3   4
ENDBRANCH   2   3
ENDBRANCH   1   2
BRANCH   1   8
ATOM      8  C   UNL     1       9.255  14.606  12.185  1.00  0.00     0.000 C 
BRANCH   8   9
ATOM      9  C   UNL     1       9.168  13.518  13.264  1.00  0.00     0.006 C 
BRANCH   9  10
ATOM     10  C   UNL     1       9.944  12.252  12.878  1.00  0.00     0.053 C 
BRANCH  10  11
ATOM     11  C   UNL     1      10.720  11.700  14.034  1.00  0.00     0.041 C 
ATOM     12  O   UNL     1      11.919  11.350  13.882  1.00  0.00    -0.550 OA
ATOM     13  O   UNL     1      10.127  11.604  15.287  1.00  0.00    -0.550 OA
ENDBRANCH  10  11
ENDBRANCH   9  10
ENDBRANCH   8   9
ENDBRANCH   1   8
TORSDOF 8
ENDMDL
MODEL 8
REMARK VINA RESULT:    -3.584      7.386      8.515
REMARK INTER + INTRA:          -5.864
REMARK INTER:                  -5.014
REMARK INTRA:                  -0.851
REMARK UNBOUND:                -0.605
REMARK SMILES O=C([O-])CCCCCCCC(=O)[O-]
REMARK SMILES IDX 7 1 6 2 5 3 4 4 2 5 1 6 3 7 8 8 9 9 10 10 11 11 12 12 13 13
REMARK H PARENT
REMARK Flexibility Score: inf
ROOT
ATOM      1  C   UNL     1      11.722  11.244   9.629  1.00  0.00     0.000 C 
ENDROOT
BRANCH   1   2
ATOM      2  C   UNL     1      12.032  10.133  10.647  1.00  0.00     0.000 C 
BRANCH   2   3
ATOM      3  C   UNL     1      10.956   9.920  11.727  1.00  0.00     0.006 C 
BRANCH   3   4
ATOM      4  C   UNL     1      10.116  11.176  11.991  1.00  0.00     0.053 C 
BRANCH   4   5
ATOM      5  C   UNL     1      10.535  11.825  13.273  1.00  0.00     0.041 C 
ATOM      6  O   UNL     1       9.745  12.594  13.881  1.00  0.00    -0.550 OA
ATOM      7  O   UNL     1      11.816  11.618  13.771  1.00  0.00    -0.550 OA
ENDBRANCH   4   5
ENDBRANCH   3   4
ENDBRANCH   2   3
ENDBRANCH   1   2
BRANCH   1   8
ATOM      8  C   UNL     1      12.880  12.236   9.450  1.00  0.00     0.000 C 
BRANCH   8   9
ATOM      9  C   UNL     1      12.976  13.191  10.648  1.00  0.00     0.006 C 
BRANCH   9  10
ATOM     10  C   UNL     1      12.390  14.575  10.338  1.00  0.00     0.053 C 
BRANCH  10  11
ATOM     11  C   UNL     1      11.037  14.757  10.955  1.00  0.00     0.041 C 
ATOM     12  O   UNL     1      10.921  15.345  12.062  1.00  0.00    -0.550 OA
ATOM     13  O   UNL     1       9.902  14.308  10.291  1.00  0.00    -0.550 OA
ENDBRANCH  10  11
ENDBRANCH   9  10
ENDBRANCH   8   9
ENDBRANCH   1   8
TORSDOF 8
ENDMDL
MODEL 9
REMARK VINA RESULT:    -3.582      6.475      8.790
REMARK INTER + INTRA:          -5.862
REMARK INTER:                  -5.105
REMARK INTRA:                  -0.757
REMARK UNBOUND:                -0.605
REMARK SMILES O=C([O-])CCCCCCCC(=O)[O-]
REMARK SMILES IDX 7 1 6 2 5 3 4 4 2 5 1 6 3 7 8 8 9 9 10 10 11 11 12 12 13 13
REMARK H PARENT
REMARK Flexibility Score: inf
ROOT
ATOM      1  C   UNL     1       9.356  14.540  12.085  1.00  0.00     0.000 C 
ENDROOT
BRANCH   1   2
ATOM      2  C   UNL     1      10.758  15.173  12.036  1.00  0.00     0.000 C 
BRANCH   2   3
ATOM      3  C   UNL     1      11.433  15.152  10.653  1.00  0.00     0.006 C 
BRANCH   3   4
ATOM      4  C   UNL     1      12.559  14.115  10.552  1.00  0.00     0.053 C 
BRANCH   4   5
ATOM      5  C   UNL     1      12.200  13.050   9.563  1.00  0.00     0.041 C 
ATOM      6  O   UNL     1      13.082  12.260   9.134  1.00  0.00    -0.550 OA
ATOM      7  O   UNL     1      10.900  12.961   9.079  1.00  0.00    -0.550 OA
ENDBRANCH   4   5
ENDBRANCH   3   4
ENDBRANCH   2   3
ENDBRANCH   1   2
BRANCH   1   8
ATOM      8  C   UNL     1       9.249  13.394  13.102  1.00  0.00     0.000 C 
BRANCH   8   9
ATOM      9  C   UNL     1       9.992  12.146  12.604  1.00  0.00     0.006 C 
BRANCH   9  10
ATOM     10  C   UNL     1      10.910  11.547  13.678  1.00  0.00     0.053 C 
BRANCH  10  11
ATOM     11  C   UNL     1      12.251  11.180  13.123  1.00  0.00     0.041 C 
ATOM     12  O   UNL     1      13.300  11.490  13.745  1.00  0.00    -0.550 OA
ATOM     13  O   UNL     1      12.340  10.464  11.935  1.00  0.00    -0.550 OA
ENDBRANCH  10  11
ENDBRANCH   9  10
ENDBRANCH   8   9
ENDBRANCH   1   8
TORSDOF 8
ENDMDL
