MODEL 1
REMARK VINA RESULT:    -3.340      0.000      0.000
REMARK INTER + INTRA:          -3.111
REMARK INTER:                  -3.730
REMARK INTRA:                   0.619
REMARK UNBOUND:                 0.619
REMARK SMILES O=C([O-])c1ccccc1C(=O)[O-]
REMARK SMILES IDX 4 1 9 2 5 3 8 4 6 5 7 6 2 7 1 8 3 9 10 10 11 11 12 12
REMARK H PARENT
REMARK Flexibility Score: inf
ROOT
ATOM      1  C   UNL     1      -5.731  36.737  21.942  1.00  0.00     0.006 A 
ATOM      2  C   UNL     1      -5.422  35.453  21.414  1.00  0.00     0.006 A 
ATOM      3  C   UNL     1      -6.091  36.851  23.299  1.00  0.00     0.010 A 
ATOM      4  C   UNL     1      -5.424  34.340  22.276  1.00  0.00     0.010 A 
ATOM      5  C   UNL     1      -6.106  35.731  24.129  1.00  0.00     0.001 A 
ATOM      6  C   UNL     1      -5.762  34.479  23.622  1.00  0.00     0.001 A 
ENDROOT
BRANCH   1   7
ATOM      7  C   UNL     1      -5.618  37.977  21.142  1.00  0.00     0.072 C 
ATOM      8  O   UNL     1      -5.753  37.940  19.890  1.00  0.00    -0.545 OA
ATOM      9  O   UNL     1      -5.429  39.207  21.763  1.00  0.00    -0.545 OA
ENDBRANCH   1   7
BRANCH   2  10
ATOM     10  C   UNL     1      -5.171  35.222  19.973  1.00  0.00     0.072 C 
ATOM     11  O   UNL     1      -4.064  35.538  19.463  1.00  0.00    -0.545 OA
ATOM     12  O   UNL     1      -6.125  34.596  19.179  1.00  0.00    -0.545 OA
ENDBRANCH   2  10
TORSDOF 2
ENDMDL
MODEL 2
REMARK VINA RESULT:    -3.322      0.041      3.116
REMARK INTER + INTRA:          -3.092
REMARK INTER:                  -3.739
REMARK INTRA:                   0.647
REMARK UNBOUND:                 0.619
REMARK SMILES O=C([O-])c1ccccc1C(=O)[O-]
REMARK SMILES IDX 4 1 9 2 5 3 8 4 6 5 7 6 2 7 1 8 3 9 10 10 11 11 12 12
REMARK H PARENT
REMARK Flexibility Score: inf
ROOT
ATOM      1  C   UNL     1      -5.438  35.473  21.415  1.00  0.00     0.006 A 
ATOM      2  C   UNL     1      -5.728  36.761  21.943  1.00  0.00     0.006 A 
ATOM      3  C   UNL     1      -5.458  34.360  22.277  1.00  0.00     0.010 A 
ATOM      4  C   UNL     1      -6.087  36.881  23.299  1.00  0.00     0.010 A 
ATOM      5  C   UNL     1      -5.796  34.505  23.622  1.00  0.00     0.001 A 
ATOM      6  C   UNL     1      -6.122  35.761  24.130  1.00  0.00     0.001 A 
ENDROOT
BRANCH   1   7
ATOM      7  C   UNL     1      -5.188  35.238  19.975  1.00  0.00     0.072 C 
ATOM      8  O   UNL     1      -4.094  35.585  19.456  1.00  0.00    -0.545 OA
ATOM      9  O   UNL     1      -6.125  34.572  19.192  1.00  0.00    -0.545 OA
ENDBRANCH   1   7
BRANCH   2  10
ATOM     10  C   UNL     1      -5.594  38.000  21.143  1.00  0.00     0.072 C 
ATOM     11  O   UNL     1      -5.759  37.970  19.894  1.00  0.00    -0.545 OA
ATOM     12  O   UNL     1      -5.349  39.220  21.761  1.00  0.00    -0.545 OA
ENDBRANCH   2  10
TORSDOF 2
ENDMDL
MODEL 3
REMARK VINA RESULT:    -2.534      2.051      3.263
REMARK INTER + INTRA:          -2.211
REMARK INTER:                  -2.081
REMARK INTRA:                  -0.130
REMARK UNBOUND:                 0.619
REMARK SMILES O=C([O-])c1ccccc1C(=O)[O-]
REMARK SMILES IDX 4 1 9 2 5 3 8 4 6 5 7 6 2 7 1 8 3 9 10 10 11 11 12 12
REMARK H PARENT
REMARK Flexibility Score: inf
ROOT
ATOM      1  C   UNL     1      -5.254  36.312  21.503  1.00  0.00     0.006 A 
ATOM      2  C   UNL     1      -5.376  36.417  20.090  1.00  0.00     0.006 A 
ATOM      3  C   UNL     1      -5.326  37.481  22.285  1.00  0.00     0.010 A 
ATOM      4  C   UNL     1      -5.629  37.678  19.516  1.00  0.00     0.010 A 
ATOM      5  C   UNL     1      -5.556  38.723  21.692  1.00  0.00     0.001 A 
ATOM      6  C   UNL     1      -5.719  38.820  20.312  1.00  0.00     0.001 A 
ENDROOT
BRANCH   1   7
ATOM      7  C   UNL     1      -5.127  35.012  22.199  1.00  0.00     0.072 C 
ATOM      8  O   UNL     1      -6.125  34.499  22.772  1.00  0.00    -0.545 OA
ATOM      9  O   UNL     1      -3.928  34.308  22.174  1.00  0.00    -0.545 OA
ENDBRANCH   1   7
BRANCH   2  10
ATOM     10  C   UNL     1      -5.174  35.264  19.183  1.00  0.00     0.072 C 
ATOM     11  O   UNL     1      -4.109  35.160  18.518  1.00  0.00    -0.545 OA
ATOM     12  O   UNL     1      -6.121  34.251  19.101  1.00  0.00    -0.545 OA
ENDBRANCH   2  10
TORSDOF 2
ENDMDL
MODEL 4
REMARK VINA RESULT:    -2.346      1.890      3.846
REMARK INTER + INTRA:          -2.001
REMARK INTER:                  -2.435
REMARK INTRA:                   0.434
REMARK UNBOUND:                 0.619
REMARK SMILES O=C([O-])c1ccccc1C(=O)[O-]
REMARK SMILES IDX 4 1 9 2 5 3 8 4 6 5 7 6 2 7 1 8 3 9 10 10 11 11 12 12
REMARK H PARENT
REMARK Flexibility Score: inf
ROOT
ATOM      1  C   UNL     1      -5.368  36.481  20.749  1.00  0.00     0.006 A 
ATOM      2  C   UNL     1      -5.584  36.556  22.152  1.00  0.00     0.006 A 
ATOM      3  C   UNL     1      -5.368  37.669  19.992  1.00  0.00     0.010 A 
ATOM      4  C   UNL     1      -5.728  37.820  22.757  1.00  0.00     0.010 A 
ATOM      5  C   UNL     1      -5.533  38.908  20.609  1.00  0.00     0.001 A 
ATOM      6  C   UNL     1      -5.701  38.985  21.990  1.00  0.00     0.001 A 
ENDROOT
BRANCH   1   7
ATOM      7  C   UNL     1      -5.070  35.209  20.054  1.00  0.00     0.072 C 
ATOM      8  O   UNL     1      -3.961  34.636  20.227  1.00  0.00    -0.545 OA
ATOM      9  O   UNL     1      -6.029  34.594  19.256  1.00  0.00    -0.545 OA
ENDBRANCH   1   7
BRANCH   2  10
ATOM     10  C   UNL     1      -5.740  35.353  23.001  1.00  0.00     0.072 C 
ATOM     11  O   UNL     1      -6.125  34.266  22.496  1.00  0.00    -0.545 OA
ATOM     12  O   UNL     1      -5.405  35.389  24.350  1.00  0.00    -0.545 OA
ENDBRANCH   2  10
TORSDOF 2
ENDMDL
MODEL 5
REMARK VINA RESULT:    -2.312      1.950      3.259
REMARK INTER + INTRA:          -1.963
REMARK INTER:                  -2.545
REMARK INTRA:                   0.582
REMARK UNBOUND:                 0.619
REMARK SMILES O=C([O-])c1ccccc1C(=O)[O-]
REMARK SMILES IDX 4 1 9 2 5 3 8 4 6 5 7 6 2 7 1 8 3 9 10 10 11 11 12 12
REMARK H PARENT
REMARK Flexibility Score: inf
ROOT
ATOM      1  C   UNL     1      -5.662  36.722  22.499  1.00  0.00     0.006 A 
ATOM      2  C   UNL     1      -5.458  36.644  21.095  1.00  0.00     0.006 A 
ATOM      3  C   UNL     1      -5.714  37.988  23.114  1.00  0.00     0.010 A 
ATOM      4  C   UNL     1      -5.376  37.834  20.347  1.00  0.00     0.010 A 
ATOM      5  C   UNL     1      -5.609  39.154  22.356  1.00  0.00     0.001 A 
ATOM      6  C   UNL     1      -5.452  39.078  20.974  1.00  0.00     0.001 A 
ENDROOT
BRANCH   1   7
ATOM      7  C   UNL     1      -5.898  35.527  23.340  1.00  0.00     0.072 C 
ATOM      8  O   UNL     1      -6.122  34.408  22.804  1.00  0.00    -0.545 OA
ATOM      9  O   UNL     1      -5.810  35.605  24.725  1.00  0.00    -0.545 OA
ENDBRANCH   1   7
BRANCH   2  10
ATOM     10  C   UNL     1      -5.250  35.359  20.388  1.00  0.00     0.072 C 
ATOM     11  O   UNL     1      -6.124  34.925  19.591  1.00  0.00    -0.545 OA
ATOM     12  O   UNL     1      -4.067  34.647  20.543  1.00  0.00    -0.545 OA
ENDBRANCH   2  10
TORSDOF 2
ENDMDL
MODEL 6
REMARK VINA RESULT:    -0.941      2.263      4.475
REMARK INTER + INTRA:          -0.432
REMARK INTER:                  -1.323
REMARK INTRA:                   0.890
REMARK UNBOUND:                 0.619
REMARK SMILES O=C([O-])c1ccccc1C(=O)[O-]
REMARK SMILES IDX 4 1 9 2 5 3 8 4 6 5 7 6 2 7 1 8 3 9 10 10 11 11 12 12
REMARK H PARENT
REMARK Flexibility Score: inf
ROOT
ATOM      1  C   UNL     1      -5.301  35.659  21.762  1.00  0.00     0.006 A 
ATOM      2  C   UNL     1      -5.464  37.002  22.201  1.00  0.00     0.006 A 
ATOM      3  C   UNL     1      -5.228  35.396  20.381  1.00  0.00     0.010 A 
ATOM      4  C   UNL     1      -5.484  38.037  21.248  1.00  0.00     0.010 A 
ATOM      5  C   UNL     1      -5.272  36.435  19.453  1.00  0.00     0.001 A 
ATOM      6  C   UNL     1      -5.388  37.755  19.885  1.00  0.00     0.001 A 
ENDROOT
BRANCH   1   7
ATOM      7  C   UNL     1      -5.130  34.527  22.700  1.00  0.00     0.072 C 
ATOM      8  O   UNL     1      -6.125  34.052  23.310  1.00  0.00    -0.545 OA
ATOM      9  O   UNL     1      -3.886  33.930  22.871  1.00  0.00    -0.545 OA
ENDBRANCH   1   7
BRANCH   2  10
ATOM     10  C   UNL     1      -5.690  37.355  23.622  1.00  0.00     0.072 C 
ATOM     11  O   UNL     1      -6.124  36.491  24.429  1.00  0.00    -0.545 OA
ATOM     12  O   UNL     1      -5.367  38.621  24.098  1.00  0.00    -0.545 OA
ENDBRANCH   2  10
TORSDOF 2
ENDMDL
MODEL 7
REMARK VINA RESULT:    -0.905      2.326      3.394
REMARK INTER + INTRA:          -0.392
REMARK INTER:                  -2.589
REMARK INTRA:                   2.196
REMARK UNBOUND:                 0.619
REMARK SMILES O=C([O-])c1ccccc1C(=O)[O-]
REMARK SMILES IDX 4 1 9 2 5 3 8 4 6 5 7 6 2 7 1 8 3 9 10 10 11 11 12 12
REMARK H PARENT
REMARK Flexibility Score: inf
ROOT
ATOM      1  C   UNL     1      -5.448  37.412  21.577  1.00  0.00     0.006 A 
ATOM      2  C   UNL     1      -5.819  36.145  22.105  1.00  0.00     0.006 A 
ATOM      3  C   UNL     1      -5.185  37.529  20.199  1.00  0.00     0.010 A 
ATOM      4  C   UNL     1      -5.974  35.056  21.226  1.00  0.00     0.010 A 
ATOM      5  C   UNL     1      -5.325  36.431  19.350  1.00  0.00     0.001 A 
ATOM      6  C   UNL     1      -5.730  35.200  19.860  1.00  0.00     0.001 A 
ENDROOT
BRANCH   1   7
ATOM      7  C   UNL     1      -5.398  38.638  22.405  1.00  0.00     0.072 C 
ATOM      8  O   UNL     1      -4.974  38.587  23.590  1.00  0.00    -0.545 OA
ATOM      9  O   UNL     1      -5.752  39.871  21.868  1.00  0.00    -0.545 OA
ENDBRANCH   1   7
BRANCH   2  10
ATOM     10  C   UNL     1      -5.976  35.900  23.557  1.00  0.00     0.072 C 
ATOM     11  O   UNL     1      -6.125  36.867  24.351  1.00  0.00    -0.545 OA
ATOM     12  O   UNL     1      -6.027  34.604  24.056  1.00  0.00    -0.545 OA
ENDBRANCH   2  10
TORSDOF 2
ENDMDL
MODEL 8
REMARK VINA RESULT:    -0.751      2.353      4.069
REMARK INTER + INTRA:          -0.219
REMARK INTER:                  -2.564
REMARK INTRA:                   2.345
REMARK UNBOUND:                 0.619
REMARK SMILES O=C([O-])c1ccccc1C(=O)[O-]
REMARK SMILES IDX 4 1 9 2 5 3 8 4 6 5 7 6 2 7 1 8 3 9 10 10 11 11 12 12
REMARK H PARENT
REMARK Flexibility Score: inf
ROOT
ATOM      1  C   UNL     1      -5.863  36.148  22.212  1.00  0.00     0.006 A 
ATOM      2  C   UNL     1      -5.458  37.406  21.688  1.00  0.00     0.006 A 
ATOM      3  C   UNL     1      -6.025  35.061  21.331  1.00  0.00     0.010 A 
ATOM      4  C   UNL     1      -5.168  37.516  20.315  1.00  0.00     0.010 A 
ATOM      5  C   UNL     1      -5.753  35.198  19.971  1.00  0.00     0.001 A 
ATOM      6  C   UNL     1      -5.314  36.420  19.465  1.00  0.00     0.001 A 
ENDROOT
BRANCH   1   7
ATOM      7  C   UNL     1      -6.053  35.909  23.660  1.00  0.00     0.072 C 
ATOM      8  O   UNL     1      -6.090  34.733  24.110  1.00  0.00    -0.545 OA
ATOM      9  O   UNL     1      -6.124  36.974  24.551  1.00  0.00    -0.545 OA
ENDBRANCH   1   7
BRANCH   2  10
ATOM     10  C   UNL     1      -5.398  38.633  22.516  1.00  0.00     0.072 C 
ATOM     11  O   UNL     1      -4.995  38.576  23.708  1.00  0.00    -0.545 OA
ATOM     12  O   UNL     1      -5.724  39.871  21.973  1.00  0.00    -0.545 OA
ENDBRANCH   2  10
TORSDOF 2
ENDMDL
MODEL 9
REMARK VINA RESULT:    -0.704      2.175      4.163
REMARK INTER + INTRA:          -0.167
REMARK INTER:                  -2.758
REMARK INTRA:                   2.591
REMARK UNBOUND:                 0.619
REMARK SMILES O=C([O-])c1ccccc1C(=O)[O-]
REMARK SMILES IDX 4 1 9 2 5 3 8 4 6 5 7 6 2 7 1 8 3 9 10 10 11 11 12 12
REMARK H PARENT
REMARK Flexibility Score: inf
ROOT
ATOM      1  C   UNL     1      -5.570  35.772  21.783  1.00  0.00     0.006 A 
ATOM      2  C   UNL     1      -5.359  37.113  21.359  1.00  0.00     0.006 A 
ATOM      3  C   UNL     1      -5.535  34.739  20.827  1.00  0.00     0.010 A 
ATOM      4  C   UNL     1      -5.060  37.365  20.007  1.00  0.00     0.010 A 
ATOM      5  C   UNL     1      -5.257  35.014  19.488  1.00  0.00     0.001 A 
ATOM      6  C   UNL     1      -5.008  36.323  19.081  1.00  0.00     0.001 A 
ENDROOT
BRANCH   1   7
ATOM      7  C   UNL     1      -5.752  35.403  23.205  1.00  0.00     0.072 C 
ATOM      8  O   UNL     1      -6.125  36.268  24.042  1.00  0.00    -0.545 OA
ATOM      9  O   UNL     1      -5.580  34.089  23.624  1.00  0.00    -0.545 OA
ENDBRANCH   1   7
BRANCH   2  10
ATOM     10  C   UNL     1      -5.517  38.271  22.268  1.00  0.00     0.072 C 
ATOM     11  O   UNL     1      -5.382  38.125  23.512  1.00  0.00    -0.545 OA
ATOM     12  O   UNL     1      -5.752  39.544  21.761  1.00  0.00    -0.545 OA
ENDBRANCH   2  10
TORSDOF 2
ENDMDL
