MODEL 1
REMARK VINA RESULT:    -7.150      0.000      0.000
REMARK INTER + INTRA:          -8.701
REMARK INTER:                  -8.404
REMARK INTRA:                  -0.297
REMARK UNBOUND:                -0.297
REMARK SMILES O=c1cc(-c2ccc(O)c(O)c2)oc2cc(O)cc(O)c12
REMARK SMILES IDX 4 1 3 2 2 3 1 4 21 5 19 6 18 7 16 8 15 9 14 10 13 11 5 12
REMARK SMILES IDX 6 13 7 14 8 15 12 16 10 17 9 18 11 20 20 22 17 24
REMARK H PARENT 9 19 11 21 20 23 17 25
REMARK Flexibility Score: inf
ROOT
ATOM      1  C   UNL     1      27.377  -2.257  35.667  1.00  0.00     0.138 A 
ATOM      2  C   UNL     1      27.652  -1.258  36.611  1.00  0.00     0.100 A 
ATOM      3  C   UNL     1      26.636  -0.391  37.015  1.00  0.00     0.197 A 
ATOM      4  O   UNL     1      26.929   0.530  37.821  1.00  0.00    -0.289 OA
ATOM      5  C   UNL     1      25.328  -0.550  36.500  1.00  0.00     0.107 A 
ATOM      6  C   UNL     1      24.205   0.251  36.866  1.00  0.00     0.134 A 
ATOM      7  C   UNL     1      22.980   0.062  36.214  1.00  0.00     0.093 A 
ATOM      8  C   UNL     1      22.821  -0.935  35.253  1.00  0.00     0.123 A 
ATOM      9  C   UNL     1      23.898  -1.759  34.923  1.00  0.00     0.094 A 
ATOM     10  C   UNL     1      25.143  -1.572  35.531  1.00  0.00     0.146 A 
ATOM     11  O   UNL     1      26.148  -2.366  35.175  1.00  0.00    -0.456 OA
ENDROOT
BRANCH   1  12
ATOM     12  C   UNL     1      28.419  -3.208  35.203  1.00  0.00     0.021 A 
ATOM     13  C   UNL     1      28.081  -4.198  34.268  1.00  0.00     0.016 A 
ATOM     14  C   UNL     1      29.043  -5.101  33.811  1.00  0.00     0.051 A 
ATOM     15  C   UNL     1      30.362  -5.029  34.267  1.00  0.00     0.157 A 
ATOM     16  C   UNL     1      29.750  -3.125  35.652  1.00  0.00     0.062 A 
ATOM     17  C   UNL     1      30.722  -4.025  35.196  1.00  0.00     0.158 A 
BRANCH  15  18
ATOM     18  O   UNL     1      31.275  -5.965  33.775  1.00  0.00    -0.504 OA
ATOM     19  H   UNL     1      32.134  -5.722  33.303  1.00  0.00     0.293 HD
ENDBRANCH  15  18
BRANCH  17  20
ATOM     20  O   UNL     1      32.023  -3.881  35.684  1.00  0.00    -0.504 OA
ATOM     21  H   UNL     1      32.346  -3.080  36.206  1.00  0.00     0.293 HD
ENDBRANCH  17  20
ENDBRANCH   1  12
BRANCH   6  22
ATOM     22  O   UNL     1      24.230   1.224  37.870  1.00  0.00    -0.507 OA
ATOM     23  H   UNL     1      23.469   1.846  38.093  1.00  0.00     0.293 HD
ENDBRANCH   6  22
BRANCH   8  24
ATOM     24  O   UNL     1      21.583  -1.105  34.635  1.00  0.00    -0.508 OA
ATOM     25  H   UNL     1      21.505  -1.499  33.706  1.00  0.00     0.293 HD
ENDBRANCH   8  24
TORSDOF 5
ENDMDL
MODEL 2
REMARK VINA RESULT:    -6.385      1.219      2.810
REMARK INTER + INTRA:          -7.801
REMARK INTER:                  -7.483
REMARK INTRA:                  -0.318
REMARK UNBOUND:                -0.297
REMARK SMILES O=c1cc(-c2ccc(O)c(O)c2)oc2cc(O)cc(O)c12
REMARK SMILES IDX 4 1 3 2 2 3 1 4 21 5 19 6 18 7 16 8 15 9 14 10 13 11 5 12
REMARK SMILES IDX 6 13 7 14 8 15 12 16 10 17 9 18 11 20 20 22 17 24
REMARK H PARENT 9 19 11 21 20 23 17 25
REMARK Flexibility Score: inf
ROOT
ATOM      1  C   UNL     1      27.837  -3.056  34.754  1.00  0.00     0.138 A 
ATOM      2  C   UNL     1      26.688  -3.397  34.028  1.00  0.00     0.100 A 
ATOM      3  C   UNL     1      25.493  -2.716  34.265  1.00  0.00     0.197 A 
ATOM      4  O   UNL     1      24.467  -3.084  33.637  1.00  0.00    -0.289 OA
ATOM      5  C   UNL     1      25.459  -1.661  35.208  1.00  0.00     0.107 A 
ATOM      6  C   UNL     1      24.307  -0.874  35.507  1.00  0.00     0.134 A 
ATOM      7  C   UNL     1      24.369   0.079  36.532  1.00  0.00     0.093 A 
ATOM      8  C   UNL     1      25.554   0.312  37.228  1.00  0.00     0.123 A 
ATOM      9  C   UNL     1      26.701  -0.416  36.910  1.00  0.00     0.094 A 
ATOM     10  C   UNL     1      26.662  -1.398  35.916  1.00  0.00     0.146 A 
ATOM     11  O   UNL     1      27.771  -2.083  35.657  1.00  0.00    -0.456 OA
ENDROOT
BRANCH   1  12
ATOM     12  C   UNL     1      29.135  -3.745  34.542  1.00  0.00     0.021 A 
ATOM     13  C   UNL     1      29.218  -4.787  33.606  1.00  0.00     0.016 A 
ATOM     14  C   UNL     1      30.427  -5.447  33.384  1.00  0.00     0.051 A 
ATOM     15  C   UNL     1      31.581  -5.076  34.080  1.00  0.00     0.157 A 
ATOM     16  C   UNL     1      30.300  -3.360  35.233  1.00  0.00     0.062 A 
ATOM     17  C   UNL     1      31.518  -4.015  35.013  1.00  0.00     0.158 A 
BRANCH  15  18
ATOM     18  O   UNL     1      32.759  -5.780  33.815  1.00  0.00    -0.504 OA
ATOM     19  H   UNL     1      33.027  -6.107  32.898  1.00  0.00     0.293 HD
ENDBRANCH  15  18
BRANCH  17  20
ATOM     20  O   UNL     1      32.632  -3.579  35.734  1.00  0.00    -0.504 OA
ATOM     21  H   UNL     1      33.381  -4.183  36.038  1.00  0.00     0.293 HD
ENDBRANCH  17  20
ENDBRANCH   1  12
BRANCH   6  22
ATOM     22  O   UNL     1      23.092  -0.968  34.820  1.00  0.00    -0.507 OA
ATOM     23  H   UNL     1      22.850  -0.440  33.998  1.00  0.00     0.293 HD
ENDBRANCH   6  22
BRANCH   8  24
ATOM     24  O   UNL     1      25.584   1.279  38.232  1.00  0.00    -0.508 OA
ATOM     25  H   UNL     1      25.333   2.243  38.046  1.00  0.00     0.293 HD
ENDBRANCH   8  24
TORSDOF 5
ENDMDL
MODEL 3
REMARK VINA RESULT:    -6.077      1.157      3.003
REMARK INTER + INTRA:          -7.439
REMARK INTER:                  -7.143
REMARK INTRA:                  -0.296
REMARK UNBOUND:                -0.297
REMARK SMILES O=c1cc(-c2ccc(O)c(O)c2)oc2cc(O)cc(O)c12
REMARK SMILES IDX 4 1 3 2 2 3 1 4 21 5 19 6 18 7 16 8 15 9 14 10 13 11 5 12
REMARK SMILES IDX 6 13 7 14 8 15 12 16 10 17 9 18 11 20 20 22 17 24
REMARK H PARENT 9 19 11 21 20 23 17 25
REMARK Flexibility Score: inf
ROOT
ATOM      1  C   UNL     1      26.776  -2.774  34.910  1.00  0.00     0.138 A 
ATOM      2  C   UNL     1      25.697  -3.294  34.183  1.00  0.00     0.100 A 
ATOM      3  C   UNL     1      24.429  -2.730  34.329  1.00  0.00     0.197 A 
ATOM      4  O   UNL     1      23.471  -3.255  33.706  1.00  0.00    -0.289 OA
ATOM      5  C   UNL     1      24.249  -1.613  35.180  1.00  0.00     0.107 A 
ATOM      6  C   UNL     1      23.010  -0.933  35.381  1.00  0.00     0.134 A 
ATOM      7  C   UNL     1      22.934   0.099  36.324  1.00  0.00     0.093 A 
ATOM      8  C   UNL     1      24.062   0.514  37.032  1.00  0.00     0.123 A 
ATOM      9  C   UNL     1      25.290  -0.110  36.807  1.00  0.00     0.094 A 
ATOM     10  C   UNL     1      25.391  -1.166  35.898  1.00  0.00     0.146 A 
ATOM     11  O   UNL     1      26.575  -1.746  35.727  1.00  0.00    -0.456 OA
ENDROOT
BRANCH   1  12
ATOM     12  C   UNL     1      28.146  -3.334  34.792  1.00  0.00     0.021 A 
ATOM     13  C   UNL     1      29.138  -2.927  35.697  1.00  0.00     0.016 A 
ATOM     14  C   UNL     1      30.433  -3.442  35.611  1.00  0.00     0.051 A 
ATOM     15  C   UNL     1      30.763  -4.381  34.629  1.00  0.00     0.157 A 
ATOM     16  C   UNL     1      28.473  -4.291  33.813  1.00  0.00     0.062 A 
ATOM     17  C   UNL     1      29.769  -4.815  33.722  1.00  0.00     0.158 A 
BRANCH  15  18
ATOM     18  O   UNL     1      32.077  -4.853  34.593  1.00  0.00    -0.504 OA
ATOM     19  H   UNL     1      32.820  -4.417  34.066  1.00  0.00     0.293 HD
ENDBRANCH  15  18
BRANCH  17  20
ATOM     20  O   UNL     1      30.021  -5.762  32.726  1.00  0.00    -0.504 OA
ATOM     21  H   UNL     1      30.566  -5.579  31.896  1.00  0.00     0.293 HD
ENDBRANCH  17  20
ENDBRANCH   1  12
BRANCH   6  22
ATOM     22  O   UNL     1      21.839  -1.213  34.670  1.00  0.00    -0.507 OA
ATOM     23  H   UNL     1      21.764  -1.874  33.914  1.00  0.00     0.293 HD
ENDBRANCH   6  22
BRANCH   8  24
ATOM     24  O   UNL     1      23.953   1.554  37.952  1.00  0.00    -0.508 OA
ATOM     25  H   UNL     1      23.374   2.365  37.769  1.00  0.00     0.293 HD
ENDBRANCH   8  24
TORSDOF 5
ENDMDL
MODEL 4
REMARK VINA RESULT:    -5.957      1.831      7.754
REMARK INTER + INTRA:          -7.298
REMARK INTER:                  -7.026
REMARK INTRA:                  -0.272
REMARK UNBOUND:                -0.297
REMARK SMILES O=c1cc(-c2ccc(O)c(O)c2)oc2cc(O)cc(O)c12
REMARK SMILES IDX 4 1 3 2 2 3 1 4 21 5 19 6 18 7 16 8 15 9 14 10 13 11 5 12
REMARK SMILES IDX 6 13 7 14 8 15 12 16 10 17 9 18 11 20 20 22 17 24
REMARK H PARENT 9 19 11 21 20 23 17 25
REMARK Flexibility Score: inf
ROOT
ATOM      1  C   UNL     1      28.660  -3.085  35.037  1.00  0.00     0.138 A 
ATOM      2  C   UNL     1      28.674  -4.415  34.598  1.00  0.00     0.100 A 
ATOM      3  C   UNL     1      29.876  -4.996  34.191  1.00  0.00     0.197 A 
ATOM      4  O   UNL     1      29.846  -6.174  33.749  1.00  0.00    -0.289 OA
ATOM      5  C   UNL     1      31.077  -4.250  34.260  1.00  0.00     0.107 A 
ATOM      6  C   UNL     1      32.366  -4.748  33.906  1.00  0.00     0.134 A 
ATOM      7  C   UNL     1      33.469  -3.885  33.923  1.00  0.00     0.093 A 
ATOM      8  C   UNL     1      33.340  -2.559  34.335  1.00  0.00     0.123 A 
ATOM      9  C   UNL     1      32.093  -2.074  34.732  1.00  0.00     0.094 A 
ATOM     10  C   UNL     1      30.968  -2.901  34.694  1.00  0.00     0.146 A 
ATOM     11  O   UNL     1      29.795  -2.396  35.062  1.00  0.00    -0.456 OA
ENDROOT
BRANCH   1  12
ATOM     12  C   UNL     1      27.410  -2.417  35.483  1.00  0.00     0.021 A 
ATOM     13  C   UNL     1      27.368  -1.803  36.744  1.00  0.00     0.016 A 
ATOM     14  C   UNL     1      26.208  -1.165  37.185  1.00  0.00     0.051 A 
ATOM     15  C   UNL     1      25.070  -1.115  36.375  1.00  0.00     0.157 A 
ATOM     16  C   UNL     1      26.269  -2.355  34.660  1.00  0.00     0.062 A 
ATOM     17  C   UNL     1      25.102  -1.713  35.094  1.00  0.00     0.158 A 
BRANCH  15  18
ATOM     18  O   UNL     1      23.939  -0.466  36.877  1.00  0.00    -0.504 OA
ATOM     19  H   UNL     1      23.065  -0.929  37.078  1.00  0.00     0.293 HD
ENDBRANCH  15  18
BRANCH  17  20
ATOM     20  O   UNL     1      24.010  -1.689  34.224  1.00  0.00    -0.504 OA
ATOM     21  H   UNL     1      23.055  -1.845  34.510  1.00  0.00     0.293 HD
ENDBRANCH  17  20
ENDBRANCH   1  12
BRANCH   6  22
ATOM     22  O   UNL     1      32.624  -6.077  33.554  1.00  0.00    -0.507 OA
ATOM     23  H   UNL     1      33.448  -6.596  33.816  1.00  0.00     0.293 HD
ENDBRANCH   6  22
BRANCH   8  24
ATOM     24  O   UNL     1      34.461  -1.732  34.353  1.00  0.00    -0.508 OA
ATOM     25  H   UNL     1      35.073  -1.650  33.550  1.00  0.00     0.293 HD
ENDBRANCH   8  24
TORSDOF 5
ENDMDL
MODEL 5
REMARK VINA RESULT:    -5.867      2.476      3.737
REMARK INTER + INTRA:          -7.193
REMARK INTER:                  -6.929
REMARK INTRA:                  -0.264
REMARK UNBOUND:                -0.297
REMARK SMILES O=c1cc(-c2ccc(O)c(O)c2)oc2cc(O)cc(O)c12
REMARK SMILES IDX 4 1 3 2 2 3 1 4 21 5 19 6 18 7 16 8 15 9 14 10 13 11 5 12
REMARK SMILES IDX 6 13 7 14 8 15 12 16 10 17 9 18 11 20 20 22 17 24
REMARK H PARENT 9 19 11 21 20 23 17 25
REMARK Flexibility Score: inf
ROOT
ATOM      1  C   UNL     1      25.639  -1.518  34.571  1.00  0.00     0.138 A 
ATOM      2  C   UNL     1      24.349  -1.998  34.834  1.00  0.00     0.100 A 
ATOM      3  C   UNL     1      23.244  -1.186  34.577  1.00  0.00     0.197 A 
ATOM      4  O   UNL     1      22.104  -1.625  34.876  1.00  0.00    -0.289 OA
ATOM      5  C   UNL     1      23.431   0.101  34.018  1.00  0.00     0.107 A 
ATOM      6  C   UNL     1      22.377   1.003  33.682  1.00  0.00     0.134 A 
ATOM      7  C   UNL     1      22.690   2.290  33.226  1.00  0.00     0.093 A 
ATOM      8  C   UNL     1      24.014   2.688  33.040  1.00  0.00     0.123 A 
ATOM      9  C   UNL     1      25.051   1.796  33.318  1.00  0.00     0.094 A 
ATOM     10  C   UNL     1      24.773   0.517  33.806  1.00  0.00     0.146 A 
ATOM     11  O   UNL     1      25.790  -0.294  34.076  1.00  0.00    -0.456 OA
ENDROOT
BRANCH   1  12
ATOM     12  C   UNL     1      26.851  -2.340  34.823  1.00  0.00     0.021 A 
ATOM     13  C   UNL     1      27.665  -2.048  35.927  1.00  0.00     0.016 A 
ATOM     14  C   UNL     1      28.806  -2.809  36.189  1.00  0.00     0.051 A 
ATOM     15  C   UNL     1      29.153  -3.882  35.363  1.00  0.00     0.157 A 
ATOM     16  C   UNL     1      27.191  -3.429  33.999  1.00  0.00     0.062 A 
ATOM     17  C   UNL     1      28.332  -4.200  34.256  1.00  0.00     0.158 A 
BRANCH  15  18
ATOM     18  O   UNL     1      30.310  -4.599  35.676  1.00  0.00    -0.504 OA
ATOM     19  H   UNL     1      30.873  -5.088  34.995  1.00  0.00     0.293 HD
ENDBRANCH  15  18
BRANCH  17  20
ATOM     20  O   UNL     1      28.606  -5.266  33.397  1.00  0.00    -0.504 OA
ATOM     21  H   UNL     1      28.175  -6.176  33.469  1.00  0.00     0.293 HD
ENDBRANCH  17  20
ENDBRANCH   1  12
BRANCH   6  22
ATOM     22  O   UNL     1      21.018   0.683  33.754  1.00  0.00    -0.507 OA
ATOM     23  H   UNL     1      20.347   0.840  33.019  1.00  0.00     0.293 HD
ENDBRANCH   6  22
BRANCH   8  24
ATOM     24  O   UNL     1      24.287   3.971  32.571  1.00  0.00    -0.508 OA
ATOM     25  H   UNL     1      23.719   4.405  31.853  1.00  0.00     0.293 HD
ENDBRANCH   8  24
TORSDOF 5
ENDMDL
MODEL 6
REMARK VINA RESULT:    -5.652      4.839      9.059
REMARK INTER + INTRA:          -6.940
REMARK INTER:                  -6.624
REMARK INTRA:                  -0.315
REMARK UNBOUND:                -0.297
REMARK SMILES O=c1cc(-c2ccc(O)c(O)c2)oc2cc(O)cc(O)c12
REMARK SMILES IDX 4 1 3 2 2 3 1 4 21 5 19 6 18 7 16 8 15 9 14 10 13 11 5 12
REMARK SMILES IDX 6 13 7 14 8 15 12 16 10 17 9 18 11 20 20 22 17 24
REMARK H PARENT 9 19 11 21 20 23 17 25
REMARK Flexibility Score: inf
ROOT
ATOM      1  C   UNL     1      22.219   2.621  38.384  1.00  0.00     0.138 A 
ATOM      2  C   UNL     1      21.464   3.206  37.359  1.00  0.00     0.100 A 
ATOM      3  C   UNL     1      21.386   2.580  36.115  1.00  0.00     0.197 A 
ATOM      4  O   UNL     1      20.747   3.159  35.199  1.00  0.00    -0.289 OA
ATOM      5  C   UNL     1      22.038   1.341  35.908  1.00  0.00     0.107 A 
ATOM      6  C   UNL     1      22.000   0.593  34.693  1.00  0.00     0.134 A 
ATOM      7  C   UNL     1      22.767  -0.573  34.575  1.00  0.00     0.093 A 
ATOM      8  C   UNL     1      23.524  -1.049  35.645  1.00  0.00     0.123 A 
ATOM      9  C   UNL     1      23.529  -0.354  36.855  1.00  0.00     0.094 A 
ATOM     10  C   UNL     1      22.801   0.831  36.993  1.00  0.00     0.146 A 
ATOM     11  O   UNL     1      22.848   1.474  38.156  1.00  0.00    -0.456 OA
ENDROOT
BRANCH   1  12
ATOM     12  C   UNL     1      22.335   3.242  39.728  1.00  0.00     0.021 A 
ATOM     13  C   UNL     1      21.908   4.566  39.916  1.00  0.00     0.016 A 
ATOM     14  C   UNL     1      22.001   5.171  41.170  1.00  0.00     0.051 A 
ATOM     15  C   UNL     1      22.509   4.467  42.266  1.00  0.00     0.157 A 
ATOM     16  C   UNL     1      22.833   2.528  40.834  1.00  0.00     0.062 A 
ATOM     17  C   UNL     1      22.926   3.126  42.097  1.00  0.00     0.158 A 
BRANCH  15  18
ATOM     18  O   UNL     1      22.581   5.132  43.493  1.00  0.00    -0.504 OA
ATOM     19  H   UNL     1      22.510   4.672  44.389  1.00  0.00     0.293 HD
ENDBRANCH  15  18
BRANCH  17  20
ATOM     20  O   UNL     1      23.429   2.356  43.148  1.00  0.00    -0.504 OA
ATOM     21  H   UNL     1      24.364   2.446  43.519  1.00  0.00     0.293 HD
ENDBRANCH  17  20
ENDBRANCH   1  12
BRANCH   6  22
ATOM     22  O   UNL     1      21.216   0.935  33.587  1.00  0.00    -0.507 OA
ATOM     23  H   UNL     1      21.308   1.783  33.051  1.00  0.00     0.293 HD
ENDBRANCH   6  22
BRANCH   8  24
ATOM     24  O   UNL     1      24.263  -2.221  35.498  1.00  0.00    -0.508 OA
ATOM     25  H   UNL     1      24.038  -2.903  34.783  1.00  0.00     0.293 HD
ENDBRANCH   8  24
TORSDOF 5
ENDMDL
MODEL 7
REMARK VINA RESULT:    -5.626      3.165      6.925
REMARK INTER + INTRA:          -6.910
REMARK INTER:                  -6.614
REMARK INTRA:                  -0.297
REMARK UNBOUND:                -0.297
REMARK SMILES O=c1cc(-c2ccc(O)c(O)c2)oc2cc(O)cc(O)c12
REMARK SMILES IDX 4 1 3 2 2 3 1 4 21 5 19 6 18 7 16 8 15 9 14 10 13 11 5 12
REMARK SMILES IDX 6 13 7 14 8 15 12 16 10 17 9 18 11 20 20 22 17 24
REMARK H PARENT 9 19 11 21 20 23 17 25
REMARK Flexibility Score: inf
ROOT
ATOM      1  C   UNL     1      25.836   1.227  37.623  1.00  0.00     0.138 A 
ATOM      2  C   UNL     1      27.013   0.713  37.063  1.00  0.00     0.100 A 
ATOM      3  C   UNL     1      26.937  -0.297  36.103  1.00  0.00     0.197 A 
ATOM      4  O   UNL     1      28.014  -0.776  35.661  1.00  0.00    -0.289 OA
ATOM      5  C   UNL     1      25.673  -0.768  35.675  1.00  0.00     0.107 A 
ATOM      6  C   UNL     1      25.473  -1.769  34.678  1.00  0.00     0.134 A 
ATOM      7  C   UNL     1      24.176  -2.225  34.408  1.00  0.00     0.093 A 
ATOM      8  C   UNL     1      23.070  -1.676  35.056  1.00  0.00     0.123 A 
ATOM      9  C   UNL     1      23.250  -0.661  35.996  1.00  0.00     0.094 A 
ATOM     10  C   UNL     1      24.533  -0.209  36.312  1.00  0.00     0.146 A 
ATOM     11  O   UNL     1      24.663   0.746  37.228  1.00  0.00    -0.456 OA
ENDROOT
BRANCH   1  12
ATOM     12  C   UNL     1      25.857   2.304  38.646  1.00  0.00     0.021 A 
ATOM     13  C   UNL     1      24.649   2.886  39.061  1.00  0.00     0.016 A 
ATOM     14  C   UNL     1      24.641   3.895  40.024  1.00  0.00     0.051 A 
ATOM     15  C   UNL     1      25.834   4.339  40.603  1.00  0.00     0.157 A 
ATOM     16  C   UNL     1      27.057   2.739  39.239  1.00  0.00     0.062 A 
ATOM     17  C   UNL     1      27.057   3.749  40.209  1.00  0.00     0.158 A 
BRANCH  15  18
ATOM     18  O   UNL     1      25.758   5.356  41.558  1.00  0.00    -0.504 OA
ATOM     19  H   UNL     1      26.464   5.526  42.259  1.00  0.00     0.293 HD
ENDBRANCH  15  18
BRANCH  17  20
ATOM     20  O   UNL     1      28.286   4.129  40.755  1.00  0.00    -0.504 OA
ATOM     21  H   UNL     1      28.695   5.045  40.644  1.00  0.00     0.293 HD
ENDBRANCH  17  20
ENDBRANCH   1  12
BRANCH   6  22
ATOM     22  O   UNL     1      26.500  -2.330  33.913  1.00  0.00    -0.507 OA
ATOM     23  H   UNL     1      26.603  -2.226  32.916  1.00  0.00     0.293 HD
ENDBRANCH   6  22
BRANCH   8  24
ATOM     24  O   UNL     1      21.793  -2.144  34.751  1.00  0.00    -0.508 OA
ATOM     25  H   UNL     1      20.988  -1.886  35.309  1.00  0.00     0.293 HD
ENDBRANCH   8  24
TORSDOF 5
ENDMDL
MODEL 8
REMARK VINA RESULT:    -5.613      2.587      4.892
REMARK INTER + INTRA:          -6.895
REMARK INTER:                  -6.579
REMARK INTRA:                  -0.315
REMARK UNBOUND:                -0.297
REMARK SMILES O=c1cc(-c2ccc(O)c(O)c2)oc2cc(O)cc(O)c12
REMARK SMILES IDX 4 1 3 2 2 3 1 4 21 5 19 6 18 7 16 8 15 9 14 10 13 11 5 12
REMARK SMILES IDX 6 13 7 14 8 15 12 16 10 17 9 18 11 20 20 22 17 24
REMARK H PARENT 9 19 11 21 20 23 17 25
REMARK Flexibility Score: inf
ROOT
ATOM      1  C   UNL     1      23.706  -0.007  35.251  1.00  0.00     0.138 A 
ATOM      2  C   UNL     1      22.753   0.239  34.253  1.00  0.00     0.100 A 
ATOM      3  C   UNL     1      21.727   1.156  34.489  1.00  0.00     0.197 A 
ATOM      4  O   UNL     1      20.856   1.312  33.595  1.00  0.00    -0.289 OA
ATOM      5  C   UNL     1      21.678   1.858  35.717  1.00  0.00     0.107 A 
ATOM      6  C   UNL     1      20.700   2.841  36.054  1.00  0.00     0.134 A 
ATOM      7  C   UNL     1      20.696   3.398  37.340  1.00  0.00     0.093 A 
ATOM      8  C   UNL     1      21.666   3.050  38.279  1.00  0.00     0.123 A 
ATOM      9  C   UNL     1      22.658   2.128  37.943  1.00  0.00     0.094 A 
ATOM     10  C   UNL     1      22.669   1.530  36.680  1.00  0.00     0.146 A 
ATOM     11  O   UNL     1      23.620   0.642  36.407  1.00  0.00    -0.456 OA
ENDROOT
BRANCH   1  12
ATOM     12  C   UNL     1      24.819  -0.969  35.054  1.00  0.00     0.021 A 
ATOM     13  C   UNL     1      24.775  -1.865  33.974  1.00  0.00     0.016 A 
ATOM     14  C   UNL     1      25.812  -2.775  33.764  1.00  0.00     0.051 A 
ATOM     15  C   UNL     1      26.918  -2.806  34.617  1.00  0.00     0.157 A 
ATOM     16  C   UNL     1      25.941  -0.989  35.905  1.00  0.00     0.062 A 
ATOM     17  C   UNL     1      26.986  -1.897  35.699  1.00  0.00     0.158 A 
BRANCH  15  18
ATOM     18  O   UNL     1      27.919  -3.745  34.355  1.00  0.00    -0.504 OA
ATOM     19  H   UNL     1      28.673  -3.960  34.992  1.00  0.00     0.293 HD
ENDBRANCH  15  18
BRANCH  17  20
ATOM     20  O   UNL     1      28.067  -1.858  36.582  1.00  0.00    -0.504 OA
ATOM     21  H   UNL     1      29.034  -1.920  36.298  1.00  0.00     0.293 HD
ENDBRANCH  17  20
ENDBRANCH   1  12
BRANCH   6  22
ATOM     22  O   UNL     1      19.731   3.320  35.167  1.00  0.00    -0.507 OA
ATOM     23  H   UNL     1      19.679   4.266  34.823  1.00  0.00     0.293 HD
ENDBRANCH   6  22
BRANCH   8  24
ATOM     24  O   UNL     1      21.640   3.636  39.543  1.00  0.00    -0.508 OA
ATOM     25  H   UNL     1      21.179   3.187  40.325  1.00  0.00     0.293 HD
ENDBRANCH   8  24
TORSDOF 5
ENDMDL
MODEL 9
REMARK VINA RESULT:    -5.544      3.508      7.777
REMARK INTER + INTRA:          -6.813
REMARK INTER:                  -6.545
REMARK INTRA:                  -0.267
REMARK UNBOUND:                -0.297
REMARK SMILES O=c1cc(-c2ccc(O)c(O)c2)oc2cc(O)cc(O)c12
REMARK SMILES IDX 4 1 3 2 2 3 1 4 21 5 19 6 18 7 16 8 15 9 14 10 13 11 5 12
REMARK SMILES IDX 6 13 7 14 8 15 12 16 10 17 9 18 11 20 20 22 17 24
REMARK H PARENT 9 19 11 21 20 23 17 25
REMARK Flexibility Score: inf
ROOT
ATOM      1  C   UNL     1      25.175   1.985  38.230  1.00  0.00     0.138 A 
ATOM      2  C   UNL     1      26.453   1.575  37.829  1.00  0.00     0.100 A 
ATOM      3  C   UNL     1      26.589   0.556  36.887  1.00  0.00     0.197 A 
ATOM      4  O   UNL     1      27.750   0.173  36.591  1.00  0.00    -0.289 OA
ATOM      5  C   UNL     1      25.435  -0.032  36.314  1.00  0.00     0.107 A 
ATOM      6  C   UNL     1      25.451  -1.054  35.319  1.00  0.00     0.134 A 
ATOM      7  C   UNL     1      24.243  -1.628  34.899  1.00  0.00     0.093 A 
ATOM      8  C   UNL     1      23.021  -1.177  35.395  1.00  0.00     0.123 A 
ATOM      9  C   UNL     1      22.990  -0.142  36.331  1.00  0.00     0.094 A 
ATOM     10  C   UNL     1      24.179   0.426  36.795  1.00  0.00     0.146 A 
ATOM     11  O   UNL     1      24.108   1.396  37.701  1.00  0.00    -0.456 OA
ENDROOT
BRANCH   1  12
ATOM     12  C   UNL     1      24.972   3.067  39.227  1.00  0.00     0.021 A 
ATOM     13  C   UNL     1      24.352   4.262  38.832  1.00  0.00     0.016 A 
ATOM     14  C   UNL     1      24.145   5.292  39.751  1.00  0.00     0.051 A 
ATOM     15  C   UNL     1      24.540   5.149  41.084  1.00  0.00     0.157 A 
ATOM     16  C   UNL     1      25.357   2.915  40.573  1.00  0.00     0.062 A 
ATOM     17  C   UNL     1      25.149   3.943  41.502  1.00  0.00     0.158 A 
BRANCH  15  18
ATOM     18  O   UNL     1      24.309   6.219  41.952  1.00  0.00    -0.504 OA
ATOM     19  H   UNL     1      25.041   6.739  42.415  1.00  0.00     0.293 HD
ENDBRANCH  15  18
BRANCH  17  20
ATOM     20  O   UNL     1      25.556   3.722  42.820  1.00  0.00    -0.504 OA
ATOM     21  H   UNL     1      25.090   3.093  43.458  1.00  0.00     0.293 HD
ENDBRANCH  17  20
ENDBRANCH   1  12
BRANCH   6  22
ATOM     22  O   UNL     1      26.611  -1.526  34.697  1.00  0.00    -0.507 OA
ATOM     23  H   UNL     1      27.023  -2.432  34.852  1.00  0.00     0.293 HD
ENDBRANCH   6  22
BRANCH   8  24
ATOM     24  O   UNL     1      21.838  -1.760  34.944  1.00  0.00    -0.508 OA
ATOM     25  H   UNL     1      21.719  -2.034  33.976  1.00  0.00     0.293 HD
ENDBRANCH   8  24
TORSDOF 5
ENDMDL
