MODEL 1
REMARK VINA RESULT:    -3.276      0.000      0.000
REMARK INTER + INTRA:          -5.863
REMARK INTER:                  -5.191
REMARK INTRA:                  -0.671
REMARK UNBOUND:                -0.671
REMARK SMILES CCCCCCCCCCCC(=O)[O-]
REMARK SMILES IDX 7 1 8 2 9 3 10 4 11 5 12 6 13 7 14 8 6 9 5 10 4 11 3 12 2 13
REMARK SMILES IDX 1 14
REMARK H PARENT
REMARK Flexibility Score: inf
ROOT
ATOM      1  C   UNL     1     141.280 143.402 150.306  1.00  0.00     0.000 C 
ENDROOT
BRANCH   1   2
ATOM      2  C   UNL     1     140.397 143.539 151.557  1.00  0.00     0.000 C 
BRANCH   2   3
ATOM      3  C   UNL     1     140.093 142.182 152.217  1.00  0.00     0.000 C 
BRANCH   3   4
ATOM      4  C   UNL     1     140.362 142.188 153.729  1.00  0.00     0.006 C 
BRANCH   4   5
ATOM      5  C   UNL     1     141.600 143.012 154.104  1.00  0.00     0.053 C 
BRANCH   5   6
ATOM      6  C   UNL     1     141.244 144.060 155.111  1.00  0.00     0.041 C 
ATOM      7  O   UNL     1     142.141 144.599 155.810  1.00  0.00    -0.550 OA
ATOM      8  O   UNL     1     139.914 144.406 155.313  1.00  0.00    -0.550 OA
ENDBRANCH   5   6
ENDBRANCH   4   5
ENDBRANCH   3   4
ENDBRANCH   2   3
ENDBRANCH   1   2
BRANCH   1   9
ATOM      9  C   UNL     1     141.665 141.942 150.011  1.00  0.00     0.000 C 
BRANCH   9  10
ATOM     10  C   UNL     1     141.397 141.543 148.542  1.00  0.00    -0.000 C 
BRANCH  10  11
ATOM     11  C   UNL     1     141.503 142.720 147.555  1.00  0.00    -0.000 C 
BRANCH  11  12
ATOM     12  C   UNL     1     140.948 142.427 146.150  1.00  0.00    -0.000 C 
BRANCH  12  13
ATOM     13  C   UNL     1     141.308 141.021 145.622  1.00  0.00    -0.003 C 
ATOM     14  C   UNL     1     142.756 140.919 145.143  1.00  0.00     0.004 C 
ENDBRANCH  12  13
ENDBRANCH  11  12
ENDBRANCH  10  11
ENDBRANCH   9  10
ENDBRANCH   1   9
TORSDOF 10
ENDMDL
MODEL 2
REMARK VINA RESULT:    -3.194      7.286      9.664
REMARK INTER + INTRA:          -5.733
REMARK INTER:                  -4.669
REMARK INTRA:                  -1.064
REMARK UNBOUND:                -0.671
REMARK SMILES CCCCCCCCCCCC(=O)[O-]
REMARK SMILES IDX 7 1 8 2 9 3 10 4 11 5 12 6 13 7 14 8 6 9 5 10 4 11 3 12 2 13
REMARK SMILES IDX 1 14
REMARK H PARENT
REMARK Flexibility Score: inf
ROOT
ATOM      1  C   UNL     1     144.782 140.930 145.259  1.00  0.00     0.000 C 
ENDROOT
BRANCH   1   2
ATOM      2  C   UNL     1     145.108 141.839 144.063  1.00  0.00     0.000 C 
BRANCH   2   3
ATOM      3  C   UNL     1     144.196 143.077 143.996  1.00  0.00     0.000 C 
BRANCH   3   4
ATOM      4  C   UNL     1     144.866 144.267 143.294  1.00  0.00     0.006 C 
BRANCH   4   5
ATOM      5  C   UNL     1     144.446 144.398 141.825  1.00  0.00     0.053 C 
BRANCH   5   6
ATOM      6  C   UNL     1     145.630 144.232 140.925  1.00  0.00     0.041 C 
ATOM      7  O   UNL     1     146.025 145.193 140.215  1.00  0.00    -0.550 OA
ATOM      8  O   UNL     1     146.266 143.001 140.834  1.00  0.00    -0.550 OA
ENDBRANCH   5   6
ENDBRANCH   4   5
ENDBRANCH   3   4
ENDBRANCH   2   3
ENDBRANCH   1   2
BRANCH   1   9
ATOM      9  C   UNL     1     143.625 139.960 144.967  1.00  0.00     0.000 C 
BRANCH   9  10
ATOM     10  C   UNL     1     142.446 140.129 145.951  1.00  0.00    -0.000 C 
BRANCH  10  11
ATOM     11  C   UNL     1     141.295 140.986 145.394  1.00  0.00    -0.000 C 
BRANCH  11  12
ATOM     12  C   UNL     1     140.922 142.199 146.264  1.00  0.00    -0.000 C 
BRANCH  12  13
ATOM     13  C   UNL     1     142.112 142.782 147.057  1.00  0.00    -0.003 C 
ATOM     14  C   UNL     1     142.184 144.307 146.986  1.00  0.00     0.004 C 
ENDBRANCH  12  13
ENDBRANCH  11  12
ENDBRANCH  10  11
ENDBRANCH   9  10
ENDBRANCH   1   9
TORSDOF 10
ENDMDL
MODEL 3
REMARK VINA RESULT:    -3.186      5.281      7.641
REMARK INTER + INTRA:          -5.719
REMARK INTER:                  -4.094
REMARK INTRA:                  -1.626
REMARK UNBOUND:                -0.671
REMARK SMILES CCCCCCCCCCCC(=O)[O-]
REMARK SMILES IDX 7 1 8 2 9 3 10 4 11 5 12 6 13 7 14 8 6 9 5 10 4 11 3 12 2 13
REMARK SMILES IDX 1 14
REMARK H PARENT
REMARK Flexibility Score: inf
ROOT
ATOM      1  C   UNL     1     144.204 141.359 144.404  1.00  0.00     0.000 C 
ENDROOT
BRANCH   1   2
ATOM      2  C   UNL     1     144.905 142.010 145.608  1.00  0.00     0.000 C 
BRANCH   2   3
ATOM      3  C   UNL     1     144.388 143.431 145.894  1.00  0.00     0.000 C 
BRANCH   3   4
ATOM      4  C   UNL     1     143.500 143.975 144.765  1.00  0.00     0.006 C 
BRANCH   4   5
ATOM      5  C   UNL     1     142.442 144.964 145.272  1.00  0.00     0.053 C 
BRANCH   5   6
ATOM      6  C   UNL     1     142.519 146.248 144.507  1.00  0.00     0.041 C 
ATOM      7  O   UNL     1     142.864 147.311 145.086  1.00  0.00    -0.550 OA
ATOM      8  O   UNL     1     142.161 146.280 143.165  1.00  0.00    -0.550 OA
ENDBRANCH   5   6
ENDBRANCH   4   5
ENDBRANCH   3   4
ENDBRANCH   2   3
ENDBRANCH   1   2
BRANCH   1   9
ATOM      9  C   UNL     1     143.646 139.963 144.728  1.00  0.00     0.000 C 
BRANCH   9  10
ATOM     10  C   UNL     1     142.465 140.013 145.723  1.00  0.00    -0.000 C 
BRANCH  10  11
ATOM     11  C   UNL     1     141.325 140.948 145.281  1.00  0.00    -0.000 C 
BRANCH  11  12
ATOM     12  C   UNL     1     140.792 141.874 146.389  1.00  0.00    -0.000 C 
BRANCH  12  13
ATOM     13  C   UNL     1     141.568 141.758 147.720  1.00  0.00    -0.003 C 
ATOM     14  C   UNL     1     141.643 143.081 148.481  1.00  0.00     0.004 C 
ENDBRANCH  12  13
ENDBRANCH  11  12
ENDBRANCH  10  11
ENDBRANCH   9  10
ENDBRANCH   1   9
TORSDOF 10
ENDMDL
MODEL 4
REMARK VINA RESULT:    -3.154      1.780      3.119
REMARK INTER + INTRA:          -5.669
REMARK INTER:                  -4.445
REMARK INTRA:                  -1.225
REMARK UNBOUND:                -0.671
REMARK SMILES CCCCCCCCCCCC(=O)[O-]
REMARK SMILES IDX 7 1 8 2 9 3 10 4 11 5 12 6 13 7 14 8 6 9 5 10 4 11 3 12 2 13
REMARK SMILES IDX 1 14
REMARK H PARENT
REMARK Flexibility Score: inf
ROOT
ATOM      1  C   UNL     1     144.044 141.080 148.325  1.00  0.00     0.000 C 
ENDROOT
BRANCH   1   2
ATOM      2  C   UNL     1     143.174 141.924 149.271  1.00  0.00     0.000 C 
BRANCH   2   3
ATOM      3  C   UNL     1     141.735 141.392 149.381  1.00  0.00     0.000 C 
BRANCH   3   4
ATOM      4  C   UNL     1     141.011 141.903 150.636  1.00  0.00     0.006 C 
BRANCH   4   5
ATOM      5  C   UNL     1     141.969 142.158 151.806  1.00  0.00     0.053 C 
BRANCH   5   6
ATOM      6  C   UNL     1     141.202 142.348 153.077  1.00  0.00     0.041 C 
ATOM      7  O   UNL     1     141.034 141.381 153.866  1.00  0.00    -0.550 OA
ATOM      8  O   UNL     1     140.629 143.580 153.366  1.00  0.00    -0.550 OA
ENDBRANCH   5   6
ENDBRANCH   4   5
ENDBRANCH   3   4
ENDBRANCH   2   3
ENDBRANCH   1   2
BRANCH   1   9
ATOM      9  C   UNL     1     143.227 140.040 147.540  1.00  0.00     0.000 C 
BRANCH   9  10
ATOM     10  C   UNL     1     143.597 140.006 146.039  1.00  0.00    -0.000 C 
BRANCH  10  11
ATOM     11  C   UNL     1     142.609 140.775 145.144  1.00  0.00    -0.000 C 
BRANCH  11  12
ATOM     12  C   UNL     1     141.175 140.855 145.694  1.00  0.00    -0.000 C 
BRANCH  12  13
ATOM     13  C   UNL     1     140.682 142.299 145.933  1.00  0.00    -0.003 C 
ATOM     14  C   UNL     1     141.826 143.304 146.056  1.00  0.00     0.004 C 
ENDBRANCH  12  13
ENDBRANCH  11  12
ENDBRANCH  10  11
ENDBRANCH   9  10
ENDBRANCH   1   9
TORSDOF 10
ENDMDL
MODEL 5
REMARK VINA RESULT:    -3.146      7.379      9.518
REMARK INTER + INTRA:          -5.657
REMARK INTER:                  -4.553
REMARK INTRA:                  -1.104
REMARK UNBOUND:                -0.671
REMARK SMILES CCCCCCCCCCCC(=O)[O-]
REMARK SMILES IDX 7 1 8 2 9 3 10 4 11 5 12 6 13 7 14 8 6 9 5 10 4 11 3 12 2 13
REMARK SMILES IDX 1 14
REMARK H PARENT
REMARK Flexibility Score: inf
ROOT
ATOM      1  C   UNL     1     144.622 140.731 146.079  1.00  0.00     0.000 C 
ENDROOT
BRANCH   1   2
ATOM      2  C   UNL     1     144.975 140.876 144.590  1.00  0.00     0.000 C 
BRANCH   2   3
ATOM      3  C   UNL     1     144.981 142.343 144.125  1.00  0.00     0.000 C 
BRANCH   3   4
ATOM      4  C   UNL     1     146.401 142.897 143.937  1.00  0.00     0.006 C 
BRANCH   4   5
ATOM      5  C   UNL     1     147.395 141.825 143.472  1.00  0.00     0.053 C 
BRANCH   5   6
ATOM      6  C   UNL     1     147.756 142.035 142.035  1.00  0.00     0.041 C 
ATOM      7  O   UNL     1     148.835 141.576 141.579  1.00  0.00    -0.550 OA
ATOM      8  O   UNL     1     146.923 142.781 141.212  1.00  0.00    -0.550 OA
ENDBRANCH   5   6
ENDBRANCH   4   5
ENDBRANCH   3   4
ENDBRANCH   2   3
ENDBRANCH   1   2
BRANCH   1   9
ATOM      9  C   UNL     1     143.247 140.078 146.300  1.00  0.00     0.000 C 
BRANCH   9  10
ATOM     10  C   UNL     1     142.271 140.339 145.131  1.00  0.00    -0.000 C 
BRANCH  10  11
ATOM     11  C   UNL     1     141.001 141.103 145.547  1.00  0.00    -0.000 C 
BRANCH  11  12
ATOM     12  C   UNL     1     141.238 142.224 146.574  1.00  0.00    -0.000 C 
BRANCH  12  13
ATOM     13  C   UNL     1     141.873 143.495 145.967  1.00  0.00    -0.003 C 
ATOM     14  C   UNL     1     142.938 144.116 146.870  1.00  0.00     0.004 C 
ENDBRANCH  12  13
ENDBRANCH  11  12
ENDBRANCH  10  11
ENDBRANCH   9  10
ENDBRANCH   1   9
TORSDOF 10
ENDMDL
MODEL 6
REMARK VINA RESULT:    -3.142      4.916      7.228
REMARK INTER + INTRA:          -5.650
REMARK INTER:                  -4.218
REMARK INTRA:                  -1.433
REMARK UNBOUND:                -0.671
REMARK SMILES CCCCCCCCCCCC(=O)[O-]
REMARK SMILES IDX 7 1 8 2 9 3 10 4 11 5 12 6 13 7 14 8 6 9 5 10 4 11 3 12 2 13
REMARK SMILES IDX 1 14
REMARK H PARENT
REMARK Flexibility Score: inf
ROOT
ATOM      1  C   UNL     1     142.275 143.972 147.219  1.00  0.00     0.000 C 
ENDROOT
BRANCH   1   2
ATOM      2  C   UNL     1     142.036 143.234 145.892  1.00  0.00     0.000 C 
BRANCH   2   3
ATOM      3  C   UNL     1     141.284 141.905 146.083  1.00  0.00     0.000 C 
BRANCH   3   4
ATOM      4  C   UNL     1     141.808 140.793 145.162  1.00  0.00     0.006 C 
BRANCH   4   5
ATOM      5  C   UNL     1     142.877 139.923 145.836  1.00  0.00     0.053 C 
BRANCH   5   6
ATOM      6  C   UNL     1     144.221 140.186 145.232  1.00  0.00     0.041 C 
ATOM      7  O   UNL     1     144.313 140.630 144.059  1.00  0.00    -0.550 OA
ATOM      8  O   UNL     1     145.373 139.891 145.949  1.00  0.00    -0.550 OA
ENDBRANCH   5   6
ENDBRANCH   4   5
ENDBRANCH   3   4
ENDBRANCH   2   3
ENDBRANCH   1   2
BRANCH   1   9
ATOM      9  C   UNL     1     141.062 143.901 148.162  1.00  0.00     0.000 C 
BRANCH   9  10
ATOM     10  C   UNL     1     141.441 144.166 149.637  1.00  0.00    -0.000 C 
BRANCH  10  11
ATOM     11  C   UNL     1     141.960 142.918 150.373  1.00  0.00    -0.000 C 
BRANCH  11  12
ATOM     12  C   UNL     1     141.306 141.596 149.932  1.00  0.00    -0.000 C 
BRANCH  12  13
ATOM     13  C   UNL     1     142.308 140.574 149.350  1.00  0.00    -0.003 C 
ATOM     14  C   UNL     1     143.721 141.138 149.214  1.00  0.00     0.004 C 
ENDBRANCH  12  13
ENDBRANCH  11  12
ENDBRANCH  10  11
ENDBRANCH   9  10
ENDBRANCH   1   9
TORSDOF 10
ENDMDL
MODEL 7
REMARK VINA RESULT:    -3.112      4.600      7.815
REMARK INTER + INTRA:          -5.602
REMARK INTER:                  -5.047
REMARK INTRA:                  -0.555
REMARK UNBOUND:                -0.671
REMARK SMILES CCCCCCCCCCCC(=O)[O-]
REMARK SMILES IDX 7 1 8 2 9 3 10 4 11 5 12 6 13 7 14 8 6 9 5 10 4 11 3 12 2 13
REMARK SMILES IDX 1 14
REMARK H PARENT
REMARK Flexibility Score: inf
ROOT
ATOM      1  C   UNL     1     142.320 142.716 148.684  1.00  0.00     0.000 C 
ENDROOT
BRANCH   1   2
ATOM      2  C   UNL     1     141.739 143.044 147.299  1.00  0.00     0.000 C 
BRANCH   2   3
ATOM      3  C   UNL     1     141.013 141.845 146.665  1.00  0.00     0.000 C 
BRANCH   3   4
ATOM      4  C   UNL     1     141.717 141.328 145.402  1.00  0.00     0.006 C 
BRANCH   4   5
ATOM      5  C   UNL     1     142.464 140.010 145.641  1.00  0.00     0.053 C 
BRANCH   5   6
ATOM      6  C   UNL     1     143.915 140.163 145.306  1.00  0.00     0.041 C 
ATOM      7  O   UNL     1     144.779 140.169 146.220  1.00  0.00    -0.550 OA
ATOM      8  O   UNL     1     144.307 140.349 143.986  1.00  0.00    -0.550 OA
ENDBRANCH   5   6
ENDBRANCH   4   5
ENDBRANCH   3   4
ENDBRANCH   2   3
ENDBRANCH   1   2
BRANCH   1   9
ATOM      9  C   UNL     1     141.540 141.604 149.405  1.00  0.00     0.000 C 
BRANCH   9  10
ATOM     10  C   UNL     1     140.946 142.074 150.753  1.00  0.00    -0.000 C 
BRANCH  10  11
ATOM     11  C   UNL     1     142.006 142.313 151.843  1.00  0.00    -0.000 C 
BRANCH  11  12
ATOM     12  C   UNL     1     141.606 141.817 153.244  1.00  0.00    -0.000 C 
BRANCH  12  13
ATOM     13  C   UNL     1     140.181 142.238 153.666  1.00  0.00    -0.003 C 
ATOM     14  C   UNL     1     140.164 143.508 154.516  1.00  0.00     0.004 C 
ENDBRANCH  12  13
ENDBRANCH  11  12
ENDBRANCH  10  11
ENDBRANCH   9  10
ENDBRANCH   1   9
TORSDOF 10
ENDMDL
MODEL 8
REMARK VINA RESULT:    -3.099      7.436      9.410
REMARK INTER + INTRA:          -5.582
REMARK INTER:                  -4.202
REMARK INTRA:                  -1.380
REMARK UNBOUND:                -0.671
REMARK SMILES CCCCCCCCCCCC(=O)[O-]
REMARK SMILES IDX 7 1 8 2 9 3 10 4 11 5 12 6 13 7 14 8 6 9 5 10 4 11 3 12 2 13
REMARK SMILES IDX 1 14
REMARK H PARENT
REMARK Flexibility Score: inf
ROOT
ATOM      1  C   UNL     1     143.865 144.249 146.288  1.00  0.00     0.000 C 
ENDROOT
BRANCH   1   2
ATOM      2  C   UNL     1     144.809 144.142 145.080  1.00  0.00     0.000 C 
BRANCH   2   3
ATOM      3  C   UNL     1     144.054 144.145 143.739  1.00  0.00     0.000 C 
BRANCH   3   4
ATOM      4  C   UNL     1     144.913 143.625 142.576  1.00  0.00     0.006 C 
BRANCH   4   5
ATOM      5  C   UNL     1     146.396 143.503 142.948  1.00  0.00     0.053 C 
BRANCH   5   6
ATOM      6  C   UNL     1     147.173 142.917 141.811  1.00  0.00     0.041 C 
ATOM      7  O   UNL     1     148.317 142.432 142.009  1.00  0.00    -0.550 OA
ATOM      8  O   UNL     1     146.654 142.953 140.523  1.00  0.00    -0.550 OA
ENDBRANCH   5   6
ENDBRANCH   4   5
ENDBRANCH   3   4
ENDBRANCH   2   3
ENDBRANCH   1   2
BRANCH   1   9
ATOM      9  C   UNL     1     142.422 143.838 145.950  1.00  0.00     0.000 C 
BRANCH   9  10
ATOM     10  C   UNL     1     142.035 142.471 146.560  1.00  0.00    -0.000 C 
BRANCH  10  11
ATOM     11  C   UNL     1     141.735 141.389 145.506  1.00  0.00    -0.000 C 
BRANCH  11  12
ATOM     12  C   UNL     1     142.723 140.209 145.502  1.00  0.00    -0.000 C 
BRANCH  12  13
ATOM     13  C   UNL     1     143.826 140.329 144.427  1.00  0.00    -0.003 C 
ATOM     14  C   UNL     1     145.231 140.412 145.023  1.00  0.00     0.004 C 
ENDBRANCH  12  13
ENDBRANCH  11  12
ENDBRANCH  10  11
ENDBRANCH   9  10
ENDBRANCH   1   9
TORSDOF 10
ENDMDL
MODEL 9
REMARK VINA RESULT:    -3.092      2.597      4.482
REMARK INTER + INTRA:          -5.572
REMARK INTER:                  -4.186
REMARK INTRA:                  -1.385
REMARK UNBOUND:                -0.671
REMARK SMILES CCCCCCCCCCCC(=O)[O-]
REMARK SMILES IDX 7 1 8 2 9 3 10 4 11 5 12 6 13 7 14 8 6 9 5 10 4 11 3 12 2 13
REMARK SMILES IDX 1 14
REMARK H PARENT
REMARK Flexibility Score: inf
ROOT
ATOM      1  C   UNL     1     143.793 139.875 147.145  1.00  0.00     0.000 C 
ENDROOT
BRANCH   1   2
ATOM      2  C   UNL     1     144.635 140.926 147.887  1.00  0.00     0.000 C 
BRANCH   2   3
ATOM      3  C   UNL     1     143.812 141.722 148.916  1.00  0.00     0.000 C 
BRANCH   3   4
ATOM      4  C   UNL     1     142.656 140.903 149.508  1.00  0.00     0.006 C 
BRANCH   4   5
ATOM      5  C   UNL     1     141.338 141.688 149.549  1.00  0.00     0.053 C 
BRANCH   5   6
ATOM      6  C   UNL     1     141.285 142.555 150.768  1.00  0.00     0.041 C 
ATOM      7  O   UNL     1     141.380 143.805 150.661  1.00  0.00    -0.550 OA
ATOM      8  O   UNL     1     141.180 141.977 152.027  1.00  0.00    -0.550 OA
ENDBRANCH   5   6
ENDBRANCH   4   5
ENDBRANCH   3   4
ENDBRANCH   2   3
ENDBRANCH   1   2
BRANCH   1   9
ATOM      9  C   UNL     1     144.041 139.883 145.627  1.00  0.00     0.000 C 
BRANCH   9  10
ATOM     10  C   UNL     1     143.002 140.731 144.860  1.00  0.00    -0.000 C 
BRANCH  10  11
ATOM     11  C   UNL     1     141.607 140.732 145.511  1.00  0.00    -0.000 C 
BRANCH  11  12
ATOM     12  C   UNL     1     141.069 142.129 145.868  1.00  0.00    -0.000 C 
BRANCH  12  13
ATOM     13  C   UNL     1     142.178 143.175 146.117  1.00  0.00    -0.003 C 
ATOM     14  C   UNL     1     141.738 144.599 145.784  1.00  0.00     0.004 C 
ENDBRANCH  12  13
ENDBRANCH  11  12
ENDBRANCH  10  11
ENDBRANCH   9  10
ENDBRANCH   1   9
TORSDOF 10
ENDMDL
