MODEL 1
REMARK VINA RESULT:     0.000      0.000      0.000
REMARK INTER + INTRA:          -7.088
REMARK INTER:                   0.000
REMARK INTRA:                  -7.088
REMARK UNBOUND:                -7.088
REMARK SMILES CCCCCCCCCCCCCCCCCCCCCCCCCCCC(=O)[O-]
REMARK SMILES IDX 15 1 16 2 17 3 18 4 19 5 20 6 21 7 22 8 23 9 24 10 25 11
REMARK SMILES IDX 26 12 27 13 28 14 29 15 30 16 14 17 13 18 12 19 11 20 10 21
REMARK SMILES IDX 9 22 8 23 7 24 6 25 5 26 4 27 3 28 2 29 1 30
REMARK H PARENT
REMARK Flexibility Score: inf
ROOT
ATOM      1  C   UNL     1     170.296 189.276 180.865  1.00  0.00     0.000 C 
ENDROOT
BRANCH   1   2
ATOM      2  C   UNL     1     171.591 189.678 181.594  1.00  0.00     0.000 C 
BRANCH   2   3
ATOM      3  C   UNL     1     171.462 190.889 182.536  1.00  0.00     0.000 C 
BRANCH   3   4
ATOM      4  C   UNL     1     170.002 191.296 182.793  1.00  0.00     0.000 C 
BRANCH   4   5
ATOM      5  C   UNL     1     169.830 191.847 184.217  1.00  0.00     0.000 C 
BRANCH   5   6
ATOM      6  C   UNL     1     171.172 192.079 184.932  1.00  0.00     0.000 C 
BRANCH   6   7
ATOM      7  C   UNL     1     171.264 193.398 185.722  1.00  0.00     0.000 C 
BRANCH   7   8
ATOM      8  C   UNL     1     171.806 194.581 184.891  1.00  0.00     0.000 C 
BRANCH   8   9
ATOM      9  C   UNL     1     172.862 194.140 183.863  1.00  0.00     0.000 C 
BRANCH   9  10
ATOM     10  C   UNL     1     172.478 194.550 182.424  1.00  0.00     0.000 C 
BRANCH  10  11
ATOM     11  C   UNL     1     170.989 194.897 182.258  1.00  0.00     0.000 C 
BRANCH  11  12
ATOM     12  C   UNL     1     170.389 194.347 180.957  1.00  0.00     0.006 C 
BRANCH  12  13
ATOM     13  C   UNL     1     171.481 193.761 180.054  1.00  0.00     0.053 C 
BRANCH  13  14
ATOM     14  C   UNL     1     170.948 192.605 179.269  1.00  0.00     0.041 C 
ATOM     15  O   UNL     1     169.708 192.391 179.218  1.00  0.00    -0.550 OA
ATOM     16  O   UNL     1     171.824 191.731 178.636  1.00  0.00    -0.550 OA
ENDBRANCH  13  14
ENDBRANCH  12  13
ENDBRANCH  11  12
ENDBRANCH  10  11
ENDBRANCH   9  10
ENDBRANCH   8   9
ENDBRANCH   7   8
ENDBRANCH   6   7
ENDBRANCH   5   6
ENDBRANCH   4   5
ENDBRANCH   3   4
ENDBRANCH   2   3
ENDBRANCH   1   2
BRANCH   1  17
ATOM     17  C   UNL     1     169.818 187.861 181.226  1.00  0.00     0.000 C 
BRANCH  17  18
ATOM     18  C   UNL     1     168.304 187.841 181.490  1.00  0.00     0.000 C 
BRANCH  18  19
ATOM     19  C   UNL     1     167.942 188.302 182.912  1.00  0.00     0.000 C 
BRANCH  19  20
ATOM     20  C   UNL     1     168.711 187.527 183.997  1.00  0.00     0.000 C 
BRANCH  20  21
ATOM     21  C   UNL     1     169.199 188.437 185.138  1.00  0.00     0.000 C 
BRANCH  21  22
ATOM     22  C   UNL     1     170.722 188.360 185.348  1.00  0.00    -0.000 C 
BRANCH  22  23
ATOM     23  C   UNL     1     171.379 187.261 184.497  1.00  0.00    -0.000 C 
BRANCH  23  24
ATOM     24  C   UNL     1     172.892 187.467 184.319  1.00  0.00    -0.000 C 
BRANCH  24  25
ATOM     25  C   UNL     1     173.332 188.812 184.916  1.00  0.00    -0.000 C 
BRANCH  25  26
ATOM     26  C   UNL     1     174.535 189.424 184.183  1.00  0.00    -0.000 C 
BRANCH  26  27
ATOM     27  C   UNL     1     174.712 190.926 184.476  1.00  0.00    -0.000 C 
BRANCH  27  28
ATOM     28  C   UNL     1     175.329 191.693 183.289  1.00  0.00    -0.000 C 
BRANCH  28  29
ATOM     29  C   UNL     1     175.150 190.989 181.932  1.00  0.00    -0.003 C 
ATOM     30  C   UNL     1     174.675 191.928 180.825  1.00  0.00     0.004 C 
ENDBRANCH  28  29
ENDBRANCH  27  28
ENDBRANCH  26  27
ENDBRANCH  25  26
ENDBRANCH  24  25
ENDBRANCH  23  24
ENDBRANCH  22  23
ENDBRANCH  21  22
ENDBRANCH  20  21
ENDBRANCH  19  20
ENDBRANCH  18  19
ENDBRANCH  17  18
ENDBRANCH   1  17
TORSDOF 26
ENDMDL
MODEL 2
REMARK VINA RESULT:     0.041      3.087      6.831
REMARK INTER + INTRA:          -6.984
REMARK INTER:                   0.000
REMARK INTRA:                  -6.984
REMARK UNBOUND:                -7.088
REMARK SMILES CCCCCCCCCCCCCCCCCCCCCCCCCCCC(=O)[O-]
REMARK SMILES IDX 15 1 16 2 17 3 18 4 19 5 20 6 21 7 22 8 23 9 24 10 25 11
REMARK SMILES IDX 26 12 27 13 28 14 29 15 30 16 14 17 13 18 12 19 11 20 10 21
REMARK SMILES IDX 9 22 8 23 7 24 6 25 5 26 4 27 3 28 2 29 1 30
REMARK H PARENT
REMARK Flexibility Score: inf
ROOT
ATOM      1  C   UNL     1     171.971 192.610 179.951  1.00  0.00     0.000 C 
ENDROOT
BRANCH   1   2
ATOM      2  C   UNL     1     172.269 193.603 181.089  1.00  0.00     0.000 C 
BRANCH   2   3
ATOM      3  C   UNL     1     172.531 192.960 182.464  1.00  0.00     0.000 C 
BRANCH   3   4
ATOM      4  C   UNL     1     173.303 193.882 183.420  1.00  0.00     0.000 C 
BRANCH   4   5
ATOM      5  C   UNL     1     173.263 195.338 182.929  1.00  0.00     0.000 C 
BRANCH   5   6
ATOM      6  C   UNL     1     174.620 196.048 183.059  1.00  0.00     0.000 C 
BRANCH   6   7
ATOM      7  C   UNL     1     175.287 196.418 181.721  1.00  0.00     0.000 C 
BRANCH   7   8
ATOM      8  C   UNL     1     175.804 195.198 180.928  1.00  0.00     0.000 C 
BRANCH   8   9
ATOM      9  C   UNL     1     176.689 194.274 181.784  1.00  0.00     0.000 C 
BRANCH   9  10
ATOM     10  C   UNL     1     176.375 192.781 181.542  1.00  0.00     0.000 C 
BRANCH  10  11
ATOM     11  C   UNL     1     175.732 192.500 180.173  1.00  0.00     0.000 C 
BRANCH  11  12
ATOM     12  C   UNL     1     175.266 191.046 180.020  1.00  0.00     0.006 C 
BRANCH  12  13
ATOM     13  C   UNL     1     174.935 190.429 181.384  1.00  0.00     0.053 C 
BRANCH  13  14
ATOM     14  C   UNL     1     173.745 189.530 181.278  1.00  0.00     0.041 C 
ATOM     15  O   UNL     1     173.203 189.071 182.319  1.00  0.00    -0.550 OA
ATOM     16  O   UNL     1     173.264 189.157 180.030  1.00  0.00    -0.550 OA
ENDBRANCH  13  14
ENDBRANCH  12  13
ENDBRANCH  11  12
ENDBRANCH  10  11
ENDBRANCH   9  10
ENDBRANCH   8   9
ENDBRANCH   7   8
ENDBRANCH   6   7
ENDBRANCH   5   6
ENDBRANCH   4   5
ENDBRANCH   3   4
ENDBRANCH   2   3
ENDBRANCH   1   2
BRANCH   1  17
ATOM     17  C   UNL     1     171.979 193.267 178.562  1.00  0.00     0.000 C 
BRANCH  17  18
ATOM     18  C   UNL     1     173.073 194.343 178.468  1.00  0.00     0.000 C 
BRANCH  18  19
ATOM     19  C   UNL     1     172.514 195.728 178.102  1.00  0.00     0.000 C 
BRANCH  19  20
ATOM     20  C   UNL     1     172.804 196.786 179.181  1.00  0.00     0.000 C 
BRANCH  20  21
ATOM     21  C   UNL     1     171.562 197.123 180.025  1.00  0.00     0.000 C 
BRANCH  21  22
ATOM     22  C   UNL     1     170.274 196.498 179.461  1.00  0.00    -0.000 C 
BRANCH  22  23
ATOM     23  C   UNL     1     169.396 195.870 180.557  1.00  0.00    -0.000 C 
BRANCH  23  24
ATOM     24  C   UNL     1     169.866 196.227 181.976  1.00  0.00    -0.000 C 
BRANCH  24  25
ATOM     25  C   UNL     1     168.933 195.613 183.030  1.00  0.00    -0.000 C 
BRANCH  25  26
ATOM     26  C   UNL     1     169.695 194.931 184.176  1.00  0.00    -0.000 C 
BRANCH  26  27
ATOM     27  C   UNL     1     169.422 193.416 184.255  1.00  0.00    -0.000 C 
BRANCH  27  28
ATOM     28  C   UNL     1     168.370 192.950 183.228  1.00  0.00    -0.000 C 
BRANCH  28  29
ATOM     29  C   UNL     1     168.922 191.984 182.166  1.00  0.00    -0.003 C 
ATOM     30  C   UNL     1     168.423 192.291 180.755  1.00  0.00     0.004 C 
ENDBRANCH  28  29
ENDBRANCH  27  28
ENDBRANCH  26  27
ENDBRANCH  25  26
ENDBRANCH  24  25
ENDBRANCH  23  24
ENDBRANCH  22  23
ENDBRANCH  21  22
ENDBRANCH  20  21
ENDBRANCH  19  20
ENDBRANCH  18  19
ENDBRANCH  17  18
ENDBRANCH   1  17
TORSDOF 26
ENDMDL
MODEL 3
REMARK VINA RESULT:     0.062      8.406     12.240
REMARK INTER + INTRA:          -6.931
REMARK INTER:                   0.000
REMARK INTRA:                  -6.931
REMARK UNBOUND:                -7.088
REMARK SMILES CCCCCCCCCCCCCCCCCCCCCCCCCCCC(=O)[O-]
REMARK SMILES IDX 15 1 16 2 17 3 18 4 19 5 20 6 21 7 22 8 23 9 24 10 25 11
REMARK SMILES IDX 26 12 27 13 28 14 29 15 30 16 14 17 13 18 12 19 11 20 10 21
REMARK SMILES IDX 9 22 8 23 7 24 6 25 5 26 4 27 3 28 2 29 1 30
REMARK H PARENT
REMARK Flexibility Score: inf
ROOT
ATOM      1  C   UNL     1     162.608 192.947 180.946  1.00  0.00     0.000 C 
ENDROOT
BRANCH   1   2
ATOM      2  C   UNL     1     162.878 192.744 179.444  1.00  0.00     0.000 C 
BRANCH   2   3
ATOM      3  C   UNL     1     163.260 191.308 179.038  1.00  0.00     0.000 C 
BRANCH   3   4
ATOM      4  C   UNL     1     162.406 190.764 177.881  1.00  0.00     0.000 C 
BRANCH   4   5
ATOM      5  C   UNL     1     161.407 191.825 177.393  1.00  0.00     0.000 C 
BRANCH   5   6
ATOM      6  C   UNL     1     159.950 191.338 177.444  1.00  0.00     0.000 C 
BRANCH   6   7
ATOM      7  C   UNL     1     159.640 190.341 178.577  1.00  0.00     0.000 C 
BRANCH   7   8
ATOM      8  C   UNL     1     158.828 190.955 179.738  1.00  0.00     0.000 C 
BRANCH   8   9
ATOM      9  C   UNL     1     159.544 190.813 181.093  1.00  0.00     0.000 C 
BRANCH   9  10
ATOM     10  C   UNL     1     160.641 189.727 181.059  1.00  0.00     0.000 C 
BRANCH  10  11
ATOM     11  C   UNL     1     161.353 189.527 182.408  1.00  0.00     0.000 C 
BRANCH  11  12
ATOM     12  C   UNL     1     162.882 189.515 182.279  1.00  0.00     0.006 C 
BRANCH  12  13
ATOM     13  C   UNL     1     163.533 190.355 183.383  1.00  0.00     0.053 C 
BRANCH  13  14
ATOM     14  C   UNL     1     164.572 189.558 184.106  1.00  0.00     0.041 C 
ATOM     15  O   UNL     1     165.786 189.884 184.033  1.00  0.00    -0.550 OA
ATOM     16  O   UNL     1     164.206 188.423 184.820  1.00  0.00    -0.550 OA
ENDBRANCH  13  14
ENDBRANCH  12  13
ENDBRANCH  11  12
ENDBRANCH  10  11
ENDBRANCH   9  10
ENDBRANCH   8   9
ENDBRANCH   7   8
ENDBRANCH   6   7
ENDBRANCH   5   6
ENDBRANCH   4   5
ENDBRANCH   3   4
ENDBRANCH   2   3
ENDBRANCH   1   2
BRANCH   1  17
ATOM     17  C   UNL     1     163.495 194.032 181.575  1.00  0.00     0.000 C 
BRANCH  17  18
ATOM     18  C   UNL     1     163.978 195.033 180.513  1.00  0.00     0.000 C 
BRANCH  18  19
ATOM     19  C   UNL     1     163.534 196.475 180.810  1.00  0.00     0.000 C 
BRANCH  19  20
ATOM     20  C   UNL     1     162.679 197.074 179.679  1.00  0.00     0.000 C 
BRANCH  20  21
ATOM     21  C   UNL     1     162.761 196.254 178.380  1.00  0.00     0.000 C 
BRANCH  21  22
ATOM     22  C   UNL     1     161.386 195.742 177.913  1.00  0.00    -0.000 C 
BRANCH  22  23
ATOM     23  C   UNL     1     160.306 195.883 178.999  1.00  0.00    -0.000 C 
BRANCH  23  24
ATOM     24  C   UNL     1     159.659 194.541 179.375  1.00  0.00    -0.000 C 
BRANCH  24  25
ATOM     25  C   UNL     1     159.229 194.537 180.850  1.00  0.00    -0.000 C 
BRANCH  25  26
ATOM     26  C   UNL     1     159.967 195.592 181.688  1.00  0.00    -0.000 C 
BRANCH  26  27
ATOM     27  C   UNL     1     160.331 195.086 183.097  1.00  0.00    -0.000 C 
BRANCH  27  28
ATOM     28  C   UNL     1     159.674 193.730 183.428  1.00  0.00    -0.000 C 
BRANCH  28  29
ATOM     29  C   UNL     1     160.617 192.735 184.126  1.00  0.00    -0.003 C 
ATOM     30  C   UNL     1     161.804 193.410 184.811  1.00  0.00     0.004 C 
ENDBRANCH  28  29
ENDBRANCH  27  28
ENDBRANCH  26  27
ENDBRANCH  25  26
ENDBRANCH  24  25
ENDBRANCH  23  24
ENDBRANCH  22  23
ENDBRANCH  21  22
ENDBRANCH  20  21
ENDBRANCH  19  20
ENDBRANCH  18  19
ENDBRANCH  17  18
ENDBRANCH   1  17
TORSDOF 26
ENDMDL
MODEL 4
REMARK VINA RESULT:     0.073      5.807      9.025
REMARK INTER + INTRA:          -6.903
REMARK INTER:                   0.000
REMARK INTRA:                  -6.903
REMARK UNBOUND:                -7.088
REMARK SMILES CCCCCCCCCCCCCCCCCCCCCCCCCCCC(=O)[O-]
REMARK SMILES IDX 15 1 16 2 17 3 18 4 19 5 20 6 21 7 22 8 23 9 24 10 25 11
REMARK SMILES IDX 26 12 27 13 28 14 29 15 30 16 14 17 13 18 12 19 11 20 10 21
REMARK SMILES IDX 9 22 8 23 7 24 6 25 5 26 4 27 3 28 2 29 1 30
REMARK H PARENT
REMARK Flexibility Score: inf
ROOT
ATOM      1  C   UNL     1     169.576 187.225 183.531  1.00  0.00     0.000 C 
ENDROOT
BRANCH   1   2
ATOM      2  C   UNL     1     168.930 188.350 184.360  1.00  0.00     0.000 C 
BRANCH   2   3
ATOM      3  C   UNL     1     167.622 188.921 183.778  1.00  0.00     0.000 C 
BRANCH   3   4
ATOM      4  C   UNL     1     166.627 189.365 184.861  1.00  0.00     0.000 C 
BRANCH   4   5
ATOM      5  C   UNL     1     166.980 188.738 186.219  1.00  0.00     0.000 C 
BRANCH   5   6
ATOM      6  C   UNL     1     165.881 187.800 186.745  1.00  0.00     0.000 C 
BRANCH   6   7
ATOM      7  C   UNL     1     164.457 188.389 186.708  1.00  0.00     0.000 C 
BRANCH   7   8
ATOM      8  C   UNL     1     163.424 187.470 186.021  1.00  0.00     0.000 C 
BRANCH   8   9
ATOM      9  C   UNL     1     164.089 186.334 185.223  1.00  0.00     0.000 C 
BRANCH   9  10
ATOM     10  C   UNL     1     164.197 186.667 183.719  1.00  0.00     0.000 C 
BRANCH  10  11
ATOM     11  C   UNL     1     165.459 186.098 183.049  1.00  0.00     0.000 C 
BRANCH  11  12
ATOM     12  C   UNL     1     166.376 185.361 184.035  1.00  0.00     0.006 C 
BRANCH  12  13
ATOM     13  C   UNL     1     167.072 184.176 183.356  1.00  0.00     0.053 C 
BRANCH  13  14
ATOM     14  C   UNL     1     166.909 182.934 184.173  1.00  0.00     0.041 C 
ATOM     15  O   UNL     1     167.921 182.287 184.552  1.00  0.00    -0.550 OA
ATOM     16  O   UNL     1     165.638 182.460 184.474  1.00  0.00    -0.550 OA
ENDBRANCH  13  14
ENDBRANCH  12  13
ENDBRANCH  11  12
ENDBRANCH  10  11
ENDBRANCH   9  10
ENDBRANCH   8   9
ENDBRANCH   7   8
ENDBRANCH   6   7
ENDBRANCH   5   6
ENDBRANCH   4   5
ENDBRANCH   3   4
ENDBRANCH   2   3
ENDBRANCH   1   2
BRANCH   1  17
ATOM     17  C   UNL     1     170.099 186.067 184.395  1.00  0.00     0.000 C 
BRANCH  17  18
ATOM     18  C   UNL     1     169.709 186.259 185.869  1.00  0.00     0.000 C 
BRANCH  18  19
ATOM     19  C   UNL     1     169.472 184.927 186.600  1.00  0.00     0.000 C 
BRANCH  19  20
ATOM     20  C   UNL     1     168.048 184.811 187.170  1.00  0.00     0.000 C 
BRANCH  20  21
ATOM     21  C   UNL     1     167.833 183.511 187.964  1.00  0.00     0.000 C 
BRANCH  21  22
ATOM     22  C   UNL     1     166.383 183.001 187.887  1.00  0.00    -0.000 C 
BRANCH  22  23
ATOM     23  C   UNL     1     165.366 184.142 187.716  1.00  0.00    -0.000 C 
BRANCH  23  24
ATOM     24  C   UNL     1     164.437 184.301 188.931  1.00  0.00    -0.000 C 
BRANCH  24  25
ATOM     25  C   UNL     1     164.382 185.767 189.386  1.00  0.00    -0.000 C 
BRANCH  25  26
ATOM     26  C   UNL     1     165.303 186.054 190.582  1.00  0.00    -0.000 C 
BRANCH  26  27
ATOM     27  C   UNL     1     166.596 186.786 190.177  1.00  0.00    -0.000 C 
BRANCH  27  28
ATOM     28  C   UNL     1     167.866 186.057 190.662  1.00  0.00    -0.000 C 
BRANCH  28  29
ATOM     29  C   UNL     1     169.175 186.667 190.132  1.00  0.00    -0.003 C 
ATOM     30  C   UNL     1     168.951 187.851 189.193  1.00  0.00     0.004 C 
ENDBRANCH  28  29
ENDBRANCH  27  28
ENDBRANCH  26  27
ENDBRANCH  25  26
ENDBRANCH  24  25
ENDBRANCH  23  24
ENDBRANCH  22  23
ENDBRANCH  21  22
ENDBRANCH  20  21
ENDBRANCH  19  20
ENDBRANCH  18  19
ENDBRANCH  17  18
ENDBRANCH   1  17
TORSDOF 26
ENDMDL
MODEL 5
REMARK VINA RESULT:     0.076      6.119      8.825
REMARK INTER + INTRA:          -6.895
REMARK INTER:                   0.000
REMARK INTRA:                  -6.895
REMARK UNBOUND:                -7.088
REMARK SMILES CCCCCCCCCCCCCCCCCCCCCCCCCCCC(=O)[O-]
REMARK SMILES IDX 15 1 16 2 17 3 18 4 19 5 20 6 21 7 22 8 23 9 24 10 25 11
REMARK SMILES IDX 26 12 27 13 28 14 29 15 30 16 14 17 13 18 12 19 11 20 10 21
REMARK SMILES IDX 9 22 8 23 7 24 6 25 5 26 4 27 3 28 2 29 1 30
REMARK H PARENT
REMARK Flexibility Score: inf
ROOT
ATOM      1  C   UNL     1     172.047 193.411 190.881  1.00  0.00     0.000 C 
ENDROOT
BRANCH   1   2
ATOM      2  C   UNL     1     173.296 194.311 190.876  1.00  0.00     0.000 C 
BRANCH   2   3
ATOM      3  C   UNL     1     173.338 195.375 191.989  1.00  0.00     0.000 C 
BRANCH   3   4
ATOM      4  C   UNL     1     172.025 195.468 192.781  1.00  0.00     0.000 C 
BRANCH   4   5
ATOM      5  C   UNL     1     171.513 196.916 192.825  1.00  0.00     0.000 C 
BRANCH   5   6
ATOM      6  C   UNL     1     170.057 197.047 192.350  1.00  0.00     0.000 C 
BRANCH   6   7
ATOM      7  C   UNL     1     169.332 195.709 192.110  1.00  0.00     0.000 C 
BRANCH   7   8
ATOM      8  C   UNL     1     168.685 195.596 190.713  1.00  0.00     0.000 C 
BRANCH   8   9
ATOM      9  C   UNL     1     169.714 195.739 189.578  1.00  0.00     0.000 C 
BRANCH   9  10
ATOM     10  C   UNL     1     169.475 197.011 188.735  1.00  0.00     0.000 C 
BRANCH  10  11
ATOM     11  C   UNL     1     170.665 197.986 188.738  1.00  0.00     0.000 C 
BRANCH  11  12
ATOM     12  C   UNL     1     171.998 197.298 189.060  1.00  0.00     0.006 C 
BRANCH  12  13
ATOM     13  C   UNL     1     172.996 198.291 189.667  1.00  0.00     0.053 C 
BRANCH  13  14
ATOM     14  C   UNL     1     173.972 198.754 188.632  1.00  0.00     0.041 C 
ATOM     15  O   UNL     1     173.963 198.244 187.480  1.00  0.00    -0.550 OA
ATOM     16  O   UNL     1     174.925 199.712 188.954  1.00  0.00    -0.550 OA
ENDBRANCH  13  14
ENDBRANCH  12  13
ENDBRANCH  11  12
ENDBRANCH  10  11
ENDBRANCH   9  10
ENDBRANCH   8   9
ENDBRANCH   7   8
ENDBRANCH   6   7
ENDBRANCH   5   6
ENDBRANCH   4   5
ENDBRANCH   3   4
ENDBRANCH   2   3
ENDBRANCH   1   2
BRANCH   1  17
ATOM     17  C   UNL     1     172.379 191.924 191.076  1.00  0.00     0.000 C 
BRANCH  17  18
ATOM     18  C   UNL     1     171.226 191.188 191.778  1.00  0.00     0.000 C 
BRANCH  18  19
ATOM     19  C   UNL     1     170.266 192.145 192.504  1.00  0.00     0.000 C 
BRANCH  19  20
ATOM     20  C   UNL     1     168.814 192.009 192.012  1.00  0.00     0.000 C 
BRANCH  20  21
ATOM     21  C   UNL     1     168.695 191.120 190.763  1.00  0.00     0.000 C 
BRANCH  21  22
ATOM     22  C   UNL     1     168.085 191.863 189.561  1.00  0.00    -0.000 C 
BRANCH  22  23
ATOM     23  C   UNL     1     169.152 192.346 188.564  1.00  0.00    -0.000 C 
BRANCH  23  24
ATOM     24  C   UNL     1     170.131 191.234 188.153  1.00  0.00    -0.000 C 
BRANCH  24  25
ATOM     25  C   UNL     1     171.376 191.827 187.476  1.00  0.00    -0.000 C 
BRANCH  25  26
ATOM     26  C   UNL     1     171.267 193.342 187.251  1.00  0.00    -0.000 C 
BRANCH  26  27
ATOM     27  C   UNL     1     172.640 194.040 187.207  1.00  0.00    -0.000 C 
BRANCH  27  28
ATOM     28  C   UNL     1     172.689 195.188 186.178  1.00  0.00    -0.000 C 
BRANCH  28  29
ATOM     29  C   UNL     1     171.303 195.669 185.716  1.00  0.00    -0.003 C 
ATOM     30  C   UNL     1     171.311 197.099 185.179  1.00  0.00     0.004 C 
ENDBRANCH  28  29
ENDBRANCH  27  28
ENDBRANCH  26  27
ENDBRANCH  25  26
ENDBRANCH  24  25
ENDBRANCH  23  24
ENDBRANCH  22  23
ENDBRANCH  21  22
ENDBRANCH  20  21
ENDBRANCH  19  20
ENDBRANCH  18  19
ENDBRANCH  17  18
ENDBRANCH   1  17
TORSDOF 26
ENDMDL
MODEL 6
REMARK VINA RESULT:     0.084      5.629      8.556
REMARK INTER + INTRA:          -6.875
REMARK INTER:                   0.000
REMARK INTRA:                  -6.875
REMARK UNBOUND:                -7.088
REMARK SMILES CCCCCCCCCCCCCCCCCCCCCCCCCCCC(=O)[O-]
REMARK SMILES IDX 15 1 16 2 17 3 18 4 19 5 20 6 21 7 22 8 23 9 24 10 25 11
REMARK SMILES IDX 26 12 27 13 28 14 29 15 30 16 14 17 13 18 12 19 11 20 10 21
REMARK SMILES IDX 9 22 8 23 7 24 6 25 5 26 4 27 3 28 2 29 1 30
REMARK H PARENT
REMARK Flexibility Score: inf
ROOT
ATOM      1  C   UNL     1     164.854 194.257 186.916  1.00  0.00     0.000 C 
ENDROOT
BRANCH   1   2
ATOM      2  C   UNL     1     165.668 193.033 187.373  1.00  0.00     0.000 C 
BRANCH   2   3
ATOM      3  C   UNL     1     165.402 192.576 188.820  1.00  0.00     0.000 C 
BRANCH   3   4
ATOM      4  C   UNL     1     163.943 192.783 189.256  1.00  0.00     0.000 C 
BRANCH   4   5
ATOM      5  C   UNL     1     163.290 191.445 189.637  1.00  0.00     0.000 C 
BRANCH   5   6
ATOM      6  C   UNL     1     162.127 191.064 188.707  1.00  0.00     0.000 C 
BRANCH   6   7
ATOM      7  C   UNL     1     161.923 192.007 187.506  1.00  0.00     0.000 C 
BRANCH   7   8
ATOM      8  C   UNL     1     162.320 191.381 186.152  1.00  0.00     0.000 C 
BRANCH   8   9
ATOM      9  C   UNL     1     162.772 189.916 186.293  1.00  0.00     0.000 C 
BRANCH   9  10
ATOM     10  C   UNL     1     164.306 189.770 186.198  1.00  0.00     0.000 C 
BRANCH  10  11
ATOM     11  C   UNL     1     164.781 188.312 186.080  1.00  0.00     0.000 C 
BRANCH  11  12
ATOM     12  C   UNL     1     165.544 187.831 187.321  1.00  0.00     0.006 C 
BRANCH  12  13
ATOM     13  C   UNL     1     165.761 188.979 188.312  1.00  0.00     0.053 C 
BRANCH  13  14
ATOM     14  C   UNL     1     167.137 188.917 188.896  1.00  0.00     0.041 C 
ATOM     15  O   UNL     1     167.834 189.962 188.990  1.00  0.00    -0.550 OA
ATOM     16  O   UNL     1     167.671 187.696 189.289  1.00  0.00    -0.550 OA
ENDBRANCH  13  14
ENDBRANCH  12  13
ENDBRANCH  11  12
ENDBRANCH  10  11
ENDBRANCH   9  10
ENDBRANCH   8   9
ENDBRANCH   7   8
ENDBRANCH   6   7
ENDBRANCH   5   6
ENDBRANCH   4   5
ENDBRANCH   3   4
ENDBRANCH   2   3
ENDBRANCH   1   2
BRANCH   1  17
ATOM     17  C   UNL     1     164.583 194.267 185.404  1.00  0.00     0.000 C 
BRANCH  17  18
ATOM     18  C   UNL     1     165.270 193.079 184.712  1.00  0.00     0.000 C 
BRANCH  18  19
ATOM     19  C   UNL     1     164.542 192.633 183.433  1.00  0.00     0.000 C 
BRANCH  19  20
ATOM     20  C   UNL     1     165.358 191.620 182.612  1.00  0.00     0.000 C 
BRANCH  20  21
ATOM     21  C   UNL     1     164.751 190.207 182.644  1.00  0.00     0.000 C 
BRANCH  21  22
ATOM     22  C   UNL     1     165.818 189.100 182.573  1.00  0.00    -0.000 C 
BRANCH  22  23
ATOM     23  C   UNL     1     167.135 189.592 181.951  1.00  0.00    -0.000 C 
BRANCH  23  24
ATOM     24  C   UNL     1     168.359 189.292 182.831  1.00  0.00    -0.000 C 
BRANCH  24  25
ATOM     25  C   UNL     1     167.949 188.509 184.087  1.00  0.00    -0.000 C 
BRANCH  25  26
ATOM     26  C   UNL     1     168.385 189.199 185.388  1.00  0.00    -0.000 C 
BRANCH  26  27
ATOM     27  C   UNL     1     167.850 190.638 185.509  1.00  0.00    -0.000 C 
BRANCH  27  28
ATOM     28  C   UNL     1     168.959 191.657 185.843  1.00  0.00    -0.000 C 
BRANCH  28  29
ATOM     29  C   UNL     1     168.802 193.007 185.123  1.00  0.00    -0.003 C 
ATOM     30  C   UNL     1     168.795 192.880 183.600  1.00  0.00     0.004 C 
ENDBRANCH  28  29
ENDBRANCH  27  28
ENDBRANCH  26  27
ENDBRANCH  25  26
ENDBRANCH  24  25
ENDBRANCH  23  24
ENDBRANCH  22  23
ENDBRANCH  21  22
ENDBRANCH  20  21
ENDBRANCH  19  20
ENDBRANCH  18  19
ENDBRANCH  17  18
ENDBRANCH   1  17
TORSDOF 26
ENDMDL
MODEL 7
REMARK VINA RESULT:     0.084      8.970     12.010
REMARK INTER + INTRA:          -6.875
REMARK INTER:                   0.000
REMARK INTRA:                  -6.875
REMARK UNBOUND:                -7.088
REMARK SMILES CCCCCCCCCCCCCCCCCCCCCCCCCCCC(=O)[O-]
REMARK SMILES IDX 15 1 16 2 17 3 18 4 19 5 20 6 21 7 22 8 23 9 24 10 25 11
REMARK SMILES IDX 26 12 27 13 28 14 29 15 30 16 14 17 13 18 12 19 11 20 10 21
REMARK SMILES IDX 9 22 8 23 7 24 6 25 5 26 4 27 3 28 2 29 1 30
REMARK H PARENT
REMARK Flexibility Score: inf
ROOT
ATOM      1  C   UNL     1     168.155 195.280 188.898  1.00  0.00     0.000 C 
ENDROOT
BRANCH   1   2
ATOM      2  C   UNL     1     166.746 195.158 189.508  1.00  0.00     0.000 C 
BRANCH   2   3
ATOM      3  C   UNL     1     165.614 195.769 188.661  1.00  0.00     0.000 C 
BRANCH   3   4
ATOM      4  C   UNL     1     164.353 194.892 188.624  1.00  0.00     0.000 C 
BRANCH   4   5
ATOM      5  C   UNL     1     164.710 193.411 188.828  1.00  0.00     0.000 C 
BRANCH   5   6
ATOM      6  C   UNL     1     163.636 192.643 189.616  1.00  0.00     0.000 C 
BRANCH   6   7
ATOM      7  C   UNL     1     164.168 191.840 190.818  1.00  0.00     0.000 C 
BRANCH   7   8
ATOM      8  C   UNL     1     165.096 192.653 191.746  1.00  0.00     0.000 C 
BRANCH   8   9
ATOM      9  C   UNL     1     164.312 193.543 192.726  1.00  0.00     0.000 C 
BRANCH   9  10
ATOM     10  C   UNL     1     164.590 195.045 192.497  1.00  0.00     0.000 C 
BRANCH  10  11
ATOM     11  C   UNL     1     163.354 195.840 192.046  1.00  0.00     0.000 C 
BRANCH  11  12
ATOM     12  C   UNL     1     163.698 197.257 191.567  1.00  0.00     0.006 C 
BRANCH  12  13
ATOM     13  C   UNL     1     165.162 197.597 191.865  1.00  0.00     0.053 C 
BRANCH  13  14
ATOM     14  C   UNL     1     165.252 198.652 192.921  1.00  0.00     0.041 C 
ATOM     15  O   UNL     1     165.687 199.799 192.636  1.00  0.00    -0.550 OA
ATOM     16  O   UNL     1     164.904 198.354 194.233  1.00  0.00    -0.550 OA
ENDBRANCH  13  14
ENDBRANCH  12  13
ENDBRANCH  11  12
ENDBRANCH  10  11
ENDBRANCH   9  10
ENDBRANCH   8   9
ENDBRANCH   7   8
ENDBRANCH   6   7
ENDBRANCH   5   6
ENDBRANCH   4   5
ENDBRANCH   3   4
ENDBRANCH   2   3
ENDBRANCH   1   2
BRANCH   1  17
ATOM     17  C   UNL     1     168.965 193.978 188.993  1.00  0.00     0.000 C 
BRANCH  17  18
ATOM     18  C   UNL     1     168.224 192.928 189.837  1.00  0.00     0.000 C 
BRANCH  18  19
ATOM     19  C   UNL     1     169.057 192.428 191.029  1.00  0.00     0.000 C 
BRANCH  19  20
ATOM     20  C   UNL     1     170.470 193.038 191.060  1.00  0.00     0.000 C 
BRANCH  20  21
ATOM     21  C   UNL     1     171.022 193.174 192.489  1.00  0.00     0.000 C 
BRANCH  21  22
ATOM     22  C   UNL     1     170.946 194.616 193.021  1.00  0.00    -0.000 C 
BRANCH  22  23
ATOM     23  C   UNL     1     170.627 195.636 191.914  1.00  0.00    -0.000 C 
BRANCH  23  24
ATOM     24  C   UNL     1     169.410 196.514 192.244  1.00  0.00    -0.000 C 
BRANCH  24  25
ATOM     25  C   UNL     1     168.237 195.657 192.741  1.00  0.00    -0.000 C 
BRANCH  25  26
ATOM     26  C   UNL     1     167.741 196.076 194.133  1.00  0.00    -0.000 C 
BRANCH  26  27
ATOM     27  C   UNL     1     167.437 194.872 195.046  1.00  0.00    -0.000 C 
BRANCH  27  28
ATOM     28  C   UNL     1     167.640 193.520 194.330  1.00  0.00    -0.000 C 
BRANCH  28  29
ATOM     29  C   UNL     1     168.478 192.511 195.133  1.00  0.00    -0.003 C 
ATOM     30  C   UNL     1     168.554 191.134 194.475  1.00  0.00     0.004 C 
ENDBRANCH  28  29
ENDBRANCH  27  28
ENDBRANCH  26  27
ENDBRANCH  25  26
ENDBRANCH  24  25
ENDBRANCH  23  24
ENDBRANCH  22  23
ENDBRANCH  21  22
ENDBRANCH  20  21
ENDBRANCH  19  20
ENDBRANCH  18  19
ENDBRANCH  17  18
ENDBRANCH   1  17
TORSDOF 26
ENDMDL
MODEL 8
REMARK VINA RESULT:     0.103      4.943      7.976
REMARK INTER + INTRA:          -6.828
REMARK INTER:                   0.000
REMARK INTRA:                  -6.828
REMARK UNBOUND:                -7.088
REMARK SMILES CCCCCCCCCCCCCCCCCCCCCCCCCCCC(=O)[O-]
REMARK SMILES IDX 15 1 16 2 17 3 18 4 19 5 20 6 21 7 22 8 23 9 24 10 25 11
REMARK SMILES IDX 26 12 27 13 28 14 29 15 30 16 14 17 13 18 12 19 11 20 10 21
REMARK SMILES IDX 9 22 8 23 7 24 6 25 5 26 4 27 3 28 2 29 1 30
REMARK H PARENT
REMARK Flexibility Score: inf
ROOT
ATOM      1  C   UNL     1     169.291 192.790 185.475  1.00  0.00     0.000 C 
ENDROOT
BRANCH   1   2
ATOM      2  C   UNL     1     170.011 191.483 185.095  1.00  0.00     0.000 C 
BRANCH   2   3
ATOM      3  C   UNL     1     169.793 190.310 186.069  1.00  0.00     0.000 C 
BRANCH   3   4
ATOM      4  C   UNL     1     169.307 190.763 187.454  1.00  0.00     0.000 C 
BRANCH   4   5
ATOM      5  C   UNL     1     170.170 190.147 188.566  1.00  0.00     0.000 C 
BRANCH   5   6
ATOM      6  C   UNL     1     171.663 190.102 188.204  1.00  0.00     0.000 C 
BRANCH   6   7
ATOM      7  C   UNL     1     172.479 191.322 188.672  1.00  0.00     0.000 C 
BRANCH   7   8
ATOM      8  C   UNL     1     173.074 192.151 187.514  1.00  0.00     0.000 C 
BRANCH   8   9
ATOM      9  C   UNL     1     172.313 193.469 187.285  1.00  0.00     0.000 C 
BRANCH   9  10
ATOM     10  C   UNL     1     171.370 193.807 188.461  1.00  0.00     0.000 C 
BRANCH  10  11
ATOM     11  C   UNL     1     170.569 195.104 188.257  1.00  0.00     0.000 C 
BRANCH  11  12
ATOM     12  C   UNL     1     170.910 195.815 186.941  1.00  0.00     0.006 C 
BRANCH  12  13
ATOM     13  C   UNL     1     169.781 196.762 186.519  1.00  0.00     0.053 C 
BRANCH  13  14
ATOM     14  C   UNL     1     169.328 196.452 185.128  1.00  0.00     0.041 C 
ATOM     15  O   UNL     1     168.116 196.583 184.812  1.00  0.00    -0.550 OA
ATOM     16  O   UNL     1     170.235 195.970 184.192  1.00  0.00    -0.550 OA
ENDBRANCH  13  14
ENDBRANCH  12  13
ENDBRANCH  11  12
ENDBRANCH  10  11
ENDBRANCH   9  10
ENDBRANCH   8   9
ENDBRANCH   7   8
ENDBRANCH   6   7
ENDBRANCH   5   6
ENDBRANCH   4   5
ENDBRANCH   3   4
ENDBRANCH   2   3
ENDBRANCH   1   2
BRANCH   1  17
ATOM     17  C   UNL     1     167.919 192.937 184.800  1.00  0.00     0.000 C 
BRANCH  17  18
ATOM     18  C   UNL     1     166.815 193.181 185.842  1.00  0.00     0.000 C 
BRANCH  18  19
ATOM     19  C   UNL     1     167.324 193.934 187.083  1.00  0.00     0.000 C 
BRANCH  19  20
ATOM     20  C   UNL     1     166.391 195.083 187.501  1.00  0.00     0.000 C 
BRANCH  20  21
ATOM     21  C   UNL     1     166.936 195.881 188.697  1.00  0.00     0.000 C 
BRANCH  21  22
ATOM     22  C   UNL     1     165.964 195.901 189.890  1.00  0.00    -0.000 C 
BRANCH  22  23
ATOM     23  C   UNL     1     166.657 195.560 191.220  1.00  0.00    -0.000 C 
BRANCH  23  24
ATOM     24  C   UNL     1     168.161 195.287 191.057  1.00  0.00    -0.000 C 
BRANCH  24  25
ATOM     25  C   UNL     1     168.514 193.873 191.542  1.00  0.00    -0.000 C 
BRANCH  25  26
ATOM     26  C   UNL     1     168.413 192.819 190.429  1.00  0.00    -0.000 C 
BRANCH  26  27
ATOM     27  C   UNL     1     167.380 191.719 190.740  1.00  0.00    -0.000 C 
BRANCH  27  28
ATOM     28  C   UNL     1     166.392 191.489 189.577  1.00  0.00    -0.000 C 
BRANCH  28  29
ATOM     29  C   UNL     1     165.102 192.321 189.681  1.00  0.00    -0.003 C 
ATOM     30  C   UNL     1     164.611 192.492 191.118  1.00  0.00     0.004 C 
ENDBRANCH  28  29
ENDBRANCH  27  28
ENDBRANCH  26  27
ENDBRANCH  25  26
ENDBRANCH  24  25
ENDBRANCH  23  24
ENDBRANCH  22  23
ENDBRANCH  21  22
ENDBRANCH  20  21
ENDBRANCH  19  20
ENDBRANCH  18  19
ENDBRANCH  17  18
ENDBRANCH   1  17
TORSDOF 26
ENDMDL
MODEL 9
REMARK VINA RESULT:     0.113      4.787      8.132
REMARK INTER + INTRA:          -6.803
REMARK INTER:                   0.000
REMARK INTRA:                  -6.803
REMARK UNBOUND:                -7.088
REMARK SMILES CCCCCCCCCCCCCCCCCCCCCCCCCCCC(=O)[O-]
REMARK SMILES IDX 15 1 16 2 17 3 18 4 19 5 20 6 21 7 22 8 23 9 24 10 25 11
REMARK SMILES IDX 26 12 27 13 28 14 29 15 30 16 14 17 13 18 12 19 11 20 10 21
REMARK SMILES IDX 9 22 8 23 7 24 6 25 5 26 4 27 3 28 2 29 1 30
REMARK H PARENT
REMARK Flexibility Score: inf
ROOT
ATOM      1  C   UNL     1     168.066 194.094 178.943  1.00  0.00     0.000 C 
ENDROOT
BRANCH   1   2
ATOM      2  C   UNL     1     166.929 195.030 179.392  1.00  0.00     0.000 C 
BRANCH   2   3
ATOM      3  C   UNL     1     166.444 196.027 178.322  1.00  0.00     0.000 C 
BRANCH   3   4
ATOM      4  C   UNL     1     165.891 197.329 178.922  1.00  0.00     0.000 C 
BRANCH   4   5
ATOM      5  C   UNL     1     166.147 197.386 180.436  1.00  0.00     0.000 C 
BRANCH   5   6
ATOM      6  C   UNL     1     166.460 198.806 180.934  1.00  0.00     0.000 C 
BRANCH   6   7
ATOM      7  C   UNL     1     167.467 198.876 182.098  1.00  0.00     0.000 C 
BRANCH   7   8
ATOM      8  C   UNL     1     168.158 197.529 182.402  1.00  0.00     0.000 C 
BRANCH   8   9
ATOM      9  C   UNL     1     168.203 197.220 183.909  1.00  0.00     0.000 C 
BRANCH   9  10
ATOM     10  C   UNL     1     167.616 195.829 184.234  1.00  0.00     0.000 C 
BRANCH  10  11
ATOM     11  C   UNL     1     167.592 194.872 183.030  1.00  0.00     0.000 C 
BRANCH  11  12
ATOM     12  C   UNL     1     166.271 194.100 182.909  1.00  0.00     0.006 C 
BRANCH  12  13
ATOM     13  C   UNL     1     165.071 195.052 182.957  1.00  0.00     0.053 C 
BRANCH  13  14
ATOM     14  C   UNL     1     163.914 194.477 182.204  1.00  0.00     0.041 C 
ATOM     15  O   UNL     1     163.160 193.630 182.751  1.00  0.00    -0.550 OA
ATOM     16  O   UNL     1     163.698 194.838 180.880  1.00  0.00    -0.550 OA
ENDBRANCH  13  14
ENDBRANCH  12  13
ENDBRANCH  11  12
ENDBRANCH  10  11
ENDBRANCH   9  10
ENDBRANCH   8   9
ENDBRANCH   7   8
ENDBRANCH   6   7
ENDBRANCH   5   6
ENDBRANCH   4   5
ENDBRANCH   3   4
ENDBRANCH   2   3
ENDBRANCH   1   2
BRANCH   1  17
ATOM     17  C   UNL     1     169.297 194.161 179.860  1.00  0.00     0.000 C 
BRANCH  17  18
ATOM     18  C   UNL     1     169.885 195.580 179.891  1.00  0.00     0.000 C 
BRANCH  18  19
ATOM     19  C   UNL     1     170.725 195.904 178.644  1.00  0.00     0.000 C 
BRANCH  19  20
ATOM     20  C   UNL     1     170.342 197.251 178.007  1.00  0.00     0.000 C 
BRANCH  20  21
ATOM     21  C   UNL     1     169.491 198.126 178.944  1.00  0.00     0.000 C 
BRANCH  21  22
ATOM     22  C   UNL     1     170.182 199.452 179.307  1.00  0.00    -0.000 C 
BRANCH  22  23
ATOM     23  C   UNL     1     170.890 199.393 180.671  1.00  0.00    -0.000 C 
BRANCH  23  24
ATOM     24  C   UNL     1     172.391 199.083 180.551  1.00  0.00    -0.000 C 
BRANCH  24  25
ATOM     25  C   UNL     1     172.724 197.735 181.207  1.00  0.00    -0.000 C 
BRANCH  25  26
ATOM     26  C   UNL     1     171.848 197.437 182.433  1.00  0.00    -0.000 C 
BRANCH  26  27
ATOM     27  C   UNL     1     172.334 196.211 183.230  1.00  0.00    -0.000 C 
BRANCH  27  28
ATOM     28  C   UNL     1     171.243 195.131 183.379  1.00  0.00    -0.000 C 
BRANCH  28  29
ATOM     29  C   UNL     1     171.612 193.780 182.743  1.00  0.00    -0.003 C 
ATOM     30  C   UNL     1     172.731 193.887 181.708  1.00  0.00     0.004 C 
ENDBRANCH  28  29
ENDBRANCH  27  28
ENDBRANCH  26  27
ENDBRANCH  25  26
ENDBRANCH  24  25
ENDBRANCH  23  24
ENDBRANCH  22  23
ENDBRANCH  21  22
ENDBRANCH  20  21
ENDBRANCH  19  20
ENDBRANCH  18  19
ENDBRANCH  17  18
ENDBRANCH   1  17
TORSDOF 26
ENDMDL
