MODEL 1
REMARK VINA RESULT:    -4.928      0.000      0.000
REMARK INTER + INTRA:          -5.605
REMARK INTER:                  -5.360
REMARK INTRA:                  -0.245
REMARK UNBOUND:                -0.245
REMARK SMILES O=C([O-])c1ccccc1O
REMARK SMILES IDX 4 1 9 2 5 3 8 4 6 5 7 6 2 7 1 8 3 9 10 10
REMARK H PARENT 10 11
REMARK Flexibility Score: inf
ROOT
ATOM      1  C   UNL     1       7.112  -2.622 -11.342  1.00  0.00     0.039 A 
ATOM      2  C   UNL     1       8.296  -1.853 -11.240  1.00  0.00     0.124 A 
ATOM      3  C   UNL     1       6.105  -2.201 -12.234  1.00  0.00     0.014 A 
ATOM      4  C   UNL     1       8.448  -0.695 -12.019  1.00  0.00     0.047 A 
ATOM      5  C   UNL     1       6.270  -1.047 -13.003  1.00  0.00     0.001 A 
ATOM      6  C   UNL     1       7.439  -0.295 -12.896  1.00  0.00     0.004 A 
ENDROOT
BRANCH   1   7
ATOM      7  C   UNL     1       6.909  -3.854 -10.538  1.00  0.00     0.075 C 
ATOM      8  O   UNL     1       7.853  -4.675 -10.382  1.00  0.00    -0.545 OA
ATOM      9  O   UNL     1       5.683  -4.129  -9.942  1.00  0.00    -0.545 OA
ENDBRANCH   1   7
BRANCH   2  10
ATOM     10  O   UNL     1       9.320  -2.230 -10.372  1.00  0.00    -0.507 OA
ATOM     11  H   UNL     1       9.645  -3.189 -10.315  1.00  0.00     0.293 HD
ENDBRANCH   2  10
TORSDOF 2
ENDMDL
MODEL 2
REMARK VINA RESULT:    -4.744      2.630      3.226
REMARK INTER + INTRA:          -5.405
REMARK INTER:                  -5.158
REMARK INTRA:                  -0.247
REMARK UNBOUND:                -0.245
REMARK SMILES O=C([O-])c1ccccc1O
REMARK SMILES IDX 4 1 9 2 5 3 8 4 6 5 7 6 2 7 1 8 3 9 10 10
REMARK H PARENT 10 11
REMARK Flexibility Score: inf
ROOT
ATOM      1  C   UNL     1       7.803  -3.850 -12.132  1.00  0.00     0.039 A 
ATOM      2  C   UNL     1       8.784  -4.773 -11.697  1.00  0.00     0.124 A 
ATOM      3  C   UNL     1       7.795  -3.459 -13.486  1.00  0.00     0.014 A 
ATOM      4  C   UNL     1       9.723  -5.279 -12.609  1.00  0.00     0.047 A 
ATOM      5  C   UNL     1       8.735  -3.970 -14.383  1.00  0.00     0.001 A 
ATOM      6  C   UNL     1       9.698  -4.879 -13.945  1.00  0.00     0.004 A 
ENDROOT
BRANCH   1   7
ATOM      7  C   UNL     1       6.790  -3.290 -11.202  1.00  0.00     0.075 C 
ATOM      8  O   UNL     1       6.427  -2.087 -11.305  1.00  0.00    -0.545 OA
ATOM      9  O   UNL     1       6.221  -4.072 -10.203  1.00  0.00    -0.545 OA
ENDBRANCH   1   7
BRANCH   2  10
ATOM     10  O   UNL     1       8.831  -5.190 -10.367  1.00  0.00    -0.507 OA
ATOM     11  H   UNL     1       8.720  -6.164 -10.109  1.00  0.00     0.293 HD
ENDBRANCH   2  10
TORSDOF 2
ENDMDL
MODEL 3
REMARK VINA RESULT:    -4.542      2.609      3.323
REMARK INTER + INTRA:          -5.185
REMARK INTER:                  -4.941
REMARK INTRA:                  -0.244
REMARK UNBOUND:                -0.245
REMARK SMILES O=C([O-])c1ccccc1O
REMARK SMILES IDX 4 1 9 2 5 3 8 4 6 5 7 6 2 7 1 8 3 9 10 10
REMARK H PARENT 10 11
REMARK Flexibility Score: inf
ROOT
ATOM      1  C   UNL     1       8.340  -4.534 -12.621  1.00  0.00     0.039 A 
ATOM      2  C   UNL     1       8.538  -4.363 -11.230  1.00  0.00     0.124 A 
ATOM      3  C   UNL     1       7.790  -3.469 -13.363  1.00  0.00     0.014 A 
ATOM      4  C   UNL     1       8.188  -3.150 -10.617  1.00  0.00     0.047 A 
ATOM      5  C   UNL     1       7.445  -2.268 -12.740  1.00  0.00     0.001 A 
ATOM      6  C   UNL     1       7.644  -2.108 -11.369  1.00  0.00     0.004 A 
ENDROOT
BRANCH   1   7
ATOM      7  C   UNL     1       8.697  -5.800 -13.312  1.00  0.00     0.075 C 
ATOM      8  O   UNL     1       7.833  -6.421 -13.988  1.00  0.00    -0.545 OA
ATOM      9  O   UNL     1       9.981  -6.325 -13.230  1.00  0.00    -0.545 OA
ENDBRANCH   1   7
BRANCH   2  10
ATOM     10  O   UNL     1       9.080  -5.388 -10.455  1.00  0.00    -0.507 OA
ATOM     11  H   UNL     1       8.678  -6.318 -10.444  1.00  0.00     0.293 HD
ENDBRANCH   2  10
TORSDOF 2
ENDMDL
MODEL 4
REMARK VINA RESULT:    -4.512     15.190     15.979
REMARK INTER + INTRA:          -5.152
REMARK INTER:                  -4.942
REMARK INTRA:                  -0.210
REMARK UNBOUND:                -0.245
REMARK SMILES O=C([O-])c1ccccc1O
REMARK SMILES IDX 4 1 9 2 5 3 8 4 6 5 7 6 2 7 1 8 3 9 10 10
REMARK H PARENT 10 11
REMARK Flexibility Score: inf
ROOT
ATOM      1  C   UNL     1      -4.079   5.789  -5.353  1.00  0.00     0.039 A 
ATOM      2  C   UNL     1      -4.535   6.873  -4.565  1.00  0.00     0.124 A 
ATOM      3  C   UNL     1      -4.584   4.500  -5.089  1.00  0.00     0.014 A 
ATOM      4  C   UNL     1      -5.473   6.650  -3.544  1.00  0.00     0.047 A 
ATOM      5  C   UNL     1      -5.515   4.292  -4.070  1.00  0.00     0.001 A 
ATOM      6  C   UNL     1      -5.959   5.365  -3.298  1.00  0.00     0.004 A 
ENDROOT
BRANCH   1   7
ATOM      7  C   UNL     1      -3.089   5.979  -6.444  1.00  0.00     0.075 C 
ATOM      8  O   UNL     1      -2.998   5.135  -7.375  1.00  0.00    -0.545 OA
ATOM      9  O   UNL     1      -2.245   7.084  -6.463  1.00  0.00    -0.545 OA
ENDBRANCH   1   7
BRANCH   2  10
ATOM     10  O   UNL     1      -4.066   8.167  -4.789  1.00  0.00    -0.507 OA
ATOM     11  H   UNL     1      -4.621   8.983  -4.560  1.00  0.00     0.293 HD
ENDBRANCH   2  10
TORSDOF 2
ENDMDL
MODEL 5
REMARK VINA RESULT:    -4.441      2.403      3.587
REMARK INTER + INTRA:          -5.075
REMARK INTER:                  -4.825
REMARK INTRA:                  -0.250
REMARK UNBOUND:                -0.245
REMARK SMILES O=C([O-])c1ccccc1O
REMARK SMILES IDX 4 1 9 2 5 3 8 4 6 5 7 6 2 7 1 8 3 9 10 10
REMARK H PARENT 10 11
REMARK Flexibility Score: inf
ROOT
ATOM      1  C   UNL     1       7.567  -1.214 -12.138  1.00  0.00     0.039 A 
ATOM      2  C   UNL     1       8.675  -1.580 -11.336  1.00  0.00     0.124 A 
ATOM      3  C   UNL     1       6.427  -2.042 -12.136  1.00  0.00     0.014 A 
ATOM      4  C   UNL     1       8.621  -2.748 -10.559  1.00  0.00     0.047 A 
ATOM      5  C   UNL     1       6.388  -3.202 -11.360  1.00  0.00     0.001 A 
ATOM      6  C   UNL     1       7.483  -3.555 -10.573  1.00  0.00     0.004 A 
ENDROOT
BRANCH   1   7
ATOM      7  C   UNL     1       7.580   0.013 -12.974  1.00  0.00     0.075 C 
ATOM      8  O   UNL     1       8.576   0.280 -13.699  1.00  0.00    -0.545 OA
ATOM      9  O   UNL     1       6.502   0.891 -12.978  1.00  0.00    -0.545 OA
ENDBRANCH   1   7
BRANCH   2  10
ATOM     10  O   UNL     1       9.825  -0.792 -11.304  1.00  0.00    -0.507 OA
ATOM     11  H   UNL     1      10.092  -0.271 -10.476  1.00  0.00     0.293 HD
ENDBRANCH   2  10
TORSDOF 2
ENDMDL
MODEL 6
REMARK VINA RESULT:    -4.423      1.275      2.208
REMARK INTER + INTRA:          -5.055
REMARK INTER:                  -4.817
REMARK INTRA:                  -0.239
REMARK UNBOUND:                -0.245
REMARK SMILES O=C([O-])c1ccccc1O
REMARK SMILES IDX 4 1 9 2 5 3 8 4 6 5 7 6 2 7 1 8 3 9 10 10
REMARK H PARENT 10 11
REMARK Flexibility Score: inf
ROOT
ATOM      1  C   UNL     1       7.800  -2.352 -11.357  1.00  0.00     0.039 A 
ATOM      2  C   UNL     1       6.958  -1.592 -12.202  1.00  0.00     0.124 A 
ATOM      3  C   UNL     1       9.106  -1.884 -11.103  1.00  0.00     0.014 A 
ATOM      4  C   UNL     1       7.428  -0.397 -12.769  1.00  0.00     0.047 A 
ATOM      5  C   UNL     1       9.561  -0.695 -11.674  1.00  0.00     0.001 A 
ATOM      6  C   UNL     1       8.724   0.048 -12.506  1.00  0.00     0.004 A 
ENDROOT
BRANCH   1   7
ATOM      7  C   UNL     1       7.344  -3.622 -10.735  1.00  0.00     0.075 C 
ATOM      8  O   UNL     1       8.157  -4.565 -10.541  1.00  0.00    -0.545 OA
ATOM      9  O   UNL     1       6.018  -3.799 -10.354  1.00  0.00    -0.545 OA
ENDBRANCH   1   7
BRANCH   2  10
ATOM     10  O   UNL     1       5.658  -2.014 -12.481  1.00  0.00    -0.507 OA
ATOM     11  H   UNL     1       5.133  -1.642 -13.265  1.00  0.00     0.293 HD
ENDBRANCH   2  10
TORSDOF 2
ENDMDL
MODEL 7
REMARK VINA RESULT:    -4.395     13.703     14.818
REMARK INTER + INTRA:          -5.025
REMARK INTER:                  -4.776
REMARK INTRA:                  -0.249
REMARK UNBOUND:                -0.245
REMARK SMILES O=C([O-])c1ccccc1O
REMARK SMILES IDX 4 1 9 2 5 3 8 4 6 5 7 6 2 7 1 8 3 9 10 10
REMARK H PARENT 10 11
REMARK Flexibility Score: inf
ROOT
ATOM      1  C   UNL     1       7.171  -4.516   2.861  1.00  0.00     0.039 A 
ATOM      2  C   UNL     1       6.808  -3.667   3.934  1.00  0.00     0.124 A 
ATOM      3  C   UNL     1       8.383  -4.271   2.183  1.00  0.00     0.014 A 
ATOM      4  C   UNL     1       7.650  -2.606   4.303  1.00  0.00     0.047 A 
ATOM      5  C   UNL     1       9.210  -3.212   2.561  1.00  0.00     0.001 A 
ATOM      6  C   UNL     1       8.845  -2.381   3.618  1.00  0.00     0.004 A 
ENDROOT
BRANCH   1   7
ATOM      7  C   UNL     1       6.311  -5.650   2.437  1.00  0.00     0.075 C 
ATOM      8  O   UNL     1       5.949  -6.522   3.273  1.00  0.00    -0.545 OA
ATOM      9  O   UNL     1       5.888  -5.777   1.119  1.00  0.00    -0.545 OA
ENDBRANCH   1   7
BRANCH   2  10
ATOM     10  O   UNL     1       5.620  -3.870   4.635  1.00  0.00    -0.507 OA
ATOM     11  H   UNL     1       5.616  -4.128   5.615  1.00  0.00     0.293 HD
ENDBRANCH   2  10
TORSDOF 2
ENDMDL
MODEL 8
REMARK VINA RESULT:    -4.369      1.531      2.208
REMARK INTER + INTRA:          -4.997
REMARK INTER:                  -4.829
REMARK INTRA:                  -0.169
REMARK UNBOUND:                -0.245
REMARK SMILES O=C([O-])c1ccccc1O
REMARK SMILES IDX 4 1 9 2 5 3 8 4 6 5 7 6 2 7 1 8 3 9 10 10
REMARK H PARENT 10 11
REMARK Flexibility Score: inf
ROOT
ATOM      1  C   UNL     1       6.752  -3.236 -11.854  1.00  0.00     0.039 A 
ATOM      2  C   UNL     1       7.293  -3.949 -12.951  1.00  0.00     0.124 A 
ATOM      3  C   UNL     1       6.065  -2.031 -12.102  1.00  0.00     0.014 A 
ATOM      4  C   UNL     1       7.139  -3.451 -14.254  1.00  0.00     0.047 A 
ATOM      5  C   UNL     1       5.919  -1.546 -13.403  1.00  0.00     0.001 A 
ATOM      6  C   UNL     1       6.455  -2.255 -14.478  1.00  0.00     0.004 A 
ENDROOT
BRANCH   1   7
ATOM      7  C   UNL     1       6.891  -3.726 -10.459  1.00  0.00     0.075 C 
ATOM      8  O   UNL     1       7.995  -3.632  -9.858  1.00  0.00    -0.545 OA
ATOM      9  O   UNL     1       5.815  -4.295  -9.787  1.00  0.00    -0.545 OA
ENDBRANCH   1   7
BRANCH   2  10
ATOM     10  O   UNL     1       7.980  -5.146 -12.755  1.00  0.00    -0.507 OA
ATOM     11  H   UNL     1       7.506  -6.042 -12.767  1.00  0.00     0.293 HD
ENDBRANCH   2  10
TORSDOF 2
ENDMDL
MODEL 9
REMARK VINA RESULT:    -4.225      7.529      8.504
REMARK INTER + INTRA:          -4.841
REMARK INTER:                  -4.598
REMARK INTRA:                  -0.243
REMARK UNBOUND:                -0.245
REMARK SMILES O=C([O-])c1ccccc1O
REMARK SMILES IDX 4 1 9 2 5 3 8 4 6 5 7 6 2 7 1 8 3 9 10 10
REMARK H PARENT 10 11
REMARK Flexibility Score: inf
ROOT
ATOM      1  C   UNL     1       1.453  -8.530 -13.041  1.00  0.00     0.039 A 
ATOM      2  C   UNL     1       2.470  -7.817 -13.719  1.00  0.00     0.124 A 
ATOM      3  C   UNL     1       0.112  -8.133 -13.222  1.00  0.00     0.014 A 
ATOM      4  C   UNL     1       2.134  -6.737 -14.551  1.00  0.00     0.047 A 
ATOM      5  C   UNL     1      -0.208  -7.057 -14.052  1.00  0.00     0.001 A 
ATOM      6  C   UNL     1       0.801  -6.360 -14.715  1.00  0.00     0.004 A 
ENDROOT
BRANCH   1   7
ATOM      7  C   UNL     1       1.763  -9.678 -12.152  1.00  0.00     0.075 C 
ATOM      8  O   UNL     1       2.644 -10.518 -12.480  1.00  0.00    -0.545 OA
ATOM      9  O   UNL     1       1.095  -9.853 -10.945  1.00  0.00    -0.545 OA
ENDBRANCH   1   7
BRANCH   2  10
ATOM     10  O   UNL     1       3.811  -8.173 -13.572  1.00  0.00    -0.507 OA
ATOM     11  H   UNL     1       4.095  -8.955 -12.994  1.00  0.00     0.293 HD
ENDBRANCH   2  10
TORSDOF 2
ENDMDL
