MODEL 1
REMARK VINA RESULT:    -2.759      0.000      0.000
REMARK INTER + INTRA:          -3.569
REMARK INTER:                  -3.404
REMARK INTRA:                  -0.164
REMARK UNBOUND:                -0.164
REMARK SMILES CCCCCC(=O)[O-]
REMARK SMILES IDX 4 1 5 2 6 3 7 4 8 5 3 6 2 7 1 8
REMARK H PARENT
REMARK Flexibility Score: inf
ROOT
ATOM      1  C   UNL     1       6.315  -2.725  18.850  1.00  0.00     0.006 C 
ENDROOT
BRANCH   1   2
ATOM      2  C   UNL     1       5.543  -1.750  17.956  1.00  0.00     0.053 C 
BRANCH   2   3
ATOM      3  C   UNL     1       5.890  -1.972  16.518  1.00  0.00     0.041 C 
ATOM      4  O   UNL     1       5.034  -1.756  15.620  1.00  0.00    -0.550 OA
ATOM      5  O   UNL     1       7.141  -2.464  16.172  1.00  0.00    -0.550 OA
ENDBRANCH   2   3
ENDBRANCH   1   2
BRANCH   1   6
ATOM      6  C   UNL     1       7.202  -1.970  19.848  1.00  0.00     0.000 C 
BRANCH   6   7
ATOM      7  C   UNL     1       8.392  -2.832  20.287  1.00  0.00    -0.003 C 
ATOM      8  C   UNL     1       8.724  -3.889  19.238  1.00  0.00     0.004 C 
ENDBRANCH   6   7
ENDBRANCH   1   6
TORSDOF 4
ENDMDL
MODEL 2
REMARK VINA RESULT:    -2.745      7.091      8.272
REMARK INTER + INTRA:          -3.551
REMARK INTER:                  -3.438
REMARK INTRA:                  -0.113
REMARK UNBOUND:                -0.164
REMARK SMILES CCCCCC(=O)[O-]
REMARK SMILES IDX 4 1 5 2 6 3 7 4 8 5 3 6 2 7 1 8
REMARK H PARENT
REMARK Flexibility Score: inf
ROOT
ATOM      1  C   UNL     1       1.219  -3.253  11.409  1.00  0.00     0.006 C 
ENDROOT
BRANCH   1   2
ATOM      2  C   UNL     1       1.678  -1.974  12.116  1.00  0.00     0.053 C 
BRANCH   2   3
ATOM      3  C   UNL     1       3.172  -1.909  12.164  1.00  0.00     0.041 C 
ATOM      4  O   UNL     1       3.766  -1.816  13.271  1.00  0.00    -0.550 OA
ATOM      5  O   UNL     1       3.906  -1.904  10.986  1.00  0.00    -0.550 OA
ENDBRANCH   2   3
ENDBRANCH   1   2
BRANCH   1   6
ATOM      6  C   UNL     1       1.717  -4.499  12.152  1.00  0.00     0.000 C 
BRANCH   6   7
ATOM      7  C   UNL     1       0.923  -5.742  11.734  1.00  0.00    -0.003 C 
ATOM      8  C   UNL     1       0.668  -6.659  12.927  1.00  0.00     0.004 C 
ENDBRANCH   6   7
ENDBRANCH   1   6
TORSDOF 4
ENDMDL
MODEL 3
REMARK VINA RESULT:    -2.740      7.672      8.318
REMARK INTER + INTRA:          -3.545
REMARK INTER:                  -3.418
REMARK INTRA:                  -0.128
REMARK UNBOUND:                -0.164
REMARK SMILES CCCCCC(=O)[O-]
REMARK SMILES IDX 4 1 5 2 6 3 7 4 8 5 3 6 2 7 1 8
REMARK H PARENT
REMARK Flexibility Score: inf
ROOT
ATOM      1  C   UNL     1       1.097  -5.431  11.820  1.00  0.00     0.006 C 
ENDROOT
BRANCH   1   2
ATOM      2  C   UNL     1       2.493  -4.805  11.768  1.00  0.00     0.053 C 
BRANCH   2   3
ATOM      3  C   UNL     1       2.429  -3.351  12.119  1.00  0.00     0.041 C 
ATOM      4  O   UNL     1       1.505  -2.920  12.859  1.00  0.00    -0.550 OA
ATOM      5  O   UNL     1       3.359  -2.467  11.591  1.00  0.00    -0.550 OA
ENDBRANCH   2   3
ENDBRANCH   1   2
BRANCH   1   6
ATOM      6  C   UNL     1       1.057  -6.605  12.806  1.00  0.00     0.000 C 
BRANCH   6   7
ATOM      7  C   UNL     1       2.459  -7.184  13.028  1.00  0.00    -0.003 C 
ATOM      8  C   UNL     1       2.702  -8.396  12.132  1.00  0.00     0.004 C 
ENDBRANCH   6   7
ENDBRANCH   1   6
TORSDOF 4
ENDMDL
MODEL 4
REMARK VINA RESULT:    -2.735      8.441      9.388
REMARK INTER + INTRA:          -3.539
REMARK INTER:                  -3.436
REMARK INTRA:                  -0.104
REMARK UNBOUND:                -0.164
REMARK SMILES CCCCCC(=O)[O-]
REMARK SMILES IDX 4 1 5 2 6 3 7 4 8 5 3 6 2 7 1 8
REMARK H PARENT
REMARK Flexibility Score: inf
ROOT
ATOM      1  C   UNL     1       0.272  -2.879  24.033  1.00  0.00     0.006 C 
ENDROOT
BRANCH   1   2
ATOM      2  C   UNL     1       1.316  -3.962  24.321  1.00  0.00     0.053 C 
BRANCH   2   3
ATOM      3  C   UNL     1       0.673  -5.313  24.356  1.00  0.00     0.041 C 
ATOM      4  O   UNL     1       1.022  -6.202  23.535  1.00  0.00    -0.550 OA
ATOM      5  O   UNL     1      -0.345  -5.575  25.264  1.00  0.00    -0.550 OA
ENDBRANCH   2   3
ENDBRANCH   1   2
BRANCH   1   6
ATOM      6  C   UNL     1      -0.067  -2.827  22.538  1.00  0.00     0.000 C 
BRANCH   6   7
ATOM      7  C   UNL     1      -0.417  -1.399  22.103  1.00  0.00    -0.003 C 
ATOM      8  C   UNL     1      -0.149  -1.195  20.615  1.00  0.00     0.004 C 
ENDBRANCH   6   7
ENDBRANCH   1   6
TORSDOF 4
ENDMDL
MODEL 5
REMARK VINA RESULT:    -2.729      7.874      8.333
REMARK INTER + INTRA:          -3.531
REMARK INTER:                  -3.428
REMARK INTRA:                  -0.103
REMARK UNBOUND:                -0.164
REMARK SMILES CCCCCC(=O)[O-]
REMARK SMILES IDX 4 1 5 2 6 3 7 4 8 5 3 6 2 7 1 8
REMARK H PARENT
REMARK Flexibility Score: inf
ROOT
ATOM      1  C   UNL     1      -0.570  -2.177  23.306  1.00  0.00     0.006 C 
ENDROOT
BRANCH   1   2
ATOM      2  C   UNL     1      -0.074  -0.981  22.487  1.00  0.00     0.053 C 
BRANCH   2   3
ATOM      3  C   UNL     1      -0.585  -1.061  21.083  1.00  0.00     0.041 C 
ATOM      4  O   UNL     1       0.221  -1.142  20.119  1.00  0.00    -0.550 OA
ATOM      5  O   UNL     1      -1.950  -0.998  20.835  1.00  0.00    -0.550 OA
ENDBRANCH   2   3
ENDBRANCH   1   2
BRANCH   1   6
ATOM      6  C   UNL     1       0.170  -3.460  22.908  1.00  0.00     0.000 C 
BRANCH   6   7
ATOM      7  C   UNL     1       0.826  -4.118  24.128  1.00  0.00    -0.003 C 
ATOM      8  C   UNL     1       0.894  -5.634  23.966  1.00  0.00     0.004 C 
ENDBRANCH   6   7
ENDBRANCH   1   6
TORSDOF 4
ENDMDL
MODEL 6
REMARK VINA RESULT:    -2.630      8.514      9.410
REMARK INTER + INTRA:          -3.409
REMARK INTER:                  -3.315
REMARK INTRA:                  -0.095
REMARK UNBOUND:                -0.164
REMARK SMILES CCCCCC(=O)[O-]
REMARK SMILES IDX 4 1 5 2 6 3 7 4 8 5 3 6 2 7 1 8
REMARK H PARENT
REMARK Flexibility Score: inf
ROOT
ATOM      1  C   UNL     1       0.408  -2.916  24.097  1.00  0.00     0.006 C 
ENDROOT
BRANCH   1   2
ATOM      2  C   UNL     1       1.312  -4.139  24.271  1.00  0.00     0.053 C 
BRANCH   2   3
ATOM      3  C   UNL     1       0.490  -5.379  24.434  1.00  0.00     0.041 C 
ATOM      4  O   UNL     1      -0.522  -5.372  25.183  1.00  0.00    -0.550 OA
ATOM      5  O   UNL     1       0.869  -6.553  23.798  1.00  0.00    -0.550 OA
ENDBRANCH   2   3
ENDBRANCH   1   2
BRANCH   1   6
ATOM      6  C   UNL     1      -0.082  -2.796  22.649  1.00  0.00     0.000 C 
BRANCH   6   7
ATOM      7  C   UNL     1      -0.164  -1.328  22.215  1.00  0.00    -0.003 C 
ATOM      8  C   UNL     1      -0.177  -1.203  20.694  1.00  0.00     0.004 C 
ENDBRANCH   6   7
ENDBRANCH   1   6
TORSDOF 4
ENDMDL
MODEL 7
REMARK VINA RESULT:    -2.580      6.409      7.975
REMARK INTER + INTRA:          -3.348
REMARK INTER:                  -3.115
REMARK INTRA:                  -0.233
REMARK UNBOUND:                -0.164
REMARK SMILES CCCCCC(=O)[O-]
REMARK SMILES IDX 4 1 5 2 6 3 7 4 8 5 3 6 2 7 1 8
REMARK H PARENT
REMARK Flexibility Score: inf
ROOT
ATOM      1  C   UNL     1       1.551  -0.661  12.472  1.00  0.00     0.006 C 
ENDROOT
BRANCH   1   2
ATOM      2  C   UNL     1       2.846   0.112  12.741  1.00  0.00     0.053 C 
BRANCH   2   3
ATOM      3  C   UNL     1       4.013  -0.823  12.792  1.00  0.00     0.041 C 
ATOM      4  O   UNL     1       4.094  -1.685  13.707  1.00  0.00    -0.550 OA
ATOM      5  O   UNL     1       5.034  -0.712  11.858  1.00  0.00    -0.550 OA
ENDBRANCH   2   3
ENDBRANCH   1   2
BRANCH   1   6
ATOM      6  C   UNL     1       1.527  -1.209  11.040  1.00  0.00     0.000 C 
BRANCH   6   7
ATOM      7  C   UNL     1       0.962  -2.635  11.007  1.00  0.00    -0.003 C 
ATOM      8  C   UNL     1       1.568  -3.493  12.114  1.00  0.00     0.004 C 
ENDBRANCH   6   7
ENDBRANCH   1   6
TORSDOF 4
ENDMDL
MODEL 8
REMARK VINA RESULT:    -2.470      9.592     10.353
REMARK INTER + INTRA:          -3.212
REMARK INTER:                  -3.066
REMARK INTRA:                  -0.146
REMARK UNBOUND:                -0.164
REMARK SMILES CCCCCC(=O)[O-]
REMARK SMILES IDX 4 1 5 2 6 3 7 4 8 5 3 6 2 7 1 8
REMARK H PARENT
REMARK Flexibility Score: inf
ROOT
ATOM      1  C   UNL     1       1.161  -4.626  24.156  1.00  0.00     0.006 C 
ENDROOT
BRANCH   1   2
ATOM      2  C   UNL     1       0.778  -6.057  23.765  1.00  0.00     0.053 C 
BRANCH   2   3
ATOM      3  C   UNL     1       0.292  -6.813  24.961  1.00  0.00     0.041 C 
ATOM      4  O   UNL     1      -0.555  -6.296  25.736  1.00  0.00    -0.550 OA
ATOM      5  O   UNL     1       0.810  -8.070  25.247  1.00  0.00    -0.550 OA
ENDBRANCH   2   3
ENDBRANCH   1   2
BRANCH   1   6
ATOM      6  C   UNL     1       0.365  -3.602  23.338  1.00  0.00     0.000 C 
BRANCH   6   7
ATOM      7  C   UNL     1      -0.831  -3.071  24.137  1.00  0.00    -0.003 C 
ATOM      8  C   UNL     1      -1.747  -2.224  23.258  1.00  0.00     0.004 C 
ENDBRANCH   6   7
ENDBRANCH   1   6
TORSDOF 4
ENDMDL
MODEL 9
REMARK VINA RESULT:    -2.443      2.206      3.574
REMARK INTER + INTRA:          -3.179
REMARK INTER:                  -2.972
REMARK INTRA:                  -0.206
REMARK UNBOUND:                -0.164
REMARK SMILES CCCCCC(=O)[O-]
REMARK SMILES IDX 4 1 5 2 6 3 7 4 8 5 3 6 2 7 1 8
REMARK H PARENT
REMARK Flexibility Score: inf
ROOT
ATOM      1  C   UNL     1       9.551  -4.350  18.967  1.00  0.00     0.006 C 
ENDROOT
BRANCH   1   2
ATOM      2  C   UNL     1       8.458  -3.449  19.549  1.00  0.00     0.053 C 
BRANCH   2   3
ATOM      3  C   UNL     1       7.349  -3.267  18.561  1.00  0.00     0.041 C 
ATOM      4  O   UNL     1       6.170  -3.075  18.961  1.00  0.00    -0.550 OA
ATOM      5  O   UNL     1       7.608  -3.357  17.200  1.00  0.00    -0.550 OA
ENDBRANCH   2   3
ENDBRANCH   1   2
BRANCH   1   6
ATOM      6  C   UNL     1       9.539  -5.730  19.636  1.00  0.00     0.000 C 
BRANCH   6   7
ATOM      7  C   UNL     1       9.508  -6.849  18.588  1.00  0.00    -0.003 C 
ATOM      8  C   UNL     1       8.203  -6.827  17.797  1.00  0.00     0.004 C 
ENDBRANCH   6   7
ENDBRANCH   1   6
TORSDOF 4
ENDMDL
