MODEL 1
REMARK VINA RESULT:    -1.417      0.000      0.000
REMARK INTER + INTRA:          -1.101
REMARK INTER:                  -1.996
REMARK INTRA:                   0.895
REMARK UNBOUND:                 0.895
REMARK SMILES C[C@@H](CO)CCC(=O)[C@@H](C)[C@H]1C(=O)C[C@H]2[C@@H]3CC=C4C[C@H](O)CC[C@]4(C)[C@@H]3CC[C@@]12C
REMARK SMILES IDX 6 1 5 2 2 3 1 4 3 5 4 6 7 8 8 9 9 10 10 11 11 12 12 13 30 14
REMARK SMILES IDX 13 15 14 16 15 17 29 18 31 19 16 20 28 21 27 22 17 23 25 24
REMARK SMILES IDX 18 25 19 26 24 27 26 28 20 29 23 30 21 31 22 32
REMARK H PARENT 4 7 22 33
REMARK Flexibility Score: inf
ROOT
ATOM      1  C   UNL     1      28.522  32.798  22.001  1.00  0.00     0.076 C 
ENDROOT
BRANCH   1   2
ATOM      2  C   UNL     1      29.125  31.407  22.243  1.00  0.00     0.013 C 
BRANCH   2   3
ATOM      3  C   UNL     1      29.034  30.984  23.729  1.00  0.00     0.012 C 
ATOM      4  C   UNL     1      28.665  32.180  24.626  1.00  0.00     0.010 C 
BRANCH   3   5
ATOM      5  C   UNL     1      27.999  29.851  23.899  1.00  0.00     0.159 C 
BRANCH   5   6
ATOM      6  O   UNL     1      26.928  30.267  24.703  1.00  0.00    -0.396 OA
ATOM      7  H   UNL     1      26.174  30.479  24.091  1.00  0.00     0.210 HD
ENDBRANCH   5   6
ENDBRANCH   3   5
ENDBRANCH   2   3
ENDBRANCH   1   2
BRANCH   1   8
ATOM      8  C   UNL     1      28.851  33.291  20.615  1.00  0.00     0.136 C 
ATOM      9  O   UNL     1      28.995  32.473  19.718  1.00  0.00    -0.299 OA
BRANCH   8  10
ATOM     10  C   UNL     1      29.018  34.774  20.338  1.00  0.00     0.064 C 
ATOM     11  C   UNL     1      29.125  35.067  18.824  1.00  0.00     0.017 C 
BRANCH  10  12
ATOM     12  C   UNL     1      28.019  35.669  21.157  1.00  0.00     0.072 C 
ATOM     13  C   UNL     1      28.507  35.988  22.532  1.00  0.00     0.137 C 
ATOM     14  C   UNL     1      27.517  37.054  20.608  1.00  0.00    -0.019 C 
ATOM     15  O   UNL     1      29.085  35.185  23.248  1.00  0.00    -0.299 OA
ATOM     16  C   UNL     1      28.133  37.345  22.992  1.00  0.00     0.080 C 
ATOM     17  C   UNL     1      27.139  37.825  21.924  1.00  0.00     0.007 C 
ATOM     18  C   UNL     1      28.618  37.827  19.838  1.00  0.00     0.008 C 
ATOM     19  C   UNL     1      26.283  36.829  19.694  1.00  0.00     0.012 C 
ATOM     20  C   UNL     1      27.063  39.385  21.854  1.00  0.00     0.001 C 
ATOM     21  C   UNL     1      28.324  39.323  19.659  1.00  0.00     0.005 C 
ATOM     22  C   UNL     1      28.211  40.025  21.032  1.00  0.00     0.003 C 
ATOM     23  C   UNL     1      25.682  39.856  21.364  1.00  0.00     0.031 C 
ATOM     24  C   UNL     1      28.104  41.610  21.007  1.00  0.00    -0.008 C 
ATOM     25  C   UNL     1      25.597  41.337  21.167  1.00  0.00    -0.027 C 
ATOM     26  C   UNL     1      26.659  42.112  20.874  1.00  0.00    -0.065 C 
ATOM     27  C   UNL     1      28.942  42.223  19.841  1.00  0.00     0.014 C 
ATOM     28  C   UNL     1      28.674  42.141  22.354  1.00  0.00     0.016 C 
ATOM     29  C   UNL     1      26.422  43.592  20.620  1.00  0.00     0.063 C 
ATOM     30  C   UNL     1      28.778  43.745  19.693  1.00  0.00     0.033 C 
ATOM     31  C   UNL     1      27.303  44.125  19.484  1.00  0.00     0.118 C 
BRANCH  31  32
ATOM     32  O   UNL     1      26.840  43.620  18.257  1.00  0.00    -0.393 OA
ATOM     33  H   UNL     1      26.928  44.353  17.591  1.00  0.00     0.210 HD
ENDBRANCH  31  32
ENDBRANCH  10  12
ENDBRANCH   8  10
ENDBRANCH   1   8
TORSDOF 8
ENDMDL
MODEL 2
REMARK VINA RESULT:    -0.154      4.600     13.039
REMARK INTER + INTRA:           0.678
REMARK INTER:                   0.440
REMARK INTRA:                   0.237
REMARK UNBOUND:                 0.895
REMARK SMILES C[C@@H](CO)CCC(=O)[C@@H](C)[C@H]1C(=O)C[C@H]2[C@@H]3CC=C4C[C@H](O)CC[C@]4(C)[C@@H]3CC[C@@]12C
REMARK SMILES IDX 6 1 5 2 2 3 1 4 3 5 4 6 7 8 8 9 9 10 10 11 11 12 12 13 30 14
REMARK SMILES IDX 13 15 14 16 15 17 29 18 31 19 16 20 28 21 27 22 17 23 25 24
REMARK SMILES IDX 18 25 19 26 24 27 26 28 20 29 23 30 21 31 22 32
REMARK H PARENT 4 7 22 33
REMARK Flexibility Score: inf
ROOT
ATOM      1  C   UNL     1      28.130  33.589  23.435  1.00  0.00     0.076 C 
ENDROOT
BRANCH   1   2
ATOM      2  C   UNL     1      29.039  34.698  22.885  1.00  0.00     0.013 C 
BRANCH   2   3
ATOM      3  C   UNL     1      28.286  35.639  21.914  1.00  0.00     0.012 C 
ATOM      4  C   UNL     1      28.188  35.022  20.507  1.00  0.00     0.010 C 
BRANCH   3   5
ATOM      5  C   UNL     1      26.876  35.950  22.460  1.00  0.00     0.159 C 
BRANCH   5   6
ATOM      6  O   UNL     1      26.215  36.877  21.640  1.00  0.00    -0.396 OA
ATOM      7  H   UNL     1      26.128  37.716  22.167  1.00  0.00     0.210 HD
ENDBRANCH   5   6
ENDBRANCH   3   5
ENDBRANCH   2   3
ENDBRANCH   1   2
BRANCH   1   8
ATOM      8  C   UNL     1      28.726  32.229  23.174  1.00  0.00     0.136 C 
ATOM      9  O   UNL     1      28.993  31.915  22.024  1.00  0.00    -0.299 OA
BRANCH   8  10
ATOM     10  C   UNL     1      28.976  31.259  24.315  1.00  0.00     0.064 C 
ATOM     11  C   UNL     1      29.108  31.990  25.671  1.00  0.00     0.017 C 
BRANCH  10  12
ATOM     12  C   UNL     1      28.025  30.009  24.281  1.00  0.00     0.072 C 
ATOM     13  C   UNL     1      28.554  28.890  23.445  1.00  0.00     0.137 C 
ATOM     14  C   UNL     1      27.554  29.298  25.601  1.00  0.00    -0.019 C 
ATOM     15  O   UNL     1      29.122  29.055  22.376  1.00  0.00    -0.299 OA
ATOM     16  C   UNL     1      28.233  27.549  23.981  1.00  0.00     0.080 C 
ATOM     17  C   UNL     1      27.231  27.843  25.108  1.00  0.00     0.007 C 
ATOM     18  C   UNL     1      28.662  29.256  26.686  1.00  0.00     0.008 C 
ATOM     19  C   UNL     1      26.293  30.017  26.152  1.00  0.00     0.012 C 
ATOM     20  C   UNL     1      27.202  26.703  26.177  1.00  0.00     0.001 C 
ATOM     21  C   UNL     1      28.411  28.228  27.798  1.00  0.00     0.005 C 
ATOM     22  C   UNL     1      28.351  26.797  27.214  1.00  0.00     0.003 C 
ATOM     23  C   UNL     1      25.826  26.612  26.861  1.00  0.00     0.031 C 
ATOM     24  C   UNL     1      28.293  25.609  28.267  1.00  0.00    -0.008 C 
ATOM     25  C   UNL     1      25.783  25.615  27.976  1.00  0.00    -0.027 C 
ATOM     26  C   UNL     1      26.862  25.260  28.700  1.00  0.00    -0.065 C 
ATOM     27  C   UNL     1      29.124  25.936  29.547  1.00  0.00     0.014 C 
ATOM     28  C   UNL     1      28.910  24.351  27.589  1.00  0.00     0.016 C 
ATOM     29  C   UNL     1      26.666  24.294  29.858  1.00  0.00     0.063 C 
ATOM     30  C   UNL     1      29.004  24.873  30.652  1.00  0.00     0.033 C 
ATOM     31  C   UNL     1      27.537  24.665  31.064  1.00  0.00     0.118 C 
BRANCH  31  32
ATOM     32  O   UNL     1      27.031  25.829  31.667  1.00  0.00    -0.393 OA
ATOM     33  H   UNL     1      27.519  26.597  31.268  1.00  0.00     0.210 HD
ENDBRANCH  31  32
ENDBRANCH  10  12
ENDBRANCH   8  10
ENDBRANCH   1   8
TORSDOF 8
ENDMDL
MODEL 3
REMARK VINA RESULT:     0.029      3.756     12.016
REMARK INTER + INTRA:           0.935
REMARK INTER:                  -0.231
REMARK INTRA:                   1.166
REMARK UNBOUND:                 0.895
REMARK SMILES C[C@@H](CO)CCC(=O)[C@@H](C)[C@H]1C(=O)C[C@H]2[C@@H]3CC=C4C[C@H](O)CC[C@]4(C)[C@@H]3CC[C@@]12C
REMARK SMILES IDX 6 1 5 2 2 3 1 4 3 5 4 6 7 8 8 9 9 10 10 11 11 12 12 13 30 14
REMARK SMILES IDX 13 15 14 16 15 17 29 18 31 19 16 20 28 21 27 22 17 23 25 24
REMARK SMILES IDX 18 25 19 26 24 27 26 28 20 29 23 30 21 31 22 32
REMARK H PARENT 4 7 22 33
REMARK Flexibility Score: inf
ROOT
ATOM      1  C   UNL     1      26.748  34.667  23.574  1.00  0.00     0.076 C 
ENDROOT
BRANCH   1   2
ATOM      2  C   UNL     1      26.943  36.113  23.096  1.00  0.00     0.013 C 
BRANCH   2   3
ATOM      3  C   UNL     1      26.693  36.263  21.576  1.00  0.00     0.012 C 
ATOM      4  C   UNL     1      25.330  36.924  21.300  1.00  0.00     0.010 C 
BRANCH   3   5
ATOM      5  C   UNL     1      27.826  37.087  20.928  1.00  0.00     0.159 C 
BRANCH   5   6
ATOM      6  O   UNL     1      29.082  36.653  21.378  1.00  0.00    -0.396 OA
ATOM      7  H   UNL     1      29.247  37.104  22.249  1.00  0.00     0.210 HD
ENDBRANCH   5   6
ENDBRANCH   3   5
ENDBRANCH   2   3
ENDBRANCH   1   2
BRANCH   1   8
ATOM      8  C   UNL     1      28.033  33.887  23.462  1.00  0.00     0.136 C 
ATOM      9  O   UNL     1      29.094  34.485  23.564  1.00  0.00    -0.299 OA
BRANCH   8  10
ATOM     10  C   UNL     1      28.013  32.390  23.211  1.00  0.00     0.064 C 
ATOM     11  C   UNL     1      28.289  32.053  21.728  1.00  0.00     0.017 C 
BRANCH  10  12
ATOM     12  C   UNL     1      28.827  31.576  24.280  1.00  0.00     0.072 C 
ATOM     13  C   UNL     1      28.940  32.277  25.593  1.00  0.00     0.137 C 
ATOM     14  C   UNL     1      28.428  30.107  24.673  1.00  0.00    -0.019 C 
ATOM     15  O   UNL     1      29.125  33.479  25.704  1.00  0.00    -0.299 OA
ATOM     16  C   UNL     1      28.910  31.361  26.756  1.00  0.00     0.080 C 
ATOM     17  C   UNL     1      29.024  29.968  26.120  1.00  0.00     0.007 C 
ATOM     18  C   UNL     1      26.893  29.894  24.709  1.00  0.00     0.008 C 
ATOM     19  C   UNL     1      29.083  29.111  23.679  1.00  0.00     0.012 C 
ATOM     20  C   UNL     1      28.435  28.853  27.043  1.00  0.00     0.001 C 
ATOM     21  C   UNL     1      26.453  28.642  25.481  1.00  0.00     0.005 C 
ATOM     22  C   UNL     1      26.891  28.733  26.962  1.00  0.00     0.003 C 
ATOM     23  C   UNL     1      29.124  27.499  26.795  1.00  0.00     0.031 C 
ATOM     24  C   UNL     1      26.337  27.602  27.931  1.00  0.00    -0.008 C 
ATOM     25  C   UNL     1      28.515  26.373  27.570  1.00  0.00    -0.027 C 
ATOM     26  C   UNL     1      27.228  26.353  27.967  1.00  0.00    -0.065 C 
ATOM     27  C   UNL     1      24.894  27.161  27.530  1.00  0.00     0.014 C 
ATOM     28  C   UNL     1      26.287  28.198  29.367  1.00  0.00     0.016 C 
ATOM     29  C   UNL     1      26.714  25.112  28.679  1.00  0.00     0.063 C 
ATOM     30  C   UNL     1      24.354  25.983  28.359  1.00  0.00     0.033 C 
ATOM     31  C   UNL     1      25.283  24.762  28.257  1.00  0.00     0.118 C 
BRANCH  31  32
ATOM     32  O   UNL     1      25.291  24.266  26.942  1.00  0.00    -0.393 OA
ATOM     33  H   UNL     1      24.395  23.870  26.776  1.00  0.00     0.210 HD
ENDBRANCH  31  32
ENDBRANCH  10  12
ENDBRANCH   8  10
ENDBRANCH   1   8
TORSDOF 8
ENDMDL
