MODEL 1
REMARK VINA RESULT:    -5.080      0.000      0.000
REMARK INTER + INTRA:          -5.229
REMARK INTER:                  -5.229
REMARK INTRA:                   0.000
REMARK UNBOUND:                 0.000
REMARK SMILES O=c1ccc2cc(O)ccc2o1
REMARK SMILES IDX 9 1 10 2 11 3 5 4 4 5 3 6 2 7 1 8 12 9 6 10 7 11 8 12
REMARK H PARENT 8 13
REMARK Flexibility Score: inf
ROOT
ATOM      1  C   UNL     1      12.364  16.718  11.995  1.00  0.00     0.050 A 
ATOM      2  C   UNL     1      13.675  16.864  11.528  1.00  0.00     0.052 A 
ATOM      3  C   UNL     1      13.919  17.006  10.159  1.00  0.00     0.138 A 
ATOM      4  C   UNL     1      12.838  17.002   9.249  1.00  0.00     0.021 A 
ATOM      5  C   UNL     1      13.115  17.147   7.886  1.00  0.00     0.019 A 
ATOM      6  C   UNL     1      14.437  17.289   7.466  1.00  0.00     0.094 A 
ATOM      7  C   UNL     1      15.456  17.285   8.424  1.00  0.00     0.336 A 
ATOM      8  O   UNL     1      16.657  17.413   8.065  1.00  0.00    -0.246 OA
ATOM      9  O   UNL     1      15.166  17.145   9.716  1.00  0.00    -0.423 OA
ATOM     10  C   UNL     1      11.526  16.855   9.722  1.00  0.00     0.058 A 
ATOM     11  C   UNL     1      11.289  16.712  11.097  1.00  0.00     0.116 A 
ENDROOT
BRANCH  11  12
ATOM     12  O   UNL     1       9.992  16.566  11.582  1.00  0.00    -0.508 OA
ATOM     13  H   UNL     1       9.732  16.890  12.505  1.00  0.00     0.293 HD
ENDBRANCH  11  12
TORSDOF 1
ENDMDL
MODEL 2
REMARK VINA RESULT:    -4.780      1.365      1.754
REMARK INTER + INTRA:          -4.920
REMARK INTER:                  -4.920
REMARK INTRA:                   0.000
REMARK UNBOUND:                 0.000
REMARK SMILES O=c1ccc2cc(O)ccc2o1
REMARK SMILES IDX 9 1 10 2 11 3 5 4 4 5 3 6 2 7 1 8 12 9 6 10 7 11 8 12
REMARK H PARENT 8 13
REMARK Flexibility Score: inf
ROOT
ATOM      1  C   UNL     1      12.604  17.380  10.723  1.00  0.00     0.050 A 
ATOM      2  C   UNL     1      13.987  17.261  10.891  1.00  0.00     0.052 A 
ATOM      3  C   UNL     1      14.819  17.111   9.778  1.00  0.00     0.138 A 
ATOM      4  C   UNL     1      14.257  17.079   8.482  1.00  0.00     0.021 A 
ATOM      5  C   UNL     1      15.115  16.928   7.388  1.00  0.00     0.019 A 
ATOM      6  C   UNL     1      16.488  16.813   7.604  1.00  0.00     0.094 A 
ATOM      7  C   UNL     1      16.973  16.854   8.915  1.00  0.00     0.336 A 
ATOM      8  O   UNL     1      18.209  16.753   9.132  1.00  0.00    -0.246 OA
ATOM      9  O   UNL     1      16.135  16.999   9.940  1.00  0.00    -0.423 OA
ATOM     10  C   UNL     1      12.870  17.197   8.318  1.00  0.00     0.058 A 
ATOM     11  C   UNL     1      12.042  17.348   9.440  1.00  0.00     0.116 A 
ENDROOT
BRANCH  11  12
ATOM     12  O   UNL     1      10.662  17.468   9.293  1.00  0.00    -0.508 OA
ATOM     13  H   UNL     1      10.056  17.624  10.089  1.00  0.00     0.293 HD
ENDBRANCH  11  12
TORSDOF 1
ENDMDL
MODEL 3
REMARK VINA RESULT:    -4.768      1.293      4.362
REMARK INTER + INTRA:          -4.908
REMARK INTER:                  -4.908
REMARK INTRA:                   0.000
REMARK UNBOUND:                 0.000
REMARK SMILES O=c1ccc2cc(O)ccc2o1
REMARK SMILES IDX 9 1 10 2 11 3 5 4 4 5 3 6 2 7 1 8 12 9 6 10 7 11 8 12
REMARK H PARENT 8 13
REMARK Flexibility Score: inf
ROOT
ATOM      1  C   UNL     1      16.447  17.221   9.726  1.00  0.00     0.050 A 
ATOM      2  C   UNL     1      15.308  16.947  10.490  1.00  0.00     0.052 A 
ATOM      3  C   UNL     1      14.055  16.862   9.875  1.00  0.00     0.138 A 
ATOM      4  C   UNL     1      13.943  17.054   8.480  1.00  0.00     0.021 A 
ATOM      5  C   UNL     1      12.677  16.963   7.894  1.00  0.00     0.019 A 
ATOM      6  C   UNL     1      11.570  16.687   8.696  1.00  0.00     0.094 A 
ATOM      7  C   UNL     1      11.756  16.507  10.071  1.00  0.00     0.336 A 
ATOM      8  O   UNL     1      10.769  16.257  10.811  1.00  0.00    -0.246 OA
ATOM      9  O   UNL     1      12.972  16.600  10.604  1.00  0.00    -0.423 OA
ATOM     10  C   UNL     1      15.088  17.330   7.718  1.00  0.00     0.058 A 
ATOM     11  C   UNL     1      16.341  17.414   8.343  1.00  0.00     0.116 A 
ENDROOT
BRANCH  11  12
ATOM     12  O   UNL     1      17.487  17.686   7.599  1.00  0.00    -0.508 OA
ATOM     13  H   UNL     1      18.230  18.269   7.965  1.00  0.00     0.293 HD
ENDBRANCH  11  12
TORSDOF 1
ENDMDL
MODEL 4
REMARK VINA RESULT:    -4.700      0.963      2.079
REMARK INTER + INTRA:          -4.838
REMARK INTER:                  -4.838
REMARK INTRA:                   0.000
REMARK UNBOUND:                 0.000
REMARK SMILES O=c1ccc2cc(O)ccc2o1
REMARK SMILES IDX 9 1 10 2 11 3 5 4 4 5 3 6 2 7 1 8 12 9 6 10 7 11 8 12
REMARK H PARENT 8 13
REMARK Flexibility Score: inf
ROOT
ATOM      1  C   UNL     1      11.167  16.962   9.631  1.00  0.00     0.050 A 
ATOM      2  C   UNL     1      12.217  16.929   8.707  1.00  0.00     0.052 A 
ATOM      3  C   UNL     1      13.538  17.069   9.142  1.00  0.00     0.138 A 
ATOM      4  C   UNL     1      13.809  17.245  10.517  1.00  0.00     0.021 A 
ATOM      5  C   UNL     1      15.141  17.382  10.921  1.00  0.00     0.019 A 
ATOM      6  C   UNL     1      16.154  17.343   9.964  1.00  0.00     0.094 A 
ATOM      7  C   UNL     1      15.811  17.165   8.620  1.00  0.00     0.336 A 
ATOM      8  O   UNL     1      16.712  17.126   7.741  1.00  0.00    -0.246 OA
ATOM      9  O   UNL     1      14.535  17.037   8.262  1.00  0.00    -0.423 OA
ATOM     10  C   UNL     1      12.753  17.278  11.440  1.00  0.00     0.058 A 
ATOM     11  C   UNL     1      11.430  17.137  10.995  1.00  0.00     0.116 A 
ENDROOT
BRANCH  11  12
ATOM     12  O   UNL     1      10.371  17.167  11.900  1.00  0.00    -0.508 OA
ATOM     13  H   UNL     1       9.422  16.964  11.611  1.00  0.00     0.293 HD
ENDBRANCH  11  12
TORSDOF 1
ENDMDL
MODEL 5
REMARK VINA RESULT:    -4.513      1.630      4.889
REMARK INTER + INTRA:          -4.644
REMARK INTER:                  -4.644
REMARK INTRA:                   0.000
REMARK UNBOUND:                 0.000
REMARK SMILES O=c1ccc2cc(O)ccc2o1
REMARK SMILES IDX 9 1 10 2 11 3 5 4 4 5 3 6 2 7 1 8 12 9 6 10 7 11 8 12
REMARK H PARENT 8 13
REMARK Flexibility Score: inf
ROOT
ATOM      1  C   UNL     1      16.657  17.131   7.583  1.00  0.00     0.050 A 
ATOM      2  C   UNL     1      15.272  16.991   7.453  1.00  0.00     0.052 A 
ATOM      3  C   UNL     1      14.446  17.118   8.574  1.00  0.00     0.138 A 
ATOM      4  C   UNL     1      15.017  17.387   9.838  1.00  0.00     0.021 A 
ATOM      5  C   UNL     1      14.165  17.508  10.941  1.00  0.00     0.019 A 
ATOM      6  C   UNL     1      12.790  17.361  10.764  1.00  0.00     0.094 A 
ATOM      7  C   UNL     1      12.296  17.095   9.483  1.00  0.00     0.336 A 
ATOM      8  O   UNL     1      11.057  16.960   9.302  1.00  0.00    -0.246 OA
ATOM      9  O   UNL     1      13.128  16.985   8.449  1.00  0.00    -0.423 OA
ATOM     10  C   UNL     1      16.406  17.526   9.964  1.00  0.00     0.058 A 
ATOM     11  C   UNL     1      17.228  17.397   8.834  1.00  0.00     0.116 A 
ENDROOT
BRANCH  11  12
ATOM     12  O   UNL     1      18.610  17.534   8.943  1.00  0.00    -0.508 OA
ATOM     13  H   UNL     1      19.027  18.266   9.504  1.00  0.00     0.293 HD
ENDBRANCH  11  12
TORSDOF 1
ENDMDL
MODEL 6
REMARK VINA RESULT:    -4.427      2.278      3.686
REMARK INTER + INTRA:          -4.556
REMARK INTER:                  -4.556
REMARK INTRA:                   0.000
REMARK UNBOUND:                 0.000
REMARK SMILES O=c1ccc2cc(O)ccc2o1
REMARK SMILES IDX 9 1 10 2 11 3 5 4 4 5 3 6 2 7 1 8 12 9 6 10 7 11 8 12
REMARK H PARENT 8 13
REMARK Flexibility Score: inf
ROOT
ATOM      1  C   UNL     1      11.488  17.124   9.405  1.00  0.00     0.050 A 
ATOM      2  C   UNL     1      11.792  17.416  10.739  1.00  0.00     0.052 A 
ATOM      3  C   UNL     1      13.125  17.493  11.154  1.00  0.00     0.138 A 
ATOM      4  C   UNL     1      14.163  17.275  10.221  1.00  0.00     0.021 A 
ATOM      5  C   UNL     1      15.486  17.359  10.666  1.00  0.00     0.019 A 
ATOM      6  C   UNL     1      15.741  17.653  12.006  1.00  0.00     0.094 A 
ATOM      7  C   UNL     1      14.662  17.857  12.872  1.00  0.00     0.336 A 
ATOM      8  O   UNL     1      14.872  18.125  14.084  1.00  0.00    -0.246 OA
ATOM      9  O   UNL     1      13.412  17.772  12.423  1.00  0.00    -0.423 OA
ATOM     10  C   UNL     1      13.854  16.982   8.885  1.00  0.00     0.058 A 
ATOM     11  C   UNL     1      12.514  16.906   8.477  1.00  0.00     0.116 A 
ENDROOT
BRANCH  11  12
ATOM     12  O   UNL     1      12.191  16.617   7.153  1.00  0.00    -0.508 OA
ATOM     13  H   UNL     1      12.716  15.936   6.617  1.00  0.00     0.293 HD
ENDBRANCH  11  12
TORSDOF 1
ENDMDL
MODEL 7
REMARK VINA RESULT:    -4.394      2.810      4.985
REMARK INTER + INTRA:          -4.523
REMARK INTER:                  -4.523
REMARK INTRA:                   0.000
REMARK UNBOUND:                 0.000
REMARK SMILES O=c1ccc2cc(O)ccc2o1
REMARK SMILES IDX 9 1 10 2 11 3 5 4 4 5 3 6 2 7 1 8 12 9 6 10 7 11 8 12
REMARK H PARENT 8 13
REMARK Flexibility Score: inf
ROOT
ATOM      1  C   UNL     1      17.770  17.580  11.918  1.00  0.00     0.050 A 
ATOM      2  C   UNL     1      16.436  17.587  11.496  1.00  0.00     0.052 A 
ATOM      3  C   UNL     1      16.126  17.379  10.149  1.00  0.00     0.138 A 
ATOM      4  C   UNL     1      17.163  17.164   9.215  1.00  0.00     0.021 A 
ATOM      5  C   UNL     1      16.821  16.958   7.875  1.00  0.00     0.019 A 
ATOM      6  C   UNL     1      15.477  16.973   7.501  1.00  0.00     0.094 A 
ATOM      7  C   UNL     1      14.503  17.193   8.481  1.00  0.00     0.336 A 
ATOM      8  O   UNL     1      13.285  17.209   8.164  1.00  0.00    -0.246 OA
ATOM      9  O   UNL     1      14.856  17.385   9.750  1.00  0.00    -0.423 OA
ATOM     10  C   UNL     1      18.499  17.159   9.642  1.00  0.00     0.058 A 
ATOM     11  C   UNL     1      18.803  17.368  10.995  1.00  0.00     0.116 A 
ENDROOT
BRANCH  11  12
ATOM     12  O   UNL     1      20.125  17.365  11.434  1.00  0.00    -0.508 OA
ATOM     13  H   UNL     1      20.732  16.570  11.279  1.00  0.00     0.293 HD
ENDBRANCH  11  12
TORSDOF 1
ENDMDL
MODEL 8
REMARK VINA RESULT:    -4.381      2.532      4.143
REMARK INTER + INTRA:          -4.509
REMARK INTER:                  -4.509
REMARK INTRA:                   0.000
REMARK UNBOUND:                 0.000
REMARK SMILES O=c1ccc2cc(O)ccc2o1
REMARK SMILES IDX 9 1 10 2 11 3 5 4 4 5 3 6 2 7 1 8 12 9 6 10 7 11 8 12
REMARK H PARENT 8 13
REMARK Flexibility Score: inf
ROOT
ATOM      1  C   UNL     1      15.272  17.014   7.289  1.00  0.00     0.050 A 
ATOM      2  C   UNL     1      16.547  17.119   7.854  1.00  0.00     0.052 A 
ATOM      3  C   UNL     1      16.692  17.273   9.235  1.00  0.00     0.138 A 
ATOM      4  C   UNL     1      15.545  17.324  10.059  1.00  0.00     0.021 A 
ATOM      5  C   UNL     1      15.722  17.479  11.438  1.00  0.00     0.019 A 
ATOM      6  C   UNL     1      17.013  17.579  11.956  1.00  0.00     0.094 A 
ATOM      7  C   UNL     1      18.101  17.520  11.080  1.00  0.00     0.336 A 
ATOM      8  O   UNL     1      19.275  17.607  11.528  1.00  0.00    -0.246 OA
ATOM      9  O   UNL     1      17.906  17.372   9.771  1.00  0.00    -0.423 OA
ATOM     10  C   UNL     1      14.268  17.220   9.489  1.00  0.00     0.058 A 
ATOM     11  C   UNL     1      14.132  17.065   8.101  1.00  0.00     0.116 A 
ENDROOT
BRANCH  11  12
ATOM     12  O   UNL     1      12.870  16.960   7.520  1.00  0.00    -0.508 OA
ATOM     13  H   UNL     1      12.519  16.075   7.174  1.00  0.00     0.293 HD
ENDBRANCH  11  12
TORSDOF 1
ENDMDL
MODEL 9
REMARK VINA RESULT:    -4.274      2.907      3.441
REMARK INTER + INTRA:          -4.399
REMARK INTER:                  -4.399
REMARK INTRA:                   0.000
REMARK UNBOUND:                 0.000
REMARK SMILES O=c1ccc2cc(O)ccc2o1
REMARK SMILES IDX 9 1 10 2 11 3 5 4 4 5 3 6 2 7 1 8 12 9 6 10 7 11 8 12
REMARK H PARENT 8 13
REMARK Flexibility Score: inf
ROOT
ATOM      1  C   UNL     1      11.885  17.941  11.733  1.00  0.00     0.050 A 
ATOM      2  C   UNL     1      13.257  18.125  11.935  1.00  0.00     0.052 A 
ATOM      3  C   UNL     1      14.082  17.026  12.195  1.00  0.00     0.138 A 
ATOM      4  C   UNL     1      13.524  15.729  12.254  1.00  0.00     0.021 A 
ATOM      5  C   UNL     1      14.374  14.650  12.516  1.00  0.00     0.019 A 
ATOM      6  C   UNL     1      15.736  14.882  12.710  1.00  0.00     0.094 A 
ATOM      7  C   UNL     1      16.217  16.193  12.637  1.00  0.00     0.336 A 
ATOM      8  O   UNL     1      17.443  16.423  12.808  1.00  0.00    -0.246 OA
ATOM      9  O   UNL     1      15.387  17.203  12.386  1.00  0.00    -0.423 OA
ATOM     10  C   UNL     1      12.148  15.549  12.053  1.00  0.00     0.058 A 
ATOM     11  C   UNL     1      11.328  16.657  11.792  1.00  0.00     0.116 A 
ENDROOT
BRANCH  11  12
ATOM     12  O   UNL     1       9.959  16.494  11.589  1.00  0.00    -0.508 OA
ATOM     13  H   UNL     1       9.283  16.778  12.287  1.00  0.00     0.293 HD
ENDBRANCH  11  12
TORSDOF 1
ENDMDL
