MODEL 1
REMARK VINA RESULT:    -2.790      0.000      0.000
REMARK INTER + INTRA:          -3.434
REMARK INTER:                  -3.280
REMARK INTRA:                  -0.154
REMARK UNBOUND:                -0.154
REMARK SMILES O=C([O-])CCC(=O)[O-]
REMARK SMILES IDX 4 1 2 2 1 3 3 4 5 5 6 6 7 7 8 8
REMARK H PARENT
REMARK Flexibility Score: inf
ROOT
ATOM      1  C   UNL     1     -17.566 -18.763 -36.457  1.00  0.00     0.059 C 
ENDROOT
BRANCH   1   2
ATOM      2  C   UNL     1     -16.501 -18.435 -37.459  1.00  0.00     0.042 C 
ATOM      3  O   UNL     1     -15.508 -17.738 -37.124  1.00  0.00    -0.550 OA
ATOM      4  O   UNL     1     -16.585 -18.935 -38.753  1.00  0.00    -0.550 OA
ENDBRANCH   1   2
BRANCH   1   5
ATOM      5  C   UNL     1     -17.593 -20.261 -36.130  1.00  0.00     0.059 C 
BRANCH   5   6
ATOM      6  C   UNL     1     -16.476 -20.645 -35.208  1.00  0.00     0.042 C 
ATOM      7  O   UNL     1     -15.777 -21.664 -35.451  1.00  0.00    -0.550 OA
ATOM      8  O   UNL     1     -16.182 -19.856 -34.104  1.00  0.00    -0.550 OA
ENDBRANCH   5   6
ENDBRANCH   1   5
TORSDOF 3
ENDMDL
MODEL 2
REMARK VINA RESULT:    -2.788      0.135      3.541
REMARK INTER + INTRA:          -3.431
REMARK INTER:                  -3.283
REMARK INTRA:                  -0.148
REMARK UNBOUND:                -0.154
REMARK SMILES O=C([O-])CCC(=O)[O-]
REMARK SMILES IDX 4 1 2 2 1 3 3 4 5 5 6 6 7 7 8 8
REMARK H PARENT
REMARK Flexibility Score: inf
ROOT
ATOM      1  C   UNL     1     -17.581 -20.250 -36.123  1.00  0.00     0.059 C 
ENDROOT
BRANCH   1   2
ATOM      2  C   UNL     1     -16.453 -20.636 -35.215  1.00  0.00     0.042 C 
ATOM      3  O   UNL     1     -15.798 -21.690 -35.430  1.00  0.00    -0.550 OA
ATOM      4  O   UNL     1     -16.099 -19.811 -34.155  1.00  0.00    -0.550 OA
ENDBRANCH   1   2
BRANCH   1   5
ATOM      5  C   UNL     1     -17.549 -18.754 -36.458  1.00  0.00     0.059 C 
BRANCH   5   6
ATOM      6  C   UNL     1     -16.543 -18.448 -37.525  1.00  0.00     0.042 C 
ATOM      7  O   UNL     1     -16.791 -18.725 -38.728  1.00  0.00    -0.550 OA
ATOM      8  O   UNL     1     -15.348 -17.821 -37.196  1.00  0.00    -0.550 OA
ENDBRANCH   5   6
ENDBRANCH   1   5
TORSDOF 3
ENDMDL
MODEL 3
REMARK VINA RESULT:    -2.771      1.435      2.118
REMARK INTER + INTRA:          -3.411
REMARK INTER:                  -3.290
REMARK INTRA:                  -0.121
REMARK UNBOUND:                -0.154
REMARK SMILES O=C([O-])CCC(=O)[O-]
REMARK SMILES IDX 4 1 2 2 1 3 3 4 5 5 6 6 7 7 8 8
REMARK H PARENT
REMARK Flexibility Score: inf
ROOT
ATOM      1  C   UNL     1     -17.319 -20.578 -36.222  1.00  0.00     0.059 C 
ENDROOT
BRANCH   1   2
ATOM      2  C   UNL     1     -17.335 -19.234 -36.884  1.00  0.00     0.042 C 
ATOM      3  O   UNL     1     -16.679 -19.040 -37.941  1.00  0.00    -0.550 OA
ATOM      4  O   UNL     1     -18.108 -18.207 -36.357  1.00  0.00    -0.550 OA
ENDBRANCH   1   2
BRANCH   1   5
ATOM      5  C   UNL     1     -15.998 -20.830 -35.487  1.00  0.00     0.059 C 
BRANCH   5   6
ATOM      6  C   UNL     1     -15.631 -19.679 -34.599  1.00  0.00     0.042 C 
ATOM      7  O   UNL     1     -16.361 -19.381 -33.617  1.00  0.00    -0.550 OA
ATOM      8  O   UNL     1     -14.465 -18.964 -34.833  1.00  0.00    -0.550 OA
ENDBRANCH   5   6
ENDBRANCH   1   5
TORSDOF 3
ENDMDL
MODEL 4
REMARK VINA RESULT:    -2.716      1.463      2.746
REMARK INTER + INTRA:          -3.347
REMARK INTER:                  -3.161
REMARK INTRA:                  -0.186
REMARK UNBOUND:                -0.154
REMARK SMILES O=C([O-])CCC(=O)[O-]
REMARK SMILES IDX 4 1 2 2 1 3 3 4 5 5 6 6 7 7 8 8
REMARK H PARENT
REMARK Flexibility Score: inf
ROOT
ATOM      1  C   UNL     1     -17.610 -20.095 -36.146  1.00  0.00     0.059 C 
ENDROOT
BRANCH   1   2
ATOM      2  C   UNL     1     -16.364 -20.833 -36.533  1.00  0.00     0.042 C 
ATOM      3  O   UNL     1     -15.750 -20.529 -37.589  1.00  0.00    -0.550 OA
ATOM      4  O   UNL     1     -15.859 -21.828 -35.705  1.00  0.00    -0.550 OA
ENDBRANCH   1   2
BRANCH   1   5
ATOM      5  C   UNL     1     -17.333 -18.607 -35.904  1.00  0.00     0.059 C 
BRANCH   5   6
ATOM      6  C   UNL     1     -16.342 -18.402 -34.798  1.00  0.00     0.042 C 
ATOM      7  O   UNL     1     -15.327 -17.681 -34.984  1.00  0.00    -0.550 OA
ATOM      8  O   UNL     1     -16.561 -18.974 -33.552  1.00  0.00    -0.550 OA
ENDBRANCH   5   6
ENDBRANCH   1   5
TORSDOF 3
ENDMDL
MODEL 5
REMARK VINA RESULT:    -2.713      1.467      2.577
REMARK INTER + INTRA:          -3.342
REMARK INTER:                  -3.159
REMARK INTRA:                  -0.183
REMARK UNBOUND:                -0.154
REMARK SMILES O=C([O-])CCC(=O)[O-]
REMARK SMILES IDX 4 1 2 2 1 3 3 4 5 5 6 6 7 7 8 8
REMARK H PARENT
REMARK Flexibility Score: inf
ROOT
ATOM      1  C   UNL     1     -17.326 -18.613 -35.905  1.00  0.00     0.059 C 
ENDROOT
BRANCH   1   2
ATOM      2  C   UNL     1     -16.341 -18.395 -34.797  1.00  0.00     0.042 C 
ATOM      3  O   UNL     1     -15.335 -17.660 -34.979  1.00  0.00    -0.550 OA
ATOM      4  O   UNL     1     -16.557 -18.968 -33.550  1.00  0.00    -0.550 OA
ENDBRANCH   1   2
BRANCH   1   5
ATOM      5  C   UNL     1     -17.592 -20.105 -36.138  1.00  0.00     0.059 C 
BRANCH   5   6
ATOM      6  C   UNL     1     -16.339 -20.838 -36.510  1.00  0.00     0.042 C 
ATOM      7  O   UNL     1     -15.724 -20.543 -37.569  1.00  0.00    -0.550 OA
ATOM      8  O   UNL     1     -15.828 -21.816 -35.667  1.00  0.00    -0.550 OA
ENDBRANCH   5   6
ENDBRANCH   1   5
TORSDOF 3
ENDMDL
MODEL 6
REMARK VINA RESULT:    -2.712      1.454      2.699
REMARK INTER + INTRA:          -3.341
REMARK INTER:                  -3.161
REMARK INTRA:                  -0.180
REMARK UNBOUND:                -0.154
REMARK SMILES O=C([O-])CCC(=O)[O-]
REMARK SMILES IDX 4 1 2 2 1 3 3 4 5 5 6 6 7 7 8 8
REMARK H PARENT
REMARK Flexibility Score: inf
ROOT
ATOM      1  C   UNL     1     -17.604 -20.124 -36.130  1.00  0.00     0.059 C 
ENDROOT
BRANCH   1   2
ATOM      2  C   UNL     1     -16.344 -20.862 -36.468  1.00  0.00     0.042 C 
ATOM      3  O   UNL     1     -15.953 -21.813 -35.743  1.00  0.00    -0.550 OA
ATOM      4  O   UNL     1     -15.626 -20.526 -37.609  1.00  0.00    -0.550 OA
ENDBRANCH   1   2
BRANCH   1   5
ATOM      5  C   UNL     1     -17.346 -18.626 -35.933  1.00  0.00     0.059 C 
BRANCH   5   6
ATOM      6  C   UNL     1     -16.367 -18.375 -34.826  1.00  0.00     0.042 C 
ATOM      7  O   UNL     1     -15.367 -17.636 -35.022  1.00  0.00    -0.550 OA
ATOM      8  O   UNL     1     -16.581 -18.926 -33.569  1.00  0.00    -0.550 OA
ENDBRANCH   5   6
ENDBRANCH   1   5
TORSDOF 3
ENDMDL
MODEL 7
REMARK VINA RESULT:    -2.619      1.513      3.726
REMARK INTER + INTRA:          -3.232
REMARK INTER:                  -3.127
REMARK INTRA:                  -0.106
REMARK UNBOUND:                -0.154
REMARK SMILES O=C([O-])CCC(=O)[O-]
REMARK SMILES IDX 4 1 2 2 1 3 3 4 5 5 6 6 7 7 8 8
REMARK H PARENT
REMARK Flexibility Score: inf
ROOT
ATOM      1  C   UNL     1     -16.321 -21.048 -35.549  1.00  0.00     0.059 C 
ENDROOT
BRANCH   1   2
ATOM      2  C   UNL     1     -15.804 -22.180 -36.385  1.00  0.00     0.042 C 
ATOM      3  O   UNL     1     -16.220 -22.339 -37.562  1.00  0.00    -0.550 OA
ATOM      4  O   UNL     1     -14.832 -23.033 -35.877  1.00  0.00    -0.550 OA
ENDBRANCH   1   2
BRANCH   1   5
ATOM      5  C   UNL     1     -17.561 -20.402 -36.177  1.00  0.00     0.059 C 
BRANCH   5   6
ATOM      6  C   UNL     1     -17.274 -19.013 -36.663  1.00  0.00     0.042 C 
ATOM      7  O   UNL     1     -17.271 -18.048 -35.854  1.00  0.00    -0.550 OA
ATOM      8  O   UNL     1     -16.969 -18.792 -37.999  1.00  0.00    -0.550 OA
ENDBRANCH   5   6
ENDBRANCH   1   5
TORSDOF 3
ENDMDL
MODEL 8
REMARK VINA RESULT:    -2.610      1.502      1.887
REMARK INTER + INTRA:          -3.222
REMARK INTER:                  -3.168
REMARK INTRA:                  -0.054
REMARK UNBOUND:                -0.154
REMARK SMILES O=C([O-])CCC(=O)[O-]
REMARK SMILES IDX 4 1 2 2 1 3 3 4 5 5 6 6 7 7 8 8
REMARK H PARENT
REMARK Flexibility Score: inf
ROOT
ATOM      1  C   UNL     1     -17.382 -20.463 -36.247  1.00  0.00     0.059 C 
ENDROOT
BRANCH   1   2
ATOM      2  C   UNL     1     -17.381 -19.084 -36.836  1.00  0.00     0.042 C 
ATOM      3  O   UNL     1     -17.828 -18.112 -36.173  1.00  0.00    -0.550 OA
ATOM      4  O   UNL     1     -16.848 -18.868 -38.100  1.00  0.00    -0.550 OA
ENDBRANCH   1   2
BRANCH   1   5
ATOM      5  C   UNL     1     -16.229 -20.654 -35.255  1.00  0.00     0.059 C 
BRANCH   5   6
ATOM      6  C   UNL     1     -15.466 -21.914 -35.531  1.00  0.00     0.042 C 
ATOM      7  O   UNL     1     -15.784 -22.646 -36.505  1.00  0.00    -0.550 OA
ATOM      8  O   UNL     1     -14.381 -22.259 -34.736  1.00  0.00    -0.550 OA
ENDBRANCH   5   6
ENDBRANCH   1   5
TORSDOF 3
ENDMDL
MODEL 9
REMARK VINA RESULT:    -2.564      6.412      7.524
REMARK INTER + INTRA:          -3.168
REMARK INTER:                  -3.044
REMARK INTRA:                  -0.124
REMARK UNBOUND:                -0.154
REMARK SMILES O=C([O-])CCC(=O)[O-]
REMARK SMILES IDX 4 1 2 2 1 3 3 4 5 5 6 6 7 7 8 8
REMARK H PARENT
REMARK Flexibility Score: inf
ROOT
ATOM      1  C   UNL     1     -16.589 -13.724 -32.815  1.00  0.00     0.059 C 
ENDROOT
BRANCH   1   2
ATOM      2  C   UNL     1     -16.173 -15.164 -32.776  1.00  0.00     0.042 C 
ATOM      3  O   UNL     1     -16.647 -15.936 -31.902  1.00  0.00    -0.550 OA
ATOM      4  O   UNL     1     -15.295 -15.660 -33.731  1.00  0.00    -0.550 OA
ENDBRANCH   1   2
BRANCH   1   5
ATOM      5  C   UNL     1     -15.591 -12.869 -33.603  1.00  0.00     0.059 C 
BRANCH   5   6
ATOM      6  C   UNL     1     -14.452 -12.414 -32.741  1.00  0.00     0.042 C 
ATOM      7  O   UNL     1     -13.308 -12.921 -32.885  1.00  0.00    -0.550 OA
ATOM      8  O   UNL     1     -14.645 -11.404 -31.808  1.00  0.00    -0.550 OA
ENDBRANCH   5   6
ENDBRANCH   1   5
TORSDOF 3
ENDMDL
