MODEL 1
REMARK VINA RESULT:    -3.078      0.000      0.000
REMARK INTER + INTRA:          -3.477
REMARK INTER:                  -3.438
REMARK INTRA:                  -0.038
REMARK UNBOUND:                -0.038
REMARK SMILES CCCC(=O)[O-]
REMARK SMILES IDX 3 1 4 2 5 3 6 4 2 5 1 6
REMARK H PARENT
REMARK Flexibility Score: inf
ROOT
ATOM      1  C   UNL     1       6.586  48.206  30.449  1.00  0.00     0.052 C 
ENDROOT
BRANCH   1   2
ATOM      2  C   UNL     1       5.700  48.075  31.650  1.00  0.00     0.041 C 
ATOM      3  O   UNL     1       4.480  48.378  31.573  1.00  0.00    -0.550 OA
ATOM      4  O   UNL     1       6.213  47.586  32.844  1.00  0.00    -0.550 OA
ENDBRANCH   1   2
BRANCH   1   5
ATOM      5  C   UNL     1       5.824  48.760  29.239  1.00  0.00     0.003 C 
ATOM      6  C   UNL     1       5.514  47.680  28.202  1.00  0.00     0.004 C 
ENDBRANCH   1   5
TORSDOF 2
ENDMDL
MODEL 2
REMARK VINA RESULT:    -3.073      0.103      1.324
REMARK INTER + INTRA:          -3.470
REMARK INTER:                  -3.432
REMARK INTRA:                  -0.039
REMARK UNBOUND:                -0.038
REMARK SMILES CCCC(=O)[O-]
REMARK SMILES IDX 3 1 4 2 5 3 6 4 2 5 1 6
REMARK H PARENT
REMARK Flexibility Score: inf
ROOT
ATOM      1  C   UNL     1       6.663  48.236  30.473  1.00  0.00     0.052 C 
ENDROOT
BRANCH   1   2
ATOM      2  C   UNL     1       5.795  48.022  31.674  1.00  0.00     0.041 C 
ATOM      3  O   UNL     1       6.286  47.558  32.737  1.00  0.00    -0.550 OA
ATOM      4  O   UNL     1       4.450  48.367  31.631  1.00  0.00    -0.550 OA
ENDBRANCH   1   2
BRANCH   1   5
ATOM      5  C   UNL     1       5.872  48.827  29.298  1.00  0.00     0.003 C 
ATOM      6  C   UNL     1       5.503  47.771  28.256  1.00  0.00     0.004 C 
ENDBRANCH   1   5
TORSDOF 2
ENDMDL
MODEL 3
REMARK VINA RESULT:    -3.009      2.290      3.400
REMARK INTER + INTRA:          -3.399
REMARK INTER:                  -3.389
REMARK INTRA:                  -0.010
REMARK UNBOUND:                -0.038
REMARK SMILES CCCC(=O)[O-]
REMARK SMILES IDX 3 1 4 2 5 3 6 4 2 5 1 6
REMARK H PARENT
REMARK Flexibility Score: inf
ROOT
ATOM      1  C   UNL     1       6.143  47.961  30.702  1.00  0.00     0.052 C 
ENDROOT
BRANCH   1   2
ATOM      2  C   UNL     1       5.938  48.665  29.396  1.00  0.00     0.041 C 
ATOM      3  O   UNL     1       6.121  49.908  29.311  1.00  0.00    -0.550 OA
ATOM      4  O   UNL     1       5.578  47.944  28.265  1.00  0.00    -0.550 OA
ENDBRANCH   1   2
BRANCH   1   5
ATOM      5  C   UNL     1       5.086  48.366  31.737  1.00  0.00     0.003 C 
ATOM      6  C   UNL     1       5.566  48.154  33.173  1.00  0.00     0.004 C 
ENDBRANCH   1   5
TORSDOF 2
ENDMDL
MODEL 4
REMARK VINA RESULT:    -2.804      2.184      2.636
REMARK INTER + INTRA:          -3.171
REMARK INTER:                  -3.137
REMARK INTRA:                  -0.034
REMARK UNBOUND:                -0.038
REMARK SMILES CCCC(=O)[O-]
REMARK SMILES IDX 3 1 4 2 5 3 6 4 2 5 1 6
REMARK H PARENT
REMARK Flexibility Score: inf
ROOT
ATOM      1  C   UNL     1       6.498  48.455  30.673  1.00  0.00     0.052 C 
ENDROOT
BRANCH   1   2
ATOM      2  C   UNL     1       7.904  48.935  30.865  1.00  0.00     0.041 C 
ATOM      3  O   UNL     1       8.548  48.611  31.897  1.00  0.00    -0.550 OA
ATOM      4  O   UNL     1       8.514  49.711  29.889  1.00  0.00    -0.550 OA
ENDBRANCH   1   2
BRANCH   1   5
ATOM      5  C   UNL     1       5.914  48.929  29.335  1.00  0.00     0.003 C 
ATOM      6  C   UNL     1       5.619  47.768  28.385  1.00  0.00     0.004 C 
ENDBRANCH   1   5
TORSDOF 2
ENDMDL
MODEL 5
REMARK VINA RESULT:    -2.776      2.268      3.231
REMARK INTER + INTRA:          -3.139
REMARK INTER:                  -3.094
REMARK INTRA:                  -0.045
REMARK UNBOUND:                -0.038
REMARK SMILES CCCC(=O)[O-]
REMARK SMILES IDX 3 1 4 2 5 3 6 4 2 5 1 6
REMARK H PARENT
REMARK Flexibility Score: inf
ROOT
ATOM      1  C   UNL     1       6.196  47.940  30.820  1.00  0.00     0.052 C 
ENDROOT
BRANCH   1   2
ATOM      2  C   UNL     1       5.957  48.513  29.457  1.00  0.00     0.041 C 
ATOM      3  O   UNL     1       5.924  47.759  28.449  1.00  0.00    -0.550 OA
ATOM      4  O   UNL     1       5.736  49.876  29.304  1.00  0.00    -0.550 OA
ENDBRANCH   1   2
BRANCH   1   5
ATOM      5  C   UNL     1       7.062  48.867  31.682  1.00  0.00     0.003 C 
ATOM      6  C   UNL     1       8.508  48.937  31.190  1.00  0.00     0.004 C 
ENDBRANCH   1   5
TORSDOF 2
ENDMDL
MODEL 6
REMARK VINA RESULT:    -2.750     15.492     16.223
REMARK INTER + INTRA:          -3.110
REMARK INTER:                  -3.082
REMARK INTRA:                  -0.028
REMARK UNBOUND:                -0.038
REMARK SMILES CCCC(=O)[O-]
REMARK SMILES IDX 3 1 4 2 5 3 6 4 2 5 1 6
REMARK H PARENT
REMARK Flexibility Score: inf
ROOT
ATOM      1  C   UNL     1      10.411  36.277  22.051  1.00  0.00     0.052 C 
ENDROOT
BRANCH   1   2
ATOM      2  C   UNL     1      11.229  36.302  20.797  1.00  0.00     0.041 C 
ATOM      3  O   UNL     1      12.484  36.208  20.857  1.00  0.00    -0.550 OA
ATOM      4  O   UNL     1      10.604  36.396  19.560  1.00  0.00    -0.550 OA
ENDBRANCH   1   2
BRANCH   1   5
ATOM      5  C   UNL     1      11.108  35.489  23.168  1.00  0.00     0.003 C 
ATOM      6  C   UNL     1      11.081  36.228  24.506  1.00  0.00     0.004 C 
ENDBRANCH   1   5
TORSDOF 2
ENDMDL
MODEL 7
REMARK VINA RESULT:    -2.723     15.313     16.046
REMARK INTER + INTRA:          -3.080
REMARK INTER:                  -3.069
REMARK INTRA:                  -0.011
REMARK UNBOUND:                -0.038
REMARK SMILES CCCC(=O)[O-]
REMARK SMILES IDX 3 1 4 2 5 3 6 4 2 5 1 6
REMARK H PARENT
REMARK Flexibility Score: inf
ROOT
ATOM      1  C   UNL     1      12.205  35.824  21.884  1.00  0.00     0.052 C 
ENDROOT
BRANCH   1   2
ATOM      2  C   UNL     1      11.009  36.050  22.757  1.00  0.00     0.041 C 
ATOM      3  O   UNL     1       9.946  36.515  22.268  1.00  0.00    -0.550 OA
ATOM      4  O   UNL     1      11.058  35.715  24.104  1.00  0.00    -0.550 OA
ENDBRANCH   1   2
BRANCH   1   5
ATOM      5  C   UNL     1      11.939  36.254  20.435  1.00  0.00     0.003 C 
ATOM      6  C   UNL     1      13.198  36.197  19.571  1.00  0.00     0.004 C 
ENDBRANCH   1   5
TORSDOF 2
ENDMDL
MODEL 8
REMARK VINA RESULT:    -2.700     14.866     15.674
REMARK INTER + INTRA:          -3.054
REMARK INTER:                  -3.024
REMARK INTRA:                  -0.030
REMARK UNBOUND:                -0.038
REMARK SMILES CCCC(=O)[O-]
REMARK SMILES IDX 3 1 4 2 5 3 6 4 2 5 1 6
REMARK H PARENT
REMARK Flexibility Score: inf
ROOT
ATOM      1  C   UNL     1      10.058  36.571  22.264  1.00  0.00     0.052 C 
ENDROOT
BRANCH   1   2
ATOM      2  C   UNL     1      10.973  35.734  23.103  1.00  0.00     0.041 C 
ATOM      3  O   UNL     1      11.494  34.691  22.626  1.00  0.00    -0.550 OA
ATOM      4  O   UNL     1      11.278  36.123  24.401  1.00  0.00    -0.550 OA
ENDBRANCH   1   2
BRANCH   1   5
ATOM      5  C   UNL     1       9.596  35.823  21.007  1.00  0.00     0.003 C 
ATOM      6  C   UNL     1       9.812  36.637  19.732  1.00  0.00     0.004 C 
ENDBRANCH   1   5
TORSDOF 2
ENDMDL
MODEL 9
REMARK VINA RESULT:    -2.700     15.752     16.470
REMARK INTER + INTRA:          -3.054
REMARK INTER:                  -3.020
REMARK INTRA:                  -0.034
REMARK UNBOUND:                -0.038
REMARK SMILES CCCC(=O)[O-]
REMARK SMILES IDX 3 1 4 2 5 3 6 4 2 5 1 6
REMARK H PARENT
REMARK Flexibility Score: inf
ROOT
ATOM      1  C   UNL     1      10.082  36.351  21.616  1.00  0.00     0.052 C 
ENDROOT
BRANCH   1   2
ATOM      2  C   UNL     1       9.601  35.172  20.827  1.00  0.00     0.041 C 
ATOM      3  O   UNL     1      10.371  34.199  20.609  1.00  0.00    -0.550 OA
ATOM      4  O   UNL     1       8.293  35.132  20.363  1.00  0.00    -0.550 OA
ENDBRANCH   1   2
BRANCH   1   5
ATOM      5  C   UNL     1      11.352  36.023  22.411  1.00  0.00     0.003 C 
ATOM      6  C   UNL     1      11.092  35.936  23.915  1.00  0.00     0.004 C 
ENDBRANCH   1   5
TORSDOF 2
ENDMDL
