MODEL 1
REMARK VINA RESULT:    -2.857      0.000      0.000
REMARK INTER + INTRA:          -2.727
REMARK INTER:                  -3.860
REMARK INTRA:                   1.133
REMARK UNBOUND:                 1.133
REMARK SMILES C=C1C(=O)O[C@H]2[C@H]3O[C@]3(C)CCC=C(C)CC[C@@H]12
REMARK SMILES IDX 6 1 18 2 2 3 1 4 3 5 4 6 5 7 17 8 16 9 14 10 15 11 13 12
REMARK SMILES IDX 7 14 9 15 8 16 10 17 11 18 12 19
REMARK H PARENT
REMARK Flexibility Score: 70.00
ROOT
ATOM      1  C   UNL     1      33.173   8.726  21.379  1.00  0.00     0.216 C 
ATOM      2  C   UNL     1      34.318   9.813  21.332  1.00  0.00     0.070 C 
ATOM      3  C   UNL     1      33.963  10.646  22.531  1.00  0.00     0.037 C 
ATOM      4  C   UNL     1      34.761  11.515  23.148  1.00  0.00     0.021 C 
ATOM      5  C   UNL     1      32.590  10.355  22.882  1.00  0.00     0.334 C 
ATOM      6  O   UNL     1      31.905  10.967  23.742  1.00  0.00    -0.247 OA
ATOM      7  O   UNL     1      32.110   9.308  22.124  1.00  0.00    -0.455 OA
ENDROOT
BRANCH   2   8
ATOM      8  C   UNL     1      34.334  10.754  20.075  1.00  0.00     0.017 C 
BRANCH   8   9
ATOM      9  C   UNL     1      34.856  10.151  18.727  1.00  0.00     0.031 C 
BRANCH   9  10
ATOM     10  C   UNL     1      33.835  10.302  17.592  1.00  0.00    -0.077 C 
ATOM     11  C   UNL     1      33.486  11.709  17.171  1.00  0.00     0.039 C 
ATOM     12  C   UNL     1      33.189   9.287  16.946  1.00  0.00    -0.028 CG0
ATOM     13  G   UNL     1      33.409   7.788  17.077  1.00  0.00     0.000 G0
ENDBRANCH   9  10
ENDBRANCH   8   9
ENDBRANCH   2   8
BRANCH   1  14
ATOM     14  C   UNL     1      32.729   8.309  19.990  1.00  0.00     0.192 C 
ATOM     15  C   UNL     1      32.356   7.017  19.338  1.00  0.00     0.096 C 
ATOM     16  O   UNL     1      33.658   7.268  19.708  1.00  0.00    -0.362 OA
ATOM     17  C   UNL     1      31.698   5.924  20.174  1.00  0.00     0.045 C 
BRANCH  15  18
ATOM     18  C   UNL     1      32.257   7.010  17.792  1.00  0.00     0.042 C 
BRANCH  18  19
ATOM     19  C   UNL     1      33.403   7.781  17.058  1.00  0.00     0.030 CG0
ATOM     20  G   UNL     1      33.176   9.280  16.950  1.00  0.00     0.000 G0
ENDBRANCH  18  19
ENDBRANCH  15  18
ENDBRANCH   1  14
TORSDOF 0
ENDMDL
MODEL 2
REMARK VINA RESULT:    -2.857      3.349      5.781
REMARK INTER + INTRA:          -2.726
REMARK INTER:                  -3.826
REMARK INTRA:                   1.100
REMARK UNBOUND:                 1.133
REMARK SMILES C=C1C(=O)O[C@H]2[C@H]3O[C@]3(C)CCC=C(C)CC[C@@H]12
REMARK SMILES IDX 6 1 18 2 2 3 1 4 3 5 4 6 5 7 17 8 16 9 14 10 15 11 13 12
REMARK SMILES IDX 7 14 9 15 8 16 10 17 11 18 12 19
REMARK H PARENT
REMARK Flexibility Score: 70.00
ROOT
ATOM      1  C   UNL     1      33.842   8.803  20.641  1.00  0.00     0.216 C 
ATOM      2  C   UNL     1      34.868   7.791  19.995  1.00  0.00     0.070 C 
ATOM      3  C   UNL     1      33.984   6.593  19.785  1.00  0.00     0.037 C 
ATOM      4  C   UNL     1      34.245   5.554  18.993  1.00  0.00     0.021 C 
ATOM      5  C   UNL     1      32.812   6.756  20.616  1.00  0.00     0.334 C 
ATOM      6  O   UNL     1      31.922   5.887  20.810  1.00  0.00    -0.247 OA
ATOM      7  O   UNL     1      32.800   8.007  21.195  1.00  0.00    -0.455 OA
ENDROOT
BRANCH   2   8
ATOM      8  C   UNL     1      36.075   7.351  20.898  1.00  0.00     0.017 C 
BRANCH   8   9
ATOM      9  C   UNL     1      37.240   8.378  21.097  1.00  0.00     0.031 C 
BRANCH   9  10
ATOM     10  C   UNL     1      37.546   8.627  22.578  1.00  0.00    -0.077 C 
ATOM     11  C   UNL     1      38.033   7.445  23.383  1.00  0.00     0.039 C 
ATOM     12  C   UNL     1      37.393   9.807  23.248  1.00  0.00    -0.028 CG0
ATOM     13  G   UNL     1      37.028  11.174  22.690  1.00  0.00     0.000 G0
ENDBRANCH   9  10
ENDBRANCH   8   9
ENDBRANCH   2   8
BRANCH   1  14
ATOM     14  C   UNL     1      34.496   9.686  21.685  1.00  0.00     0.192 C 
ATOM     15  C   UNL     1      34.503  11.150  21.984  1.00  0.00     0.096 C 
ATOM     16  O   UNL     1      35.131  10.659  20.862  1.00  0.00    -0.362 OA
ATOM     17  C   UNL     1      33.266  11.982  21.662  1.00  0.00     0.045 C 
BRANCH  15  18
ATOM     18  C   UNL     1      35.572  11.661  22.983  1.00  0.00     0.042 C 
BRANCH  18  19
ATOM     19  C   UNL     1      37.032  11.188  22.680  1.00  0.00     0.030 CG0
ATOM     20  G   UNL     1      37.373   9.817  23.242  1.00  0.00     0.000 G0
ENDBRANCH  18  19
ENDBRANCH  15  18
ENDBRANCH   1  14
TORSDOF 0
ENDMDL
MODEL 3
REMARK VINA RESULT:    -2.746      2.185      3.824
REMARK INTER + INTRA:          -2.577
REMARK INTER:                  -3.649
REMARK INTRA:                   1.073
REMARK UNBOUND:                 1.133
REMARK SMILES C=C1C(=O)O[C@H]2[C@H]3O[C@]3(C)CCC=C(C)CC[C@@H]12
REMARK SMILES IDX 6 1 18 2 2 3 1 4 3 5 4 6 5 7 17 8 16 9 14 10 15 11 13 12
REMARK SMILES IDX 7 14 9 15 8 16 10 17 11 18 12 19
REMARK H PARENT
REMARK Flexibility Score: 70.00
ROOT
ATOM      1  C   UNL     1      34.123   9.531  20.371  1.00  0.00     0.216 C 
ATOM      2  C   UNL     1      32.706   9.398  21.057  1.00  0.00     0.070 C 
ATOM      3  C   UNL     1      32.905  10.252  22.277  1.00  0.00     0.037 C 
ATOM      4  C   UNL     1      31.943  10.746  23.055  1.00  0.00     0.021 C 
ATOM      5  C   UNL     1      34.328  10.422  22.472  1.00  0.00     0.334 C 
ATOM      6  O   UNL     1      34.874  10.956  23.472  1.00  0.00    -0.247 OA
ATOM      7  O   UNL     1      35.027   9.898  21.406  1.00  0.00    -0.455 OA
ENDROOT
BRANCH   2   8
ATOM      8  C   UNL     1      32.295   7.959  21.534  1.00  0.00     0.017 C 
BRANCH   8   9
ATOM      9  C   UNL     1      31.839   6.938  20.437  1.00  0.00     0.031 C 
BRANCH   9  10
ATOM     10  C   UNL     1      32.644   5.633  20.492  1.00  0.00    -0.077 C 
ATOM     11  C   UNL     1      32.506   4.798  21.742  1.00  0.00     0.039 C 
ATOM     12  C   UNL     1      33.496   5.168  19.531  1.00  0.00    -0.028 CG0
ATOM     13  G   UNL     1      33.754   5.728  18.142  1.00  0.00     0.000 G0
ENDBRANCH   9  10
ENDBRANCH   8   9
ENDBRANCH   2   8
BRANCH   1  14
ATOM     14  C   UNL     1      34.542   8.248  19.681  1.00  0.00     0.192 C 
ATOM     15  C   UNL     1      35.188   7.905  18.378  1.00  0.00     0.096 C 
ATOM     16  O   UNL     1      33.902   8.395  18.418  1.00  0.00    -0.362 OA
ATOM     17  C   UNL     1      36.180   8.884  17.759  1.00  0.00     0.045 C 
BRANCH  15  18
ATOM     18  C   UNL     1      35.153   6.418  17.943  1.00  0.00     0.042 C 
BRANCH  18  19
ATOM     19  C   UNL     1      33.771   5.712  18.130  1.00  0.00     0.030 CG0
ATOM     20  G   UNL     1      33.534   5.166  19.529  1.00  0.00     0.000 G0
ENDBRANCH  18  19
ENDBRANCH  15  18
ENDBRANCH   1  14
TORSDOF 0
ENDMDL
MODEL 4
REMARK VINA RESULT:    -2.722      3.123      4.017
REMARK INTER + INTRA:          -2.544
REMARK INTER:                  -3.696
REMARK INTRA:                   1.151
REMARK UNBOUND:                 1.133
REMARK SMILES C=C1C(=O)O[C@H]2[C@H]3O[C@]3(C)CCC=C(C)CC[C@@H]12
REMARK SMILES IDX 6 1 18 2 2 3 1 4 3 5 4 6 5 7 17 8 16 9 14 10 15 11 13 12
REMARK SMILES IDX 7 14 9 15 8 16 10 17 11 18 12 19
REMARK H PARENT
REMARK Flexibility Score: 70.00
ROOT
ATOM      1  C   UNL     1      36.640   7.294  21.317  1.00  0.00     0.216 C 
ATOM      2  C   UNL     1      36.595   8.871  21.379  1.00  0.00     0.070 C 
ATOM      3  C   UNL     1      37.564   9.135  22.497  1.00  0.00     0.037 C 
ATOM      4  C   UNL     1      38.145  10.300  22.774  1.00  0.00     0.021 C 
ATOM      5  C   UNL     1      37.733   7.903  23.236  1.00  0.00     0.334 C 
ATOM      6  O   UNL     1      38.357   7.777  24.322  1.00  0.00    -0.247 OA
ATOM      7  O   UNL     1      37.096   6.863  22.594  1.00  0.00    -0.455 OA
ENDROOT
BRANCH   2   8
ATOM      8  C   UNL     1      35.217   9.515  21.770  1.00  0.00     0.017 C 
BRANCH   8   9
ATOM      9  C   UNL     1      34.086   9.514  20.687  1.00  0.00     0.031 C 
BRANCH   9  10
ATOM     10  C   UNL     1      32.799   8.851  21.193  1.00  0.00    -0.077 C 
ATOM     11  C   UNL     1      32.099   9.515  22.353  1.00  0.00     0.039 C 
ATOM     12  C   UNL     1      32.242   7.699  20.714  1.00  0.00    -0.028 CG0
ATOM     13  G   UNL     1      32.655   6.878  19.503  1.00  0.00     0.000 G0
ENDBRANCH   9  10
ENDBRANCH   8   9
ENDBRANCH   2   8
BRANCH   1  14
ATOM     14  C   UNL     1      35.288   6.701  20.968  1.00  0.00     0.192 C 
ATOM     15  C   UNL     1      34.817   5.529  20.169  1.00  0.00     0.096 C 
ATOM     16  O   UNL     1      35.382   6.621  19.550  1.00  0.00    -0.362 OA
ATOM     17  C   UNL     1      35.690   4.281  20.093  1.00  0.00     0.045 C 
BRANCH  15  18
ATOM     18  C   UNL     1      33.308   5.473  19.824  1.00  0.00     0.042 C 
BRANCH  18  19
ATOM     19  C   UNL     1      32.657   6.857  19.495  1.00  0.00     0.030 CG0
ATOM     20  G   UNL     1      32.256   7.664  20.720  1.00  0.00     0.000 G0
ENDBRANCH  18  19
ENDBRANCH  15  18
ENDBRANCH   1  14
TORSDOF 0
ENDMDL
MODEL 5
REMARK VINA RESULT:    -2.695      3.482      4.431
REMARK INTER + INTRA:          -2.508
REMARK INTER:                  -3.599
REMARK INTRA:                   1.091
REMARK UNBOUND:                 1.133
REMARK SMILES C=C1C(=O)O[C@H]2[C@H]3O[C@]3(C)CCC=C(C)CC[C@@H]12
REMARK SMILES IDX 6 1 18 2 2 3 1 4 3 5 4 6 5 7 17 8 16 9 14 10 15 11 13 12
REMARK SMILES IDX 7 14 9 15 8 16 10 17 11 18 12 19
REMARK H PARENT
REMARK Flexibility Score: 70.00
ROOT
ATOM      1  C   UNL     1      37.200   7.723  21.613  1.00  0.00     0.216 C 
ATOM      2  C   UNL     1      37.407   9.281  21.760  1.00  0.00     0.070 C 
ATOM      3  C   UNL     1      38.496   9.322  22.795  1.00  0.00     0.037 C 
ATOM      4  C   UNL     1      39.274  10.366  23.076  1.00  0.00     0.021 C 
ATOM      5  C   UNL     1      38.533   8.033  23.451  1.00  0.00     0.334 C 
ATOM      6  O   UNL     1      39.219   7.744  24.465  1.00  0.00    -0.247 OA
ATOM      7  O   UNL     1      37.690   7.145  22.817  1.00  0.00    -0.455 OA
ENDROOT
BRANCH   2   8
ATOM      8  C   UNL     1      36.184  10.098  22.311  1.00  0.00     0.017 C 
BRANCH   8   9
ATOM      9  C   UNL     1      35.000  10.379  21.325  1.00  0.00     0.031 C 
BRANCH   9  10
ATOM     10  C   UNL     1      33.651   9.924  21.896  1.00  0.00    -0.077 C 
ATOM     11  C   UNL     1      33.175  10.612  23.153  1.00  0.00     0.039 C 
ATOM     12  C   UNL     1      32.853   8.935  21.394  1.00  0.00    -0.028 CG0
ATOM     13  G   UNL     1      33.015   8.150  20.103  1.00  0.00     0.000 G0
ENDBRANCH   9  10
ENDBRANCH   8   9
ENDBRANCH   2   8
BRANCH   1  14
ATOM     14  C   UNL     1      35.748   7.364  21.362  1.00  0.00     0.192 C 
ATOM     15  C   UNL     1      35.023   6.489  20.392  1.00  0.00     0.096 C 
ATOM     16  O   UNL     1      35.632   7.650  19.972  1.00  0.00    -0.362 OA
ATOM     17  C   UNL     1      35.708   5.232  19.868  1.00  0.00     0.045 C 
BRANCH  15  18
ATOM     18  C   UNL     1      33.485   6.659  20.302  1.00  0.00     0.042 C 
BRANCH  18  19
ATOM     19  C   UNL     1      32.999   8.133  20.108  1.00  0.00     0.030 CG0
ATOM     20  G   UNL     1      32.859   8.919  21.402  1.00  0.00     0.000 G0
ENDBRANCH  18  19
ENDBRANCH  15  18
ENDBRANCH   1  14
TORSDOF 0
ENDMDL
MODEL 6
REMARK VINA RESULT:    -2.551      3.035      4.341
REMARK INTER + INTRA:          -2.313
REMARK INTER:                  -3.436
REMARK INTRA:                   1.123
REMARK UNBOUND:                 1.133
REMARK SMILES C=C1C(=O)O[C@H]2[C@H]3O[C@]3(C)CCC=C(C)CC[C@@H]12
REMARK SMILES IDX 6 1 18 2 2 3 1 4 3 5 4 6 5 7 17 8 16 9 14 10 15 11 13 12
REMARK SMILES IDX 7 14 9 15 8 16 10 17 11 18 12 19
REMARK H PARENT
REMARK Flexibility Score: 70.00
ROOT
ATOM      1  C   UNL     1      35.829   9.020  21.164  1.00  0.00     0.216 C 
ATOM      2  C   UNL     1      34.484   9.454  20.458  1.00  0.00     0.070 C 
ATOM      3  C   UNL     1      34.085  10.624  21.313  1.00  0.00     0.037 C 
ATOM      4  C   UNL     1      33.193  11.561  20.996  1.00  0.00     0.021 C 
ATOM      5  C   UNL     1      34.822  10.538  22.555  1.00  0.00     0.334 C 
ATOM      6  O   UNL     1      34.642  11.262  23.569  1.00  0.00    -0.247 OA
ATOM      7  O   UNL     1      35.757   9.527  22.492  1.00  0.00    -0.455 OA
ENDROOT
BRANCH   2   8
ATOM      8  C   UNL     1      33.312   8.410  20.488  1.00  0.00     0.017 C 
BRANCH   8   9
ATOM      9  C   UNL     1      33.415   7.181  19.522  1.00  0.00     0.031 C 
BRANCH   9  10
ATOM     10  C   UNL     1      33.262   5.848  20.263  1.00  0.00    -0.077 C 
ATOM     11  C   UNL     1      31.944   5.598  20.955  1.00  0.00     0.039 C 
ATOM     12  C   UNL     1      34.215   4.876  20.383  1.00  0.00    -0.028 CG0
ATOM     13  G   UNL     1      35.580   4.799  19.718  1.00  0.00     0.000 G0
ENDBRANCH   9  10
ENDBRANCH   8   9
ENDBRANCH   2   8
BRANCH   1  14
ATOM     14  C   UNL     1      36.021   7.516  21.142  1.00  0.00     0.192 C 
ATOM     15  C   UNL     1      37.153   6.595  20.820  1.00  0.00     0.096 C 
ATOM     16  O   UNL     1      36.538   7.327  19.829  1.00  0.00    -0.362 OA
ATOM     17  C   UNL     1      38.583   7.048  21.096  1.00  0.00     0.045 C 
BRANCH  15  18
ATOM     18  C   UNL     1      36.811   5.096  20.633  1.00  0.00     0.042 C 
BRANCH  18  19
ATOM     19  C   UNL     1      35.589   4.813  19.699  1.00  0.00     0.030 CG0
ATOM     20  G   UNL     1      34.241   4.881  20.398  1.00  0.00     0.000 G0
ENDBRANCH  18  19
ENDBRANCH  15  18
ENDBRANCH   1  14
TORSDOF 0
ENDMDL
MODEL 7
REMARK VINA RESULT:    -2.506     13.462     15.025
REMARK INTER + INTRA:          -2.253
REMARK INTER:                  -3.361
REMARK INTRA:                   1.108
REMARK UNBOUND:                 1.133
REMARK SMILES C=C1C(=O)O[C@H]2[C@H]3O[C@]3(C)CCC=C(C)CC[C@@H]12
REMARK SMILES IDX 6 1 18 2 2 3 1 4 3 5 4 6 5 7 17 8 16 9 14 10 15 11 13 12
REMARK SMILES IDX 7 14 9 15 8 16 10 17 11 18 12 19
REMARK H PARENT
REMARK Flexibility Score: 70.00
ROOT
ATOM      1  C   UNL     1      35.593  -4.713  21.871  1.00  0.00     0.216 C 
ATOM      2  C   UNL     1      35.511  -4.521  23.436  1.00  0.00     0.070 C 
ATOM      3  C   UNL     1      36.733  -5.279  23.875  1.00  0.00     0.037 C 
ATOM      4  C   UNL     1      37.327  -5.191  25.064  1.00  0.00     0.021 C 
ATOM      5  C   UNL     1      37.135  -6.141  22.785  1.00  0.00     0.334 C 
ATOM      6  O   UNL     1      38.029  -7.025  22.839  1.00  0.00    -0.247 OA
ATOM      7  O   UNL     1      36.387  -5.875  21.658  1.00  0.00    -0.455 OA
ENDROOT
BRANCH   2   8
ATOM      8  C   UNL     1      34.266  -5.154  24.152  1.00  0.00     0.017 C 
BRANCH   8   9
ATOM      9  C   UNL     1      32.892  -4.416  23.998  1.00  0.00     0.031 C 
BRANCH   9  10
ATOM     10  C   UNL     1      31.796  -5.341  23.457  1.00  0.00    -0.077 C 
ATOM     11  C   UNL     1      31.430  -6.536  24.304  1.00  0.00     0.039 C 
ATOM     12  C   UNL     1      31.139  -5.205  22.267  1.00  0.00    -0.028 CG0
ATOM     13  G   UNL     1      31.215  -4.063  21.267  1.00  0.00     0.000 G0
ENDBRANCH   9  10
ENDBRANCH   8   9
ENDBRANCH   2   8
BRANCH   1  14
ATOM     14  C   UNL     1      34.219  -4.844  21.243  1.00  0.00     0.192 C 
ATOM     15  C   UNL     1      33.545  -4.275  20.036  1.00  0.00     0.096 C 
ATOM     16  O   UNL     1      33.846  -3.476  21.117  1.00  0.00    -0.362 OA
ATOM     17  C   UNL     1      34.378  -3.949  18.802  1.00  0.00     0.045 C 
BRANCH  15  18
ATOM     18  C   UNL     1      32.008  -4.445  19.942  1.00  0.00     0.042 C 
BRANCH  18  19
ATOM     19  C   UNL     1      31.224  -4.068  21.242  1.00  0.00     0.030 CG0
ATOM     20  G   UNL     1      31.123  -5.195  22.257  1.00  0.00     0.000 G0
ENDBRANCH  18  19
ENDBRANCH  15  18
ENDBRANCH   1  14
TORSDOF 0
ENDMDL
MODEL 8
REMARK VINA RESULT:    -2.376      5.527      6.719
REMARK INTER + INTRA:          -2.077
REMARK INTER:                  -3.287
REMARK INTRA:                   1.211
REMARK UNBOUND:                 1.133
REMARK SMILES C=C1C(=O)O[C@H]2[C@H]3O[C@]3(C)CCC=C(C)CC[C@@H]12
REMARK SMILES IDX 6 1 18 2 2 3 1 4 3 5 4 6 5 7 17 8 16 9 14 10 15 11 13 12
REMARK SMILES IDX 7 14 9 15 8 16 10 17 11 18 12 19
REMARK H PARENT
REMARK Flexibility Score: 70.00
ROOT
ATOM      1  C   UNL     1      37.104   8.776  22.743  1.00  0.00     0.216 C 
ATOM      2  C   UNL     1      37.025  10.285  23.203  1.00  0.00     0.070 C 
ATOM      3  C   UNL     1      35.617  10.626  22.801  1.00  0.00     0.037 C 
ATOM      4  C   UNL     1      34.911  11.672  23.226  1.00  0.00     0.021 C 
ATOM      5  C   UNL     1      35.174   9.630  21.850  1.00  0.00     0.334 C 
ATOM      6  O   UNL     1      34.104   9.670  21.189  1.00  0.00    -0.247 OA
ATOM      7  O   UNL     1      36.102   8.616  21.746  1.00  0.00    -0.455 OA
ENDROOT
BRANCH   2   8
ATOM      8  C   UNL     1      37.992  11.287  22.477  1.00  0.00     0.017 C 
BRANCH   8   9
ATOM      9  C   UNL     1      39.507  11.242  22.873  1.00  0.00     0.031 C 
BRANCH   9  10
ATOM     10  C   UNL     1      40.418  11.049  21.655  1.00  0.00    -0.077 C 
ATOM     11  C   UNL     1      40.381  12.125  20.596  1.00  0.00     0.039 C 
ATOM     12  C   UNL     1      41.238   9.982  21.420  1.00  0.00    -0.028 CG0
ATOM     13  G   UNL     1      41.562   8.815  22.339  1.00  0.00     0.000 G0
ENDBRANCH   9  10
ENDBRANCH   8   9
ENDBRANCH   2   8
BRANCH   1  14
ATOM     14  C   UNL     1      38.482   8.412  22.225  1.00  0.00     0.192 C 
ATOM     15  C   UNL     1      39.434   7.282  22.443  1.00  0.00     0.096 C 
ATOM     16  O   UNL     1      39.184   8.193  23.444  1.00  0.00    -0.362 OA
ATOM     17  C   UNL     1      38.884   5.893  22.748  1.00  0.00     0.045 C 
BRANCH  15  18
ATOM     18  C   UNL     1      40.885   7.472  21.932  1.00  0.00     0.042 C 
BRANCH  18  19
ATOM     19  C   UNL     1      41.550   8.828  22.338  1.00  0.00     0.030 CG0
ATOM     20  G   UNL     1      41.244   9.980  21.393  1.00  0.00     0.000 G0
ENDBRANCH  18  19
ENDBRANCH  15  18
ENDBRANCH   1  14
TORSDOF 0
ENDMDL
MODEL 9
REMARK VINA RESULT:    -2.332     13.265     15.030
REMARK INTER + INTRA:          -2.018
REMARK INTER:                  -3.119
REMARK INTRA:                   1.101
REMARK UNBOUND:                 1.133
REMARK SMILES C=C1C(=O)O[C@H]2[C@H]3O[C@]3(C)CCC=C(C)CC[C@@H]12
REMARK SMILES IDX 6 1 18 2 2 3 1 4 3 5 4 6 5 7 17 8 16 9 14 10 15 11 13 12
REMARK SMILES IDX 7 14 9 15 8 16 10 17 11 18 12 19
REMARK H PARENT
REMARK Flexibility Score: 70.00
ROOT
ATOM      1  C   UNL     1      35.263  -5.645  24.176  1.00  0.00     0.216 C 
ATOM      2  C   UNL     1      34.012  -4.760  23.795  1.00  0.00     0.070 C 
ATOM      3  C   UNL     1      32.892  -5.721  24.082  1.00  0.00     0.037 C 
ATOM      4  C   UNL     1      31.606  -5.406  24.231  1.00  0.00     0.021 C 
ATOM      5  C   UNL     1      33.454  -7.052  24.141  1.00  0.00     0.334 C 
ATOM      6  O   UNL     1      32.799  -8.124  24.220  1.00  0.00    -0.247 OA
ATOM      7  O   UNL     1      34.830  -6.998  24.083  1.00  0.00    -0.455 OA
ENDROOT
BRANCH   2   8
ATOM      8  C   UNL     1      33.900  -4.321  22.291  1.00  0.00     0.017 C 
BRANCH   8   9
ATOM      9  C   UNL     1      34.842  -3.168  21.804  1.00  0.00     0.031 C 
BRANCH   9  10
ATOM     10  C   UNL     1      35.652  -3.566  20.565  1.00  0.00    -0.077 C 
ATOM     11  C   UNL     1      34.872  -3.876  19.310  1.00  0.00     0.039 C 
ATOM     12  C   UNL     1      37.010  -3.696  20.495  1.00  0.00    -0.028 CG0
ATOM     13  G   UNL     1      38.051  -3.355  21.549  1.00  0.00     0.000 G0
ENDBRANCH   9  10
ENDBRANCH   8   9
ENDBRANCH   2   8
BRANCH   1  14
ATOM     14  C   UNL     1      36.451  -5.368  23.275  1.00  0.00     0.192 C 
ATOM     15  C   UNL     1      37.908  -5.115  23.487  1.00  0.00     0.096 C 
ATOM     16  O   UNL     1      36.970  -4.181  23.865  1.00  0.00    -0.362 OA
ATOM     17  C   UNL     1      38.612  -5.768  24.671  1.00  0.00     0.045 C 
BRANCH  15  18
ATOM     18  C   UNL     1      38.712  -4.569  22.280  1.00  0.00     0.042 C 
BRANCH  18  19
ATOM     19  C   UNL     1      38.057  -3.348  21.554  1.00  0.00     0.030 CG0
ATOM     20  G   UNL     1      37.026  -3.727  20.503  1.00  0.00     0.000 G0
ENDBRANCH  18  19
ENDBRANCH  15  18
ENDBRANCH   1  14
TORSDOF 0
ENDMDL
