MODEL 1
REMARK VINA RESULT:    -7.792      0.000      0.000
REMARK INTER + INTRA:          -8.754
REMARK INTER:                  -8.476
REMARK INTRA:                  -0.279
REMARK UNBOUND:                -0.279
REMARK SMILES C[C@H]1[C@@H](C)CC[C@@]2(C(=O)[O-])CC[C@]3(C)C(=CC[C@@H]4[C@@]5(C)CC[C@H](O)C(C)(C)[C@@H]5CC[C@]43C)[C@@H]12
REMARK SMILES IDX 7 1 6 2 11 3 33 4 5 5 12 6 15 7 2 8 3 9 13 10 16 11 1 12
REMARK SMILES IDX 4 13 14 14 31 15 17 16 18 17 30 18 32 19 19 20 29 21 28 22
REMARK SMILES IDX 21 23 20 24 25 25 22 26 23 27 26 28 27 29 8 30 9 31 10 32
REMARK SMILES IDX 24 33
REMARK H PARENT 24 34
REMARK Flexibility Score: inf
ROOT
ATOM      1  C   UNL     1      17.549  56.133  -1.073  1.00  0.00     0.017 C 
ATOM      2  C   UNL     1      17.077  57.597  -0.805  1.00  0.00     0.014 C 
ATOM      3  C   UNL     1      16.450  55.183  -0.549  1.00  0.00     0.014 C 
ATOM      4  C   UNL     1      17.779  55.851  -2.612  1.00  0.00     0.030 C 
ATOM      5  C   UNL     1      17.730  58.599  -1.751  1.00  0.00     0.004 C 
ATOM      6  C   UNL     1      16.848  53.709  -0.619  1.00  0.00     0.013 C 
ATOM      7  C   UNL     1      17.605  54.367  -3.025  1.00  0.00    -0.063 C 
ATOM      8  C   UNL     1      16.973  56.844  -3.529  1.00  0.00    -0.003 C 
ATOM      9  C   UNL     1      17.379  58.327  -3.235  1.00  0.00    -0.011 C 
ATOM     10  C   UNL     1      17.446  53.223  -1.997  1.00  0.00    -0.006 C 
ATOM     11  C   UNL     1      17.852  54.044  -4.319  1.00  0.00    -0.027 C 
ATOM     12  C   UNL     1      15.450  56.581  -3.543  1.00  0.00     0.008 C 
ATOM     13  C   UNL     1      16.379  59.362  -3.778  1.00  0.00     0.008 C 
ATOM     14  C   UNL     1      18.916  52.767  -1.695  1.00  0.00     0.017 C 
ATOM     15  C   UNL     1      16.548  52.048  -2.646  1.00  0.00    -0.020 C 
ATOM     16  C   UNL     1      17.545  52.713  -4.959  1.00  0.00     0.032 C 
ATOM     17  C   UNL     1      17.246  51.551  -3.974  1.00  0.00     0.006 C 
ATOM     18  C   UNL     1      16.400  50.825  -1.674  1.00  0.00     0.008 C 
ATOM     19  C   UNL     1      15.123  52.615  -2.948  1.00  0.00     0.012 C 
ATOM     20  C   UNL     1      16.633  50.251  -4.657  1.00  0.00    -0.025 C 
ATOM     21  C   UNL     1      15.819  49.551  -2.313  1.00  0.00     0.005 C 
ATOM     22  C   UNL     1      16.630  49.119  -3.560  1.00  0.00     0.003 C 
ATOM     23  C   UNL     1      17.589  49.807  -5.814  1.00  0.00     0.010 C 
ATOM     24  C   UNL     1      15.213  50.519  -5.264  1.00  0.00     0.012 C 
ATOM     25  C   UNL     1      16.348  47.648  -4.074  1.00  0.00    -0.006 C 
ATOM     26  C   UNL     1      17.303  48.403  -6.363  1.00  0.00     0.033 C 
ATOM     27  C   UNL     1      17.330  47.340  -5.253  1.00  0.00     0.120 C 
ATOM     28  C   UNL     1      16.658  46.628  -2.941  1.00  0.00     0.014 C 
ATOM     29  C   UNL     1      14.870  47.422  -4.494  1.00  0.00     0.014 C 
ENDROOT
BRANCH   1  30
ATOM     30  C   UNL     1      18.835  55.943  -0.264  1.00  0.00     0.048 C 
ATOM     31  O   UNL     1      19.955  55.851  -0.837  1.00  0.00    -0.550 OA
ATOM     32  O   UNL     1      18.804  56.002   1.125  1.00  0.00    -0.550 OA
ENDBRANCH   1  30
BRANCH  27  33
ATOM     33  O   UNL     1      17.127  46.056  -5.792  1.00  0.00    -0.393 OA
ATOM     34  H   UNL     1      17.911  45.827  -6.358  1.00  0.00     0.210 HD
ENDBRANCH  27  33
TORSDOF 2
ENDMDL
MODEL 2
REMARK VINA RESULT:    -7.754      9.804     14.482
REMARK INTER + INTRA:          -8.712
REMARK INTER:                  -8.492
REMARK INTRA:                  -0.220
REMARK UNBOUND:                -0.279
REMARK SMILES C[C@H]1[C@@H](C)CC[C@@]2(C(=O)[O-])CC[C@]3(C)C(=CC[C@@H]4[C@@]5(C)CC[C@H](O)C(C)(C)[C@@H]5CC[C@]43C)[C@@H]12
REMARK SMILES IDX 7 1 6 2 11 3 33 4 5 5 12 6 15 7 2 8 3 9 13 10 16 11 1 12
REMARK SMILES IDX 4 13 14 14 31 15 17 16 18 17 30 18 32 19 19 20 29 21 28 22
REMARK SMILES IDX 21 23 20 24 25 25 22 26 23 27 26 28 27 29 8 30 9 31 10 32
REMARK SMILES IDX 24 33
REMARK H PARENT 24 34
REMARK Flexibility Score: inf
ROOT
ATOM      1  C   UNL     1      25.535  42.688  -6.486  1.00  0.00     0.017 C 
ATOM      2  C   UNL     1      25.834  41.156  -6.462  1.00  0.00     0.014 C 
ATOM      3  C   UNL     1      25.345  43.151  -5.025  1.00  0.00     0.014 C 
ATOM      4  C   UNL     1      26.713  43.518  -7.138  1.00  0.00     0.030 C 
ATOM      5  C   UNL     1      26.598  40.695  -7.700  1.00  0.00     0.004 C 
ATOM      6  C   UNL     1      24.903  44.609  -4.911  1.00  0.00     0.013 C 
ATOM      7  C   UNL     1      26.816  44.982  -6.641  1.00  0.00    -0.063 C 
ATOM      8  C   UNL     1      28.085  42.751  -7.086  1.00  0.00    -0.003 C 
ATOM      9  C   UNL     1      27.983  41.375  -7.828  1.00  0.00    -0.011 C 
ATOM     10  C   UNL     1      25.735  45.649  -5.760  1.00  0.00    -0.006 C 
ATOM     11  C   UNL     1      27.764  45.770  -7.208  1.00  0.00    -0.027 C 
ATOM     12  C   UNL     1      28.703  42.677  -5.670  1.00  0.00     0.008 C 
ATOM     13  C   UNL     1      29.124  40.402  -7.487  1.00  0.00     0.008 C 
ATOM     14  C   UNL     1      24.728  46.272  -6.788  1.00  0.00     0.017 C 
ATOM     15  C   UNL     1      26.430  46.758  -4.815  1.00  0.00    -0.020 C 
ATOM     16  C   UNL     1      28.159  47.143  -6.725  1.00  0.00     0.032 C 
ATOM     17  C   UNL     1      27.171  47.811  -5.731  1.00  0.00     0.006 C 
ATOM     18  C   UNL     1      25.374  47.518  -3.937  1.00  0.00     0.008 C 
ATOM     19  C   UNL     1      27.442  46.042  -3.862  1.00  0.00     0.012 C 
ATOM     20  C   UNL     1      27.744  49.107  -5.006  1.00  0.00    -0.025 C 
ATOM     21  C   UNL     1      25.900  48.782  -3.233  1.00  0.00     0.005 C 
ATOM     22  C   UNL     1      26.536  49.772  -4.241  1.00  0.00     0.003 C 
ATOM     23  C   UNL     1      28.235  50.108  -6.105  1.00  0.00     0.010 C 
ATOM     24  C   UNL     1      28.953  48.771  -4.067  1.00  0.00     0.012 C 
ATOM     25  C   UNL     1      26.779  51.236  -3.689  1.00  0.00    -0.006 C 
ATOM     26  C   UNL     1      28.525  51.521  -5.584  1.00  0.00     0.033 C 
ATOM     27  C   UNL     1      27.309  52.125  -4.864  1.00  0.00     0.120 C 
ATOM     28  C   UNL     1      25.429  51.851  -3.223  1.00  0.00     0.014 C 
ATOM     29  C   UNL     1      27.740  51.277  -2.470  1.00  0.00     0.014 C 
ENDROOT
BRANCH   1  30
ATOM     30  C   UNL     1      24.226  42.856  -7.263  1.00  0.00     0.048 C 
ATOM     31  O   UNL     1      24.198  43.474  -8.362  1.00  0.00    -0.550 OA
ATOM     32  O   UNL     1      23.069  42.216  -6.833  1.00  0.00    -0.550 OA
ENDBRANCH   1  30
BRANCH  27  33
ATOM     33  O   UNL     1      27.581  53.443  -4.452  1.00  0.00    -0.393 OA
ATOM     34  H   UNL     1      28.404  53.433  -3.896  1.00  0.00     0.210 HD
ENDBRANCH  27  33
TORSDOF 2
ENDMDL
MODEL 3
REMARK VINA RESULT:    -7.657      2.075      8.288
REMARK INTER + INTRA:          -8.607
REMARK INTER:                  -8.327
REMARK INTRA:                  -0.280
REMARK UNBOUND:                -0.279
REMARK SMILES C[C@H]1[C@@H](C)CC[C@@]2(C(=O)[O-])CC[C@]3(C)C(=CC[C@@H]4[C@@]5(C)CC[C@H](O)C(C)(C)[C@@H]5CC[C@]43C)[C@@H]12
REMARK SMILES IDX 7 1 6 2 11 3 33 4 5 5 12 6 15 7 2 8 3 9 13 10 16 11 1 12
REMARK SMILES IDX 4 13 14 14 31 15 17 16 18 17 30 18 32 19 19 20 29 21 28 22
REMARK SMILES IDX 21 23 20 24 25 25 22 26 23 27 26 28 27 29 8 30 9 31 10 32
REMARK SMILES IDX 24 33
REMARK H PARENT 24 34
REMARK Flexibility Score: inf
ROOT
ATOM      1  C   UNL     1      15.351  51.000  -4.655  1.00  0.00     0.017 C 
ATOM      2  C   UNL     1      14.414  49.754  -4.569  1.00  0.00     0.014 C 
ATOM      3  C   UNL     1      14.583  52.205  -4.068  1.00  0.00     0.014 C 
ATOM      4  C   UNL     1      16.691  50.799  -3.839  1.00  0.00     0.030 C 
ATOM      5  C   UNL     1      15.194  48.443  -4.549  1.00  0.00     0.004 C 
ATOM      6  C   UNL     1      15.334  53.527  -4.222  1.00  0.00     0.013 C 
ATOM      7  C   UNL     1      17.337  52.114  -3.335  1.00  0.00    -0.063 C 
ATOM      8  C   UNL     1      16.547  49.711  -2.712  1.00  0.00    -0.003 C 
ATOM      9  C   UNL     1      16.130  48.330  -3.321  1.00  0.00    -0.011 C 
ATOM     10  C   UNL     1      16.849  53.513  -3.776  1.00  0.00    -0.006 C 
ATOM     11  C   UNL     1      18.524  52.020  -2.684  1.00  0.00    -0.027 C 
ATOM     12  C   UNL     1      15.693  50.171  -1.508  1.00  0.00     0.008 C 
ATOM     13  C   UNL     1      15.584  47.336  -2.283  1.00  0.00     0.008 C 
ATOM     14  C   UNL     1      17.683  53.825  -5.067  1.00  0.00     0.017 C 
ATOM     15  C   UNL     1      17.121  54.570  -2.586  1.00  0.00    -0.020 C 
ATOM     16  C   UNL     1      19.204  53.144  -1.943  1.00  0.00     0.032 C 
ATOM     17  C   UNL     1      18.665  54.568  -2.249  1.00  0.00     0.006 C 
ATOM     18  C   UNL     1      16.704  56.027  -2.996  1.00  0.00     0.008 C 
ATOM     19  C   UNL     1      16.281  54.147  -1.338  1.00  0.00     0.012 C 
ATOM     20  C   UNL     1      19.178  55.694  -1.248  1.00  0.00    -0.025 C 
ATOM     21  C   UNL     1      17.196  57.136  -2.049  1.00  0.00     0.005 C 
ATOM     22  C   UNL     1      18.733  57.079  -1.855  1.00  0.00     0.003 C 
ATOM     23  C   UNL     1      20.742  55.652  -1.223  1.00  0.00     0.010 C 
ATOM     24  C   UNL     1      18.653  55.468   0.211  1.00  0.00     0.012 C 
ATOM     25  C   UNL     1      19.380  58.368  -1.204  1.00  0.00    -0.006 C 
ATOM     26  C   UNL     1      21.393  56.869  -0.551  1.00  0.00     0.033 C 
ATOM     27  C   UNL     1      20.936  58.188  -1.194  1.00  0.00     0.120 C 
ATOM     28  C   UNL     1      19.069  59.613  -2.083  1.00  0.00     0.014 C 
ATOM     29  C   UNL     1      18.836  58.672   0.219  1.00  0.00     0.014 C 
ENDROOT
BRANCH   1  30
ATOM     30  C   UNL     1      15.623  51.228  -6.144  1.00  0.00     0.048 C 
ATOM     31  O   UNL     1      16.716  50.876  -6.665  1.00  0.00    -0.550 OA
ATOM     32  O   UNL     1      14.617  51.708  -6.976  1.00  0.00    -0.550 OA
ENDBRANCH   1  30
BRANCH  27  33
ATOM     33  O   UNL     1      21.594  59.282  -0.601  1.00  0.00    -0.393 OA
ATOM     34  H   UNL     1      21.138  60.115  -0.892  1.00  0.00     0.210 HD
ENDBRANCH  27  33
TORSDOF 2
ENDMDL
MODEL 4
REMARK VINA RESULT:    -7.575      9.673     13.707
REMARK INTER + INTRA:          -8.518
REMARK INTER:                  -8.235
REMARK INTRA:                  -0.283
REMARK UNBOUND:                -0.279
REMARK SMILES C[C@H]1[C@@H](C)CC[C@@]2(C(=O)[O-])CC[C@]3(C)C(=CC[C@@H]4[C@@]5(C)CC[C@H](O)C(C)(C)[C@@H]5CC[C@]43C)[C@@H]12
REMARK SMILES IDX 7 1 6 2 11 3 33 4 5 5 12 6 15 7 2 8 3 9 13 10 16 11 1 12
REMARK SMILES IDX 4 13 14 14 31 15 17 16 18 17 30 18 32 19 19 20 29 21 28 22
REMARK SMILES IDX 21 23 20 24 25 25 22 26 23 27 26 28 27 29 8 30 9 31 10 32
REMARK SMILES IDX 24 33
REMARK H PARENT 24 34
REMARK Flexibility Score: inf
ROOT
ATOM      1  C   UNL     1      27.261  46.753  -6.929  1.00  0.00     0.017 C 
ATOM      2  C   UNL     1      26.921  45.253  -7.197  1.00  0.00     0.014 C 
ATOM      3  C   UNL     1      25.934  47.488  -6.637  1.00  0.00     0.014 C 
ATOM      4  C   UNL     1      28.231  46.936  -5.693  1.00  0.00     0.030 C 
ATOM      5  C   UNL     1      28.106  44.332  -6.919  1.00  0.00     0.004 C 
ATOM      6  C   UNL     1      26.105  49.000  -6.496  1.00  0.00     0.013 C 
ATOM      7  C   UNL     1      28.103  48.303  -4.975  1.00  0.00    -0.063 C 
ATOM      8  C   UNL     1      28.177  45.713  -4.704  1.00  0.00    -0.003 C 
ATOM      9  C   UNL     1      28.562  44.385  -5.440  1.00  0.00    -0.011 C 
ATOM     10  C   UNL     1      27.270  49.476  -5.542  1.00  0.00    -0.006 C 
ATOM     11  C   UNL     1      28.952  48.552  -3.946  1.00  0.00    -0.027 C 
ATOM     12  C   UNL     1      26.873  45.639  -3.877  1.00  0.00     0.008 C 
ATOM     13  C   UNL     1      28.153  43.114  -4.676  1.00  0.00     0.008 C 
ATOM     14  C   UNL     1      28.278  50.264  -6.449  1.00  0.00     0.017 C 
ATOM     15  C   UNL     1      26.703  50.365  -4.319  1.00  0.00    -0.020 C 
ATOM     16  C   UNL     1      28.853  49.721  -2.998  1.00  0.00     0.032 C 
ATOM     17  C   UNL     1      27.923  50.877  -3.456  1.00  0.00     0.006 C 
ATOM     18  C   UNL     1      25.898  51.611  -4.831  1.00  0.00     0.008 C 
ATOM     19  C   UNL     1      25.746  49.478  -3.456  1.00  0.00     0.012 C 
ATOM     20  C   UNL     1      27.596  51.946  -2.324  1.00  0.00    -0.025 C 
ATOM     21  C   UNL     1      25.577  52.666  -3.756  1.00  0.00     0.005 C 
ATOM     22  C   UNL     1      26.858  53.147  -3.031  1.00  0.00     0.003 C 
ATOM     23  C   UNL     1      28.949  52.477  -1.744  1.00  0.00     0.010 C 
ATOM     24  C   UNL     1      26.765  51.324  -1.149  1.00  0.00     0.012 C 
ATOM     25  C   UNL     1      26.695  54.468  -2.175  1.00  0.00    -0.006 C 
ATOM     26  C   UNL     1      28.810  53.730  -0.870  1.00  0.00     0.033 C 
ATOM     27  C   UNL     1      28.101  54.871  -1.616  1.00  0.00     0.120 C 
ATOM     28  C   UNL     1      26.216  55.630  -3.090  1.00  0.00     0.014 C 
ATOM     29  C   UNL     1      25.650  54.331  -1.034  1.00  0.00     0.014 C 
ENDROOT
BRANCH   1  30
ATOM     30  C   UNL     1      27.883  47.289  -8.221  1.00  0.00     0.048 C 
ATOM     31  O   UNL     1      29.119  47.526  -8.297  1.00  0.00    -0.550 OA
ATOM     32  O   UNL     1      27.115  47.399  -9.375  1.00  0.00    -0.550 OA
ENDBRANCH   1  30
BRANCH  27  33
ATOM     33  O   UNL     1      28.042  56.027  -0.814  1.00  0.00    -0.393 OA
ATOM     34  H   UNL     1      27.942  56.815  -1.409  1.00  0.00     0.210 HD
ENDBRANCH  27  33
TORSDOF 2
ENDMDL
MODEL 5
REMARK VINA RESULT:    -7.084      9.063     13.110
REMARK INTER + INTRA:          -7.984
REMARK INTER:                  -7.700
REMARK INTRA:                  -0.285
REMARK UNBOUND:                -0.279
REMARK SMILES C[C@H]1[C@@H](C)CC[C@@]2(C(=O)[O-])CC[C@]3(C)C(=CC[C@@H]4[C@@]5(C)CC[C@H](O)C(C)(C)[C@@H]5CC[C@]43C)[C@@H]12
REMARK SMILES IDX 7 1 6 2 11 3 33 4 5 5 12 6 15 7 2 8 3 9 13 10 16 11 1 12
REMARK SMILES IDX 4 13 14 14 31 15 17 16 18 17 30 18 32 19 19 20 29 21 28 22
REMARK SMILES IDX 21 23 20 24 25 25 22 26 23 27 26 28 27 29 8 30 9 31 10 32
REMARK SMILES IDX 24 33
REMARK H PARENT 24 34
REMARK Flexibility Score: inf
ROOT
ATOM      1  C   UNL     1      26.989  47.478  -7.250  1.00  0.00     0.017 C 
ATOM      2  C   UNL     1      26.213  46.589  -8.272  1.00  0.00     0.014 C 
ATOM      3  C   UNL     1      26.690  48.954  -7.592  1.00  0.00     0.014 C 
ATOM      4  C   UNL     1      26.548  47.198  -5.757  1.00  0.00     0.030 C 
ATOM      5  C   UNL     1      25.934  45.191  -7.729  1.00  0.00     0.004 C 
ATOM      6  C   UNL     1      27.504  49.940  -6.754  1.00  0.00     0.013 C 
ATOM      7  C   UNL     1      26.743  48.398  -4.796  1.00  0.00    -0.063 C 
ATOM      8  C   UNL     1      25.111  46.563  -5.667  1.00  0.00    -0.003 C 
ATOM      9  C   UNL     1      25.048  45.214  -6.460  1.00  0.00    -0.011 C 
ATOM     10  C   UNL     1      27.508  49.680  -5.197  1.00  0.00    -0.006 C 
ATOM     11  C   UNL     1      26.446  48.206  -3.486  1.00  0.00    -0.027 C 
ATOM     12  C   UNL     1      23.971  47.556  -5.988  1.00  0.00     0.008 C 
ATOM     13  C   UNL     1      23.616  44.740  -6.761  1.00  0.00     0.008 C 
ATOM     14  C   UNL     1      28.998  49.378  -4.812  1.00  0.00     0.017 C 
ATOM     15  C   UNL     1      26.897  50.938  -4.389  1.00  0.00    -0.020 C 
ATOM     16  C   UNL     1      26.371  49.291  -2.441  1.00  0.00     0.032 C 
ATOM     17  C   UNL     1      27.009  50.649  -2.840  1.00  0.00     0.006 C 
ATOM     18  C   UNL     1      27.673  52.265  -4.705  1.00  0.00     0.008 C 
ATOM     19  C   UNL     1      25.403  51.126  -4.810  1.00  0.00     0.012 C 
ATOM     20  C   UNL     1      26.657  51.854  -1.863  1.00  0.00    -0.025 C 
ATOM     21  C   UNL     1      27.357  53.444  -3.767  1.00  0.00     0.005 C 
ATOM     22  C   UNL     1      27.576  53.064  -2.282  1.00  0.00     0.003 C 
ATOM     23  C   UNL     1      27.040  51.432  -0.405  1.00  0.00     0.010 C 
ATOM     24  C   UNL     1      25.130  52.207  -1.891  1.00  0.00     0.012 C 
ATOM     25  C   UNL     1      27.631  54.283  -1.273  1.00  0.00    -0.006 C 
ATOM     26  C   UNL     1      27.050  52.589   0.603  1.00  0.00     0.033 C 
ATOM     27  C   UNL     1      27.976  53.730   0.151  1.00  0.00     0.120 C 
ATOM     28  C   UNL     1      28.779  55.249  -1.679  1.00  0.00     0.014 C 
ATOM     29  C   UNL     1      26.322  55.118  -1.255  1.00  0.00     0.014 C 
ENDROOT
BRANCH   1  30
ATOM     30  C   UNL     1      28.475  47.181  -7.466  1.00  0.00     0.048 C 
ATOM     31  O   UNL     1      29.125  46.484  -6.641  1.00  0.00    -0.550 OA
ATOM     32  O   UNL     1      29.102  47.566  -8.647  1.00  0.00    -0.550 OA
ENDBRANCH   1  30
BRANCH  27  33
ATOM     33  O   UNL     1      28.016  54.750   1.121  1.00  0.00    -0.393 OA
ATOM     34  H   UNL     1      27.125  54.799   1.558  1.00  0.00     0.210 HD
ENDBRANCH  27  33
TORSDOF 2
ENDMDL
MODEL 6
REMARK VINA RESULT:    -6.834      2.159      4.030
REMARK INTER + INTRA:          -7.712
REMARK INTER:                  -7.426
REMARK INTRA:                  -0.286
REMARK UNBOUND:                -0.279
REMARK SMILES C[C@H]1[C@@H](C)CC[C@@]2(C(=O)[O-])CC[C@]3(C)C(=CC[C@@H]4[C@@]5(C)CC[C@H](O)C(C)(C)[C@@H]5CC[C@]43C)[C@@H]12
REMARK SMILES IDX 7 1 6 2 11 3 33 4 5 5 12 6 15 7 2 8 3 9 13 10 16 11 1 12
REMARK SMILES IDX 4 13 14 14 31 15 17 16 18 17 30 18 32 19 19 20 29 21 28 22
REMARK SMILES IDX 21 23 20 24 25 25 22 26 23 27 26 28 27 29 8 30 9 31 10 32
REMARK SMILES IDX 24 33
REMARK H PARENT 24 34
REMARK Flexibility Score: inf
ROOT
ATOM      1  C   UNL     1      18.919  57.907  -1.660  1.00  0.00     0.017 C 
ATOM      2  C   UNL     1      20.134  58.887  -1.709  1.00  0.00     0.014 C 
ATOM      3  C   UNL     1      18.575  57.516  -3.114  1.00  0.00     0.014 C 
ATOM      4  C   UNL     1      19.242  56.595  -0.839  1.00  0.00     0.030 C 
ATOM      5  C   UNL     1      20.930  58.889  -0.408  1.00  0.00     0.004 C 
ATOM      6  C   UNL     1      17.308  56.668  -3.223  1.00  0.00     0.013 C 
ATOM      7  C   UNL     1      18.414  55.355  -1.261  1.00  0.00    -0.063 C 
ATOM      8  C   UNL     1      20.786  56.305  -0.756  1.00  0.00    -0.003 C 
ATOM      9  C   UNL     1      21.542  57.503  -0.087  1.00  0.00    -0.011 C 
ATOM     10  C   UNL     1      17.219  55.436  -2.238  1.00  0.00    -0.006 C 
ATOM     11  C   UNL     1      18.593  54.211  -0.553  1.00  0.00    -0.027 C 
ATOM     12  C   UNL     1      21.400  55.817  -2.088  1.00  0.00     0.008 C 
ATOM     13  C   UNL     1      23.061  57.487  -0.326  1.00  0.00     0.008 C 
ATOM     14  C   UNL     1      15.981  55.708  -1.315  1.00  0.00     0.017 C 
ATOM     15  C   UNL     1      17.100  54.044  -3.048  1.00  0.00    -0.020 C 
ATOM     16  C   UNL     1      18.045  52.858  -0.930  1.00  0.00     0.032 C 
ATOM     17  C   UNL     1      16.928  52.866  -2.009  1.00  0.00     0.006 C 
ATOM     18  C   UNL     1      15.864  54.038  -4.016  1.00  0.00     0.008 C 
ATOM     19  C   UNL     1      18.396  53.847  -3.900  1.00  0.00     0.012 C 
ATOM     20  C   UNL     1      16.581  51.433  -2.607  1.00  0.00    -0.025 C 
ATOM     21  C   UNL     1      15.502  52.661  -4.601  1.00  0.00     0.005 C 
ATOM     22  C   UNL     1      15.284  51.608  -3.485  1.00  0.00     0.003 C 
ATOM     23  C   UNL     1      16.241  50.474  -1.418  1.00  0.00     0.010 C 
ATOM     24  C   UNL     1      17.783  50.822  -3.407  1.00  0.00     0.012 C 
ATOM     25  C   UNL     1      14.565  50.274  -3.945  1.00  0.00    -0.006 C 
ATOM     26  C   UNL     1      15.589  49.151  -1.844  1.00  0.00     0.033 C 
ATOM     27  C   UNL     1      14.321  49.384  -2.680  1.00  0.00     0.120 C 
ATOM     28  C   UNL     1      13.171  50.609  -4.546  1.00  0.00     0.014 C 
ATOM     29  C   UNL     1      15.355  49.502  -5.037  1.00  0.00     0.014 C 
ENDROOT
BRANCH   1  30
ATOM     30  C   UNL     1      17.760  58.692  -1.041  1.00  0.00     0.048 C 
ATOM     31  O   UNL     1      17.393  58.480   0.147  1.00  0.00    -0.550 OA
ATOM     32  O   UNL     1      17.177  59.747  -1.736  1.00  0.00    -0.550 OA
ENDBRANCH   1  30
BRANCH  27  33
ATOM     33  O   UNL     1      13.709  48.158  -3.004  1.00  0.00    -0.393 OA
ATOM     34  H   UNL     1      14.408  47.540  -3.344  1.00  0.00     0.210 HD
ENDBRANCH  27  33
TORSDOF 2
ENDMDL
MODEL 7
REMARK VINA RESULT:    -6.501      2.534      4.276
REMARK INTER + INTRA:          -7.350
REMARK INTER:                  -7.067
REMARK INTRA:                  -0.282
REMARK UNBOUND:                -0.279
REMARK SMILES C[C@H]1[C@@H](C)CC[C@@]2(C(=O)[O-])CC[C@]3(C)C(=CC[C@@H]4[C@@]5(C)CC[C@H](O)C(C)(C)[C@@H]5CC[C@]43C)[C@@H]12
REMARK SMILES IDX 7 1 6 2 11 3 33 4 5 5 12 6 15 7 2 8 3 9 13 10 16 11 1 12
REMARK SMILES IDX 4 13 14 14 31 15 17 16 18 17 30 18 32 19 19 20 29 21 28 22
REMARK SMILES IDX 21 23 20 24 25 25 22 26 23 27 26 28 27 29 8 30 9 31 10 32
REMARK SMILES IDX 24 33
REMARK H PARENT 24 34
REMARK Flexibility Score: inf
ROOT
ATOM      1  C   UNL     1      20.341  56.476  -1.165  1.00  0.00     0.017 C 
ATOM      2  C   UNL     1      21.680  57.277  -1.236  1.00  0.00     0.014 C 
ATOM      3  C   UNL     1      19.437  56.974  -2.315  1.00  0.00     0.014 C 
ATOM      4  C   UNL     1      20.565  54.919  -1.327  1.00  0.00     0.030 C 
ATOM      5  C   UNL     1      22.839  56.526  -0.588  1.00  0.00     0.004 C 
ATOM      6  C   UNL     1      18.032  56.373  -2.275  1.00  0.00     0.013 C 
ATOM      7  C   UNL     1      19.349  54.153  -1.906  1.00  0.00    -0.063 C 
ATOM      8  C   UNL     1      21.913  54.582  -2.064  1.00  0.00    -0.003 C 
ATOM      9  C   UNL     1      23.136  55.178  -1.288  1.00  0.00    -0.011 C 
ATOM     10  C   UNL     1      17.960  54.805  -2.098  1.00  0.00    -0.006 C 
ATOM     11  C   UNL     1      19.449  52.804  -2.009  1.00  0.00    -0.027 C 
ATOM     12  C   UNL     1      21.891  54.900  -3.577  1.00  0.00     0.008 C 
ATOM     13  C   UNL     1      24.425  55.248  -2.125  1.00  0.00     0.008 C 
ATOM     14  C   UNL     1      17.223  54.557  -0.736  1.00  0.00     0.017 C 
ATOM     15  C   UNL     1      17.214  54.106  -3.348  1.00  0.00    -0.020 C 
ATOM     16  C   UNL     1      18.471  51.910  -2.729  1.00  0.00     0.032 C 
ATOM     17  C   UNL     1      17.100  52.555  -3.067  1.00  0.00     0.006 C 
ATOM     18  C   UNL     1      15.769  54.681  -3.559  1.00  0.00     0.008 C 
ATOM     19  C   UNL     1      18.047  54.375  -4.644  1.00  0.00     0.012 C 
ATOM     20  C   UNL     1      16.208  51.712  -4.080  1.00  0.00    -0.025 C 
ATOM     21  C   UNL     1      14.882  53.877  -4.527  1.00  0.00     0.005 C 
ATOM     22  C   UNL     1      14.785  52.389  -4.107  1.00  0.00     0.003 C 
ATOM     23  C   UNL     1      16.049  50.264  -3.506  1.00  0.00     0.010 C 
ATOM     24  C   UNL     1      16.865  51.611  -5.500  1.00  0.00     0.012 C 
ATOM     25  C   UNL     1      13.630  51.563  -4.807  1.00  0.00    -0.006 C 
ATOM     26  C   UNL     1      14.969  49.426  -4.203  1.00  0.00     0.033 C 
ATOM     27  C   UNL     1      13.602  50.127  -4.183  1.00  0.00     0.120 C 
ATOM     28  C   UNL     1      12.255  52.222  -4.504  1.00  0.00     0.014 C 
ATOM     29  C   UNL     1      13.773  51.505  -6.353  1.00  0.00     0.014 C 
ENDROOT
BRANCH   1  30
ATOM     30  C   UNL     1      19.708  56.821   0.186  1.00  0.00     0.048 C 
ATOM     31  O   UNL     1      19.686  55.980   1.125  1.00  0.00    -0.550 OA
ATOM     32  O   UNL     1      19.264  58.113   0.442  1.00  0.00    -0.550 OA
ENDBRANCH   1  30
BRANCH  27  33
ATOM     33  O   UNL     1      12.618  49.311  -4.772  1.00  0.00    -0.393 OA
ATOM     34  H   UNL     1      13.025  48.841  -5.546  1.00  0.00     0.210 HD
ENDBRANCH  27  33
TORSDOF 2
ENDMDL
MODEL 8
REMARK VINA RESULT:    -6.393      9.398     13.282
REMARK INTER + INTRA:          -7.233
REMARK INTER:                  -7.051
REMARK INTRA:                  -0.182
REMARK UNBOUND:                -0.279
REMARK SMILES C[C@H]1[C@@H](C)CC[C@@]2(C(=O)[O-])CC[C@]3(C)C(=CC[C@@H]4[C@@]5(C)CC[C@H](O)C(C)(C)[C@@H]5CC[C@]43C)[C@@H]12
REMARK SMILES IDX 7 1 6 2 11 3 33 4 5 5 12 6 15 7 2 8 3 9 13 10 16 11 1 12
REMARK SMILES IDX 4 13 14 14 31 15 17 16 18 17 30 18 32 19 19 20 29 21 28 22
REMARK SMILES IDX 21 23 20 24 25 25 22 26 23 27 26 28 27 29 8 30 9 31 10 32
REMARK SMILES IDX 24 33
REMARK H PARENT 24 34
REMARK Flexibility Score: inf
ROOT
ATOM      1  C   UNL     1      27.063  48.871  -6.088  1.00  0.00     0.017 C 
ATOM      2  C   UNL     1      26.828  47.372  -6.457  1.00  0.00     0.014 C 
ATOM      3  C   UNL     1      25.749  49.416  -5.486  1.00  0.00     0.014 C 
ATOM      4  C   UNL     1      28.225  49.053  -5.031  1.00  0.00     0.030 C 
ATOM      5  C   UNL     1      28.128  46.575  -6.498  1.00  0.00     0.004 C 
ATOM      6  C   UNL     1      25.793  50.918  -5.211  1.00  0.00     0.013 C 
ATOM      7  C   UNL     1      28.101  50.324  -4.155  1.00  0.00    -0.063 C 
ATOM      8  C   UNL     1      28.479  47.747  -4.191  1.00  0.00    -0.003 C 
ATOM      9  C   UNL     1      28.847  46.546  -5.126  1.00  0.00    -0.011 C 
ATOM     10  C   UNL     1      27.065  51.438  -4.432  1.00  0.00    -0.006 C 
ATOM     11  C   UNL     1      29.099  50.577  -3.271  1.00  0.00    -0.027 C 
ATOM     12  C   UNL     1      27.368  47.446  -3.159  1.00  0.00     0.008 C 
ATOM     13  C   UNL     1      28.717  45.172  -4.448  1.00  0.00     0.008 C 
ATOM     14  C   UNL     1      27.801  52.418  -5.409  1.00  0.00     0.017 C 
ATOM     15  C   UNL     1      26.653  52.139  -3.037  1.00  0.00    -0.020 C 
ATOM     16  C   UNL     1      29.066  51.634  -2.197  1.00  0.00     0.032 C 
ATOM     17  C   UNL     1      27.958  52.710  -2.352  1.00  0.00     0.006 C 
ATOM     18  C   UNL     1      25.647  53.324  -3.256  1.00  0.00     0.008 C 
ATOM     19  C   UNL     1      25.968  51.072  -2.122  1.00  0.00     0.012 C 
ATOM     20  C   UNL     1      27.746  53.626  -1.068  1.00  0.00    -0.025 C 
ATOM     21  C   UNL     1      25.432  54.231  -2.031  1.00  0.00     0.005 C 
ATOM     22  C   UNL     1      26.774  54.791  -1.495  1.00  0.00     0.003 C 
ATOM     23  C   UNL     1      29.125  54.257  -0.682  1.00  0.00     0.010 C 
ATOM     24  C   UNL     1      27.216  52.806   0.159  1.00  0.00     0.012 C 
ATOM     25  C   UNL     1      26.645  56.001  -0.482  1.00  0.00    -0.006 C 
ATOM     26  C   UNL     1      29.031  55.400   0.337  1.00  0.00     0.033 C 
ATOM     27  C   UNL     1      28.084  56.513  -0.140  1.00  0.00     0.120 C 
ATOM     28  C   UNL     1      25.890  57.178  -1.163  1.00  0.00     0.014 C 
ATOM     29  C   UNL     1      25.852  55.639   0.803  1.00  0.00     0.014 C 
ENDROOT
BRANCH   1  30
ATOM     30  C   UNL     1      27.375  49.592  -7.403  1.00  0.00     0.048 C 
ATOM     31  O   UNL     1      26.451  49.929  -8.193  1.00  0.00    -0.550 OA
ATOM     32  O   UNL     1      28.672  50.004  -7.685  1.00  0.00    -0.550 OA
ENDBRANCH   1  30
BRANCH  27  33
ATOM     33  O   UNL     1      28.064  57.576   0.783  1.00  0.00    -0.393 OA
ATOM     34  H   UNL     1      28.202  58.424   0.285  1.00  0.00     0.210 HD
ENDBRANCH  27  33
TORSDOF 2
ENDMDL
MODEL 9
REMARK VINA RESULT:    -6.375      4.998      8.113
REMARK INTER + INTRA:          -7.212
REMARK INTER:                  -6.931
REMARK INTRA:                  -0.282
REMARK UNBOUND:                -0.279
REMARK SMILES C[C@H]1[C@@H](C)CC[C@@]2(C(=O)[O-])CC[C@]3(C)C(=CC[C@@H]4[C@@]5(C)CC[C@H](O)C(C)(C)[C@@H]5CC[C@]43C)[C@@H]12
REMARK SMILES IDX 7 1 6 2 11 3 33 4 5 5 12 6 15 7 2 8 3 9 13 10 16 11 1 12
REMARK SMILES IDX 4 13 14 14 31 15 17 16 18 17 30 18 32 19 19 20 29 21 28 22
REMARK SMILES IDX 21 23 20 24 25 25 22 26 23 27 26 28 27 29 8 30 9 31 10 32
REMARK SMILES IDX 24 33
REMARK H PARENT 24 34
REMARK Flexibility Score: inf
ROOT
ATOM      1  C   UNL     1      18.193  55.298  -2.399  1.00  0.00     0.017 C 
ATOM      2  C   UNL     1      17.029  55.765  -3.330  1.00  0.00     0.014 C 
ATOM      3  C   UNL     1      19.025  54.255  -3.177  1.00  0.00     0.014 C 
ATOM      4  C   UNL     1      19.137  56.494  -1.975  1.00  0.00     0.030 C 
ATOM      5  C   UNL     1      16.510  57.150  -2.958  1.00  0.00     0.004 C 
ATOM      6  C   UNL     1      20.118  53.606  -2.328  1.00  0.00     0.013 C 
ATOM      7  C   UNL     1      20.590  56.075  -1.638  1.00  0.00    -0.063 C 
ATOM      8  C   UNL     1      19.062  57.701  -2.981  1.00  0.00    -0.003 C 
ATOM      9  C   UNL     1      17.597  58.245  -3.090  1.00  0.00    -0.011 C 
ATOM     10  C   UNL     1      21.029  54.598  -1.504  1.00  0.00    -0.006 C 
ATOM     11  C   UNL     1      21.436  57.042  -1.203  1.00  0.00    -0.027 C 
ATOM     12  C   UNL     1      19.751  57.424  -4.338  1.00  0.00     0.008 C 
ATOM     13  C   UNL     1      17.357  59.134  -4.322  1.00  0.00     0.008 C 
ATOM     14  C   UNL     1      20.784  54.257   0.007  1.00  0.00     0.017 C 
ATOM     15  C   UNL     1      22.580  54.465  -1.931  1.00  0.00    -0.020 C 
ATOM     16  C   UNL     1      22.925  56.881  -1.023  1.00  0.00     0.032 C 
ATOM     17  C   UNL     1      23.443  55.418  -1.013  1.00  0.00     0.006 C 
ATOM     18  C   UNL     1      23.107  52.996  -1.757  1.00  0.00     0.008 C 
ATOM     19  C   UNL     1      22.722  54.867  -3.435  1.00  0.00     0.012 C 
ATOM     20  C   UNL     1      25.024  55.279  -1.128  1.00  0.00    -0.025 C 
ATOM     21  C   UNL     1      24.634  52.836  -1.855  1.00  0.00     0.005 C 
ATOM     22  C   UNL     1      25.369  53.765  -0.856  1.00  0.00     0.003 C 
ATOM     23  C   UNL     1      25.676  56.139   0.005  1.00  0.00     0.010 C 
ATOM     24  C   UNL     1      25.561  55.790  -2.509  1.00  0.00     0.012 C 
ATOM     25  C   UNL     1      26.897  53.428  -0.617  1.00  0.00    -0.006 C 
ATOM     26  C   UNL     1      27.171  55.866   0.221  1.00  0.00     0.033 C 
ATOM     27  C   UNL     1      27.444  54.380   0.499  1.00  0.00     0.120 C 
ATOM     28  C   UNL     1      27.037  51.973  -0.088  1.00  0.00     0.014 C 
ATOM     29  C   UNL     1      27.751  53.522  -1.911  1.00  0.00     0.014 C 
ENDROOT
BRANCH   1  30
ATOM     30  C   UNL     1      17.532  54.640  -1.185  1.00  0.00     0.048 C 
ATOM     31  O   UNL     1      17.543  55.202  -0.056  1.00  0.00    -0.550 OA
ATOM     32  O   UNL     1      16.792  53.473  -1.337  1.00  0.00    -0.550 OA
ENDBRANCH   1  30
BRANCH  27  33
ATOM     33  O   UNL     1      28.812  54.167   0.755  1.00  0.00    -0.393 OA
ATOM     34  H   UNL     1      29.072  53.294   0.358  1.00  0.00     0.210 HD
ENDBRANCH  27  33
TORSDOF 2
ENDMDL
