MODEL 1
REMARK VINA RESULT:    -3.540      0.000      0.000
REMARK INTER + INTRA:          -4.554
REMARK INTER:                  -4.989
REMARK INTRA:                   0.435
REMARK UNBOUND:                 0.435
REMARK SMILES CC1=CCC(=C(C)C)C(=O)CC(C)=CCC1
REMARK SMILES IDX 12 1 14 2 13 3 15 4 16 5 2 6 1 7 3 8 11 10 9 11 10 12 5 13
REMARK SMILES IDX 6 14 7 15 8 16 4 17
REMARK H PARENT
REMARK Flexibility Score: 60.00
ROOT
ATOM      1  C   UNL     1      60.629 -18.565  -0.324  1.00  0.00    -0.070 C 
ATOM      2  C   UNL     1      60.343 -19.475   0.639  1.00  0.00    -0.027 C 
ATOM      3  C   UNL     1      61.913 -18.748  -1.095  1.00  0.00     0.039 C 
ENDROOT
BRANCH   2   4
ATOM      4  C   UNL     1      59.075 -19.546   1.453  1.00  0.00     0.032 C 
BRANCH   4   5
ATOM      5  C   UNL     1      57.908 -20.186   0.677  1.00  0.00     0.034 C 
BRANCH   5   6
ATOM      6  C   UNL     1      56.671 -19.310   0.677  1.00  0.00    -0.077 C 
ATOM      7  C   UNL     1      55.941 -19.101   1.980  1.00  0.00     0.039 C 
ATOM      8  C   UNL     1      56.166 -18.725  -0.433  1.00  0.00    -0.023 CG0
ATOM      9  G   UNL     1      56.730 -18.844  -1.828  1.00  0.00     0.000 G0
ENDBRANCH   5   6
ENDBRANCH   4   5
ENDBRANCH   2   4
BRANCH   1  10
ATOM     10  C   UNL     1      59.702 -17.424  -0.708  1.00  0.00     0.111 C 
BRANCH  10  11
ATOM     11  C   UNL     1      59.010 -17.689  -2.022  1.00  0.00     0.163 C 
ATOM     12  O   UNL     1      59.724 -17.955  -3.026  1.00  0.00    -0.294 OA
BRANCH  11  13
ATOM     13  C   UNL     1      57.523 -17.593  -2.168  1.00  0.00    -0.002 C 
ATOM     14  C   UNL     1      56.919 -16.460  -2.639  1.00  0.00    -0.069 C 
ATOM     15  C   UNL     1      55.414 -16.357  -2.749  1.00  0.00     0.039 C 
ATOM     16  C   UNL     1      57.725 -15.268  -3.107  1.00  0.00     0.039 C 
BRANCH  13  17
ATOM     17  C   UNL     1      56.716 -18.836  -1.843  1.00  0.00     0.066 CG0
ATOM     18  G   UNL     1      56.157 -18.734  -0.445  1.00  0.00     0.000 G0
ENDBRANCH  13  17
ENDBRANCH  11  13
ENDBRANCH  10  11
ENDBRANCH   1  10
TORSDOF 0
ENDMDL
MODEL 2
REMARK VINA RESULT:    -3.464      1.547      3.630
REMARK INTER + INTRA:          -4.447
REMARK INTER:                  -4.805
REMARK INTRA:                   0.358
REMARK UNBOUND:                 0.435
REMARK SMILES CC1=CCC(=C(C)C)C(=O)CC(C)=CCC1
REMARK SMILES IDX 12 1 14 2 13 3 15 4 16 5 2 6 1 7 3 8 11 10 9 11 10 12 5 13
REMARK SMILES IDX 6 14 7 15 8 16 4 17
REMARK H PARENT
REMARK Flexibility Score: 60.00
ROOT
ATOM      1  C   UNL     1      60.814 -18.965   0.160  1.00  0.00    -0.070 C 
ATOM      2  C   UNL     1      61.433 -18.589  -0.985  1.00  0.00    -0.027 C 
ATOM      3  C   UNL     1      61.497 -20.008   1.010  1.00  0.00     0.039 C 
ENDROOT
BRANCH   2   4
ATOM      4  C   UNL     1      60.987 -17.495  -1.925  1.00  0.00     0.032 C 
BRANCH   4   5
ATOM      5  C   UNL     1      59.727 -17.877  -2.722  1.00  0.00     0.034 C 
BRANCH   5   6
ATOM      6  C   UNL     1      58.601 -16.880  -2.528  1.00  0.00    -0.077 C 
ATOM      7  C   UNL     1      58.857 -15.436  -2.877  1.00  0.00     0.039 C 
ATOM      8  C   UNL     1      57.386 -17.206  -2.034  1.00  0.00    -0.023 CG0
ATOM      9  G   UNL     1      56.952 -18.584  -1.596  1.00  0.00     0.000 G0
ENDBRANCH   5   6
ENDBRANCH   4   5
ENDBRANCH   2   4
BRANCH   1  10
ATOM     10  C   UNL     1      59.517 -18.350   0.659  1.00  0.00     0.111 C 
BRANCH  10  11
ATOM     11  C   UNL     1      58.343 -19.268   0.430  1.00  0.00     0.163 C 
ATOM     12  O   UNL     1      58.501 -20.500   0.649  1.00  0.00    -0.294 OA
BRANCH  11  13
ATOM     13  C   UNL     1      57.034 -18.766  -0.095  1.00  0.00    -0.002 C 
ATOM     14  C   UNL     1      56.010 -18.417   0.741  1.00  0.00    -0.069 C 
ATOM     15  C   UNL     1      54.677 -17.947   0.202  1.00  0.00     0.039 C 
ATOM     16  C   UNL     1      56.169 -18.450   2.245  1.00  0.00     0.039 C 
BRANCH  13  17
ATOM     17  C   UNL     1      56.916 -18.588  -1.598  1.00  0.00     0.066 CG0
ATOM     18  G   UNL     1      57.396 -17.211  -1.990  1.00  0.00     0.000 G0
ENDBRANCH  13  17
ENDBRANCH  11  13
ENDBRANCH  10  11
ENDBRANCH   1  10
TORSDOF 0
ENDMDL
MODEL 3
REMARK VINA RESULT:    -3.420      1.970      3.823
REMARK INTER + INTRA:          -4.385
REMARK INTER:                  -4.789
REMARK INTRA:                   0.404
REMARK UNBOUND:                 0.435
REMARK SMILES CC1=CCC(=C(C)C)C(=O)CC(C)=CCC1
REMARK SMILES IDX 12 1 14 2 13 3 15 4 16 5 2 6 1 7 3 8 11 10 9 11 10 12 5 13
REMARK SMILES IDX 6 14 7 15 8 16 4 17
REMARK H PARENT
REMARK Flexibility Score: 60.00
ROOT
ATOM      1  C   UNL     1      57.455 -20.072   1.328  1.00  0.00    -0.070 C 
ATOM      2  C   UNL     1      58.801 -20.118   1.472  1.00  0.00    -0.027 C 
ATOM      3  C   UNL     1      56.614 -20.343   2.552  1.00  0.00     0.039 C 
ENDROOT
BRANCH   2   4
ATOM      4  C   UNL     1      59.824 -19.779   0.416  1.00  0.00     0.032 C 
BRANCH   4   5
ATOM      5  C   UNL     1      60.234 -18.295   0.443  1.00  0.00     0.034 C 
BRANCH   5   6
ATOM      6  C   UNL     1      60.312 -17.696  -0.948  1.00  0.00    -0.077 C 
ATOM      7  C   UNL     1      61.519 -18.011  -1.795  1.00  0.00     0.039 C 
ATOM      8  C   UNL     1      59.373 -16.872  -1.464  1.00  0.00    -0.023 CG0
ATOM      9  G   UNL     1      58.119 -16.413  -0.761  1.00  0.00     0.000 G0
ENDBRANCH   5   6
ENDBRANCH   4   5
ENDBRANCH   2   4
BRANCH   1  10
ATOM     10  C   UNL     1      56.757 -19.701   0.030  1.00  0.00     0.111 C 
BRANCH  10  11
ATOM     11  C   UNL     1      56.438 -18.227  -0.026  1.00  0.00     0.163 C 
ATOM     12  O   UNL     1      55.680 -17.750   0.861  1.00  0.00    -0.294 OA
BRANCH  11  13
ATOM     13  C   UNL     1      56.949 -17.347  -1.123  1.00  0.00    -0.002 C 
ATOM     14  C   UNL     1      56.367 -17.328  -2.360  1.00  0.00    -0.069 C 
ATOM     15  C   UNL     1      56.913 -16.464  -3.476  1.00  0.00     0.039 C 
ATOM     16  C   UNL     1      55.127 -18.141  -2.665  1.00  0.00     0.039 C 
BRANCH  13  17
ATOM     17  C   UNL     1      58.099 -16.417  -0.783  1.00  0.00     0.066 CG0
ATOM     18  G   UNL     1      59.359 -16.884  -1.470  1.00  0.00     0.000 G0
ENDBRANCH  13  17
ENDBRANCH  11  13
ENDBRANCH  10  11
ENDBRANCH   1  10
TORSDOF 0
ENDMDL
MODEL 4
REMARK VINA RESULT:    -3.329      1.601      4.064
REMARK INTER + INTRA:          -4.256
REMARK INTER:                  -4.605
REMARK INTRA:                   0.350
REMARK UNBOUND:                 0.435
REMARK SMILES CC1=CCC(=C(C)C)C(=O)CC(C)=CCC1
REMARK SMILES IDX 12 1 14 2 13 3 15 4 16 5 2 6 1 7 3 8 11 10 9 11 10 12 5 13
REMARK SMILES IDX 6 14 7 15 8 16 4 17
REMARK H PARENT
REMARK Flexibility Score: 60.00
ROOT
ATOM      1  C   UNL     1      60.431 -17.847  -1.390  1.00  0.00    -0.070 C 
ATOM      2  C   UNL     1      59.525 -17.622  -2.372  1.00  0.00    -0.027 C 
ATOM      3  C   UNL     1      61.877 -17.993  -1.798  1.00  0.00     0.039 C 
ENDROOT
BRANCH   2   4
ATOM      4  C   UNL     1      58.054 -17.341  -2.184  1.00  0.00     0.032 C 
BRANCH   4   5
ATOM      5  C   UNL     1      57.252 -18.604  -1.823  1.00  0.00     0.034 C 
BRANCH   5   6
ATOM      6  C   UNL     1      56.454 -18.432  -0.545  1.00  0.00    -0.077 C 
ATOM      7  C   UNL     1      55.415 -17.342  -0.492  1.00  0.00     0.039 C 
ATOM      8  C   UNL     1      56.641 -19.184   0.563  1.00  0.00    -0.023 CG0
ATOM      9  G   UNL     1      57.653 -20.293   0.717  1.00  0.00     0.000 G0
ENDBRANCH   5   6
ENDBRANCH   4   5
ENDBRANCH   2   4
BRANCH   1  10
ATOM     10  C   UNL     1      60.080 -17.892   0.087  1.00  0.00     0.111 C 
BRANCH  10  11
ATOM     11  C   UNL     1      60.016 -19.310   0.599  1.00  0.00     0.163 C 
ATOM     12  O   UNL     1      60.928 -20.108   0.252  1.00  0.00    -0.294 OA
BRANCH  11  13
ATOM     13  C   UNL     1      58.885 -19.795   1.451  1.00  0.00    -0.002 C 
ATOM     14  C   UNL     1      58.933 -19.732   2.816  1.00  0.00    -0.069 C 
ATOM     15  C   UNL     1      57.802 -20.259   3.670  1.00  0.00     0.039 C 
ATOM     16  C   UNL     1      60.103 -19.100   3.539  1.00  0.00     0.039 C 
BRANCH  13  17
ATOM     17  C   UNL     1      57.644 -20.292   0.732  1.00  0.00     0.066 CG0
ATOM     18  G   UNL     1      56.659 -19.161   0.566  1.00  0.00     0.000 G0
ENDBRANCH  13  17
ENDBRANCH  11  13
ENDBRANCH  10  11
ENDBRANCH   1  10
TORSDOF 0
ENDMDL
MODEL 5
REMARK VINA RESULT:    -3.306      1.566      4.318
REMARK INTER + INTRA:          -4.223
REMARK INTER:                  -4.694
REMARK INTRA:                   0.471
REMARK UNBOUND:                 0.435
REMARK SMILES CC1=CCC(=C(C)C)C(=O)CC(C)=CCC1
REMARK SMILES IDX 12 1 14 2 13 3 15 4 16 5 2 6 1 7 3 8 11 10 9 11 10 12 5 13
REMARK SMILES IDX 6 14 7 15 8 16 4 17
REMARK H PARENT
REMARK Flexibility Score: 60.00
ROOT
ATOM      1  C   UNL     1      57.651 -15.938  -4.383  1.00  0.00    -0.070 C 
ATOM      2  C   UNL     1      56.308 -16.095  -4.466  1.00  0.00    -0.027 C 
ATOM      3  C   UNL     1      58.248 -14.707  -5.021  1.00  0.00     0.039 C 
ENDROOT
BRANCH   2   4
ATOM      4  C   UNL     1      55.494 -17.186  -3.813  1.00  0.00     0.032 C 
BRANCH   4   5
ATOM      5  C   UNL     1      55.407 -17.026  -2.284  1.00  0.00     0.034 C 
BRANCH   5   6
ATOM      6  C   UNL     1      55.622 -18.338  -1.557  1.00  0.00    -0.077 C 
ATOM      7  C   UNL     1      54.693 -19.486  -1.861  1.00  0.00     0.039 C 
ATOM      8  C   UNL     1      56.585 -18.532  -0.627  1.00  0.00    -0.023 CG0
ATOM      9  G   UNL     1      57.583 -17.500  -0.162  1.00  0.00     0.000 G0
ENDBRANCH   5   6
ENDBRANCH   4   5
ENDBRANCH   2   4
BRANCH   1  10
ATOM     10  C   UNL     1      58.568 -16.889  -3.633  1.00  0.00     0.111 C 
BRANCH  10  11
ATOM     11  C   UNL     1      58.747 -16.469  -2.195  1.00  0.00     0.163 C 
ATOM     12  O   UNL     1      58.902 -15.242  -1.951  1.00  0.00    -0.294 OA
BRANCH  11  13
ATOM     13  C   UNL     1      58.798 -17.464  -1.078  1.00  0.00    -0.002 C 
ATOM     14  C   UNL     1      59.895 -18.252  -0.867  1.00  0.00    -0.069 C 
ATOM     15  C   UNL     1      59.924 -19.283   0.241  1.00  0.00     0.039 C 
ATOM     16  C   UNL     1      61.146 -18.110  -1.705  1.00  0.00     0.039 C 
BRANCH  13  17
ATOM     17  C   UNL     1      57.606 -17.509  -0.140  1.00  0.00     0.066 CG0
ATOM     18  G   UNL     1      56.605 -18.526  -0.630  1.00  0.00     0.000 G0
ENDBRANCH  13  17
ENDBRANCH  11  13
ENDBRANCH  10  11
ENDBRANCH   1  10
TORSDOF 0
ENDMDL
MODEL 6
REMARK VINA RESULT:    -3.258      2.371      5.386
REMARK INTER + INTRA:          -4.156
REMARK INTER:                  -4.565
REMARK INTRA:                   0.410
REMARK UNBOUND:                 0.435
REMARK SMILES CC1=CCC(=C(C)C)C(=O)CC(C)=CCC1
REMARK SMILES IDX 12 1 14 2 13 3 15 4 16 5 2 6 1 7 3 8 11 10 9 11 10 12 5 13
REMARK SMILES IDX 6 14 7 15 8 16 4 17
REMARK H PARENT
REMARK Flexibility Score: 60.00
ROOT
ATOM      1  C   UNL     1      55.894 -18.415  -2.106  1.00  0.00    -0.070 C 
ATOM      2  C   UNL     1      55.127 -17.746  -3.001  1.00  0.00    -0.027 C 
ATOM      3  C   UNL     1      55.186 -19.140  -0.988  1.00  0.00     0.039 C 
ENDROOT
BRANCH   2   4
ATOM      4  C   UNL     1      55.613 -17.047  -4.247  1.00  0.00     0.032 C 
BRANCH   4   5
ATOM      5  C   UNL     1      56.227 -15.666  -3.950  1.00  0.00     0.034 C 
BRANCH   5   6
ATOM      6  C   UNL     1      57.657 -15.557  -4.442  1.00  0.00    -0.077 C 
ATOM      7  C   UNL     1      57.908 -15.612  -5.927  1.00  0.00     0.039 C 
ATOM      8  C   UNL     1      58.727 -15.440  -3.623  1.00  0.00    -0.023 CG0
ATOM      9  G   UNL     1      58.683 -15.404  -2.114  1.00  0.00     0.000 G0
ENDBRANCH   5   6
ENDBRANCH   4   5
ENDBRANCH   2   4
BRANCH   1  10
ATOM     10  C   UNL     1      57.406 -18.527  -2.207  1.00  0.00     0.111 C 
BRANCH  10  11
ATOM     11  C   UNL     1      58.095 -17.695  -1.153  1.00  0.00     0.163 C 
ATOM     12  O   UNL     1      57.726 -17.829   0.045  1.00  0.00    -0.294 OA
BRANCH  11  13
ATOM     13  C   UNL     1      59.151 -16.693  -1.500  1.00  0.00    -0.002 C 
ATOM     14  C   UNL     1      60.481 -16.965  -1.339  1.00  0.00    -0.069 C 
ATOM     15  C   UNL     1      61.542 -15.933  -1.656  1.00  0.00     0.039 C 
ATOM     16  C   UNL     1      60.962 -18.321  -0.871  1.00  0.00     0.039 C 
BRANCH  13  17
ATOM     17  C   UNL     1      58.686 -15.384  -2.113  1.00  0.00     0.066 CG0
ATOM     18  G   UNL     1      58.739 -15.475  -3.618  1.00  0.00     0.000 G0
ENDBRANCH  13  17
ENDBRANCH  11  13
ENDBRANCH  10  11
ENDBRANCH   1  10
TORSDOF 0
ENDMDL
MODEL 7
REMARK VINA RESULT:    -3.042      2.387      5.249
REMARK INTER + INTRA:          -3.852
REMARK INTER:                  -4.473
REMARK INTRA:                   0.620
REMARK UNBOUND:                 0.435
REMARK SMILES CC1=CCC(=C(C)C)C(=O)CC(C)=CCC1
REMARK SMILES IDX 12 1 14 2 13 3 15 4 16 5 2 6 1 7 3 8 11 10 9 11 10 12 5 13
REMARK SMILES IDX 6 14 7 15 8 16 4 17
REMARK H PARENT
REMARK Flexibility Score: 60.00
ROOT
ATOM      1  C   UNL     1      57.806 -17.837  -1.913  1.00  0.00    -0.070 C 
ATOM      2  C   UNL     1      58.985 -17.455  -2.459  1.00  0.00    -0.027 C 
ATOM      3  C   UNL     1      56.556 -17.153  -2.408  1.00  0.00     0.039 C 
ENDROOT
BRANCH   2   4
ATOM      4  C   UNL     1      60.336 -18.073  -2.192  1.00  0.00     0.032 C 
BRANCH   4   5
ATOM      5  C   UNL     1      61.373 -17.044  -1.707  1.00  0.00     0.034 C 
BRANCH   5   6
ATOM      6  C   UNL     1      60.924 -16.326  -0.449  1.00  0.00    -0.077 C 
ATOM      7  C   UNL     1      60.985 -14.820  -0.425  1.00  0.00     0.039 C 
ATOM      8  C   UNL     1      60.496 -16.961   0.665  1.00  0.00    -0.023 CG0
ATOM      9  G   UNL     1      60.399 -18.456   0.847  1.00  0.00     0.000 G0
ENDBRANCH   5   6
ENDBRANCH   4   5
ENDBRANCH   2   4
BRANCH   1  10
ATOM     10  C   UNL     1      57.672 -18.952  -0.889  1.00  0.00     0.111 C 
BRANCH  10  11
ATOM     11  C   UNL     1      57.857 -18.439   0.517  1.00  0.00     0.163 C 
ATOM     12  O   UNL     1      57.018 -17.609   0.961  1.00  0.00    -0.294 OA
BRANCH  11  13
ATOM     13  C   UNL     1      59.022 -18.847   1.363  1.00  0.00    -0.002 C 
ATOM     14  C   UNL     1      58.863 -19.595   2.496  1.00  0.00    -0.069 C 
ATOM     15  C   UNL     1      60.042 -19.971   3.366  1.00  0.00     0.039 C 
ATOM     16  C   UNL     1      57.506 -20.116   2.916  1.00  0.00     0.039 C 
BRANCH  13  17
ATOM     17  C   UNL     1      60.403 -18.457   0.868  1.00  0.00     0.066 CG0
ATOM     18  G   UNL     1      60.472 -16.963   0.664  1.00  0.00     0.000 G0
ENDBRANCH  13  17
ENDBRANCH  11  13
ENDBRANCH  10  11
ENDBRANCH   1  10
TORSDOF 0
ENDMDL
MODEL 8
REMARK VINA RESULT:    -3.032      1.448      1.852
REMARK INTER + INTRA:          -3.838
REMARK INTER:                  -4.462
REMARK INTRA:                   0.624
REMARK UNBOUND:                 0.435
REMARK SMILES CC1=CCC(=C(C)C)C(=O)CC(C)=CCC1
REMARK SMILES IDX 12 1 14 2 13 3 15 4 16 5 2 6 1 7 3 8 11 10 9 11 10 12 5 13
REMARK SMILES IDX 6 14 7 15 8 16 4 17
REMARK H PARENT
REMARK Flexibility Score: 60.00
ROOT
ATOM      1  C   UNL     1      59.851 -18.135  -0.814  1.00  0.00    -0.070 C 
ATOM      2  C   UNL     1      59.820 -18.985   0.240  1.00  0.00    -0.027 C 
ATOM      3  C   UNL     1      60.960 -17.111  -0.850  1.00  0.00     0.039 C 
ENDROOT
BRANCH   2   4
ATOM      4  C   UNL     1      58.873 -20.145   0.424  1.00  0.00     0.032 C 
BRANCH   4   5
ATOM      5  C   UNL     1      58.089 -20.065   1.747  1.00  0.00     0.034 C 
BRANCH   5   6
ATOM      6  C   UNL     1      57.270 -18.793   1.853  1.00  0.00    -0.077 C 
ATOM      7  C   UNL     1      57.400 -17.961   3.103  1.00  0.00     0.039 C 
ATOM      8  C   UNL     1      56.408 -18.373   0.899  1.00  0.00    -0.023 CG0
ATOM      9  G   UNL     1      56.115 -19.084  -0.400  1.00  0.00     0.000 G0
ENDBRANCH   5   6
ENDBRANCH   4   5
ENDBRANCH   2   4
BRANCH   1  10
ATOM     10  C   UNL     1      58.880 -18.201  -1.981  1.00  0.00     0.111 C 
BRANCH  10  11
ATOM     11  C   UNL     1      57.605 -17.450  -1.685  1.00  0.00     0.163 C 
ATOM     12  O   UNL     1      57.681 -16.209  -1.481  1.00  0.00    -0.294 OA
BRANCH  11  13
ATOM     13  C   UNL     1      56.284 -18.144  -1.577  1.00  0.00    -0.002 C 
ATOM     14  C   UNL     1      55.310 -17.988  -2.524  1.00  0.00    -0.069 C 
ATOM     15  C   UNL     1      53.962 -18.662  -2.388  1.00  0.00     0.039 C 
ATOM     16  C   UNL     1      55.542 -17.162  -3.771  1.00  0.00     0.039 C 
BRANCH  13  17
ATOM     17  C   UNL     1      56.096 -19.093  -0.408  1.00  0.00     0.066 CG0
ATOM     18  G   UNL     1      56.388 -18.375   0.888  1.00  0.00     0.000 G0
ENDBRANCH  13  17
ENDBRANCH  11  13
ENDBRANCH  10  11
ENDBRANCH   1  10
TORSDOF 0
ENDMDL
MODEL 9
REMARK VINA RESULT:    -2.966      3.480      6.108
REMARK INTER + INTRA:          -3.745
REMARK INTER:                  -4.090
REMARK INTRA:                   0.345
REMARK UNBOUND:                 0.435
REMARK SMILES CC1=CCC(=C(C)C)C(=O)CC(C)=CCC1
REMARK SMILES IDX 12 1 14 2 13 3 15 4 16 5 2 6 1 7 3 8 11 10 9 11 10 12 5 13
REMARK SMILES IDX 6 14 7 15 8 16 4 17
REMARK H PARENT
REMARK Flexibility Score: 60.00
ROOT
ATOM      1  C   UNL     1      57.400 -20.447   2.528  1.00  0.00    -0.070 C 
ATOM      2  C   UNL     1      57.357 -20.423   1.174  1.00  0.00    -0.027 C 
ATOM      3  C   UNL     1      56.169 -20.929   3.255  1.00  0.00     0.039 C 
ENDROOT
BRANCH   2   4
ATOM      4  C   UNL     1      58.500 -20.081   0.250  1.00  0.00     0.032 C 
BRANCH   4   5
ATOM      5  C   UNL     1      58.698 -18.563   0.088  1.00  0.00     0.034 C 
BRANCH   5   6
ATOM      6  C   UNL     1      60.135 -18.143   0.328  1.00  0.00    -0.077 C 
ATOM      7  C   UNL     1      61.192 -18.631  -0.630  1.00  0.00     0.039 C 
ATOM      8  C   UNL     1      60.530 -17.375   1.369  1.00  0.00    -0.023 CG0
ATOM      9  G   UNL     1      59.631 -16.823   2.448  1.00  0.00     0.000 G0
ENDBRANCH   5   6
ENDBRANCH   4   5
ENDBRANCH   2   4
BRANCH   1  10
ATOM     10  C   UNL     1      58.632 -20.083   3.340  1.00  0.00     0.111 C 
BRANCH  10  11
ATOM     11  C   UNL     1      58.555 -18.668   3.860  1.00  0.00     0.163 C 
ATOM     12  O   UNL     1      57.486 -18.297   4.415  1.00  0.00    -0.294 OA
BRANCH  11  13
ATOM     13  C   UNL     1      59.681 -17.698   3.685  1.00  0.00    -0.002 C 
ATOM     14  C   UNL     1      60.738 -17.659   4.551  1.00  0.00    -0.069 C 
ATOM     15  C   UNL     1      61.853 -16.649   4.390  1.00  0.00     0.039 C 
ATOM     16  C   UNL     1      60.864 -18.645   5.692  1.00  0.00     0.039 C 
BRANCH  13  17
ATOM     17  C   UNL     1      59.638 -16.805   2.459  1.00  0.00     0.066 CG0
ATOM     18  G   UNL     1      60.523 -17.376   1.377  1.00  0.00     0.000 G0
ENDBRANCH  13  17
ENDBRANCH  11  13
ENDBRANCH  10  11
ENDBRANCH   1  10
TORSDOF 0
ENDMDL
