MODEL 1
REMARK VINA RESULT:    -3.963      0.000      0.000
REMARK INTER + INTRA:          -9.767
REMARK INTER:                  -7.206
REMARK INTRA:                  -2.560
REMARK UNBOUND:                -2.560
REMARK SMILES CCCCCC=CCC=CCCCCCCCC(=O)[O-]
REMARK SMILES IDX 11 1 12 2 13 3 14 4 15 5 16 6 17 7 18 8 19 9 20 10 10 11
REMARK SMILES IDX 9 12 8 13 7 14 6 15 5 16 4 17 3 18 2 19 1 20
REMARK H PARENT
REMARK Flexibility Score: inf
ROOT
ATOM      1  C   UNL     1      51.019 -15.040 -26.241  1.00  0.00     0.027 C 
ENDROOT
BRANCH   1   2
ATOM      2  C   UNL     1      52.018 -13.875 -26.372  1.00  0.00     0.004 C 
BRANCH   2   3
ATOM      3  C   UNL     1      53.294 -14.230 -27.156  1.00  0.00     0.000 C 
BRANCH   3   4
ATOM      4  C   UNL     1      54.487 -14.692 -26.300  1.00  0.00     0.000 C 
BRANCH   4   5
ATOM      5  C   UNL     1      54.493 -14.170 -24.855  1.00  0.00     0.000 C 
BRANCH   5   6
ATOM      6  C   UNL     1      54.267 -15.278 -23.812  1.00  0.00     0.006 C 
BRANCH   6   7
ATOM      7  C   UNL     1      55.318 -16.394 -23.917  1.00  0.00     0.053 C 
BRANCH   7   8
ATOM      8  C   UNL     1      56.371 -16.268 -22.856  1.00  0.00     0.041 C 
ATOM      9  O   UNL     1      56.479 -15.205 -22.193  1.00  0.00    -0.550 OA
ATOM     10  O   UNL     1      57.249 -17.315 -22.619  1.00  0.00    -0.550 OA
ENDBRANCH   7   8
ENDBRANCH   6   7
ENDBRANCH   5   6
ENDBRANCH   4   5
ENDBRANCH   3   4
ENDBRANCH   2   3
ENDBRANCH   1   2
BRANCH   1  11
ATOM     11  C   UNL     1      50.659 -15.298 -24.804  1.00  0.00    -0.031 C 
ATOM     12  C   UNL     1      50.439 -14.299 -23.934  1.00  0.00    -0.027 C 
BRANCH  12  13
ATOM     13  C   UNL     1      50.102 -14.570 -22.493  1.00  0.00     0.054 C 
BRANCH  13  14
ATOM     14  C   UNL     1      48.663 -14.216 -22.203  1.00  0.00    -0.027 C 
ATOM     15  C   UNL     1      47.625 -15.073 -22.231  1.00  0.00    -0.031 C 
BRANCH  15  16
ATOM     16  C   UNL     1      47.733 -16.556 -22.491  1.00  0.00     0.027 C 
BRANCH  16  17
ATOM     17  C   UNL     1      47.441 -16.900 -23.959  1.00  0.00     0.004 C 
BRANCH  17  18
ATOM     18  C   UNL     1      46.533 -15.863 -24.643  1.00  0.00     0.000 C 
BRANCH  18  19
ATOM     19  C   UNL     1      47.126 -15.232 -25.914  1.00  0.00    -0.003 C 
ATOM     20  C   UNL     1      47.303 -13.718 -25.797  1.00  0.00     0.004 C 
ENDBRANCH  18  19
ENDBRANCH  17  18
ENDBRANCH  16  17
ENDBRANCH  15  16
ENDBRANCH  13  14
ENDBRANCH  12  13
ENDBRANCH   1  11
TORSDOF 14
ENDMDL
MODEL 2
REMARK VINA RESULT:    -3.877      3.522      7.172
REMARK INTER + INTRA:          -9.610
REMARK INTER:                  -7.522
REMARK INTRA:                  -2.089
REMARK UNBOUND:                -2.560
REMARK SMILES CCCCCC=CCC=CCCCCCCCC(=O)[O-]
REMARK SMILES IDX 11 1 12 2 13 3 14 4 15 5 16 6 17 7 18 8 19 9 20 10 10 11
REMARK SMILES IDX 9 12 8 13 7 14 6 15 5 16 4 17 3 18 2 19 1 20
REMARK H PARENT
REMARK Flexibility Score: inf
ROOT
ATOM      1  C   UNL     1      49.692 -14.528 -22.304  1.00  0.00     0.027 C 
ENDROOT
BRANCH   1   2
ATOM      2  C   UNL     1      48.205 -14.127 -22.329  1.00  0.00     0.004 C 
BRANCH   2   3
ATOM      3  C   UNL     1      47.237 -15.298 -22.083  1.00  0.00     0.000 C 
BRANCH   3   4
ATOM      4  C   UNL     1      47.730 -16.674 -22.562  1.00  0.00     0.000 C 
BRANCH   4   5
ATOM      5  C   UNL     1      47.657 -16.901 -24.080  1.00  0.00     0.000 C 
BRANCH   5   6
ATOM      6  C   UNL     1      48.962 -17.464 -24.669  1.00  0.00     0.006 C 
BRANCH   6   7
ATOM      7  C   UNL     1      48.802 -17.875 -26.141  1.00  0.00     0.053 C 
BRANCH   7   8
ATOM      8  C   UNL     1      48.173 -19.230 -26.276  1.00  0.00     0.041 C 
ATOM      9  O   UNL     1      47.449 -19.497 -27.269  1.00  0.00    -0.550 OA
ATOM     10  O   UNL     1      48.363 -20.187 -25.290  1.00  0.00    -0.550 OA
ENDBRANCH   7   8
ENDBRANCH   6   7
ENDBRANCH   5   6
ENDBRANCH   4   5
ENDBRANCH   3   4
ENDBRANCH   2   3
ENDBRANCH   1   2
BRANCH   1  11
ATOM     11  C   UNL     1      50.345 -14.308 -23.641  1.00  0.00    -0.031 C 
ATOM     12  C   UNL     1      49.680 -13.776 -24.680  1.00  0.00    -0.027 C 
BRANCH  12  13
ATOM     13  C   UNL     1      50.338 -13.581 -26.018  1.00  0.00     0.054 C 
BRANCH  13  14
ATOM     14  C   UNL     1      51.028 -14.846 -26.467  1.00  0.00    -0.027 C 
ATOM     15  C   UNL     1      52.353 -14.991 -26.659  1.00  0.00    -0.031 C 
BRANCH  15  16
ATOM     16  C   UNL     1      53.387 -13.924 -26.391  1.00  0.00     0.027 C 
BRANCH  16  17
ATOM     17  C   UNL     1      54.724 -14.529 -25.932  1.00  0.00     0.004 C 
BRANCH  17  18
ATOM     18  C   UNL     1      54.941 -14.406 -24.414  1.00  0.00     0.000 C 
BRANCH  18  19
ATOM     19  C   UNL     1      54.862 -15.735 -23.646  1.00  0.00    -0.003 C 
ATOM     20  C   UNL     1      54.869 -16.954 -24.569  1.00  0.00     0.004 C 
ENDBRANCH  18  19
ENDBRANCH  17  18
ENDBRANCH  16  17
ENDBRANCH  15  16
ENDBRANCH  13  14
ENDBRANCH  12  13
ENDBRANCH   1  11
TORSDOF 14
ENDMDL
MODEL 3
REMARK VINA RESULT:    -3.852      4.694      6.388
REMARK INTER + INTRA:          -9.566
REMARK INTER:                  -6.656
REMARK INTRA:                  -2.910
REMARK UNBOUND:                -2.560
REMARK SMILES CCCCCC=CCC=CCCCCCCCC(=O)[O-]
REMARK SMILES IDX 11 1 12 2 13 3 14 4 15 5 16 6 17 7 18 8 19 9 20 10 10 11
REMARK SMILES IDX 9 12 8 13 7 14 6 15 5 16 4 17 3 18 2 19 1 20
REMARK H PARENT
REMARK Flexibility Score: inf
ROOT
ATOM      1  C   UNL     1      51.309 -17.453 -26.419  1.00  0.00     0.027 C 
ENDROOT
BRANCH   1   2
ATOM      2  C   UNL     1      51.104 -18.899 -25.930  1.00  0.00     0.004 C 
BRANCH   2   3
ATOM      3  C   UNL     1      50.061 -19.039 -24.807  1.00  0.00     0.000 C 
BRANCH   3   4
ATOM      4  C   UNL     1      48.742 -19.719 -25.212  1.00  0.00     0.000 C 
BRANCH   4   5
ATOM      5  C   UNL     1      48.647 -20.128 -26.691  1.00  0.00     0.000 C 
BRANCH   5   6
ATOM      6  C   UNL     1      47.644 -19.278 -27.489  1.00  0.00     0.006 C 
BRANCH   6   7
ATOM      7  C   UNL     1      48.331 -18.455 -28.590  1.00  0.00     0.053 C 
BRANCH   7   8
ATOM      8  C   UNL     1      48.218 -19.118 -29.931  1.00  0.00     0.041 C 
ATOM      9  O   UNL     1      48.894 -18.697 -30.905  1.00  0.00    -0.550 OA
ATOM     10  O   UNL     1      47.347 -20.182 -30.111  1.00  0.00    -0.550 OA
ENDBRANCH   7   8
ENDBRANCH   6   7
ENDBRANCH   5   6
ENDBRANCH   4   5
ENDBRANCH   3   4
ENDBRANCH   2   3
ENDBRANCH   1   2
BRANCH   1  11
ATOM     11  C   UNL     1      50.589 -16.467 -25.540  1.00  0.00    -0.031 C 
ATOM     12  C   UNL     1      50.924 -15.167 -25.506  1.00  0.00    -0.027 C 
BRANCH  12  13
ATOM     13  C   UNL     1      50.211 -14.194 -24.606  1.00  0.00     0.054 C 
BRANCH  13  14
ATOM     14  C   UNL     1      50.525 -14.475 -23.157  1.00  0.00    -0.027 C 
ATOM     15  C   UNL     1      49.621 -14.762 -22.201  1.00  0.00    -0.031 C 
BRANCH  15  16
ATOM     16  C   UNL     1      48.138 -14.920 -22.432  1.00  0.00     0.027 C 
BRANCH  16  17
ATOM     17  C   UNL     1      47.736 -16.398 -22.562  1.00  0.00     0.004 C 
BRANCH  17  18
ATOM     18  C   UNL     1      47.197 -16.745 -23.961  1.00  0.00     0.000 C 
BRANCH  18  19
ATOM     19  C   UNL     1      46.821 -15.529 -24.822  1.00  0.00    -0.003 C 
ATOM     20  C   UNL     1      47.007 -15.781 -26.318  1.00  0.00     0.004 C 
ENDBRANCH  18  19
ENDBRANCH  17  18
ENDBRANCH  16  17
ENDBRANCH  15  16
ENDBRANCH  13  14
ENDBRANCH  12  13
ENDBRANCH   1  11
TORSDOF 14
ENDMDL
MODEL 4
REMARK VINA RESULT:    -3.851      4.525      5.827
REMARK INTER + INTRA:          -9.564
REMARK INTER:                  -6.791
REMARK INTRA:                  -2.772
REMARK UNBOUND:                -2.560
REMARK SMILES CCCCCC=CCC=CCCCCCCCC(=O)[O-]
REMARK SMILES IDX 11 1 12 2 13 3 14 4 15 5 16 6 17 7 18 8 19 9 20 10 10 11
REMARK SMILES IDX 9 12 8 13 7 14 6 15 5 16 4 17 3 18 2 19 1 20
REMARK H PARENT
REMARK Flexibility Score: inf
ROOT
ATOM      1  C   UNL     1      51.083 -15.311 -25.634  1.00  0.00     0.027 C 
ENDROOT
BRANCH   1   2
ATOM      2  C   UNL     1      50.897 -16.669 -26.337  1.00  0.00     0.004 C 
BRANCH   2   3
ATOM      3  C   UNL     1      51.611 -17.839 -25.637  1.00  0.00     0.000 C 
BRANCH   3   4
ATOM      4  C   UNL     1      50.891 -19.196 -25.720  1.00  0.00     0.000 C 
BRANCH   4   5
ATOM      5  C   UNL     1      49.511 -19.243 -25.045  1.00  0.00     0.000 C 
BRANCH   5   6
ATOM      6  C   UNL     1      48.428 -19.883 -25.932  1.00  0.00     0.006 C 
BRANCH   6   7
ATOM      7  C   UNL     1      48.501 -19.385 -27.383  1.00  0.00     0.053 C 
BRANCH   7   8
ATOM      8  C   UNL     1      47.193 -19.557 -28.097  1.00  0.00     0.041 C 
ATOM      9  O   UNL     1      47.050 -20.471 -28.949  1.00  0.00    -0.550 OA
ATOM     10  O   UNL     1      46.141 -18.689 -27.840  1.00  0.00    -0.550 OA
ENDBRANCH   7   8
ENDBRANCH   6   7
ENDBRANCH   5   6
ENDBRANCH   4   5
ENDBRANCH   3   4
ENDBRANCH   2   3
ENDBRANCH   1   2
BRANCH   1  11
ATOM     11  C   UNL     1      50.573 -15.349 -24.219  1.00  0.00    -0.031 C 
ATOM     12  C   UNL     1      50.137 -14.246 -23.589  1.00  0.00    -0.027 C 
BRANCH  12  13
ATOM     13  C   UNL     1      49.651 -14.292 -22.167  1.00  0.00     0.054 C 
BRANCH  13  14
ATOM     14  C   UNL     1      48.175 -13.981 -22.093  1.00  0.00    -0.027 C 
ATOM     15  C   UNL     1      47.180 -14.886 -22.148  1.00  0.00    -0.031 C 
BRANCH  15  16
ATOM     16  C   UNL     1      47.373 -16.381 -22.224  1.00  0.00     0.027 C 
BRANCH  16  17
ATOM     17  C   UNL     1      47.400 -16.881 -23.677  1.00  0.00     0.004 C 
BRANCH  17  18
ATOM     18  C   UNL     1      46.544 -16.014 -24.618  1.00  0.00     0.000 C 
BRANCH  18  19
ATOM     19  C   UNL     1      47.174 -15.751 -25.995  1.00  0.00    -0.003 C 
ATOM     20  C   UNL     1      47.532 -14.281 -26.213  1.00  0.00     0.004 C 
ENDBRANCH  18  19
ENDBRANCH  17  18
ENDBRANCH  16  17
ENDBRANCH  15  16
ENDBRANCH  13  14
ENDBRANCH  12  13
ENDBRANCH   1  11
TORSDOF 14
ENDMDL
MODEL 5
REMARK VINA RESULT:    -3.827      4.305      6.423
REMARK INTER + INTRA:          -9.520
REMARK INTER:                  -6.699
REMARK INTRA:                  -2.821
REMARK UNBOUND:                -2.560
REMARK SMILES CCCCCC=CCC=CCCCCCCCC(=O)[O-]
REMARK SMILES IDX 11 1 12 2 13 3 14 4 15 5 16 6 17 7 18 8 19 9 20 10 10 11
REMARK SMILES IDX 9 12 8 13 7 14 6 15 5 16 4 17 3 18 2 19 1 20
REMARK H PARENT
REMARK Flexibility Score: inf
ROOT
ATOM      1  C   UNL     1      50.510 -14.861 -26.056  1.00  0.00     0.027 C 
ENDROOT
BRANCH   1   2
ATOM      2  C   UNL     1      49.951 -14.076 -24.855  1.00  0.00     0.004 C 
BRANCH   2   3
ATOM      3  C   UNL     1      50.430 -14.598 -23.489  1.00  0.00     0.000 C 
BRANCH   3   4
ATOM      4  C   UNL     1      49.314 -14.982 -22.501  1.00  0.00     0.000 C 
BRANCH   4   5
ATOM      5  C   UNL     1      48.783 -16.417 -22.644  1.00  0.00     0.000 C 
BRANCH   5   6
ATOM      6  C   UNL     1      47.276 -16.475 -22.949  1.00  0.00     0.006 C 
BRANCH   6   7
ATOM      7  C   UNL     1      46.988 -16.420 -24.457  1.00  0.00     0.053 C 
BRANCH   7   8
ATOM      8  C   UNL     1      46.081 -15.279 -24.809  1.00  0.00     0.041 C 
ATOM      9  O   UNL     1      44.975 -15.497 -25.368  1.00  0.00    -0.550 OA
ATOM     10  O   UNL     1      46.469 -13.973 -24.546  1.00  0.00    -0.550 OA
ENDBRANCH   7   8
ENDBRANCH   6   7
ENDBRANCH   5   6
ENDBRANCH   4   5
ENDBRANCH   3   4
ENDBRANCH   2   3
ENDBRANCH   1   2
BRANCH   1  11
ATOM     11  C   UNL     1      50.320 -16.343 -25.883  1.00  0.00    -0.031 C 
ATOM     12  C   UNL     1      51.359 -17.192 -25.822  1.00  0.00    -0.027 C 
BRANCH  12  13
ATOM     13  C   UNL     1      51.156 -18.674 -25.671  1.00  0.00     0.054 C 
BRANCH  13  14
ATOM     14  C   UNL     1      49.916 -18.967 -24.862  1.00  0.00    -0.027 C 
ATOM     15  C   UNL     1      48.811 -19.587 -25.317  1.00  0.00    -0.031 C 
BRANCH  15  16
ATOM     16  C   UNL     1      48.650 -20.160 -26.704  1.00  0.00     0.027 C 
BRANCH  16  17
ATOM     17  C   UNL     1      47.564 -19.423 -27.503  1.00  0.00     0.004 C 
BRANCH  17  18
ATOM     18  C   UNL     1      48.040 -18.058 -28.031  1.00  0.00     0.000 C 
BRANCH  18  19
ATOM     19  C   UNL     1      46.909 -17.065 -28.348  1.00  0.00    -0.003 C 
ATOM     20  C   UNL     1      45.522 -17.626 -28.032  1.00  0.00     0.004 C 
ENDBRANCH  18  19
ENDBRANCH  17  18
ENDBRANCH  16  17
ENDBRANCH  15  16
ENDBRANCH  13  14
ENDBRANCH  12  13
ENDBRANCH   1  11
TORSDOF 14
ENDMDL
MODEL 6
REMARK VINA RESULT:    -3.779      4.439      6.234
REMARK INTER + INTRA:          -9.432
REMARK INTER:                  -6.603
REMARK INTRA:                  -2.829
REMARK UNBOUND:                -2.560
REMARK SMILES CCCCCC=CCC=CCCCCCCCC(=O)[O-]
REMARK SMILES IDX 11 1 12 2 13 3 14 4 15 5 16 6 17 7 18 8 19 9 20 10 10 11
REMARK SMILES IDX 9 12 8 13 7 14 6 15 5 16 4 17 3 18 2 19 1 20
REMARK H PARENT
REMARK Flexibility Score: inf
ROOT
ATOM      1  C   UNL     1      51.978 -16.288 -26.333  1.00  0.00     0.027 C 
ENDROOT
BRANCH   1   2
ATOM      2  C   UNL     1      50.868 -15.239 -26.533  1.00  0.00     0.004 C 
BRANCH   2   3
ATOM      3  C   UNL     1      49.766 -15.282 -25.460  1.00  0.00     0.000 C 
BRANCH   3   4
ATOM      4  C   UNL     1      50.047 -14.456 -24.192  1.00  0.00     0.000 C 
BRANCH   4   5
ATOM      5  C   UNL     1      49.654 -15.135 -22.871  1.00  0.00     0.000 C 
BRANCH   5   6
ATOM      6  C   UNL     1      48.932 -16.478 -23.074  1.00  0.00     0.006 C 
BRANCH   6   7
ATOM      7  C   UNL     1      47.500 -16.454 -22.520  1.00  0.00     0.053 C 
BRANCH   7   8
ATOM      8  C   UNL     1      46.639 -15.462 -23.245  1.00  0.00     0.041 C 
ATOM      9  O   UNL     1      46.166 -14.469 -22.636  1.00  0.00    -0.550 OA
ATOM     10  O   UNL     1      46.339 -15.649 -24.586  1.00  0.00    -0.550 OA
ENDBRANCH   7   8
ENDBRANCH   6   7
ENDBRANCH   5   6
ENDBRANCH   4   5
ENDBRANCH   3   4
ENDBRANCH   2   3
ENDBRANCH   1   2
BRANCH   1  11
ATOM     11  C   UNL     1      51.475 -17.486 -25.576  1.00  0.00    -0.031 C 
ATOM     12  C   UNL     1      52.084 -18.681 -25.647  1.00  0.00    -0.027 C 
BRANCH  12  13
ATOM     13  C   UNL     1      51.559 -19.877 -24.903  1.00  0.00     0.054 C 
BRANCH  13  14
ATOM     14  C   UNL     1      50.733 -20.755 -25.812  1.00  0.00    -0.027 C 
ATOM     15  C   UNL     1      49.398 -20.688 -25.965  1.00  0.00    -0.031 C 
BRANCH  15  16
ATOM     16  C   UNL     1      48.501 -19.671 -25.302  1.00  0.00     0.027 C 
BRANCH  16  17
ATOM     17  C   UNL     1      48.115 -18.537 -26.264  1.00  0.00     0.004 C 
BRANCH  17  18
ATOM     18  C   UNL     1      47.702 -19.052 -27.654  1.00  0.00     0.000 C 
BRANCH  18  19
ATOM     19  C   UNL     1      48.401 -18.350 -28.830  1.00  0.00    -0.003 C 
ATOM     20  C   UNL     1      49.924 -18.460 -28.766  1.00  0.00     0.004 C 
ENDBRANCH  18  19
ENDBRANCH  17  18
ENDBRANCH  16  17
ENDBRANCH  15  16
ENDBRANCH  13  14
ENDBRANCH  12  13
ENDBRANCH   1  11
TORSDOF 14
ENDMDL
MODEL 7
REMARK VINA RESULT:    -3.776      3.888      6.901
REMARK INTER + INTRA:          -9.428
REMARK INTER:                  -6.622
REMARK INTRA:                  -2.806
REMARK UNBOUND:                -2.560
REMARK SMILES CCCCCC=CCC=CCCCCCCCC(=O)[O-]
REMARK SMILES IDX 11 1 12 2 13 3 14 4 15 5 16 6 17 7 18 8 19 9 20 10 10 11
REMARK SMILES IDX 9 12 8 13 7 14 6 15 5 16 4 17 3 18 2 19 1 20
REMARK H PARENT
REMARK Flexibility Score: inf
ROOT
ATOM      1  C   UNL     1      47.310 -15.859 -22.240  1.00  0.00     0.027 C 
ENDROOT
BRANCH   1   2
ATOM      2  C   UNL     1      48.109 -14.543 -22.179  1.00  0.00     0.004 C 
BRANCH   2   3
ATOM      3  C   UNL     1      49.624 -14.720 -22.378  1.00  0.00     0.000 C 
BRANCH   3   4
ATOM      4  C   UNL     1      50.173 -14.238 -23.732  1.00  0.00     0.000 C 
BRANCH   4   5
ATOM      5  C   UNL     1      49.312 -13.185 -24.447  1.00  0.00     0.000 C 
BRANCH   5   6
ATOM      6  C   UNL     1      48.680 -13.706 -25.749  1.00  0.00     0.006 C 
BRANCH   6   7
ATOM      7  C   UNL     1      47.154 -13.842 -25.638  1.00  0.00     0.053 C 
BRANCH   7   8
ATOM      8  C   UNL     1      46.555 -14.425 -26.884  1.00  0.00     0.041 C 
ATOM      9  O   UNL     1      46.979 -15.519 -27.339  1.00  0.00    -0.550 OA
ATOM     10  O   UNL     1      45.549 -13.747 -27.557  1.00  0.00    -0.550 OA
ENDBRANCH   7   8
ENDBRANCH   6   7
ENDBRANCH   5   6
ENDBRANCH   4   5
ENDBRANCH   3   4
ENDBRANCH   2   3
ENDBRANCH   1   2
BRANCH   1  11
ATOM     11  C   UNL     1      48.029 -16.902 -23.051  1.00  0.00    -0.031 C 
ATOM     12  C   UNL     1      47.684 -17.182 -24.318  1.00  0.00    -0.027 C 
BRANCH  12  13
ATOM     13  C   UNL     1      48.395 -18.244 -25.111  1.00  0.00     0.054 C 
BRANCH  13  14
ATOM     14  C   UNL     1      49.868 -18.265 -24.780  1.00  0.00    -0.027 C 
ATOM     15  C   UNL     1      50.832 -17.610 -25.453  1.00  0.00    -0.031 C 
BRANCH  15  16
ATOM     16  C   UNL     1      50.595 -16.682 -26.619  1.00  0.00     0.027 C 
BRANCH  16  17
ATOM     17  C   UNL     1      51.909 -16.089 -27.152  1.00  0.00     0.004 C 
BRANCH  17  18
ATOM     18  C   UNL     1      51.904 -14.550 -27.162  1.00  0.00     0.000 C 
BRANCH  18  19
ATOM     19  C   UNL     1      53.260 -13.903 -26.835  1.00  0.00    -0.003 C 
ATOM     20  C   UNL     1      53.725 -14.190 -25.407  1.00  0.00     0.004 C 
ENDBRANCH  18  19
ENDBRANCH  17  18
ENDBRANCH  16  17
ENDBRANCH  15  16
ENDBRANCH  13  14
ENDBRANCH  12  13
ENDBRANCH   1  11
TORSDOF 14
ENDMDL
MODEL 8
REMARK VINA RESULT:    -3.759     12.473     15.247
REMARK INTER + INTRA:          -9.395
REMARK INTER:                  -6.401
REMARK INTRA:                  -2.994
REMARK UNBOUND:                -2.560
REMARK SMILES CCCCCC=CCC=CCCCCCCCC(=O)[O-]
REMARK SMILES IDX 11 1 12 2 13 3 14 4 15 5 16 6 17 7 18 8 19 9 20 10 10 11
REMARK SMILES IDX 9 12 8 13 7 14 6 15 5 16 4 17 3 18 2 19 1 20
REMARK H PARENT
REMARK Flexibility Score: inf
ROOT
ATOM      1  C   UNL     1      51.941 -14.880 -37.633  1.00  0.00     0.027 C 
ENDROOT
BRANCH   1   2
ATOM      2  C   UNL     1      53.430 -14.633 -37.327  1.00  0.00     0.004 C 
BRANCH   2   3
ATOM      3  C   UNL     1      54.250 -14.164 -38.542  1.00  0.00     0.000 C 
BRANCH   3   4
ATOM      4  C   UNL     1      54.873 -12.763 -38.416  1.00  0.00     0.000 C 
BRANCH   4   5
ATOM      5  C   UNL     1      55.392 -12.403 -37.015  1.00  0.00     0.000 C 
BRANCH   5   6
ATOM      6  C   UNL     1      54.764 -11.117 -36.451  1.00  0.00     0.006 C 
BRANCH   6   7
ATOM      7  C   UNL     1      53.509 -11.405 -35.613  1.00  0.00     0.053 C 
BRANCH   7   8
ATOM      8  C   UNL     1      52.982 -10.164 -34.956  1.00  0.00     0.041 C 
ATOM      9  O   UNL     1      52.851 -10.115 -33.706  1.00  0.00    -0.550 OA
ATOM     10  O   UNL     1      52.610  -9.073 -35.726  1.00  0.00    -0.550 OA
ENDBRANCH   7   8
ENDBRANCH   6   7
ENDBRANCH   5   6
ENDBRANCH   4   5
ENDBRANCH   3   4
ENDBRANCH   2   3
ENDBRANCH   1   2
BRANCH   1  11
ATOM     11  C   UNL     1      51.680 -14.911 -39.114  1.00  0.00    -0.031 C 
ATOM     12  C   UNL     1      50.458 -14.694 -39.627  1.00  0.00    -0.027 C 
BRANCH  12  13
ATOM     13  C   UNL     1      50.205 -14.750 -41.108  1.00  0.00     0.054 C 
BRANCH  13  14
ATOM     14  C   UNL     1      49.636 -13.443 -41.605  1.00  0.00    -0.027 C 
ATOM     15  C   UNL     1      50.354 -12.383 -42.020  1.00  0.00    -0.031 C 
BRANCH  15  16
ATOM     16  C   UNL     1      51.860 -12.345 -42.125  1.00  0.00     0.027 C 
BRANCH  16  17
ATOM     17  C   UNL     1      52.502 -11.698 -40.887  1.00  0.00     0.004 C 
BRANCH  17  18
ATOM     18  C   UNL     1      51.519 -10.809 -40.105  1.00  0.00     0.000 C 
BRANCH  18  19
ATOM     19  C   UNL     1      51.502 -11.057 -38.587  1.00  0.00    -0.003 C 
ATOM     20  C   UNL     1      50.136 -11.517 -38.077  1.00  0.00     0.004 C 
ENDBRANCH  18  19
ENDBRANCH  17  18
ENDBRANCH  16  17
ENDBRANCH  15  16
ENDBRANCH  13  14
ENDBRANCH  12  13
ENDBRANCH   1  11
TORSDOF 14
ENDMDL
MODEL 9
REMARK VINA RESULT:    -3.719      4.361      6.428
REMARK INTER + INTRA:          -9.324
REMARK INTER:                  -6.554
REMARK INTRA:                  -2.769
REMARK UNBOUND:                -2.560
REMARK SMILES CCCCCC=CCC=CCCCCCCCC(=O)[O-]
REMARK SMILES IDX 11 1 12 2 13 3 14 4 15 5 16 6 17 7 18 8 19 9 20 10 10 11
REMARK SMILES IDX 9 12 8 13 7 14 6 15 5 16 4 17 3 18 2 19 1 20
REMARK H PARENT
REMARK Flexibility Score: inf
ROOT
ATOM      1  C   UNL     1      52.031 -18.481 -25.802  1.00  0.00     0.027 C 
ENDROOT
BRANCH   1   2
ATOM      2  C   UNL     1      50.870 -19.198 -25.088  1.00  0.00     0.004 C 
BRANCH   2   3
ATOM      3  C   UNL     1      49.794 -18.248 -24.534  1.00  0.00     0.000 C 
BRANCH   3   4
ATOM      4  C   UNL     1      48.445 -18.275 -25.272  1.00  0.00     0.000 C 
BRANCH   4   5
ATOM      5  C   UNL     1      47.967 -16.917 -25.809  1.00  0.00     0.000 C 
BRANCH   5   6
ATOM      6  C   UNL     1      47.992 -16.832 -27.344  1.00  0.00     0.006 C 
BRANCH   6   7
ATOM      7  C   UNL     1      48.848 -17.943 -27.971  1.00  0.00     0.053 C 
BRANCH   7   8
ATOM      8  C   UNL     1      48.065 -18.760 -28.956  1.00  0.00     0.041 C 
ATOM      9  O   UNL     1      47.656 -18.242 -30.026  1.00  0.00    -0.550 OA
ATOM     10  O   UNL     1      47.764 -20.085 -28.678  1.00  0.00    -0.550 OA
ENDBRANCH   7   8
ENDBRANCH   6   7
ENDBRANCH   5   6
ENDBRANCH   4   5
ENDBRANCH   3   4
ENDBRANCH   2   3
ENDBRANCH   1   2
BRANCH   1  11
ATOM     11  C   UNL     1      52.012 -17.000 -25.536  1.00  0.00    -0.031 C 
ATOM     12  C   UNL     1      51.799 -16.103 -26.512  1.00  0.00    -0.027 C 
BRANCH  12  13
ATOM     13  C   UNL     1      51.805 -14.625 -26.238  1.00  0.00     0.054 C 
BRANCH  13  14
ATOM     14  C   UNL     1      50.416 -14.135 -25.906  1.00  0.00    -0.027 C 
ATOM     15  C   UNL     1      49.863 -14.118 -24.679  1.00  0.00    -0.031 C 
BRANCH  15  16
ATOM     16  C   UNL     1      50.566 -14.525 -23.407  1.00  0.00     0.027 C 
BRANCH  16  17
ATOM     17  C   UNL     1      49.621 -14.491 -22.196  1.00  0.00     0.004 C 
BRANCH  17  18
ATOM     18  C   UNL     1      48.188 -14.074 -22.573  1.00  0.00     0.000 C 
BRANCH  18  19
ATOM     19  C   UNL     1      47.085 -14.969 -21.986  1.00  0.00    -0.003 C 
ATOM     20  C   UNL     1      47.331 -16.457 -22.238  1.00  0.00     0.004 C 
ENDBRANCH  18  19
ENDBRANCH  17  18
ENDBRANCH  16  17
ENDBRANCH  15  16
ENDBRANCH  13  14
ENDBRANCH  12  13
ENDBRANCH   1  11
TORSDOF 14
ENDMDL
