MODEL 1
REMARK VINA RESULT:    -5.761      0.000      0.000
REMARK INTER + INTRA:         -12.553
REMARK INTER:                 -10.813
REMARK INTRA:                  -1.740
REMARK UNBOUND:                -1.740
REMARK SMILES O=C([O-])CCCCCCCCCCCCCCC(=O)[O-]
REMARK SMILES IDX 10 1 9 2 8 3 7 4 6 5 5 6 4 7 2 8 1 9 3 10 11 11 12 12 13 13
REMARK SMILES IDX 14 14 15 15 16 16 17 17 18 18 19 19 20 20
REMARK H PARENT
REMARK Flexibility Score: inf
ROOT
ATOM      1  C   UNL     1      49.348  49.133   2.382  1.00  0.00     0.000 C 
ENDROOT
BRANCH   1   2
ATOM      2  C   UNL     1      47.878  49.588   2.350  1.00  0.00     0.000 C 
BRANCH   2   3
ATOM      3  C   UNL     1      47.437  50.437   3.558  1.00  0.00     0.000 C 
BRANCH   3   4
ATOM      4  C   UNL     1      47.713  51.949   3.432  1.00  0.00     0.000 C 
BRANCH   4   5
ATOM      5  C   UNL     1      49.190  52.359   3.583  1.00  0.00     0.000 C 
BRANCH   5   6
ATOM      6  C   UNL     1      49.567  52.967   4.948  1.00  0.00     0.006 C 
BRANCH   6   7
ATOM      7  C   UNL     1      50.753  52.269   5.636  1.00  0.00     0.053 C 
BRANCH   7   8
ATOM      8  C   UNL     1      50.319  51.133   6.514  1.00  0.00     0.041 C 
ATOM      9  O   UNL     1      51.167  50.489   7.185  1.00  0.00    -0.550 OA
ATOM     10  O   UNL     1      48.972  50.809   6.618  1.00  0.00    -0.550 OA
ENDBRANCH   7   8
ENDBRANCH   6   7
ENDBRANCH   5   6
ENDBRANCH   4   5
ENDBRANCH   3   4
ENDBRANCH   2   3
ENDBRANCH   1   2
BRANCH   1  11
ATOM     11  C   UNL     1      49.828  48.769   3.797  1.00  0.00     0.000 C 
BRANCH  11  12
ATOM     12  C   UNL     1      51.338  48.488   3.853  1.00  0.00     0.000 C 
BRANCH  12  13
ATOM     13  C   UNL     1      52.176  49.780   3.858  1.00  0.00     0.000 C 
BRANCH  13  14
ATOM     14  C   UNL     1      53.502  49.618   4.618  1.00  0.00     0.000 C 
BRANCH  14  15
ATOM     15  C   UNL     1      54.542  50.680   4.223  1.00  0.00     0.000 C 
BRANCH  15  16
ATOM     16  C   UNL     1      54.357  52.000   4.986  1.00  0.00     0.006 C 
BRANCH  16  17
ATOM     17  C   UNL     1      55.206  52.067   6.263  1.00  0.00     0.053 C 
BRANCH  17  18
ATOM     18  C   UNL     1      54.343  51.901   7.473  1.00  0.00     0.041 C 
ATOM     19  O   UNL     1      53.527  52.803   7.799  1.00  0.00    -0.550 OA
ATOM     20  O   UNL     1      54.403  50.728   8.214  1.00  0.00    -0.550 OA
ENDBRANCH  17  18
ENDBRANCH  16  17
ENDBRANCH  15  16
ENDBRANCH  14  15
ENDBRANCH  13  14
ENDBRANCH  12  13
ENDBRANCH  11  12
ENDBRANCH   1  11
TORSDOF 15
ENDMDL
MODEL 2
REMARK VINA RESULT:    -5.689      1.896      6.009
REMARK INTER + INTRA:         -12.418
REMARK INTER:                 -10.931
REMARK INTRA:                  -1.487
REMARK UNBOUND:                -1.740
REMARK SMILES O=C([O-])CCCCCCCCCCCCCCC(=O)[O-]
REMARK SMILES IDX 10 1 9 2 8 3 7 4 6 5 5 6 4 7 2 8 1 9 3 10 11 11 12 12 13 13
REMARK SMILES IDX 14 14 15 15 16 16 17 17 18 18 19 19 20 20
REMARK H PARENT
REMARK Flexibility Score: inf
ROOT
ATOM      1  C   UNL     1      52.234  50.111   4.463  1.00  0.00     0.000 C 
ENDROOT
BRANCH   1   2
ATOM      2  C   UNL     1      53.665  49.664   4.814  1.00  0.00     0.000 C 
BRANCH   2   3
ATOM      3  C   UNL     1      54.753  50.147   3.835  1.00  0.00     0.000 C 
BRANCH   3   4
ATOM      4  C   UNL     1      55.611  51.326   4.339  1.00  0.00     0.000 C 
BRANCH   4   5
ATOM      5  C   UNL     1      54.845  52.642   4.565  1.00  0.00     0.000 C 
BRANCH   5   6
ATOM      6  C   UNL     1      54.778  53.121   6.029  1.00  0.00     0.006 C 
BRANCH   6   7
ATOM      7  C   UNL     1      55.247  52.072   7.051  1.00  0.00     0.053 C 
BRANCH   7   8
ATOM      8  C   UNL     1      54.134  51.597   7.937  1.00  0.00     0.041 C 
ATOM      9  O   UNL     1      53.277  52.410   8.370  1.00  0.00    -0.550 OA
ATOM     10  O   UNL     1      54.023  50.249   8.255  1.00  0.00    -0.550 OA
ENDBRANCH   7   8
ENDBRANCH   6   7
ENDBRANCH   5   6
ENDBRANCH   4   5
ENDBRANCH   3   4
ENDBRANCH   2   3
ENDBRANCH   1   2
BRANCH   1  11
ATOM     11  C   UNL     1      51.667  51.131   5.466  1.00  0.00     0.000 C 
BRANCH  11  12
ATOM     12  C   UNL     1      50.644  50.505   6.426  1.00  0.00     0.000 C 
BRANCH  12  13
ATOM     13  C   UNL     1      49.194  50.878   6.065  1.00  0.00     0.000 C 
BRANCH  13  14
ATOM     14  C   UNL     1      48.307  49.643   5.841  1.00  0.00     0.000 C 
BRANCH  14  15
ATOM     15  C   UNL     1      47.669  49.622   4.441  1.00  0.00     0.000 C 
BRANCH  15  16
ATOM     16  C   UNL     1      48.466  50.443   3.416  1.00  0.00     0.006 C 
BRANCH  16  17
ATOM     17  C   UNL     1      49.240  49.561   2.427  1.00  0.00     0.053 C 
BRANCH  17  18
ATOM     18  C   UNL     1      49.184  48.128   2.851  1.00  0.00     0.041 C 
ATOM     19  O   UNL     1      50.074  47.655   3.607  1.00  0.00    -0.550 OA
ATOM     20  O   UNL     1      48.123  47.326   2.453  1.00  0.00    -0.550 OA
ENDBRANCH  17  18
ENDBRANCH  16  17
ENDBRANCH  15  16
ENDBRANCH  14  15
ENDBRANCH  13  14
ENDBRANCH  12  13
ENDBRANCH  11  12
ENDBRANCH   1  11
TORSDOF 15
ENDMDL
MODEL 3
REMARK VINA RESULT:    -5.658      2.234      3.800
REMARK INTER + INTRA:         -12.359
REMARK INTER:                 -10.806
REMARK INTRA:                  -1.553
REMARK UNBOUND:                -1.740
REMARK SMILES O=C([O-])CCCCCCCCCCCCCCC(=O)[O-]
REMARK SMILES IDX 10 1 9 2 8 3 7 4 6 5 5 6 4 7 2 8 1 9 3 10 11 11 12 12 13 13
REMARK SMILES IDX 14 14 15 15 16 16 17 17 18 18 19 19 20 20
REMARK H PARENT
REMARK Flexibility Score: inf
ROOT
ATOM      1  C   UNL     1      50.793  52.050   4.891  1.00  0.00     0.000 C 
ENDROOT
BRANCH   1   2
ATOM      2  C   UNL     1      49.755  53.079   4.407  1.00  0.00     0.000 C 
BRANCH   2   3
ATOM      3  C   UNL     1      48.450  52.472   3.857  1.00  0.00     0.000 C 
BRANCH   3   4
ATOM      4  C   UNL     1      47.791  51.409   4.759  1.00  0.00     0.000 C 
BRANCH   4   5
ATOM      5  C   UNL     1      47.758  49.985   4.173  1.00  0.00     0.000 C 
BRANCH   5   6
ATOM      6  C   UNL     1      48.030  49.891   2.658  1.00  0.00     0.006 C 
BRANCH   6   7
ATOM      7  C   UNL     1      49.489  49.554   2.305  1.00  0.00     0.053 C 
BRANCH   7   8
ATOM      8  C   UNL     1      50.068  48.502   3.203  1.00  0.00     0.041 C 
ATOM      9  O   UNL     1      50.998  48.790   4.001  1.00  0.00    -0.550 OA
ATOM     10  O   UNL     1      49.556  47.211   3.184  1.00  0.00    -0.550 OA
ENDBRANCH   7   8
ENDBRANCH   6   7
ENDBRANCH   5   6
ENDBRANCH   4   5
ENDBRANCH   3   4
ENDBRANCH   2   3
ENDBRANCH   1   2
BRANCH   1  11
ATOM     11  C   UNL     1      50.899  51.988   6.425  1.00  0.00     0.000 C 
BRANCH  11  12
ATOM     12  C   UNL     1      51.510  50.667   6.919  1.00  0.00     0.000 C 
BRANCH  12  13
ATOM     13  C   UNL     1      53.043  50.740   7.047  1.00  0.00     0.000 C 
BRANCH  13  14
ATOM     14  C   UNL     1      53.530  52.124   7.502  1.00  0.00     0.000 C 
BRANCH  14  15
ATOM     15  C   UNL     1      54.565  52.731   6.540  1.00  0.00     0.000 C 
BRANCH  15  16
ATOM     16  C   UNL     1      54.284  52.378   5.071  1.00  0.00     0.006 C 
BRANCH  16  17
ATOM     17  C   UNL     1      55.522  51.828   4.350  1.00  0.00     0.053 C 
BRANCH  17  18
ATOM     18  C   UNL     1      55.267  50.438   3.858  1.00  0.00     0.041 C 
ATOM     19  O   UNL     1      56.200  49.765   3.348  1.00  0.00    -0.550 OA
ATOM     20  O   UNL     1      54.010  49.868   4.010  1.00  0.00    -0.550 OA
ENDBRANCH  17  18
ENDBRANCH  16  17
ENDBRANCH  15  16
ENDBRANCH  14  15
ENDBRANCH  13  14
ENDBRANCH  12  13
ENDBRANCH  11  12
ENDBRANCH   1  11
TORSDOF 15
ENDMDL
MODEL 4
REMARK VINA RESULT:    -5.584      1.951      5.917
REMARK INTER + INTRA:         -12.220
REMARK INTER:                 -10.635
REMARK INTRA:                  -1.585
REMARK UNBOUND:                -1.740
REMARK SMILES O=C([O-])CCCCCCCCCCCCCCC(=O)[O-]
REMARK SMILES IDX 10 1 9 2 8 3 7 4 6 5 5 6 4 7 2 8 1 9 3 10 11 11 12 12 13 13
REMARK SMILES IDX 14 14 15 15 16 16 17 17 18 18 19 19 20 20
REMARK H PARENT
REMARK Flexibility Score: inf
ROOT
ATOM      1  C   UNL     1      50.906  52.052   4.952  1.00  0.00     0.000 C 
ENDROOT
BRANCH   1   2
ATOM      2  C   UNL     1      50.729  51.670   6.433  1.00  0.00     0.000 C 
BRANCH   2   3
ATOM      3  C   UNL     1      51.627  50.515   6.916  1.00  0.00     0.000 C 
BRANCH   3   4
ATOM      4  C   UNL     1      53.034  50.934   7.390  1.00  0.00     0.000 C 
BRANCH   4   5
ATOM      5  C   UNL     1      53.344  52.437   7.268  1.00  0.00     0.000 C 
BRANCH   5   6
ATOM      6  C   UNL     1      54.664  52.779   6.548  1.00  0.00     0.006 C 
BRANCH   6   7
ATOM      7  C   UNL     1      54.540  52.840   5.015  1.00  0.00     0.053 C 
BRANCH   7   8
ATOM      8  C   UNL     1      54.946  51.556   4.356  1.00  0.00     0.041 C 
ATOM      9  O   UNL     1      54.104  50.635   4.189  1.00  0.00    -0.550 OA
ATOM     10  O   UNL     1      56.245  51.389   3.894  1.00  0.00    -0.550 OA
ENDBRANCH   7   8
ENDBRANCH   6   7
ENDBRANCH   5   6
ENDBRANCH   4   5
ENDBRANCH   3   4
ENDBRANCH   2   3
ENDBRANCH   1   2
BRANCH   1  11
ATOM     11  C   UNL     1      49.905  53.125   4.490  1.00  0.00     0.000 C 
BRANCH  11  12
ATOM     12  C   UNL     1      48.971  52.619   3.379  1.00  0.00     0.000 C 
BRANCH  12  13
ATOM     13  C   UNL     1      47.538  52.370   3.883  1.00  0.00     0.000 C 
BRANCH  13  14
ATOM     14  C   UNL     1      47.195  50.875   3.966  1.00  0.00     0.000 C 
BRANCH  14  15
ATOM     15  C   UNL     1      47.115  50.210   2.581  1.00  0.00     0.000 C 
BRANCH  15  16
ATOM     16  C   UNL     1      48.030  48.981   2.463  1.00  0.00     0.006 C 
BRANCH  16  17
ATOM     17  C   UNL     1      49.518  49.354   2.430  1.00  0.00     0.053 C 
BRANCH  17  18
ATOM     18  C   UNL     1      50.215  48.831   3.646  1.00  0.00     0.041 C 
ATOM     19  O   UNL     1      51.457  48.630   3.628  1.00  0.00    -0.550 OA
ATOM     20  O   UNL     1      49.500  48.611   4.816  1.00  0.00    -0.550 OA
ENDBRANCH  17  18
ENDBRANCH  16  17
ENDBRANCH  15  16
ENDBRANCH  14  15
ENDBRANCH  13  14
ENDBRANCH  12  13
ENDBRANCH  11  12
ENDBRANCH   1  11
TORSDOF 15
ENDMDL
MODEL 5
REMARK VINA RESULT:    -5.567      2.466      5.942
REMARK INTER + INTRA:         -12.188
REMARK INTER:                 -10.347
REMARK INTRA:                  -1.841
REMARK UNBOUND:                -1.740
REMARK SMILES O=C([O-])CCCCCCCCCCCCCCC(=O)[O-]
REMARK SMILES IDX 10 1 9 2 8 3 7 4 6 5 5 6 4 7 2 8 1 9 3 10 11 11 12 12 13 13
REMARK SMILES IDX 14 14 15 15 16 16 17 17 18 18 19 19 20 20
REMARK H PARENT
REMARK Flexibility Score: inf
ROOT
ATOM      1  C   UNL     1      50.554  50.169   6.495  1.00  0.00     0.000 C 
ENDROOT
BRANCH   1   2
ATOM      2  C   UNL     1      51.159  50.806   5.231  1.00  0.00     0.000 C 
BRANCH   2   3
ATOM      3  C   UNL     1      51.122  52.347   5.201  1.00  0.00     0.000 C 
BRANCH   3   4
ATOM      4  C   UNL     1      52.487  53.039   5.385  1.00  0.00     0.000 C 
BRANCH   4   5
ATOM      5  C   UNL     1      53.314  52.546   6.586  1.00  0.00     0.000 C 
BRANCH   5   6
ATOM      6  C   UNL     1      54.628  51.824   6.229  1.00  0.00     0.006 C 
BRANCH   6   7
ATOM      7  C   UNL     1      55.036  51.965   4.752  1.00  0.00     0.053 C 
BRANCH   7   8
ATOM      8  C   UNL     1      55.111  50.643   4.049  1.00  0.00     0.041 C 
ATOM      9  O   UNL     1      56.152  50.316   3.421  1.00  0.00    -0.550 OA
ATOM     10  O   UNL     1      54.045  49.755   4.118  1.00  0.00    -0.550 OA
ENDBRANCH   7   8
ENDBRANCH   6   7
ENDBRANCH   5   6
ENDBRANCH   4   5
ENDBRANCH   3   4
ENDBRANCH   2   3
ENDBRANCH   1   2
BRANCH   1  11
ATOM     11  C   UNL     1      49.053  50.470   6.652  1.00  0.00     0.000 C 
BRANCH  11  12
ATOM     12  C   UNL     1      48.170  49.484   5.871  1.00  0.00     0.000 C 
BRANCH  12  13
ATOM     13  C   UNL     1      47.030  50.188   5.113  1.00  0.00     0.000 C 
BRANCH  13  14
ATOM     14  C   UNL     1      47.452  51.558   4.557  1.00  0.00     0.000 C 
BRANCH  14  15
ATOM     15  C   UNL     1      48.123  51.453   3.177  1.00  0.00     0.000 C 
BRANCH  15  16
ATOM     16  C   UNL     1      48.020  50.042   2.576  1.00  0.00     0.006 C 
BRANCH  16  17
ATOM     17  C   UNL     1      49.388  49.362   2.431  1.00  0.00     0.053 C 
BRANCH  17  18
ATOM     18  C   UNL     1      49.326  47.954   2.934  1.00  0.00     0.041 C 
ATOM     19  O   UNL     1      50.210  47.523   3.720  1.00  0.00    -0.550 OA
ATOM     20  O   UNL     1      48.266  47.133   2.574  1.00  0.00    -0.550 OA
ENDBRANCH  17  18
ENDBRANCH  16  17
ENDBRANCH  15  16
ENDBRANCH  14  15
ENDBRANCH  13  14
ENDBRANCH  12  13
ENDBRANCH  11  12
ENDBRANCH   1  11
TORSDOF 15
ENDMDL
MODEL 6
REMARK VINA RESULT:    -5.566      2.393      4.113
REMARK INTER + INTRA:         -12.187
REMARK INTER:                 -10.372
REMARK INTRA:                  -1.816
REMARK UNBOUND:                -1.740
REMARK SMILES O=C([O-])CCCCCCCCCCCCCCC(=O)[O-]
REMARK SMILES IDX 10 1 9 2 8 3 7 4 6 5 5 6 4 7 2 8 1 9 3 10 11 11 12 12 13 13
REMARK SMILES IDX 14 14 15 15 16 16 17 17 18 18 19 19 20 20
REMARK H PARENT
REMARK Flexibility Score: inf
ROOT
ATOM      1  C   UNL     1      50.765  50.621   5.473  1.00  0.00     0.000 C 
ENDROOT
BRANCH   1   2
ATOM      2  C   UNL     1      49.704  49.908   6.331  1.00  0.00     0.000 C 
BRANCH   2   3
ATOM      3  C   UNL     1      48.278  50.479   6.204  1.00  0.00     0.000 C 
BRANCH   3   4
ATOM      4  C   UNL     1      47.407  49.829   5.110  1.00  0.00     0.000 C 
BRANCH   4   5
ATOM      5  C   UNL     1      47.283  50.639   3.806  1.00  0.00     0.000 C 
BRANCH   5   6
ATOM      6  C   UNL     1      47.559  49.849   2.512  1.00  0.00     0.006 C 
BRANCH   6   7
ATOM      7  C   UNL     1      49.007  49.343   2.386  1.00  0.00     0.053 C 
BRANCH   7   8
ATOM      8  C   UNL     1      49.158  47.921   2.837  1.00  0.00     0.041 C 
ATOM      9  O   UNL     1      48.365  47.036   2.423  1.00  0.00    -0.550 OA
ATOM     10  O   UNL     1      50.197  47.566   3.688  1.00  0.00    -0.550 OA
ENDBRANCH   7   8
ENDBRANCH   6   7
ENDBRANCH   5   6
ENDBRANCH   4   5
ENDBRANCH   3   4
ENDBRANCH   2   3
ENDBRANCH   1   2
BRANCH   1  11
ATOM     11  C   UNL     1      50.344  52.044   5.067  1.00  0.00     0.000 C 
BRANCH  11  12
ATOM     12  C   UNL     1      51.239  53.124   5.696  1.00  0.00     0.000 C 
BRANCH  12  13
ATOM     13  C   UNL     1      51.530  52.853   7.184  1.00  0.00     0.000 C 
BRANCH  13  14
ATOM     14  C   UNL     1      53.011  53.054   7.539  1.00  0.00     0.000 C 
BRANCH  14  15
ATOM     15  C   UNL     1      53.849  51.783   7.314  1.00  0.00     0.000 C 
BRANCH  15  16
ATOM     16  C   UNL     1      54.970  51.990   6.284  1.00  0.00     0.006 C 
BRANCH  16  17
ATOM     17  C   UNL     1      54.456  51.955   4.838  1.00  0.00     0.053 C 
BRANCH  17  18
ATOM     18  C   UNL     1      54.710  50.615   4.224  1.00  0.00     0.041 C 
ATOM     19  O   UNL     1      53.827  49.719   4.270  1.00  0.00    -0.550 OA
ATOM     20  O   UNL     1      55.904  50.371   3.559  1.00  0.00    -0.550 OA
ENDBRANCH  17  18
ENDBRANCH  16  17
ENDBRANCH  15  16
ENDBRANCH  14  15
ENDBRANCH  13  14
ENDBRANCH  12  13
ENDBRANCH  11  12
ENDBRANCH   1  11
TORSDOF 15
ENDMDL
MODEL 7
REMARK VINA RESULT:    -5.553      3.105      4.692
REMARK INTER + INTRA:         -12.162
REMARK INTER:                 -10.666
REMARK INTRA:                  -1.496
REMARK UNBOUND:                -1.740
REMARK SMILES O=C([O-])CCCCCCCCCCCCCCC(=O)[O-]
REMARK SMILES IDX 10 1 9 2 8 3 7 4 6 5 5 6 4 7 2 8 1 9 3 10 11 11 12 12 13 13
REMARK SMILES IDX 14 14 15 15 16 16 17 17 18 18 19 19 20 20
REMARK H PARENT
REMARK Flexibility Score: inf
ROOT
ATOM      1  C   UNL     1      49.630  48.607   5.047  1.00  0.00     0.000 C 
ENDROOT
BRANCH   1   2
ATOM      2  C   UNL     1      50.587  49.063   3.931  1.00  0.00     0.000 C 
BRANCH   2   3
ATOM      3  C   UNL     1      49.900  49.460   2.610  1.00  0.00     0.000 C 
BRANCH   3   4
ATOM      4  C   UNL     1      48.734  50.459   2.751  1.00  0.00     0.000 C 
BRANCH   4   5
ATOM      5  C   UNL     1      47.341  49.888   2.430  1.00  0.00     0.000 C 
BRANCH   5   6
ATOM      6  C   UNL     1      47.338  48.602   1.579  1.00  0.00     0.006 C 
BRANCH   6   7
ATOM      7  C   UNL     1      47.012  47.327   2.376  1.00  0.00     0.053 C 
BRANCH   7   8
ATOM      8  C   UNL     1      47.629  46.101   1.772  1.00  0.00     0.041 C 
ATOM      9  O   UNL     1      47.197  45.645   0.681  1.00  0.00    -0.550 OA
ATOM     10  O   UNL     1      48.705  45.482   2.396  1.00  0.00    -0.550 OA
ENDBRANCH   7   8
ENDBRANCH   6   7
ENDBRANCH   5   6
ENDBRANCH   4   5
ENDBRANCH   3   4
ENDBRANCH   2   3
ENDBRANCH   1   2
BRANCH   1  11
ATOM     11  C   UNL     1      49.208  49.759   5.977  1.00  0.00     0.000 C 
BRANCH  11  12
ATOM     12  C   UNL     1      50.353  50.227   6.889  1.00  0.00     0.000 C 
BRANCH  12  13
ATOM     13  C   UNL     1      50.459  51.762   6.959  1.00  0.00     0.000 C 
BRANCH  13  14
ATOM     14  C   UNL     1      50.681  52.400   5.578  1.00  0.00     0.000 C 
BRANCH  14  15
ATOM     15  C   UNL     1      52.132  52.868   5.372  1.00  0.00     0.000 C 
BRANCH  15  16
ATOM     16  C   UNL     1      53.045  51.749   4.847  1.00  0.00     0.006 C 
BRANCH  16  17
ATOM     17  C   UNL     1      54.532  52.119   4.921  1.00  0.00     0.053 C 
BRANCH  17  18
ATOM     18  C   UNL     1      55.350  51.159   4.116  1.00  0.00     0.041 C 
ATOM     19  O   UNL     1      54.876  50.037   3.795  1.00  0.00    -0.550 OA
ATOM     20  O   UNL     1      56.616  51.523   3.676  1.00  0.00    -0.550 OA
ENDBRANCH  17  18
ENDBRANCH  16  17
ENDBRANCH  15  16
ENDBRANCH  14  15
ENDBRANCH  13  14
ENDBRANCH  12  13
ENDBRANCH  11  12
ENDBRANCH   1  11
TORSDOF 15
ENDMDL
MODEL 8
REMARK VINA RESULT:    -5.537      2.521      5.842
REMARK INTER + INTRA:         -12.132
REMARK INTER:                 -10.578
REMARK INTRA:                  -1.554
REMARK UNBOUND:                -1.740
REMARK SMILES O=C([O-])CCCCCCCCCCCCCCC(=O)[O-]
REMARK SMILES IDX 10 1 9 2 8 3 7 4 6 5 5 6 4 7 2 8 1 9 3 10 11 11 12 12 13 13
REMARK SMILES IDX 14 14 15 15 16 16 17 17 18 18 19 19 20 20
REMARK H PARENT
REMARK Flexibility Score: inf
ROOT
ATOM      1  C   UNL     1      54.802  52.356   5.923  1.00  0.00     0.000 C 
ENDROOT
BRANCH   1   2
ATOM      2  C   UNL     1      53.685  53.055   6.719  1.00  0.00     0.000 C 
BRANCH   2   3
ATOM      3  C   UNL     1      52.324  53.125   6.000  1.00  0.00     0.000 C 
BRANCH   3   4
ATOM      4  C   UNL     1      51.125  52.596   6.813  1.00  0.00     0.000 C 
BRANCH   4   5
ATOM      5  C   UNL     1      50.995  51.062   6.863  1.00  0.00     0.000 C 
BRANCH   5   6
ATOM      6  C   UNL     1      49.597  50.533   7.239  1.00  0.00     0.006 C 
BRANCH   6   7
ATOM      7  C   UNL     1      48.857  49.845   6.078  1.00  0.00     0.053 C 
BRANCH   7   8
ATOM      8  C   UNL     1      48.121  50.820   5.209  1.00  0.00     0.041 C 
ATOM      9  O   UNL     1      46.882  50.699   5.028  1.00  0.00    -0.550 OA
ATOM     10  O   UNL     1      48.799  51.883   4.627  1.00  0.00    -0.550 OA
ENDBRANCH   7   8
ENDBRANCH   6   7
ENDBRANCH   5   6
ENDBRANCH   4   5
ENDBRANCH   3   4
ENDBRANCH   2   3
ENDBRANCH   1   2
BRANCH   1  11
ATOM     11  C   UNL     1      54.353  51.934   4.513  1.00  0.00     0.000 C 
BRANCH  11  12
ATOM     12  C   UNL     1      54.709  50.473   4.195  1.00  0.00     0.000 C 
BRANCH  12  13
ATOM     13  C   UNL     1      53.608  49.490   4.634  1.00  0.00     0.000 C 
BRANCH  13  14
ATOM     14  C   UNL     1      52.214  49.913   4.147  1.00  0.00     0.000 C 
BRANCH  14  15
ATOM     15  C   UNL     1      51.291  48.710   3.884  1.00  0.00     0.000 C 
BRANCH  15  16
ATOM     16  C   UNL     1      50.184  49.026   2.867  1.00  0.00     0.006 C 
BRANCH  16  17
ATOM     17  C   UNL     1      49.119  47.924   2.793  1.00  0.00     0.053 C 
BRANCH  17  18
ATOM     18  C   UNL     1      47.901  48.421   2.080  1.00  0.00     0.041 C 
ATOM     19  O   UNL     1      47.717  49.657   1.927  1.00  0.00    -0.550 OA
ATOM     20  O   UNL     1      46.995  47.519   1.540  1.00  0.00    -0.550 OA
ENDBRANCH  17  18
ENDBRANCH  16  17
ENDBRANCH  15  16
ENDBRANCH  14  15
ENDBRANCH  13  14
ENDBRANCH  12  13
ENDBRANCH  11  12
ENDBRANCH   1  11
TORSDOF 15
ENDMDL
MODEL 9
REMARK VINA RESULT:    -5.505      2.217      6.107
REMARK INTER + INTRA:         -12.072
REMARK INTER:                 -10.463
REMARK INTRA:                  -1.608
REMARK UNBOUND:                -1.740
REMARK SMILES O=C([O-])CCCCCCCCCCCCCCC(=O)[O-]
REMARK SMILES IDX 10 1 9 2 8 3 7 4 6 5 5 6 4 7 2 8 1 9 3 10 11 11 12 12 13 13
REMARK SMILES IDX 14 14 15 15 16 16 17 17 18 18 19 19 20 20
REMARK H PARENT
REMARK Flexibility Score: inf
ROOT
ATOM      1  C   UNL     1      50.751  51.040   6.517  1.00  0.00     0.000 C 
ENDROOT
BRANCH   1   2
ATOM      2  C   UNL     1      51.874  50.855   7.553  1.00  0.00     0.000 C 
BRANCH   2   3
ATOM      3  C   UNL     1      53.253  50.509   6.958  1.00  0.00     0.000 C 
BRANCH   3   4
ATOM      4  C   UNL     1      54.398  51.461   7.359  1.00  0.00     0.000 C 
BRANCH   4   5
ATOM      5  C   UNL     1      54.532  52.725   6.490  1.00  0.00     0.000 C 
BRANCH   5   6
ATOM      6  C   UNL     1      54.341  52.505   4.976  1.00  0.00     0.006 C 
BRANCH   6   7
ATOM      7  C   UNL     1      55.583  51.938   4.266  1.00  0.00     0.053 C 
BRANCH   7   8
ATOM      8  C   UNL     1      55.395  50.514   3.834  1.00  0.00     0.041 C 
ATOM      9  O   UNL     1      56.381  49.835   3.445  1.00  0.00    -0.550 OA
ATOM     10  O   UNL     1      54.139  49.926   3.897  1.00  0.00    -0.550 OA
ENDBRANCH   7   8
ENDBRANCH   6   7
ENDBRANCH   5   6
ENDBRANCH   4   5
ENDBRANCH   3   4
ENDBRANCH   2   3
ENDBRANCH   1   2
BRANCH   1  11
ATOM     11  C   UNL     1      50.732  52.451   5.905  1.00  0.00     0.000 C 
BRANCH  11  12
ATOM     12  C   UNL     1      50.401  52.437   4.404  1.00  0.00     0.000 C 
BRANCH  12  13
ATOM     13  C   UNL     1      49.059  53.125   4.092  1.00  0.00     0.000 C 
BRANCH  13  14
ATOM     14  C   UNL     1      48.110  52.224   3.287  1.00  0.00     0.000 C 
BRANCH  14  15
ATOM     15  C   UNL     1      47.926  50.838   3.930  1.00  0.00     0.000 C 
BRANCH  15  16
ATOM     16  C   UNL     1      48.029  49.695   2.908  1.00  0.00     0.006 C 
BRANCH  16  17
ATOM     17  C   UNL     1      49.453  49.517   2.365  1.00  0.00     0.053 C 
BRANCH  17  18
ATOM     18  C   UNL     1      50.245  48.617   3.259  1.00  0.00     0.041 C 
ATOM     19  O   UNL     1      51.272  49.050   3.846  1.00  0.00    -0.550 OA
ATOM     20  O   UNL     1      49.823  47.314   3.485  1.00  0.00    -0.550 OA
ENDBRANCH  17  18
ENDBRANCH  16  17
ENDBRANCH  15  16
ENDBRANCH  14  15
ENDBRANCH  13  14
ENDBRANCH  12  13
ENDBRANCH  11  12
ENDBRANCH   1  11
TORSDOF 15
ENDMDL
