MODEL 1
REMARK VINA RESULT:    -3.717      0.000      0.000
REMARK INTER + INTRA:          -4.404
REMARK INTER:                  -4.151
REMARK INTRA:                  -0.253
REMARK UNBOUND:                -0.253
REMARK SMILES CC(=O)c1ccc(O)cc1O
REMARK SMILES IDX 4 1 10 2 9 3 7 4 6 5 5 6 2 7 1 8 3 9 11 10 8 12
REMARK H PARENT 11 11 8 13
REMARK Flexibility Score: inf
ROOT
ATOM      1  C   UNL     1      10.330  15.123   1.543  1.00  0.00     0.059 A 
ATOM      2  C   UNL     1      10.502  16.521   1.386  1.00  0.00     0.130 A 
ATOM      3  C   UNL     1       9.410  17.380   1.570  1.00  0.00     0.093 A 
ATOM      4  C   UNL     1       8.162  16.877   1.940  1.00  0.00     0.119 A 
ATOM      5  C   UNL     1       7.995  15.501   2.125  1.00  0.00     0.047 A 
ATOM      6  C   UNL     1       9.069  14.631   1.928  1.00  0.00     0.019 A 
ENDROOT
BRANCH   1   7
ATOM      7  C   UNL     1      11.427  14.162   1.278  1.00  0.00     0.163 C 
ATOM      8  C   UNL     1      11.435  13.317   0.041  1.00  0.00     0.093 C 
ATOM      9  O   UNL     1      12.416  14.105   2.057  1.00  0.00    -0.294 OA
ENDBRANCH   1   7
BRANCH   2  10
ATOM     10  O   UNL     1      11.738  17.093   1.079  1.00  0.00    -0.507 OA
ATOM     11  H   UNL     1      12.232  16.920   0.214  1.00  0.00     0.293 HD
ENDBRANCH   2  10
BRANCH   4  12
ATOM     12  O   UNL     1       7.095  17.753   2.125  1.00  0.00    -0.508 OA
ATOM     13  H   UNL     1       6.577  18.130   1.339  1.00  0.00     0.293 HD
ENDBRANCH   4  12
TORSDOF 3
ENDMDL
MODEL 2
REMARK VINA RESULT:    -2.708      1.881      2.512
REMARK INTER + INTRA:          -3.277
REMARK INTER:                  -2.980
REMARK INTRA:                  -0.297
REMARK UNBOUND:                -0.253
REMARK SMILES CC(=O)c1ccc(O)cc1O
REMARK SMILES IDX 4 1 10 2 9 3 7 4 6 5 5 6 2 7 1 8 3 9 11 10 8 12
REMARK H PARENT 11 11 8 13
REMARK Flexibility Score: inf
ROOT
ATOM      1  C   UNL     1      11.531  14.535   1.015  1.00  0.00     0.059 A 
ATOM      2  C   UNL     1      10.317  14.560   0.284  1.00  0.00     0.130 A 
ATOM      3  C   UNL     1       9.391  15.586   0.510  1.00  0.00     0.093 A 
ATOM      4  C   UNL     1       9.665  16.606   1.423  1.00  0.00     0.119 A 
ATOM      5  C   UNL     1      10.874  16.602   2.125  1.00  0.00     0.047 A 
ATOM      6  C   UNL     1      11.800  15.576   1.924  1.00  0.00     0.019 A 
ENDROOT
BRANCH   1   7
ATOM      7  C   UNL     1      12.507  13.428   0.879  1.00  0.00     0.163 C 
ATOM      8  C   UNL     1      13.226  12.879   2.073  1.00  0.00     0.093 C 
ATOM      9  O   UNL     1      12.683  12.877  -0.241  1.00  0.00    -0.294 OA
ENDBRANCH   1   7
BRANCH   2  10
ATOM     10  O   UNL     1      10.009  13.606  -0.689  1.00  0.00    -0.507 OA
ATOM     11  H   UNL     1       9.080  13.474  -1.064  1.00  0.00     0.293 HD
ENDBRANCH   2  10
BRANCH   4  12
ATOM     12  O   UNL     1       8.731  17.620   1.622  1.00  0.00    -0.508 OA
ATOM     13  H   UNL     1       9.014  18.589   1.719  1.00  0.00     0.293 HD
ENDBRANCH   4  12
TORSDOF 3
ENDMDL
MODEL 3
REMARK VINA RESULT:    -2.046      1.252      4.061
REMARK INTER + INTRA:          -2.537
REMARK INTER:                  -2.270
REMARK INTRA:                  -0.267
REMARK UNBOUND:                -0.253
REMARK SMILES CC(=O)c1ccc(O)cc1O
REMARK SMILES IDX 4 1 10 2 9 3 7 4 6 5 5 6 2 7 1 8 3 9 11 10 8 12
REMARK H PARENT 11 11 8 13
REMARK Flexibility Score: inf
ROOT
ATOM      1  C   UNL     1       9.740  15.578   1.272  1.00  0.00     0.059 A 
ATOM      2  C   UNL     1      11.081  15.994   1.466  1.00  0.00     0.130 A 
ATOM      3  C   UNL     1      12.132  15.187   1.012  1.00  0.00     0.093 A 
ATOM      4  C   UNL     1      11.873  13.992   0.338  1.00  0.00     0.119 A 
ATOM      5  C   UNL     1      10.552  13.591   0.118  1.00  0.00     0.047 A 
ATOM      6  C   UNL     1       9.494  14.376   0.580  1.00  0.00     0.019 A 
ENDROOT
BRANCH   1   7
ATOM      7  C   UNL     1       8.592  16.348   1.806  1.00  0.00     0.163 C 
ATOM      8  C   UNL     1       7.291  15.679   2.125  1.00  0.00     0.093 C 
ATOM      9  O   UNL     1       8.728  17.571   2.078  1.00  0.00    -0.294 OA
ENDBRANCH   1   7
BRANCH   2  10
ATOM     10  O   UNL     1      11.407  17.208   2.075  1.00  0.00    -0.507 OA
ATOM     11  H   UNL     1      11.635  17.294   3.056  1.00  0.00     0.293 HD
ENDBRANCH   2  10
BRANCH   4  12
ATOM     12  O   UNL     1      12.937  13.212  -0.111  1.00  0.00    -0.508 OA
ATOM     13  H   UNL     1      12.815  12.232  -0.340  1.00  0.00     0.293 HD
ENDBRANCH   4  12
TORSDOF 3
ENDMDL
MODEL 4
REMARK VINA RESULT:    -1.375      1.288      2.128
REMARK INTER + INTRA:          -1.788
REMARK INTER:                  -1.653
REMARK INTRA:                  -0.135
REMARK UNBOUND:                -0.253
REMARK SMILES CC(=O)c1ccc(O)cc1O
REMARK SMILES IDX 4 1 10 2 9 3 7 4 6 5 5 6 2 7 1 8 3 9 11 10 8 12
REMARK H PARENT 11 11 8 13
REMARK Flexibility Score: inf
ROOT
ATOM      1  C   UNL     1       9.981  15.284   1.257  1.00  0.00     0.059 A 
ATOM      2  C   UNL     1       8.749  14.894   1.838  1.00  0.00     0.130 A 
ATOM      3  C   UNL     1       7.779  15.864   2.125  1.00  0.00     0.093 A 
ATOM      4  C   UNL     1       7.998  17.206   1.813  1.00  0.00     0.119 A 
ATOM      5  C   UNL     1       9.200  17.592   1.212  1.00  0.00     0.047 A 
ATOM      6  C   UNL     1      10.184  16.640   0.937  1.00  0.00     0.019 A 
ENDROOT
BRANCH   1   7
ATOM      7  C   UNL     1      11.075  14.315   1.012  1.00  0.00     0.163 C 
ATOM      8  C   UNL     1      11.201  13.606  -0.301  1.00  0.00     0.093 C 
ATOM      9  O   UNL     1      11.967  14.138   1.885  1.00  0.00    -0.294 OA
ENDBRANCH   1   7
BRANCH   2  10
ATOM     10  O   UNL     1       8.441  13.561   2.117  1.00  0.00    -0.507 OA
ATOM     11  H   UNL     1       8.901  13.023   2.838  1.00  0.00     0.293 HD
ENDBRANCH   2  10
BRANCH   4  12
ATOM     12  O   UNL     1       7.013  18.149   2.100  1.00  0.00    -0.508 OA
ATOM     13  H   UNL     1       6.458  18.576   1.367  1.00  0.00     0.293 HD
ENDBRANCH   4  12
TORSDOF 3
ENDMDL
MODEL 5
REMARK VINA RESULT:    -1.314      1.715      2.766
REMARK INTER + INTRA:          -1.721
REMARK INTER:                  -1.480
REMARK INTRA:                  -0.241
REMARK UNBOUND:                -0.253
REMARK SMILES CC(=O)c1ccc(O)cc1O
REMARK SMILES IDX 4 1 10 2 9 3 7 4 6 5 5 6 2 7 1 8 3 9 11 10 8 12
REMARK H PARENT 11 11 8 13
REMARK Flexibility Score: inf
ROOT
ATOM      1  C   UNL     1       9.924  15.956   1.937  1.00  0.00     0.059 A 
ATOM      2  C   UNL     1       9.581  14.597   1.726  1.00  0.00     0.130 A 
ATOM      3  C   UNL     1       8.235  14.208   1.750  1.00  0.00     0.093 A 
ATOM      4  C   UNL     1       7.224  15.150   1.945  1.00  0.00     0.119 A 
ATOM      5  C   UNL     1       7.555  16.497   2.125  1.00  0.00     0.047 A 
ATOM      6  C   UNL     1       8.893  16.897   2.121  1.00  0.00     0.019 A 
ENDROOT
BRANCH   1   7
ATOM      7  C   UNL     1      11.333  16.409   2.007  1.00  0.00     0.163 C 
ATOM      8  C   UNL     1      11.677  17.866   2.052  1.00  0.00     0.093 C 
ATOM      9  O   UNL     1      12.261  15.563   2.114  1.00  0.00    -0.294 OA
ENDBRANCH   1   7
BRANCH   2  10
ATOM     10  O   UNL     1      10.539  13.616   1.462  1.00  0.00    -0.507 OA
ATOM     11  H   UNL     1      10.353  12.624   1.530  1.00  0.00     0.293 HD
ENDBRANCH   2  10
BRANCH   4  12
ATOM     12  O   UNL     1       5.893  14.739   1.956  1.00  0.00    -0.508 OA
ATOM     13  H   UNL     1       5.517  14.142   1.227  1.00  0.00     0.293 HD
ENDBRANCH   4  12
TORSDOF 3
ENDMDL
MODEL 6
REMARK VINA RESULT:    -0.975      1.982      4.296
REMARK INTER + INTRA:          -1.342
REMARK INTER:                  -1.040
REMARK INTRA:                  -0.302
REMARK UNBOUND:                -0.253
REMARK SMILES CC(=O)c1ccc(O)cc1O
REMARK SMILES IDX 4 1 10 2 9 3 7 4 6 5 5 6 2 7 1 8 3 9 11 10 8 12
REMARK H PARENT 11 11 8 13
REMARK Flexibility Score: inf
ROOT
ATOM      1  C   UNL     1      10.596  14.549   0.688  1.00  0.00     0.059 A 
ATOM      2  C   UNL     1      11.327  15.293   1.647  1.00  0.00     0.130 A 
ATOM      3  C   UNL     1      12.549  14.800   2.124  1.00  0.00     0.093 A 
ATOM      4  C   UNL     1      13.072  13.600   1.640  1.00  0.00     0.119 A 
ATOM      5  C   UNL     1      12.369  12.877   0.672  1.00  0.00     0.047 A 
ATOM      6  C   UNL     1      11.142  13.346   0.199  1.00  0.00     0.019 A 
ENDROOT
BRANCH   1   7
ATOM      7  C   UNL     1       9.260  14.979   0.212  1.00  0.00     0.163 C 
ATOM      8  C   UNL     1       8.791  14.657  -1.174  1.00  0.00     0.093 C 
ATOM      9  O   UNL     1       8.465  15.554   1.003  1.00  0.00    -0.294 OA
ENDBRANCH   1   7
BRANCH   2  10
ATOM     10  O   UNL     1      10.892  16.531   2.125  1.00  0.00    -0.507 OA
ATOM     11  H   UNL     1      10.161  17.072   1.683  1.00  0.00     0.293 HD
ENDBRANCH   2  10
BRANCH   4  12
ATOM     12  O   UNL     1      14.293  13.137   2.125  1.00  0.00    -0.508 OA
ATOM     13  H   UNL     1      14.741  13.565   2.928  1.00  0.00     0.293 HD
ENDBRANCH   4  12
TORSDOF 3
ENDMDL
