MODEL 1
REMARK VINA RESULT:    -4.254      0.000      0.000
REMARK INTER + INTRA:          -9.939
REMARK INTER:                  -7.735
REMARK INTRA:                  -2.203
REMARK UNBOUND:                -2.203
REMARK SMILES CCCCCCCCCCCCCCCC(=O)[O-]
REMARK SMILES IDX 9 1 10 2 11 3 12 4 13 5 14 6 15 7 16 8 17 9 18 10 8 11 7 12
REMARK SMILES IDX 6 13 5 14 4 15 3 16 2 17 1 18
REMARK H PARENT
REMARK Flexibility Score: inf
ROOT
ATOM      1  C   UNL     1      23.756   5.108   7.054  1.00  0.00     0.000 C 
ENDROOT
BRANCH   1   2
ATOM      2  C   UNL     1      23.978   4.352   8.381  1.00  0.00     0.000 C 
BRANCH   2   3
ATOM      3  C   UNL     1      25.020   3.221   8.329  1.00  0.00     0.000 C 
BRANCH   3   4
ATOM      4  C   UNL     1      25.995   3.359   7.148  1.00  0.00     0.000 C 
BRANCH   4   5
ATOM      5  C   UNL     1      27.442   2.979   7.516  1.00  0.00     0.000 C 
BRANCH   5   6
ATOM      6  C   UNL     1      27.584   1.979   8.682  1.00  0.00     0.006 C 
BRANCH   6   7
ATOM      7  C   UNL     1      28.197   0.625   8.291  1.00  0.00     0.053 C 
BRANCH   7   8
ATOM      8  C   UNL     1      27.158  -0.344   7.814  1.00  0.00     0.041 C 
ATOM      9  O   UNL     1      27.477  -1.281   7.036  1.00  0.00    -0.550 OA
ATOM     10  O   UNL     1      25.846  -0.232   8.255  1.00  0.00    -0.550 OA
ENDBRANCH   7   8
ENDBRANCH   6   7
ENDBRANCH   5   6
ENDBRANCH   4   5
ENDBRANCH   3   4
ENDBRANCH   2   3
ENDBRANCH   1   2
BRANCH   1  11
ATOM     11  C   UNL     1      24.045   6.619   7.101  1.00  0.00     0.000 C 
BRANCH  11  12
ATOM     12  C   UNL     1      25.432   6.980   6.542  1.00  0.00    -0.000 C 
BRANCH  12  13
ATOM     13  C   UNL     1      26.273   7.798   7.535  1.00  0.00    -0.000 C 
BRANCH  13  14
ATOM     14  C   UNL     1      26.205   7.243   8.969  1.00  0.00    -0.000 C 
BRANCH  14  15
ATOM     15  C   UNL     1      27.364   6.285   9.285  1.00  0.00    -0.000 C 
BRANCH  15  16
ATOM     16  C   UNL     1      27.138   5.494  10.586  1.00  0.00    -0.000 C 
BRANCH  16  17
ATOM     17  C   UNL     1      28.415   5.374  11.431  1.00  0.00    -0.003 C 
ATOM     18  C   UNL     1      28.897   3.930  11.573  1.00  0.00     0.004 C 
ENDBRANCH  16  17
ENDBRANCH  15  16
ENDBRANCH  14  15
ENDBRANCH  13  14
ENDBRANCH  12  13
ENDBRANCH  11  12
ENDBRANCH   1  11
TORSDOF 14
ENDMDL
MODEL 2
REMARK VINA RESULT:    -4.251      1.647      3.127
REMARK INTER + INTRA:          -9.934
REMARK INTER:                  -7.717
REMARK INTRA:                  -2.217
REMARK UNBOUND:                -2.203
REMARK SMILES CCCCCCCCCCCCCCCC(=O)[O-]
REMARK SMILES IDX 9 1 10 2 11 3 12 4 13 5 14 6 15 7 16 8 17 9 18 10 8 11 7 12
REMARK SMILES IDX 6 13 5 14 4 15 3 16 2 17 1 18
REMARK H PARENT
REMARK Flexibility Score: inf
ROOT
ATOM      1  C   UNL     1      25.019   8.547   8.922  1.00  0.00     0.000 C 
ENDROOT
BRANCH   1   2
ATOM      2  C   UNL     1      26.275   7.917   8.285  1.00  0.00     0.000 C 
BRANCH   2   3
ATOM      3  C   UNL     1      26.253   7.809   6.750  1.00  0.00     0.000 C 
BRANCH   3   4
ATOM      4  C   UNL     1      25.642   6.488   6.252  1.00  0.00     0.000 C 
BRANCH   4   5
ATOM      5  C   UNL     1      26.462   5.253   6.666  1.00  0.00     0.000 C 
BRANCH   5   6
ATOM      6  C   UNL     1      25.736   3.900   6.521  1.00  0.00     0.006 C 
BRANCH   6   7
ATOM      7  C   UNL     1      26.662   2.675   6.511  1.00  0.00     0.053 C 
BRANCH   7   8
ATOM      8  C   UNL     1      26.662   1.961   7.829  1.00  0.00     0.041 C 
ATOM      9  O   UNL     1      25.574   1.708   8.411  1.00  0.00    -0.550 OA
ATOM     10  O   UNL     1      27.859   1.546   8.397  1.00  0.00    -0.550 OA
ENDBRANCH   7   8
ENDBRANCH   6   7
ENDBRANCH   5   6
ENDBRANCH   4   5
ENDBRANCH   3   4
ENDBRANCH   2   3
ENDBRANCH   1   2
BRANCH   1  11
ATOM     11  C   UNL     1      24.263   7.647   9.916  1.00  0.00     0.000 C 
BRANCH  11  12
ATOM     12  C   UNL     1      23.565   6.459   9.234  1.00  0.00    -0.000 C 
BRANCH  12  13
ATOM     13  C   UNL     1      24.184   5.108   9.624  1.00  0.00    -0.000 C 
BRANCH  13  14
ATOM     14  C   UNL     1      25.217   5.234  10.758  1.00  0.00    -0.000 C 
BRANCH  14  15
ATOM     15  C   UNL     1      26.590   4.664  10.369  1.00  0.00    -0.000 C 
BRANCH  15  16
ATOM     16  C   UNL     1      27.745   5.623  10.708  1.00  0.00    -0.000 C 
BRANCH  16  17
ATOM     17  C   UNL     1      28.908   4.915  11.421  1.00  0.00    -0.003 C 
ATOM     18  C   UNL     1      28.757   3.394  11.427  1.00  0.00     0.004 C 
ENDBRANCH  16  17
ENDBRANCH  15  16
ENDBRANCH  14  15
ENDBRANCH  13  14
ENDBRANCH  12  13
ENDBRANCH  11  12
ENDBRANCH   1  11
TORSDOF 14
ENDMDL
MODEL 3
REMARK VINA RESULT:    -4.148      1.936      4.132
REMARK INTER + INTRA:          -9.745
REMARK INTER:                  -7.403
REMARK INTRA:                  -2.343
REMARK UNBOUND:                -2.203
REMARK SMILES CCCCCCCCCCCCCCCC(=O)[O-]
REMARK SMILES IDX 9 1 10 2 11 3 12 4 13 5 14 6 15 7 16 8 17 9 18 10 8 11 7 12
REMARK SMILES IDX 6 13 5 14 4 15 3 16 2 17 1 18
REMARK H PARENT
REMARK Flexibility Score: inf
ROOT
ATOM      1  C   UNL     1      27.175   5.797  10.054  1.00  0.00     0.000 C 
ENDROOT
BRANCH   1   2
ATOM      2  C   UNL     1      27.692   4.509  10.729  1.00  0.00     0.000 C 
BRANCH   2   3
ATOM      3  C   UNL     1      27.999   3.342   9.774  1.00  0.00     0.000 C 
BRANCH   3   4
ATOM      4  C   UNL     1      27.635   3.652   8.313  1.00  0.00     0.000 C 
BRANCH   4   5
ATOM      5  C   UNL     1      27.429   2.384   7.464  1.00  0.00     0.000 C 
BRANCH   5   6
ATOM      6  C   UNL     1      26.988   2.632   6.006  1.00  0.00     0.006 C 
BRANCH   6   7
ATOM      7  C   UNL     1      25.787   1.789   5.550  1.00  0.00     0.053 C 
BRANCH   7   8
ATOM      8  C   UNL     1      26.174   0.772   4.520  1.00  0.00     0.041 C 
ATOM      9  O   UNL     1      26.144   1.068   3.296  1.00  0.00    -0.550 OA
ATOM     10  O   UNL     1      26.600  -0.490   4.912  1.00  0.00    -0.550 OA
ENDBRANCH   7   8
ENDBRANCH   6   7
ENDBRANCH   5   6
ENDBRANCH   4   5
ENDBRANCH   3   4
ENDBRANCH   2   3
ENDBRANCH   1   2
BRANCH   1  11
ATOM     11  C   UNL     1      25.676   6.084  10.246  1.00  0.00     0.000 C 
BRANCH  11  12
ATOM     12  C   UNL     1      24.890   4.857  10.737  1.00  0.00    -0.000 C 
BRANCH  12  13
ATOM     13  C   UNL     1      24.182   4.114   9.592  1.00  0.00    -0.000 C 
BRANCH  13  14
ATOM     14  C   UNL     1      23.641   5.068   8.512  1.00  0.00    -0.000 C 
BRANCH  14  15
ATOM     15  C   UNL     1      24.250   4.795   7.128  1.00  0.00    -0.000 C 
BRANCH  15  16
ATOM     16  C   UNL     1      24.630   6.089   6.385  1.00  0.00    -0.000 C 
BRANCH  16  17
ATOM     17  C   UNL     1      26.147   6.336   6.372  1.00  0.00    -0.003 C 
ATOM     18  C   UNL     1      26.528   7.699   6.949  1.00  0.00     0.004 C 
ENDBRANCH  16  17
ENDBRANCH  15  16
ENDBRANCH  14  15
ENDBRANCH  13  14
ENDBRANCH  12  13
ENDBRANCH  11  12
ENDBRANCH   1  11
TORSDOF 14
ENDMDL
MODEL 4
REMARK VINA RESULT:    -4.137      1.286      3.701
REMARK INTER + INTRA:          -9.727
REMARK INTER:                  -7.609
REMARK INTRA:                  -2.118
REMARK UNBOUND:                -2.203
REMARK SMILES CCCCCCCCCCCCCCCC(=O)[O-]
REMARK SMILES IDX 9 1 10 2 11 3 12 4 13 5 14 6 15 7 16 8 17 9 18 10 8 11 7 12
REMARK SMILES IDX 6 13 5 14 4 15 3 16 2 17 1 18
REMARK H PARENT
REMARK Flexibility Score: inf
ROOT
ATOM      1  C   UNL     1      25.861   5.583  10.958  1.00  0.00     0.000 C 
ENDROOT
BRANCH   1   2
ATOM      2  C   UNL     1      27.194   5.684  10.189  1.00  0.00     0.000 C 
BRANCH   2   3
ATOM      3  C   UNL     1      28.349   4.839  10.756  1.00  0.00     0.000 C 
BRANCH   3   4
ATOM      4  C   UNL     1      28.198   3.339  10.452  1.00  0.00     0.000 C 
BRANCH   4   5
ATOM      5  C   UNL     1      28.114   3.037   8.945  1.00  0.00     0.000 C 
BRANCH   5   6
ATOM      6  C   UNL     1      27.450   1.693   8.578  1.00  0.00     0.006 C 
BRANCH   6   7
ATOM      7  C   UNL     1      28.295   0.452   8.903  1.00  0.00     0.053 C 
BRANCH   7   8
ATOM      8  C   UNL     1      27.458  -0.786   9.002  1.00  0.00     0.041 C 
ATOM      9  O   UNL     1      26.237  -0.751   8.697  1.00  0.00    -0.550 OA
ATOM     10  O   UNL     1      28.033  -1.987   9.399  1.00  0.00    -0.550 OA
ENDBRANCH   7   8
ENDBRANCH   6   7
ENDBRANCH   5   6
ENDBRANCH   4   5
ENDBRANCH   3   4
ENDBRANCH   2   3
ENDBRANCH   1   2
BRANCH   1  11
ATOM     11  C   UNL     1      24.848   4.572  10.390  1.00  0.00     0.000 C 
BRANCH  11  12
ATOM     12  C   UNL     1      24.333   4.963   8.994  1.00  0.00    -0.000 C 
BRANCH  12  13
ATOM     13  C   UNL     1      24.565   3.859   7.951  1.00  0.00    -0.000 C 
BRANCH  13  14
ATOM     14  C   UNL     1      25.064   4.411   6.604  1.00  0.00    -0.000 C 
BRANCH  14  15
ATOM     15  C   UNL     1      26.302   5.310   6.758  1.00  0.00    -0.000 C 
BRANCH  15  16
ATOM     16  C   UNL     1      26.039   6.758   6.308  1.00  0.00    -0.000 C 
BRANCH  16  17
ATOM     17  C   UNL     1      26.661   7.791   7.260  1.00  0.00    -0.003 C 
ATOM     18  C   UNL     1      25.651   8.356   8.259  1.00  0.00     0.004 C 
ENDBRANCH  16  17
ENDBRANCH  15  16
ENDBRANCH  14  15
ENDBRANCH  13  14
ENDBRANCH  12  13
ENDBRANCH  11  12
ENDBRANCH   1  11
TORSDOF 14
ENDMDL
MODEL 5
REMARK VINA RESULT:    -4.128      1.366      3.369
REMARK INTER + INTRA:          -9.709
REMARK INTER:                  -7.428
REMARK INTRA:                  -2.282
REMARK UNBOUND:                -2.203
REMARK SMILES CCCCCCCCCCCCCCCC(=O)[O-]
REMARK SMILES IDX 9 1 10 2 11 3 12 4 13 5 14 6 15 7 16 8 17 9 18 10 8 11 7 12
REMARK SMILES IDX 6 13 5 14 4 15 3 16 2 17 1 18
REMARK H PARENT
REMARK Flexibility Score: inf
ROOT
ATOM      1  C   UNL     1      26.374   5.496  10.427  1.00  0.00     0.000 C 
ENDROOT
BRANCH   1   2
ATOM      2  C   UNL     1      27.049   4.114  10.300  1.00  0.00     0.000 C 
BRANCH   2   3
ATOM      3  C   UNL     1      28.114   3.999   9.195  1.00  0.00     0.000 C 
BRANCH   3   4
ATOM      4  C   UNL     1      27.693   3.057   8.055  1.00  0.00     0.000 C 
BRANCH   4   5
ATOM      5  C   UNL     1      27.786   1.569   8.440  1.00  0.00     0.000 C 
BRANCH   5   6
ATOM      6  C   UNL     1      26.893   0.618   7.617  1.00  0.00     0.006 C 
BRANCH   6   7
ATOM      7  C   UNL     1      26.324  -0.569   8.409  1.00  0.00     0.053 C 
BRANCH   7   8
ATOM      8  C   UNL     1      27.407  -1.440   8.969  1.00  0.00     0.041 C 
ATOM      9  O   UNL     1      28.193  -2.048   8.196  1.00  0.00    -0.550 OA
ATOM     10  O   UNL     1      27.569  -1.555  10.344  1.00  0.00    -0.550 OA
ENDBRANCH   7   8
ENDBRANCH   6   7
ENDBRANCH   5   6
ENDBRANCH   4   5
ENDBRANCH   3   4
ENDBRANCH   2   3
ENDBRANCH   1   2
BRANCH   1  11
ATOM     11  C   UNL     1      27.008   6.618   9.586  1.00  0.00     0.000 C 
BRANCH  11  12
ATOM     12  C   UNL     1      26.000   7.307   8.651  1.00  0.00    -0.000 C 
BRANCH  12  13
ATOM     13  C   UNL     1      26.549   7.491   7.227  1.00  0.00    -0.000 C 
BRANCH  13  14
ATOM     14  C   UNL     1      26.165   6.334   6.288  1.00  0.00    -0.000 C 
BRANCH  14  15
ATOM     15  C   UNL     1      24.708   5.883   6.475  1.00  0.00    -0.000 C 
BRANCH  15  16
ATOM     16  C   UNL     1      24.593   4.388   6.825  1.00  0.00    -0.000 C 
BRANCH  16  17
ATOM     17  C   UNL     1      23.901   4.152   8.177  1.00  0.00    -0.003 C 
ATOM     18  C   UNL     1      23.934   2.686   8.609  1.00  0.00     0.004 C 
ENDBRANCH  16  17
ENDBRANCH  15  16
ENDBRANCH  14  15
ENDBRANCH  13  14
ENDBRANCH  12  13
ENDBRANCH  11  12
ENDBRANCH   1  11
TORSDOF 14
ENDMDL
MODEL 6
REMARK VINA RESULT:    -4.114      2.689      5.953
REMARK INTER + INTRA:          -9.683
REMARK INTER:                  -7.375
REMARK INTRA:                  -2.309
REMARK UNBOUND:                -2.203
REMARK SMILES CCCCCCCCCCCCCCCC(=O)[O-]
REMARK SMILES IDX 9 1 10 2 11 3 12 4 13 5 14 6 15 7 16 8 17 9 18 10 8 11 7 12
REMARK SMILES IDX 6 13 5 14 4 15 3 16 2 17 1 18
REMARK H PARENT
REMARK Flexibility Score: inf
ROOT
ATOM      1  C   UNL     1      28.099   3.449   8.497  1.00  0.00     0.000 C 
ENDROOT
BRANCH   1   2
ATOM      2  C   UNL     1      27.938   3.110   9.993  1.00  0.00     0.000 C 
BRANCH   2   3
ATOM      3  C   UNL     1      28.342   4.228  10.970  1.00  0.00     0.000 C 
BRANCH   3   4
ATOM      4  C   UNL     1      27.746   5.595  10.596  1.00  0.00     0.000 C 
BRANCH   4   5
ATOM      5  C   UNL     1      26.208   5.616  10.658  1.00  0.00     0.000 C 
BRANCH   5   6
ATOM      6  C   UNL     1      25.512   6.357   9.498  1.00  0.00     0.006 C 
BRANCH   6   7
ATOM      7  C   UNL     1      26.455   6.811   8.373  1.00  0.00     0.053 C 
BRANCH   7   8
ATOM      8  C   UNL     1      25.906   6.487   7.016  1.00  0.00     0.041 C 
ATOM      9  O   UNL     1      24.771   5.952   6.904  1.00  0.00    -0.550 OA
ATOM     10  O   UNL     1      26.632   6.806   5.876  1.00  0.00    -0.550 OA
ENDBRANCH   7   8
ENDBRANCH   6   7
ENDBRANCH   5   6
ENDBRANCH   4   5
ENDBRANCH   3   4
ENDBRANCH   2   3
ENDBRANCH   1   2
BRANCH   1  11
ATOM     11  C   UNL     1      26.936   3.006   7.592  1.00  0.00     0.000 C 
BRANCH  11  12
ATOM     12  C   UNL     1      25.642   2.729   8.376  1.00  0.00    -0.000 C 
BRANCH  12  13
ATOM     13  C   UNL     1      24.917   1.465   7.889  1.00  0.00    -0.000 C 
BRANCH  13  14
ATOM     14  C   UNL     1      25.817   0.557   7.032  1.00  0.00    -0.000 C 
BRANCH  14  15
ATOM     15  C   UNL     1      25.937  -0.864   7.606  1.00  0.00    -0.000 C 
BRANCH  15  16
ATOM     16  C   UNL     1      27.400  -1.290   7.825  1.00  0.00    -0.000 C 
BRANCH  16  17
ATOM     17  C   UNL     1      28.167  -0.316   8.731  1.00  0.00    -0.003 C 
ATOM     18  C   UNL     1      28.122  -0.720  10.205  1.00  0.00     0.004 C 
ENDBRANCH  16  17
ENDBRANCH  15  16
ENDBRANCH  14  15
ENDBRANCH  13  14
ENDBRANCH  12  13
ENDBRANCH  11  12
ENDBRANCH   1  11
TORSDOF 14
ENDMDL
MODEL 7
REMARK VINA RESULT:    -4.049      1.194      3.298
REMARK INTER + INTRA:          -9.566
REMARK INTER:                  -7.179
REMARK INTRA:                  -2.388
REMARK UNBOUND:                -2.203
REMARK SMILES CCCCCCCCCCCCCCCC(=O)[O-]
REMARK SMILES IDX 9 1 10 2 11 3 12 4 13 5 14 6 15 7 16 8 17 9 18 10 8 11 7 12
REMARK SMILES IDX 6 13 5 14 4 15 3 16 2 17 1 18
REMARK H PARENT
REMARK Flexibility Score: inf
ROOT
ATOM      1  C   UNL     1      25.861   7.303   9.560  1.00  0.00     0.000 C 
ENDROOT
BRANCH   1   2
ATOM      2  C   UNL     1      27.159   6.475   9.658  1.00  0.00     0.000 C 
BRANCH   2   3
ATOM      3  C   UNL     1      27.183   5.415  10.773  1.00  0.00     0.000 C 
BRANCH   3   4
ATOM      4  C   UNL     1      28.297   4.372  10.584  1.00  0.00     0.000 C 
BRANCH   4   5
ATOM      5  C   UNL     1      28.367   3.823   9.147  1.00  0.00     0.000 C 
BRANCH   5   6
ATOM      6  C   UNL     1      27.671   2.464   8.926  1.00  0.00     0.006 C 
BRANCH   6   7
ATOM      7  C   UNL     1      27.618   2.004   7.461  1.00  0.00     0.053 C 
BRANCH   7   8
ATOM      8  C   UNL     1      26.742   0.801   7.282  1.00  0.00     0.041 C 
ATOM      9  O   UNL     1      25.910   0.486   8.174  1.00  0.00    -0.550 OA
ATOM     10  O   UNL     1      26.822   0.048   6.118  1.00  0.00    -0.550 OA
ENDBRANCH   7   8
ENDBRANCH   6   7
ENDBRANCH   5   6
ENDBRANCH   4   5
ENDBRANCH   3   4
ENDBRANCH   2   3
ENDBRANCH   1   2
BRANCH   1  11
ATOM     11  C   UNL     1      25.752   8.212   8.323  1.00  0.00     0.000 C 
BRANCH  11  12
ATOM     12  C   UNL     1      26.611   7.723   7.145  1.00  0.00    -0.000 C 
BRANCH  12  13
ATOM     13  C   UNL     1      25.857   6.742   6.233  1.00  0.00    -0.000 C 
BRANCH  13  14
ATOM     14  C   UNL     1      26.188   5.271   6.541  1.00  0.00    -0.000 C 
BRANCH  14  15
ATOM     15  C   UNL     1      24.935   4.383   6.588  1.00  0.00    -0.000 C 
BRANCH  15  16
ATOM     16  C   UNL     1      24.074   4.642   7.837  1.00  0.00    -0.000 C 
BRANCH  16  17
ATOM     17  C   UNL     1      24.306   3.596   8.938  1.00  0.00    -0.003 C 
ATOM     18  C   UNL     1      23.954   4.118  10.331  1.00  0.00     0.004 C 
ENDBRANCH  16  17
ENDBRANCH  15  16
ENDBRANCH  14  15
ENDBRANCH  13  14
ENDBRANCH  12  13
ENDBRANCH  11  12
ENDBRANCH   1  11
TORSDOF 14
ENDMDL
MODEL 8
REMARK VINA RESULT:    -4.045      1.471      2.050
REMARK INTER + INTRA:          -9.559
REMARK INTER:                  -8.036
REMARK INTRA:                  -1.523
REMARK UNBOUND:                -2.203
REMARK SMILES CCCCCCCCCCCCCCCC(=O)[O-]
REMARK SMILES IDX 9 1 10 2 11 3 12 4 13 5 14 6 15 7 16 8 17 9 18 10 8 11 7 12
REMARK SMILES IDX 6 13 5 14 4 15 3 16 2 17 1 18
REMARK H PARENT
REMARK Flexibility Score: inf
ROOT
ATOM      1  C   UNL     1      25.619   6.620   6.848  1.00  0.00     0.000 C 
ENDROOT
BRANCH   1   2
ATOM      2  C   UNL     1      26.485   5.385   6.522  1.00  0.00     0.000 C 
BRANCH   2   3
ATOM      3  C   UNL     1      25.920   4.038   7.006  1.00  0.00     0.000 C 
BRANCH   3   4
ATOM      4  C   UNL     1      26.983   2.929   7.064  1.00  0.00     0.000 C 
BRANCH   4   5
ATOM      5  C   UNL     1      26.782   1.966   8.248  1.00  0.00     0.000 C 
BRANCH   5   6
ATOM      6  C   UNL     1      28.031   1.159   8.660  1.00  0.00     0.006 C 
BRANCH   6   7
ATOM      7  C   UNL     1      28.128  -0.237   8.026  1.00  0.00     0.053 C 
BRANCH   7   8
ATOM      8  C   UNL     1      27.944  -1.327   9.037  1.00  0.00     0.041 C 
ATOM      9  O   UNL     1      27.858  -2.527   8.666  1.00  0.00    -0.550 OA
ATOM     10  O   UNL     1      27.899  -1.021  10.391  1.00  0.00    -0.550 OA
ENDBRANCH   7   8
ENDBRANCH   6   7
ENDBRANCH   5   6
ENDBRANCH   4   5
ENDBRANCH   3   4
ENDBRANCH   2   3
ENDBRANCH   1   2
BRANCH   1  11
ATOM     11  C   UNL     1      26.327   7.727   7.650  1.00  0.00     0.000 C 
BRANCH  11  12
ATOM     12  C   UNL     1      25.933   7.732   9.136  1.00  0.00    -0.000 C 
BRANCH  12  13
ATOM     13  C   UNL     1      24.813   6.729   9.452  1.00  0.00    -0.000 C 
BRANCH  13  14
ATOM     14  C   UNL     1      25.117   5.871  10.694  1.00  0.00    -0.000 C 
BRANCH  14  15
ATOM     15  C   UNL     1      26.285   4.899  10.466  1.00  0.00    -0.000 C 
BRANCH  15  16
ATOM     16  C   UNL     1      27.657   5.587  10.580  1.00  0.00    -0.000 C 
BRANCH  16  17
ATOM     17  C   UNL     1      28.824   4.609  10.378  1.00  0.00    -0.003 C 
ATOM     18  C   UNL     1      28.869   3.515  11.445  1.00  0.00     0.004 C 
ENDBRANCH  16  17
ENDBRANCH  15  16
ENDBRANCH  14  15
ENDBRANCH  13  14
ENDBRANCH  12  13
ENDBRANCH  11  12
ENDBRANCH   1  11
TORSDOF 14
ENDMDL
MODEL 9
REMARK VINA RESULT:    -3.999      2.768      5.140
REMARK INTER + INTRA:          -9.476
REMARK INTER:                  -7.083
REMARK INTRA:                  -2.392
REMARK UNBOUND:                -2.203
REMARK SMILES CCCCCCCCCCCCCCCC(=O)[O-]
REMARK SMILES IDX 9 1 10 2 11 3 12 4 13 5 14 6 15 7 16 8 17 9 18 10 8 11 7 12
REMARK SMILES IDX 6 13 5 14 4 15 3 16 2 17 1 18
REMARK H PARENT
REMARK Flexibility Score: inf
ROOT
ATOM      1  C   UNL     1      28.001   3.722   8.799  1.00  0.00     0.000 C 
ENDROOT
BRANCH   1   2
ATOM      2  C   UNL     1      27.625   2.316   8.286  1.00  0.00     0.000 C 
BRANCH   2   3
ATOM      3  C   UNL     1      26.314   2.236   7.484  1.00  0.00     0.000 C 
BRANCH   3   4
ATOM      4  C   UNL     1      25.883   3.593   6.903  1.00  0.00     0.000 C 
BRANCH   4   5
ATOM      5  C   UNL     1      24.573   4.120   7.516  1.00  0.00     0.000 C 
BRANCH   5   6
ATOM      6  C   UNL     1      24.272   3.631   8.948  1.00  0.00     0.006 C 
BRANCH   6   7
ATOM      7  C   UNL     1      23.071   4.316   9.618  1.00  0.00     0.053 C 
BRANCH   7   8
ATOM      8  C   UNL     1      22.163   4.961   8.616  1.00  0.00     0.041 C 
ATOM      9  O   UNL     1      21.276   4.281   8.035  1.00  0.00    -0.550 OA
ATOM     10  O   UNL     1      22.272   6.319   8.349  1.00  0.00    -0.550 OA
ENDBRANCH   7   8
ENDBRANCH   6   7
ENDBRANCH   5   6
ENDBRANCH   4   5
ENDBRANCH   3   4
ENDBRANCH   2   3
ENDBRANCH   1   2
BRANCH   1  11
ATOM     11  C   UNL     1      27.960   3.897  10.328  1.00  0.00     0.000 C 
BRANCH  11  12
ATOM     12  C   UNL     1      27.505   5.302  10.756  1.00  0.00    -0.000 C 
BRANCH  12  13
ATOM     13  C   UNL     1      27.246   6.229   9.557  1.00  0.00    -0.000 C 
BRANCH  13  14
ATOM     14  C   UNL     1      25.877   6.927   9.631  1.00  0.00    -0.000 C 
BRANCH  14  15
ATOM     15  C   UNL     1      25.498   7.621   8.314  1.00  0.00    -0.000 C 
BRANCH  15  16
ATOM     16  C   UNL     1      26.708   7.822   7.383  1.00  0.00    -0.000 C 
BRANCH  16  17
ATOM     17  C   UNL     1      26.512   7.156   6.013  1.00  0.00    -0.003 C 
ATOM     18  C   UNL     1      25.075   7.265   5.503  1.00  0.00     0.004 C 
ENDBRANCH  16  17
ENDBRANCH  15  16
ENDBRANCH  14  15
ENDBRANCH  13  14
ENDBRANCH  12  13
ENDBRANCH  11  12
ENDBRANCH   1  11
TORSDOF 14
ENDMDL
