MODEL 1
REMARK VINA RESULT:    -3.387      0.000      0.000
REMARK INTER + INTRA:          -4.283
REMARK INTER:                  -4.179
REMARK INTRA:                  -0.104
REMARK UNBOUND:                -0.104
REMARK SMILES CCCCCC(=O)[O-]
REMARK SMILES IDX 4 1 5 2 6 3 7 4 8 5 3 6 2 7 1 8
REMARK H PARENT
REMARK Flexibility Score: inf
ROOT
ATOM      1  C   UNL     1      27.987  34.076  21.745  1.00  0.00     0.006 C 
ENDROOT
BRANCH   1   2
ATOM      2  C   UNL     1      28.282  33.306  23.042  1.00  0.00     0.053 C 
BRANCH   2   3
ATOM      3  C   UNL     1      29.579  32.560  22.968  1.00  0.00     0.041 C 
ATOM      4  O   UNL     1      30.623  33.140  22.570  1.00  0.00    -0.550 OA
ATOM      5  O   UNL     1      29.641  31.231  23.371  1.00  0.00    -0.550 OA
ENDBRANCH   2   3
ENDBRANCH   1   2
BRANCH   1   6
ATOM      6  C   UNL     1      27.338  33.227  20.638  1.00  0.00     0.000 C 
BRANCH   6   7
ATOM      7  C   UNL     1      26.065  33.868  20.067  1.00  0.00    -0.003 C 
ATOM      8  C   UNL     1      24.878  32.912  20.163  1.00  0.00     0.004 C 
ENDBRANCH   6   7
ENDBRANCH   1   6
TORSDOF 4
ENDMDL
MODEL 2
REMARK VINA RESULT:    -3.211      2.855      4.482
REMARK INTER + INTRA:          -4.066
REMARK INTER:                  -3.953
REMARK INTRA:                  -0.113
REMARK UNBOUND:                -0.104
REMARK SMILES CCCCCC(=O)[O-]
REMARK SMILES IDX 4 1 5 2 6 3 7 4 8 5 3 6 2 7 1 8
REMARK H PARENT
REMARK Flexibility Score: inf
ROOT
ATOM      1  C   UNL     1      28.164  34.085  21.871  1.00  0.00     0.006 C 
ENDROOT
BRANCH   1   2
ATOM      2  C   UNL     1      27.842  33.300  20.590  1.00  0.00     0.053 C 
BRANCH   2   3
ATOM      3  C   UNL     1      26.504  33.669  20.028  1.00  0.00     0.041 C 
ATOM      4  O   UNL     1      26.374  34.709  19.331  1.00  0.00    -0.550 OA
ATOM      5  O   UNL     1      25.406  32.845  20.246  1.00  0.00    -0.550 OA
ENDBRANCH   2   3
ENDBRANCH   1   2
BRANCH   1   6
ATOM      6  C   UNL     1      28.319  33.210  23.128  1.00  0.00     0.000 C 
BRANCH   6   7
ATOM      7  C   UNL     1      29.532  32.271  23.052  1.00  0.00    -0.003 C 
ATOM      8  C   UNL     1      30.832  33.061  22.933  1.00  0.00     0.004 C 
ENDBRANCH   6   7
ENDBRANCH   1   6
TORSDOF 4
ENDMDL
MODEL 3
REMARK VINA RESULT:    -3.152     15.765     17.022
REMARK INTER + INTRA:          -3.993
REMARK INTER:                  -3.873
REMARK INTRA:                  -0.120
REMARK UNBOUND:                -0.104
REMARK SMILES CCCCCC(=O)[O-]
REMARK SMILES IDX 4 1 5 2 6 3 7 4 8 5 3 6 2 7 1 8
REMARK H PARENT
REMARK Flexibility Score: inf
ROOT
ATOM      1  C   UNL     1      37.591  23.445  30.041  1.00  0.00     0.006 C 
ENDROOT
BRANCH   1   2
ATOM      2  C   UNL     1      37.968  22.497  28.892  1.00  0.00     0.053 C 
BRANCH   2   3
ATOM      3  C   UNL     1      38.854  23.163  27.884  1.00  0.00     0.041 C 
ATOM      4  O   UNL     1      38.579  24.316  27.462  1.00  0.00    -0.550 OA
ATOM      5  O   UNL     1      40.003  22.521  27.437  1.00  0.00    -0.550 OA
ENDBRANCH   2   3
ENDBRANCH   1   2
BRANCH   1   6
ATOM      6  C   UNL     1      38.019  22.953  31.435  1.00  0.00     0.000 C 
BRANCH   6   7
ATOM      7  C   UNL     1      38.328  21.449  31.466  1.00  0.00    -0.003 C 
ATOM      8  C   UNL     1      37.609  20.765  32.626  1.00  0.00     0.004 C 
ENDBRANCH   6   7
ENDBRANCH   1   6
TORSDOF 4
ENDMDL
MODEL 4
REMARK VINA RESULT:    -3.088      1.377      2.041
REMARK INTER + INTRA:          -3.915
REMARK INTER:                  -3.782
REMARK INTRA:                  -0.133
REMARK UNBOUND:                -0.104
REMARK SMILES CCCCCC(=O)[O-]
REMARK SMILES IDX 4 1 5 2 6 3 7 4 8 5 3 6 2 7 1 8
REMARK H PARENT
REMARK Flexibility Score: inf
ROOT
ATOM      1  C   UNL     1      28.516  33.458  23.179  1.00  0.00     0.006 C 
ENDROOT
BRANCH   1   2
ATOM      2  C   UNL     1      29.765  32.571  23.056  1.00  0.00     0.053 C 
BRANCH   2   3
ATOM      3  C   UNL     1      31.028  33.375  23.086  1.00  0.00     0.041 C 
ATOM      4  O   UNL     1      32.042  32.988  22.447  1.00  0.00    -0.550 OA
ATOM      5  O   UNL     1      31.075  34.570  23.793  1.00  0.00    -0.550 OA
ENDBRANCH   2   3
ENDBRANCH   1   2
BRANCH   1   6
ATOM      6  C   UNL     1      28.133  34.195  21.883  1.00  0.00     0.000 C 
BRANCH   6   7
ATOM      7  C   UNL     1      27.857  33.239  20.714  1.00  0.00    -0.003 C 
ATOM      8  C   UNL     1      26.404  33.335  20.257  1.00  0.00     0.004 C 
ENDBRANCH   6   7
ENDBRANCH   1   6
TORSDOF 4
ENDMDL
MODEL 5
REMARK VINA RESULT:    -3.057      3.376      4.853
REMARK INTER + INTRA:          -3.875
REMARK INTER:                  -3.805
REMARK INTRA:                  -0.071
REMARK UNBOUND:                -0.104
REMARK SMILES CCCCCC(=O)[O-]
REMARK SMILES IDX 4 1 5 2 6 3 7 4 8 5 3 6 2 7 1 8
REMARK H PARENT
REMARK Flexibility Score: inf
ROOT
ATOM      1  C   UNL     1      27.887  33.514  20.199  1.00  0.00     0.006 C 
ENDROOT
BRANCH   1   2
ATOM      2  C   UNL     1      26.439  33.991  20.390  1.00  0.00     0.053 C 
BRANCH   2   3
ATOM      3  C   UNL     1      25.544  33.521  19.285  1.00  0.00     0.041 C 
ATOM      4  O   UNL     1      24.963  32.408  19.368  1.00  0.00    -0.550 OA
ATOM      5  O   UNL     1      25.325  34.331  18.176  1.00  0.00    -0.550 OA
ENDBRANCH   2   3
ENDBRANCH   1   2
BRANCH   1   6
ATOM      6  C   UNL     1      28.833  33.881  21.356  1.00  0.00     0.000 C 
BRANCH   6   7
ATOM      7  C   UNL     1      28.416  33.243  22.689  1.00  0.00    -0.003 C 
ATOM      8  C   UNL     1      29.424  32.184  23.130  1.00  0.00     0.004 C 
ENDBRANCH   6   7
ENDBRANCH   1   6
TORSDOF 4
ENDMDL
MODEL 6
REMARK VINA RESULT:    -3.037     16.477     16.994
REMARK INTER + INTRA:          -3.851
REMARK INTER:                  -3.630
REMARK INTRA:                  -0.221
REMARK UNBOUND:                -0.104
REMARK SMILES CCCCCC(=O)[O-]
REMARK SMILES IDX 4 1 5 2 6 3 7 4 8 5 3 6 2 7 1 8
REMARK H PARENT
REMARK Flexibility Score: inf
ROOT
ATOM      1  C   UNL     1      39.234  24.211  28.603  1.00  0.00     0.006 C 
ENDROOT
BRANCH   1   2
ATOM      2  C   UNL     1      38.723  22.894  27.996  1.00  0.00     0.053 C 
BRANCH   2   3
ATOM      3  C   UNL     1      39.659  21.755  28.262  1.00  0.00     0.041 C 
ATOM      4  O   UNL     1      40.797  21.731  27.726  1.00  0.00    -0.550 OA
ATOM      5  O   UNL     1      39.284  20.735  29.129  1.00  0.00    -0.550 OA
ENDBRANCH   2   3
ENDBRANCH   1   2
BRANCH   1   6
ATOM      6  C   UNL     1      38.919  24.382  30.099  1.00  0.00     0.000 C 
BRANCH   6   7
ATOM      7  C   UNL     1      37.627  23.669  30.521  1.00  0.00    -0.003 C 
ATOM      8  C   UNL     1      37.872  22.748  31.714  1.00  0.00     0.004 C 
ENDBRANCH   6   7
ENDBRANCH   1   6
TORSDOF 4
ENDMDL
MODEL 7
REMARK VINA RESULT:    -3.027     15.796     17.026
REMARK INTER + INTRA:          -3.839
REMARK INTER:                  -3.630
REMARK INTRA:                  -0.209
REMARK UNBOUND:                -0.104
REMARK SMILES CCCCCC(=O)[O-]
REMARK SMILES IDX 4 1 5 2 6 3 7 4 8 5 3 6 2 7 1 8
REMARK H PARENT
REMARK Flexibility Score: inf
ROOT
ATOM      1  C   UNL     1      39.315  24.356  30.292  1.00  0.00     0.006 C 
ENDROOT
BRANCH   1   2
ATOM      2  C   UNL     1      38.043  23.895  29.563  1.00  0.00     0.053 C 
BRANCH   2   3
ATOM      3  C   UNL     1      38.304  22.723  28.668  1.00  0.00     0.041 C 
ATOM      4  O   UNL     1      38.207  21.550  29.114  1.00  0.00    -0.550 OA
ATOM      5  O   UNL     1      38.621  22.926  27.330  1.00  0.00    -0.550 OA
ENDBRANCH   2   3
ENDBRANCH   1   2
BRANCH   1   6
ATOM      6  C   UNL     1      40.235  25.259  29.452  1.00  0.00     0.000 C 
BRANCH   6   7
ATOM      7  C   UNL     1      41.720  24.901  29.603  1.00  0.00    -0.003 C 
ATOM      8  C   UNL     1      41.944  23.401  29.433  1.00  0.00     0.004 C 
ENDBRANCH   6   7
ENDBRANCH   1   6
TORSDOF 4
ENDMDL
MODEL 8
REMARK VINA RESULT:    -3.025      3.098      4.040
REMARK INTER + INTRA:          -3.836
REMARK INTER:                  -3.723
REMARK INTRA:                  -0.113
REMARK UNBOUND:                -0.104
REMARK SMILES CCCCCC(=O)[O-]
REMARK SMILES IDX 4 1 5 2 6 3 7 4 8 5 3 6 2 7 1 8
REMARK H PARENT
REMARK Flexibility Score: inf
ROOT
ATOM      1  C   UNL     1      30.686  33.446  22.446  1.00  0.00     0.006 C 
ENDROOT
BRANCH   1   2
ATOM      2  C   UNL     1      32.077  32.996  22.921  1.00  0.00     0.053 C 
BRANCH   2   3
ATOM      3  C   UNL     1      33.112  33.148  21.848  1.00  0.00     0.041 C 
ATOM      4  O   UNL     1      32.768  33.205  20.639  1.00  0.00    -0.550 OA
ATOM      5  O   UNL     1      34.455  33.259  22.189  1.00  0.00    -0.550 OA
ENDBRANCH   2   3
ENDBRANCH   1   2
BRANCH   1   6
ATOM      6  C   UNL     1      29.539  32.512  22.870  1.00  0.00     0.000 C 
BRANCH   6   7
ATOM      7  C   UNL     1      28.264  33.274  23.256  1.00  0.00    -0.003 C 
ATOM      8  C   UNL     1      28.600  34.587  23.959  1.00  0.00     0.004 C 
ENDBRANCH   6   7
ENDBRANCH   1   6
TORSDOF 4
ENDMDL
MODEL 9
REMARK VINA RESULT:    -2.996      2.466      4.661
REMARK INTER + INTRA:          -3.800
REMARK INTER:                  -3.637
REMARK INTRA:                  -0.163
REMARK UNBOUND:                -0.104
REMARK SMILES CCCCCC(=O)[O-]
REMARK SMILES IDX 4 1 5 2 6 3 7 4 8 5 3 6 2 7 1 8
REMARK H PARENT
REMARK Flexibility Score: inf
ROOT
ATOM      1  C   UNL     1      30.111  32.927  23.045  1.00  0.00     0.006 C 
ENDROOT
BRANCH   1   2
ATOM      2  C   UNL     1      28.611  33.058  22.737  1.00  0.00     0.053 C 
BRANCH   2   3
ATOM      3  C   UNL     1      28.344  33.127  21.265  1.00  0.00     0.041 C 
ATOM      4  O   UNL     1      27.169  33.273  20.839  1.00  0.00    -0.550 OA
ATOM      5  O   UNL     1      29.401  33.064  20.364  1.00  0.00    -0.550 OA
ENDBRANCH   2   3
ENDBRANCH   1   2
BRANCH   1   6
ATOM      6  C   UNL     1      30.797  34.251  23.425  1.00  0.00     0.000 C 
BRANCH   6   7
ATOM      7  C   UNL     1      32.214  34.373  22.845  1.00  0.00    -0.003 C 
ATOM      8  C   UNL     1      32.760  33.007  22.437  1.00  0.00     0.004 C 
ENDBRANCH   6   7
ENDBRANCH   1   6
TORSDOF 4
ENDMDL
