MODEL 1
REMARK VINA RESULT:    -4.115      0.000      0.000
REMARK INTER + INTRA:          -6.725
REMARK INTER:                  -5.558
REMARK INTRA:                  -1.167
REMARK UNBOUND:                -1.167
REMARK SMILES O=c1c(-c2ccc(O)cc2)coc2c([C@@H]3O[C@@H](CO)[C@H](O)[C@@H](O)[C@@H]3O)c(O)ccc12
REMARK SMILES IDX 3 1 11 2 12 3 13 4 30 5 2 6 1 7 29 8 28 9 26 10 14 11 4 12
REMARK SMILES IDX 5 13 6 14 7 15 10 16 9 17 8 18 15 20 24 21 16 22 22 23 17 24
REMARK SMILES IDX 20 25 25 26 23 28 18 30 19 31 21 33 27 35
REMARK H PARENT 8 19 25 27 23 29 19 32 21 34 27 36
REMARK Flexibility Score: inf
ROOT
ATOM      1  C   UNL     1      62.924  50.576  20.341  1.00  0.00     0.065 A 
ATOM      2  C   UNL     1      62.617  50.605  18.975  1.00  0.00     0.208 A 
ATOM      3  O   UNL     1      63.213  49.778  18.124  1.00  0.00    -0.463 OA
ATOM      4  C   UNL     1      64.126  48.884  18.497  1.00  0.00     0.147 A 
ATOM      5  C   UNL     1      64.504  48.794  19.856  1.00  0.00     0.066 A 
ATOM      6  C   UNL     1      63.893  49.657  20.784  1.00  0.00     0.200 A 
ATOM      7  O   UNL     1      64.227  49.624  22.002  1.00  0.00    -0.288 OA
ATOM      8  C   UNL     1      65.482  47.866  20.244  1.00  0.00     0.020 A 
ATOM      9  C   UNL     1      66.085  47.045  19.295  1.00  0.00     0.047 A 
ATOM     10  C   UNL     1      65.721  47.126  17.945  1.00  0.00     0.125 A 
ATOM     11  C   UNL     1      64.716  48.032  17.532  1.00  0.00     0.069 A 
ENDROOT
BRANCH   1  12
ATOM     12  C   UNL     1      62.236  51.504  21.275  1.00  0.00    -0.011 A 
ATOM     13  C   UNL     1      61.084  51.089  21.967  1.00  0.00     0.013 A 
ATOM     14  C   UNL     1      60.440  51.957  22.853  1.00  0.00     0.047 A 
ATOM     15  C   UNL     1      60.940  53.248  23.063  1.00  0.00     0.115 A 
ATOM     16  C   UNL     1      62.736  52.800  21.497  1.00  0.00     0.013 A 
ATOM     17  C   UNL     1      62.089  53.665  22.384  1.00  0.00     0.047 A 
BRANCH  15  18
ATOM     18  O   UNL     1      60.306  54.122  23.943  1.00  0.00    -0.508 OA
ATOM     19  H   UNL     1      59.319  54.336  23.857  1.00  0.00     0.293 HD
ENDBRANCH  15  18
ENDBRANCH   1  12
BRANCH  11  20
ATOM     20  C   UNL     1      64.315  48.159  16.066  1.00  0.00     0.188 C 
ATOM     21  C   UNL     1      65.189  49.218  15.365  1.00  0.00     0.179 C 
ATOM     22  O   UNL     1      64.411  46.897  15.421  1.00  0.00    -0.362 OA
ATOM     23  C   UNL     1      64.754  49.362  13.895  1.00  0.00     0.177 C 
ATOM     24  C   UNL     1      63.949  46.928  14.076  1.00  0.00     0.176 C 
ATOM     25  C   UNL     1      64.689  47.982  13.208  1.00  0.00     0.177 C 
BRANCH  21  26
ATOM     26  O   UNL     1      66.543  48.847  15.432  1.00  0.00    -0.387 OA
ATOM     27  H   UNL     1      67.059  49.674  15.625  1.00  0.00     0.211 HD
ENDBRANCH  21  26
BRANCH  23  28
ATOM     28  O   UNL     1      63.500  49.992  13.815  1.00  0.00    -0.387 OA
ATOM     29  H   UNL     1      63.493  50.709  14.502  1.00  0.00     0.211 HD
ENDBRANCH  23  28
BRANCH  24  30
ATOM     30  C   UNL     1      62.408  47.003  13.988  1.00  0.00     0.191 C 
BRANCH  30  31
ATOM     31  O   UNL     1      62.008  47.581  12.773  1.00  0.00    -0.394 OA
ATOM     32  H   UNL     1      62.609  47.218  12.072  1.00  0.00     0.210 HD
ENDBRANCH  30  31
ENDBRANCH  24  30
BRANCH  25  33
ATOM     33  O   UNL     1      65.991  47.519  12.956  1.00  0.00    -0.388 OA
ATOM     34  H   UNL     1      66.415  47.348  13.837  1.00  0.00     0.211 HD
ENDBRANCH  25  33
ENDBRANCH  11  20
BRANCH  10  35
ATOM     35  O   UNL     1      66.368  46.309  17.017  1.00  0.00    -0.507 OA
ATOM     36  H   UNL     1      67.378  46.249  16.971  1.00  0.00     0.293 HD
ENDBRANCH  10  35
TORSDOF 9
ENDMDL
MODEL 2
REMARK VINA RESULT:    -4.014      2.153      8.266
REMARK INTER + INTRA:          -6.589
REMARK INTER:                  -5.409
REMARK INTRA:                  -1.180
REMARK UNBOUND:                -1.167
REMARK SMILES O=c1c(-c2ccc(O)cc2)coc2c([C@@H]3O[C@@H](CO)[C@H](O)[C@@H](O)[C@@H]3O)c(O)ccc12
REMARK SMILES IDX 3 1 11 2 12 3 13 4 30 5 2 6 1 7 29 8 28 9 26 10 14 11 4 12
REMARK SMILES IDX 5 13 6 14 7 15 10 16 9 17 8 18 15 20 24 21 16 22 22 23 17 24
REMARK SMILES IDX 20 25 25 26 23 28 18 30 19 31 21 33 27 35
REMARK H PARENT 8 19 25 27 23 29 19 32 21 34 27 36
REMARK Flexibility Score: inf
ROOT
ATOM      1  C   UNL     1      64.409  48.337  16.242  1.00  0.00     0.065 A 
ATOM      2  C   UNL     1      64.338  49.627  16.784  1.00  0.00     0.208 A 
ATOM      3  O   UNL     1      63.725  49.848  17.941  1.00  0.00    -0.463 OA
ATOM      4  C   UNL     1      63.146  48.885  18.653  1.00  0.00     0.147 A 
ATOM      5  C   UNL     1      63.160  47.555  18.175  1.00  0.00     0.066 A 
ATOM      6  C   UNL     1      63.800  47.285  16.952  1.00  0.00     0.200 A 
ATOM      7  O   UNL     1      63.807  46.113  16.481  1.00  0.00    -0.288 OA
ATOM      8  C   UNL     1      62.531  46.544  18.918  1.00  0.00     0.020 A 
ATOM      9  C   UNL     1      61.885  46.851  20.113  1.00  0.00     0.047 A 
ATOM     10  C   UNL     1      61.861  48.165  20.596  1.00  0.00     0.125 A 
ATOM     11  C   UNL     1      62.515  49.197  19.882  1.00  0.00     0.069 A 
ENDROOT
BRANCH   1  12
ATOM     12  C   UNL     1      65.108  48.112  14.951  1.00  0.00    -0.011 A 
ATOM     13  C   UNL     1      64.417  48.265  13.735  1.00  0.00     0.013 A 
ATOM     14  C   UNL     1      65.076  48.063  12.519  1.00  0.00     0.047 A 
ATOM     15  C   UNL     1      66.431  47.711  12.500  1.00  0.00     0.115 A 
ATOM     16  C   UNL     1      66.471  47.766  14.924  1.00  0.00     0.013 A 
ATOM     17  C   UNL     1      67.125  47.565  13.705  1.00  0.00     0.047 A 
BRANCH  15  18
ATOM     18  O   UNL     1      67.097  47.507  11.294  1.00  0.00    -0.508 OA
ATOM     19  H   UNL     1      67.792  46.777  11.191  1.00  0.00     0.293 HD
ENDBRANCH  15  18
ENDBRANCH   1  12
BRANCH  11  20
ATOM     20  C   UNL     1      62.486  50.641  20.371  1.00  0.00     0.188 C 
ATOM     21  C   UNL     1      61.244  51.367  19.817  1.00  0.00     0.179 C 
ATOM     22  O   UNL     1      62.520  50.679  21.791  1.00  0.00    -0.362 OA
ATOM     23  C   UNL     1      61.243  52.832  20.289  1.00  0.00     0.177 C 
ATOM     24  C   UNL     1      62.602  52.002  22.307  1.00  0.00     0.176 C 
ATOM     25  C   UNL     1      61.444  52.913  21.817  1.00  0.00     0.177 C 
BRANCH  21  26
ATOM     26  O   UNL     1      60.074  50.720  20.253  1.00  0.00    -0.387 OA
ATOM     27  H   UNL     1      60.316  50.206  21.067  1.00  0.00     0.211 HD
ENDBRANCH  21  26
BRANCH  23  28
ATOM     28  O   UNL     1      62.256  53.557  19.639  1.00  0.00    -0.387 OA
ATOM     29  H   UNL     1      62.345  53.174  18.727  1.00  0.00     0.211 HD
ENDBRANCH  23  28
BRANCH  24  30
ATOM     30  C   UNL     1      64.009  52.614  22.127  1.00  0.00     0.191 C 
BRANCH  30  31
ATOM     31  O   UNL     1      63.944  54.016  22.126  1.00  0.00    -0.394 OA
ATOM     32  H   UNL     1      63.221  54.269  22.757  1.00  0.00     0.210 HD
ENDBRANCH  30  31
ENDBRANCH  24  30
BRANCH  25  33
ATOM     33  O   UNL     1      60.261  52.523  22.469  1.00  0.00    -0.388 OA
ATOM     34  H   UNL     1      59.504  52.902  21.951  1.00  0.00     0.211 HD
ENDBRANCH  25  33
ENDBRANCH  11  20
BRANCH  10  35
ATOM     35  O   UNL     1      61.179  48.441  21.781  1.00  0.00    -0.507 OA
ATOM     36  H   UNL     1      60.257  48.861  21.781  1.00  0.00     0.293 HD
ENDBRANCH  10  35
TORSDOF 9
ENDMDL
MODEL 3
REMARK VINA RESULT:    -3.992      1.865      8.043
REMARK INTER + INTRA:          -6.560
REMARK INTER:                  -5.509
REMARK INTRA:                  -1.051
REMARK UNBOUND:                -1.167
REMARK SMILES O=c1c(-c2ccc(O)cc2)coc2c([C@@H]3O[C@@H](CO)[C@H](O)[C@@H](O)[C@@H]3O)c(O)ccc12
REMARK SMILES IDX 3 1 11 2 12 3 13 4 30 5 2 6 1 7 29 8 28 9 26 10 14 11 4 12
REMARK SMILES IDX 5 13 6 14 7 15 10 16 9 17 8 18 15 20 24 21 16 22 22 23 17 24
REMARK SMILES IDX 20 25 25 26 23 28 18 30 19 31 21 33 27 35
REMARK H PARENT 8 19 25 27 23 29 19 32 21 34 27 36
REMARK Flexibility Score: inf
ROOT
ATOM      1  C   UNL     1      64.946  48.413  16.317  1.00  0.00     0.065 A 
ATOM      2  C   UNL     1      63.907  49.331  16.523  1.00  0.00     0.208 A 
ATOM      3  O   UNL     1      63.476  49.609  17.747  1.00  0.00    -0.463 OA
ATOM      4  C   UNL     1      63.984  49.050  18.842  1.00  0.00     0.147 A 
ATOM      5  C   UNL     1      65.027  48.103  18.726  1.00  0.00     0.066 A 
ATOM      6  C   UNL     1      65.507  47.784  17.443  1.00  0.00     0.200 A 
ATOM      7  O   UNL     1      66.419  46.921  17.300  1.00  0.00    -0.288 OA
ATOM      8  C   UNL     1      65.547  47.499  19.880  1.00  0.00     0.020 A 
ATOM      9  C   UNL     1      65.030  47.820  21.134  1.00  0.00     0.047 A 
ATOM     10  C   UNL     1      63.995  48.753  21.262  1.00  0.00     0.125 A 
ATOM     11  C   UNL     1      63.474  49.401  20.116  1.00  0.00     0.069 A 
ENDROOT
BRANCH   1  12
ATOM     12  C   UNL     1      65.418  48.125  14.938  1.00  0.00    -0.011 A 
ATOM     13  C   UNL     1      64.605  47.402  14.047  1.00  0.00     0.013 A 
ATOM     14  C   UNL     1      65.044  47.137  12.746  1.00  0.00     0.047 A 
ATOM     15  C   UNL     1      66.296  47.595  12.318  1.00  0.00     0.115 A 
ATOM     16  C   UNL     1      66.671  48.588  14.498  1.00  0.00     0.013 A 
ATOM     17  C   UNL     1      67.105  48.321  13.196  1.00  0.00     0.047 A 
BRANCH  15  18
ATOM     18  O   UNL     1      66.743  47.336  11.024  1.00  0.00    -0.508 OA
ATOM     19  H   UNL     1      67.063  48.081  10.417  1.00  0.00     0.293 HD
ENDBRANCH  15  18
ENDBRANCH   1  12
BRANCH  11  20
ATOM     20  C   UNL     1      62.331  50.405  20.222  1.00  0.00     0.188 C 
ATOM     21  C   UNL     1      60.982  49.666  20.328  1.00  0.00     0.179 C 
ATOM     22  O   UNL     1      62.539  51.269  21.331  1.00  0.00    -0.362 OA
ATOM     23  C   UNL     1      59.833  50.689  20.401  1.00  0.00     0.177 C 
ATOM     24  C   UNL     1      61.560  52.296  21.422  1.00  0.00     0.176 C 
ATOM     25  C   UNL     1      60.110  51.743  21.493  1.00  0.00     0.177 C 
BRANCH  21  26
ATOM     26  O   UNL     1      60.969  48.846  21.470  1.00  0.00    -0.387 OA
ATOM     27  H   UNL     1      60.464  49.337  22.171  1.00  0.00     0.211 HD
ENDBRANCH  21  26
BRANCH  23  28
ATOM     28  O   UNL     1      59.664  51.324  19.159  1.00  0.00    -0.387 OA
ATOM     29  H   UNL     1      60.529  51.251  18.677  1.00  0.00     0.211 HD
ENDBRANCH  23  28
BRANCH  24  30
ATOM     30  C   UNL     1      61.766  53.398  20.357  1.00  0.00     0.191 C 
BRANCH  30  31
ATOM     31  O   UNL     1      60.575  54.106  20.139  1.00  0.00    -0.394 OA
ATOM     32  H   UNL     1      60.692  54.608  19.292  1.00  0.00     0.210 HD
ENDBRANCH  30  31
ENDBRANCH  24  30
BRANCH  25  33
ATOM     33  O   UNL     1      59.911  51.172  22.761  1.00  0.00    -0.388 OA
ATOM     34  H   UNL     1      59.651  51.909  23.374  1.00  0.00     0.211 HD
ENDBRANCH  25  33
ENDBRANCH  11  20
BRANCH  10  35
ATOM     35  O   UNL     1      63.481  49.029  22.529  1.00  0.00    -0.507 OA
ATOM     36  H   UNL     1      62.934  49.861  22.714  1.00  0.00     0.293 HD
ENDBRANCH  10  35
TORSDOF 9
ENDMDL
MODEL 4
REMARK VINA RESULT:    -3.992      1.894      3.390
REMARK INTER + INTRA:          -6.560
REMARK INTER:                  -6.016
REMARK INTRA:                  -0.544
REMARK UNBOUND:                -1.167
REMARK SMILES O=c1c(-c2ccc(O)cc2)coc2c([C@@H]3O[C@@H](CO)[C@H](O)[C@@H](O)[C@@H]3O)c(O)ccc12
REMARK SMILES IDX 3 1 11 2 12 3 13 4 30 5 2 6 1 7 29 8 28 9 26 10 14 11 4 12
REMARK SMILES IDX 5 13 6 14 7 15 10 16 9 17 8 18 15 20 24 21 16 22 22 23 17 24
REMARK SMILES IDX 20 25 25 26 23 28 18 30 19 31 21 33 27 35
REMARK H PARENT 8 19 25 27 23 29 19 32 21 34 27 36
REMARK Flexibility Score: inf
ROOT
ATOM      1  C   UNL     1      62.139  50.330  19.128  1.00  0.00     0.065 A 
ATOM      2  C   UNL     1      63.361  50.026  18.514  1.00  0.00     0.208 A 
ATOM      3  O   UNL     1      63.411  49.240  17.446  1.00  0.00    -0.463 OA
ATOM      4  C   UNL     1      62.331  48.693  16.893  1.00  0.00     0.147 A 
ATOM      5  C   UNL     1      61.057  48.937  17.455  1.00  0.00     0.066 A 
ATOM      6  C   UNL     1      60.968  49.765  18.589  1.00  0.00     0.200 A 
ATOM      7  O   UNL     1      59.849  49.982  19.134  1.00  0.00    -0.288 OA
ATOM      8  C   UNL     1      59.922  48.344  16.883  1.00  0.00     0.020 A 
ATOM      9  C   UNL     1      60.050  47.508  15.776  1.00  0.00     0.047 A 
ATOM     10  C   UNL     1      61.306  47.257  15.212  1.00  0.00     0.125 A 
ATOM     11  C   UNL     1      62.463  47.868  15.750  1.00  0.00     0.069 A 
ENDROOT
BRANCH   1  12
ATOM     12  C   UNL     1      62.107  51.220  20.317  1.00  0.00    -0.011 A 
ATOM     13  C   UNL     1      62.221  50.680  21.610  1.00  0.00     0.013 A 
ATOM     14  C   UNL     1      62.200  51.516  22.730  1.00  0.00     0.047 A 
ATOM     15  C   UNL     1      62.070  52.902  22.572  1.00  0.00     0.115 A 
ATOM     16  C   UNL     1      61.983  52.613  20.166  1.00  0.00     0.013 A 
ATOM     17  C   UNL     1      61.963  53.446  21.289  1.00  0.00     0.047 A 
BRANCH  15  18
ATOM     18  O   UNL     1      62.047  53.745  23.681  1.00  0.00    -0.508 OA
ATOM     19  H   UNL     1      62.900  54.016  24.157  1.00  0.00     0.293 HD
ENDBRANCH  15  18
ENDBRANCH   1  12
BRANCH  11  20
ATOM     20  C   UNL     1      63.847  47.594  15.172  1.00  0.00     0.188 C 
ATOM     21  C   UNL     1      64.193  48.645  14.097  1.00  0.00     0.179 C 
ATOM     22  O   UNL     1      64.817  47.574  16.210  1.00  0.00    -0.362 OA
ATOM     23  C   UNL     1      65.578  48.338  13.496  1.00  0.00     0.177 C 
ATOM     24  C   UNL     1      66.114  47.218  15.747  1.00  0.00     0.176 C 
ATOM     25  C   UNL     1      66.626  48.147  14.613  1.00  0.00     0.177 C 
BRANCH  21  26
ATOM     26  O   UNL     1      64.188  49.932  14.662  1.00  0.00    -0.387 OA
ATOM     27  H   UNL     1      65.002  50.394  14.331  1.00  0.00     0.211 HD
ENDBRANCH  21  26
BRANCH  23  28
ATOM     28  O   UNL     1      65.520  47.185  12.696  1.00  0.00    -0.387 OA
ATOM     29  H   UNL     1      66.134  47.335  11.930  1.00  0.00     0.211 HD
ENDBRANCH  23  28
BRANCH  24  30
ATOM     30  C   UNL     1      66.230  45.709  15.431  1.00  0.00     0.191 C 
BRANCH  30  31
ATOM     31  O   UNL     1      67.125  45.492  14.373  1.00  0.00    -0.394 OA
ATOM     32  H   UNL     1      67.316  44.519  14.355  1.00  0.00     0.210 HD
ENDBRANCH  30  31
ENDBRANCH  24  30
BRANCH  25  33
ATOM     33  O   UNL     1      66.954  49.395  15.170  1.00  0.00    -0.388 OA
ATOM     34  H   UNL     1      67.548  49.220  15.946  1.00  0.00     0.211 HD
ENDBRANCH  25  33
ENDBRANCH  11  20
BRANCH  10  35
ATOM     35  O   UNL     1      61.400  46.391  14.121  1.00  0.00    -0.507 OA
ATOM     36  H   UNL     1      60.645  46.290  13.454  1.00  0.00     0.293 HD
ENDBRANCH  10  35
TORSDOF 9
ENDMDL
MODEL 5
REMARK VINA RESULT:    -3.967      4.886      8.211
REMARK INTER + INTRA:          -6.526
REMARK INTER:                  -5.496
REMARK INTRA:                  -1.030
REMARK UNBOUND:                -1.167
REMARK SMILES O=c1c(-c2ccc(O)cc2)coc2c([C@@H]3O[C@@H](CO)[C@H](O)[C@@H](O)[C@@H]3O)c(O)ccc12
REMARK SMILES IDX 3 1 11 2 12 3 13 4 30 5 2 6 1 7 29 8 28 9 26 10 14 11 4 12
REMARK SMILES IDX 5 13 6 14 7 15 10 16 9 17 8 18 15 20 24 21 16 22 22 23 17 24
REMARK SMILES IDX 20 25 25 26 23 28 18 30 19 31 21 33 27 35
REMARK H PARENT 8 19 25 27 23 29 19 32 21 34 27 36
REMARK Flexibility Score: inf
ROOT
ATOM      1  C   UNL     1      63.662  48.739  13.180  1.00  0.00     0.065 A 
ATOM      2  C   UNL     1      62.781  49.450  12.353  1.00  0.00     0.208 A 
ATOM      3  O   UNL     1      62.836  49.327  11.033  1.00  0.00    -0.463 OA
ATOM      4  C   UNL     1      63.710  48.540  10.411  1.00  0.00     0.147 A 
ATOM      5  C   UNL     1      64.643  47.794  11.167  1.00  0.00     0.066 A 
ATOM      6  C   UNL     1      64.615  47.903  12.569  1.00  0.00     0.200 A 
ATOM      7  O   UNL     1      65.452  47.273  13.275  1.00  0.00    -0.288 OA
ATOM      8  C   UNL     1      65.578  46.981  10.508  1.00  0.00     0.020 A 
ATOM      9  C   UNL     1      65.595  46.917   9.117  1.00  0.00     0.047 A 
ATOM     10  C   UNL     1      64.678  47.652   8.357  1.00  0.00     0.125 A 
ATOM     11  C   UNL     1      63.704  48.456   8.997  1.00  0.00     0.069 A 
ENDROOT
BRANCH   1  12
ATOM     12  C   UNL     1      63.576  48.886  14.655  1.00  0.00    -0.011 A 
ATOM     13  C   UNL     1      62.463  48.383  15.354  1.00  0.00     0.013 A 
ATOM     14  C   UNL     1      62.384  48.512  16.743  1.00  0.00     0.047 A 
ATOM     15  C   UNL     1      63.415  49.140  17.453  1.00  0.00     0.115 A 
ATOM     16  C   UNL     1      64.611  49.509  15.376  1.00  0.00     0.013 A 
ATOM     17  C   UNL     1      64.527  49.635  16.765  1.00  0.00     0.047 A 
BRANCH  15  18
ATOM     18  O   UNL     1      63.346  49.274  18.838  1.00  0.00    -0.508 OA
ATOM     19  H   UNL     1      64.161  49.522  19.386  1.00  0.00     0.293 HD
ENDBRANCH  15  18
ENDBRANCH   1  12
BRANCH  11  20
ATOM     20  C   UNL     1      62.708  49.286   8.195  1.00  0.00     0.188 C 
ATOM     21  C   UNL     1      63.306  50.669   7.870  1.00  0.00     0.179 C 
ATOM     22  O   UNL     1      62.331  48.592   7.014  1.00  0.00    -0.362 OA
ATOM     23  C   UNL     1      62.279  51.510   7.089  1.00  0.00     0.177 C 
ATOM     24  C   UNL     1      61.321  49.269   6.274  1.00  0.00     0.176 C 
ATOM     25  C   UNL     1      61.726  50.717   5.887  1.00  0.00     0.177 C 
BRANCH  21  26
ATOM     26  O   UNL     1      64.481  50.520   7.112  1.00  0.00    -0.387 OA
ATOM     27  H   UNL     1      65.148  50.077   7.700  1.00  0.00     0.211 HD
ENDBRANCH  21  26
BRANCH  23  28
ATOM     28  O   UNL     1      61.222  51.897   7.930  1.00  0.00    -0.387 OA
ATOM     29  H   UNL     1      61.096  51.165   8.590  1.00  0.00     0.211 HD
ENDBRANCH  23  28
BRANCH  24  30
ATOM     30  C   UNL     1      59.931  49.155   6.941  1.00  0.00     0.191 C 
BRANCH  30  31
ATOM     31  O   UNL     1      59.120  50.243   6.584  1.00  0.00    -0.394 OA
ATOM     32  H   UNL     1      59.441  51.023   7.106  1.00  0.00     0.210 HD
ENDBRANCH  30  31
ENDBRANCH  24  30
BRANCH  25  33
ATOM     33  O   UNL     1      62.699  50.654   4.875  1.00  0.00    -0.388 OA
ATOM     34  H   UNL     1      62.253  50.297   4.064  1.00  0.00     0.211 HD
ENDBRANCH  25  33
ENDBRANCH  11  20
BRANCH  10  35
ATOM     35  O   UNL     1      64.742  47.587   6.964  1.00  0.00    -0.507 OA
ATOM     36  H   UNL     1      65.284  46.876   6.488  1.00  0.00     0.293 HD
ENDBRANCH  10  35
TORSDOF 9
ENDMDL
MODEL 6
REMARK VINA RESULT:    -3.939      4.180      6.212
REMARK INTER + INTRA:          -6.488
REMARK INTER:                  -5.313
REMARK INTRA:                  -1.175
REMARK UNBOUND:                -1.167
REMARK SMILES O=c1c(-c2ccc(O)cc2)coc2c([C@@H]3O[C@@H](CO)[C@H](O)[C@@H](O)[C@@H]3O)c(O)ccc12
REMARK SMILES IDX 3 1 11 2 12 3 13 4 30 5 2 6 1 7 29 8 28 9 26 10 14 11 4 12
REMARK SMILES IDX 5 13 6 14 7 15 10 16 9 17 8 18 15 20 24 21 16 22 22 23 17 24
REMARK SMILES IDX 20 25 25 26 23 28 18 30 19 31 21 33 27 35
REMARK H PARENT 8 19 25 27 23 29 19 32 21 34 27 36
REMARK Flexibility Score: inf
ROOT
ATOM      1  C   UNL     1      58.547  48.578  15.833  1.00  0.00     0.065 A 
ATOM      2  C   UNL     1      59.554  48.125  14.971  1.00  0.00     0.208 A 
ATOM      3  O   UNL     1      60.830  48.162  15.335  1.00  0.00    -0.463 OA
ATOM      4  C   UNL     1      61.238  48.621  16.516  1.00  0.00     0.147 A 
ATOM      5  C   UNL     1      60.290  49.108  17.443  1.00  0.00     0.066 A 
ATOM      6  C   UNL     1      58.928  49.086  17.089  1.00  0.00     0.200 A 
ATOM      7  O   UNL     1      58.056  49.540  17.882  1.00  0.00    -0.288 OA
ATOM      8  C   UNL     1      60.723  49.611  18.679  1.00  0.00     0.020 A 
ATOM      9  C   UNL     1      62.081  49.642  18.986  1.00  0.00     0.047 A 
ATOM     10  C   UNL     1      63.031  49.164  18.076  1.00  0.00     0.125 A 
ATOM     11  C   UNL     1      62.618  48.623  16.835  1.00  0.00     0.069 A 
ENDROOT
BRANCH   1  12
ATOM     12  C   UNL     1      57.125  48.519  15.408  1.00  0.00    -0.011 A 
ATOM     13  C   UNL     1      56.314  47.437  15.795  1.00  0.00     0.013 A 
ATOM     14  C   UNL     1      54.973  47.383  15.403  1.00  0.00     0.047 A 
ATOM     15  C   UNL     1      54.425  48.411  14.626  1.00  0.00     0.115 A 
ATOM     16  C   UNL     1      56.565  49.550  14.633  1.00  0.00     0.013 A 
ATOM     17  C   UNL     1      55.223  49.493  14.244  1.00  0.00     0.047 A 
BRANCH  15  18
ATOM     18  O   UNL     1      53.090  48.367  14.229  1.00  0.00    -0.508 OA
ATOM     19  H   UNL     1      52.337  48.349  14.908  1.00  0.00     0.293 HD
ENDBRANCH  15  18
ENDBRANCH   1  12
BRANCH  11  20
ATOM     20  C   UNL     1      63.631  48.117  15.813  1.00  0.00     0.188 C 
ATOM     21  C   UNL     1      64.122  49.281  14.929  1.00  0.00     0.179 C 
ATOM     22  O   UNL     1      64.712  47.473  16.472  1.00  0.00    -0.362 OA
ATOM     23  C   UNL     1      65.118  48.753  13.880  1.00  0.00     0.177 C 
ATOM     24  C   UNL     1      65.639  46.886  15.568  1.00  0.00     0.176 C 
ATOM     25  C   UNL     1      66.220  47.907  14.552  1.00  0.00     0.177 C 
BRANCH  21  26
ATOM     26  O   UNL     1      64.737  50.264  15.724  1.00  0.00    -0.387 OA
ATOM     27  H   UNL     1      64.589  50.002  16.671  1.00  0.00     0.211 HD
ENDBRANCH  21  26
BRANCH  23  28
ATOM     28  O   UNL     1      64.450  47.982  12.914  1.00  0.00    -0.387 OA
ATOM     29  H   UNL     1      64.077  48.616  12.246  1.00  0.00     0.211 HD
ENDBRANCH  23  28
BRANCH  24  30
ATOM     30  C   UNL     1      65.090  45.592  14.923  1.00  0.00     0.191 C 
BRANCH  30  31
ATOM     31  O   UNL     1      65.716  45.348  13.692  1.00  0.00    -0.394 OA
ATOM     32  H   UNL     1      65.582  44.386  13.489  1.00  0.00     0.210 HD
ENDBRANCH  30  31
ENDBRANCH  24  30
BRANCH  25  33
ATOM     33  O   UNL     1      67.117  48.751  15.229  1.00  0.00    -0.388 OA
ATOM     34  H   UNL     1      67.669  48.175  15.819  1.00  0.00     0.211 HD
ENDBRANCH  25  33
ENDBRANCH  11  20
BRANCH  10  35
ATOM     35  O   UNL     1      64.385  49.238  18.404  1.00  0.00    -0.507 OA
ATOM     36  H   UNL     1      64.762  50.007  18.945  1.00  0.00     0.293 HD
ENDBRANCH  10  35
TORSDOF 9
ENDMDL
MODEL 7
REMARK VINA RESULT:    -3.922      2.332      8.580
REMARK INTER + INTRA:          -6.465
REMARK INTER:                  -5.429
REMARK INTRA:                  -1.036
REMARK UNBOUND:                -1.167
REMARK SMILES O=c1c(-c2ccc(O)cc2)coc2c([C@@H]3O[C@@H](CO)[C@H](O)[C@@H](O)[C@@H]3O)c(O)ccc12
REMARK SMILES IDX 3 1 11 2 12 3 13 4 30 5 2 6 1 7 29 8 28 9 26 10 14 11 4 12
REMARK SMILES IDX 5 13 6 14 7 15 10 16 9 17 8 18 15 20 24 21 16 22 22 23 17 24
REMARK SMILES IDX 20 25 25 26 23 28 18 30 19 31 21 33 27 35
REMARK H PARENT 8 19 25 27 23 29 19 32 21 34 27 36
REMARK Flexibility Score: inf
ROOT
ATOM      1  C   UNL     1      63.630  48.766  16.214  1.00  0.00     0.065 A 
ATOM      2  C   UNL     1      64.108  49.615  17.221  1.00  0.00     0.208 A 
ATOM      3  O   UNL     1      63.317  50.012  18.210  1.00  0.00    -0.463 OA
ATOM      4  C   UNL     1      62.042  49.646  18.315  1.00  0.00     0.147 A 
ATOM      5  C   UNL     1      61.474  48.800  17.335  1.00  0.00     0.066 A 
ATOM      6  C   UNL     1      62.284  48.360  16.272  1.00  0.00     0.200 A 
ATOM      7  O   UNL     1      61.802  47.627  15.364  1.00  0.00    -0.288 OA
ATOM      8  C   UNL     1      60.124  48.431  17.436  1.00  0.00     0.020 A 
ATOM      9  C   UNL     1      59.344  48.905  18.488  1.00  0.00     0.047 A 
ATOM     10  C   UNL     1      59.894  49.745  19.463  1.00  0.00     0.125 A 
ATOM     11  C   UNL     1      61.261  50.107  19.402  1.00  0.00     0.069 A 
ENDROOT
BRANCH   1  12
ATOM     12  C   UNL     1      64.537  48.327  15.122  1.00  0.00    -0.011 A 
ATOM     13  C   UNL     1      64.353  48.804  13.812  1.00  0.00     0.013 A 
ATOM     14  C   UNL     1      65.210  48.399  12.785  1.00  0.00     0.047 A 
ATOM     15  C   UNL     1      66.264  47.517  13.054  1.00  0.00     0.115 A 
ATOM     16  C   UNL     1      65.602  47.446  15.386  1.00  0.00     0.013 A 
ATOM     17  C   UNL     1      66.457  47.044  14.356  1.00  0.00     0.047 A 
BRANCH  15  18
ATOM     18  O   UNL     1      67.124  47.106  12.038  1.00  0.00    -0.508 OA
ATOM     19  H   UNL     1      66.783  46.600  11.229  1.00  0.00     0.293 HD
ENDBRANCH  15  18
ENDBRANCH   1  12
BRANCH  11  20
ATOM     20  C   UNL     1      61.882  51.040  20.436  1.00  0.00     0.188 C 
ATOM     21  C   UNL     1      61.581  52.509  20.078  1.00  0.00     0.179 C 
ATOM     22  O   UNL     1      61.410  50.714  21.736  1.00  0.00    -0.362 OA
ATOM     23  C   UNL     1      62.241  53.442  21.110  1.00  0.00     0.177 C 
ATOM     24  C   UNL     1      62.034  51.482  22.759  1.00  0.00     0.176 C 
ATOM     25  C   UNL     1      61.876  53.012  22.546  1.00  0.00     0.177 C 
BRANCH  21  26
ATOM     26  O   UNL     1      60.192  52.724  20.054  1.00  0.00    -0.387 OA
ATOM     27  H   UNL     1      60.047  53.690  20.237  1.00  0.00     0.211 HD
ENDBRANCH  21  26
BRANCH  23  28
ATOM     28  O   UNL     1      63.637  53.437  20.952  1.00  0.00    -0.387 OA
ATOM     29  H   UNL     1      63.853  52.708  20.314  1.00  0.00     0.211 HD
ENDBRANCH  23  28
BRANCH  24  30
ATOM     30  C   UNL     1      63.485  51.025  23.030  1.00  0.00     0.191 C 
BRANCH  30  31
ATOM     31  O   UNL     1      64.246  52.080  23.556  1.00  0.00    -0.394 OA
ATOM     32  H   UNL     1      63.605  52.733  23.937  1.00  0.00     0.210 HD
ENDBRANCH  30  31
ENDBRANCH  24  30
BRANCH  25  33
ATOM     33  O   UNL     1      60.545  53.367  22.821  1.00  0.00    -0.388 OA
ATOM     34  H   UNL     1      60.058  52.529  23.035  1.00  0.00     0.211 HD
ENDBRANCH  25  33
ENDBRANCH  11  20
BRANCH  10  35
ATOM     35  O   UNL     1      59.077  50.226  20.486  1.00  0.00    -0.507 OA
ATOM     36  H   UNL     1      58.079  50.350  20.359  1.00  0.00     0.293 HD
ENDBRANCH  10  35
TORSDOF 9
ENDMDL
MODEL 8
REMARK VINA RESULT:    -3.829      2.004      2.440
REMARK INTER + INTRA:          -6.339
REMARK INTER:                  -5.196
REMARK INTRA:                  -1.143
REMARK UNBOUND:                -1.167
REMARK SMILES O=c1c(-c2ccc(O)cc2)coc2c([C@@H]3O[C@@H](CO)[C@H](O)[C@@H](O)[C@@H]3O)c(O)ccc12
REMARK SMILES IDX 3 1 11 2 12 3 13 4 30 5 2 6 1 7 29 8 28 9 26 10 14 11 4 12
REMARK SMILES IDX 5 13 6 14 7 15 10 16 9 17 8 18 15 20 24 21 16 22 22 23 17 24
REMARK SMILES IDX 20 25 25 26 23 28 18 30 19 31 21 33 27 35
REMARK H PARENT 8 19 25 27 23 29 19 32 21 34 27 36
REMARK Flexibility Score: inf
ROOT
ATOM      1  C   UNL     1      60.775  49.794  19.589  1.00  0.00     0.065 A 
ATOM      2  C   UNL     1      60.807  49.633  18.197  1.00  0.00     0.208 A 
ATOM      3  O   UNL     1      61.883  49.143  17.593  1.00  0.00    -0.463 OA
ATOM      4  C   UNL     1      62.983  48.779  18.246  1.00  0.00     0.147 A 
ATOM      5  C   UNL     1      63.041  48.918  19.652  1.00  0.00     0.066 A 
ATOM      6  C   UNL     1      61.919  49.435  20.325  1.00  0.00     0.200 A 
ATOM      7  O   UNL     1      61.946  49.600  21.577  1.00  0.00    -0.288 OA
ATOM      8  C   UNL     1      64.209  48.553  20.338  1.00  0.00     0.020 A 
ATOM      9  C   UNL     1      65.311  48.068  19.637  1.00  0.00     0.047 A 
ATOM     10  C   UNL     1      65.267  47.928  18.245  1.00  0.00     0.125 A 
ATOM     11  C   UNL     1      64.090  48.259  17.532  1.00  0.00     0.069 A 
ENDROOT
BRANCH   1  12
ATOM     12  C   UNL     1      59.556  50.335  20.244  1.00  0.00    -0.011 A 
ATOM     13  C   UNL     1      59.358  51.724  20.334  1.00  0.00     0.013 A 
ATOM     14  C   UNL     1      58.208  52.236  20.942  1.00  0.00     0.047 A 
ATOM     15  C   UNL     1      57.240  51.368  21.463  1.00  0.00     0.115 A 
ATOM     16  C   UNL     1      58.577  49.469  20.764  1.00  0.00     0.013 A 
ATOM     17  C   UNL     1      57.428  49.986  21.370  1.00  0.00     0.047 A 
BRANCH  15  18
ATOM     18  O   UNL     1      56.091  51.867  22.072  1.00  0.00    -0.508 OA
ATOM     19  H   UNL     1      55.235  51.325  22.110  1.00  0.00     0.293 HD
ENDBRANCH  15  18
ENDBRANCH   1  12
BRANCH  11  20
ATOM     20  C   UNL     1      64.021  48.139  16.014  1.00  0.00     0.188 C 
ATOM     21  C   UNL     1      64.431  49.472  15.355  1.00  0.00     0.179 C 
ATOM     22  O   UNL     1      64.840  47.067  15.569  1.00  0.00    -0.362 OA
ATOM     23  C   UNL     1      64.325  49.350  13.824  1.00  0.00     0.177 C 
ATOM     24  C   UNL     1      64.736  46.837  14.169  1.00  0.00     0.176 C 
ATOM     25  C   UNL     1      65.071  48.095  13.324  1.00  0.00     0.177 C 
BRANCH  21  26
ATOM     26  O   UNL     1      65.746  49.807  15.721  1.00  0.00    -0.387 OA
ATOM     27  H   UNL     1      65.859  50.776  15.535  1.00  0.00     0.211 HD
ENDBRANCH  21  26
BRANCH  23  28
ATOM     28  O   UNL     1      62.978  49.290  13.429  1.00  0.00    -0.387 OA
ATOM     29  H   UNL     1      62.697  50.219  13.219  1.00  0.00     0.211 HD
ENDBRANCH  23  28
BRANCH  24  30
ATOM     30  C   UNL     1      63.404  46.152  13.786  1.00  0.00     0.191 C 
BRANCH  30  31
ATOM     31  O   UNL     1      63.052  46.459  12.463  1.00  0.00    -0.394 OA
ATOM     32  H   UNL     1      62.066  46.367  12.400  1.00  0.00     0.210 HD
ENDBRANCH  30  31
ENDBRANCH  24  30
BRANCH  25  33
ATOM     33  O   UNL     1      66.457  48.317  13.382  1.00  0.00    -0.388 OA
ATOM     34  H   UNL     1      66.751  48.086  14.302  1.00  0.00     0.211 HD
ENDBRANCH  25  33
ENDBRANCH  11  20
BRANCH  10  35
ATOM     35  O   UNL     1      66.400  47.467  17.572  1.00  0.00    -0.507 OA
ATOM     36  H   UNL     1      66.504  46.495  17.307  1.00  0.00     0.293 HD
ENDBRANCH  10  35
TORSDOF 9
ENDMDL
MODEL 9
REMARK VINA RESULT:    -3.714      5.699      8.927
REMARK INTER + INTRA:          -6.184
REMARK INTER:                  -5.235
REMARK INTRA:                  -0.949
REMARK UNBOUND:                -1.167
REMARK SMILES O=c1c(-c2ccc(O)cc2)coc2c([C@@H]3O[C@@H](CO)[C@H](O)[C@@H](O)[C@@H]3O)c(O)ccc12
REMARK SMILES IDX 3 1 11 2 12 3 13 4 30 5 2 6 1 7 29 8 28 9 26 10 14 11 4 12
REMARK SMILES IDX 5 13 6 14 7 15 10 16 9 17 8 18 15 20 24 21 16 22 22 23 17 24
REMARK SMILES IDX 20 25 25 26 23 28 18 30 19 31 21 33 27 35
REMARK H PARENT 8 19 25 27 23 29 19 32 21 34 27 36
REMARK Flexibility Score: inf
ROOT
ATOM      1  C   UNL     1      63.958  48.143  13.252  1.00  0.00     0.065 A 
ATOM      2  C   UNL     1      64.341  48.124  11.904  1.00  0.00     0.208 A 
ATOM      3  O   UNL     1      63.632  48.768  10.985  1.00  0.00    -0.463 OA
ATOM      4  C   UNL     1      62.532  49.462  11.268  1.00  0.00     0.147 A 
ATOM      5  C   UNL     1      62.068  49.526  12.601  1.00  0.00     0.066 A 
ATOM      6  C   UNL     1      62.794  48.853  13.601  1.00  0.00     0.200 A 
ATOM      7  O   UNL     1      62.393  48.864  14.798  1.00  0.00    -0.288 OA
ATOM      8  C   UNL     1      60.897  50.240  12.895  1.00  0.00     0.020 A 
ATOM      9  C   UNL     1      60.188  50.874  11.876  1.00  0.00     0.047 A 
ATOM     10  C   UNL     1      60.636  50.816  10.552  1.00  0.00     0.125 A 
ATOM     11  C   UNL     1      61.832  50.128  10.233  1.00  0.00     0.069 A 
ENDROOT
BRANCH   1  12
ATOM     12  C   UNL     1      64.773  47.423  14.264  1.00  0.00    -0.011 A 
ATOM     13  C   UNL     1      64.407  46.129  14.677  1.00  0.00     0.013 A 
ATOM     14  C   UNL     1      65.177  45.445  15.623  1.00  0.00     0.047 A 
ATOM     15  C   UNL     1      66.323  46.042  16.164  1.00  0.00     0.115 A 
ATOM     16  C   UNL     1      65.928  48.013  14.807  1.00  0.00     0.013 A 
ATOM     17  C   UNL     1      66.695  47.325  15.752  1.00  0.00     0.047 A 
BRANCH  15  18
ATOM     18  O   UNL     1      67.096  45.370  17.107  1.00  0.00    -0.508 OA
ATOM     19  H   UNL     1      67.134  45.674  18.073  1.00  0.00     0.293 HD
ENDBRANCH  15  18
ENDBRANCH   1  12
BRANCH  11  20
ATOM     20  C   UNL     1      62.332  50.029   8.796  1.00  0.00     0.188 C 
ATOM     21  C   UNL     1      61.679  48.825   8.087  1.00  0.00     0.179 C 
ATOM     22  O   UNL     1      62.075  51.242   8.103  1.00  0.00    -0.362 OA
ATOM     23  C   UNL     1      62.216  48.714   6.648  1.00  0.00     0.177 C 
ATOM     24  C   UNL     1      62.613  51.250   6.786  1.00  0.00     0.176 C 
ATOM     25  C   UNL     1      62.102  50.069   5.918  1.00  0.00     0.177 C 
BRANCH  21  26
ATOM     26  O   UNL     1      60.281  48.976   8.068  1.00  0.00    -0.387 OA
ATOM     27  H   UNL     1      59.961  48.802   8.992  1.00  0.00     0.211 HD
ENDBRANCH  21  26
BRANCH  23  28
ATOM     28  O   UNL     1      63.556  48.291   6.657  1.00  0.00    -0.387 OA
ATOM     29  H   UNL     1      64.112  49.089   6.453  1.00  0.00     0.211 HD
ENDBRANCH  23  28
BRANCH  24  30
ATOM     30  C   UNL     1      64.150  51.420   6.783  1.00  0.00     0.191 C 
BRANCH  30  31
ATOM     31  O   UNL     1      64.528  52.522   7.564  1.00  0.00    -0.394 OA
ATOM     32  H   UNL     1      65.518  52.502   7.627  1.00  0.00     0.210 HD
ENDBRANCH  30  31
ENDBRANCH  24  30
BRANCH  25  33
ATOM     33  O   UNL     1      60.759  50.310   5.580  1.00  0.00    -0.388 OA
ATOM     34  H   UNL     1      60.202  49.904   6.294  1.00  0.00     0.211 HD
ENDBRANCH  25  33
ENDBRANCH  11  20
BRANCH  10  35
ATOM     35  O   UNL     1      59.886  51.437   9.552  1.00  0.00    -0.507 OA
ATOM     36  H   UNL     1      58.877  51.349   9.510  1.00  0.00     0.293 HD
ENDBRANCH  10  35
TORSDOF 9
ENDMDL
