MODEL 1
REMARK VINA RESULT:    -7.394      0.000      0.000
REMARK INTER + INTRA:          -7.394
REMARK INTER:                  -7.394
REMARK INTRA:                   0.000
REMARK UNBOUND:                 0.000
REMARK SMILES C=C1c2ccccc2-c2ccccc21
REMARK SMILES IDX 1 1 2 2 3 3 4 4 5 5 6 6 7 7 8 8 9 9 10 10 11 11 12 12 13 13
REMARK SMILES IDX 14 14
REMARK H PARENT
REMARK Flexibility Score: inf
ROOT
ATOM      1  C   UNL     1     -19.466  52.501  -1.006  1.00  0.00     0.018 C 
ATOM      2  C   UNL     1     -19.797  53.617  -1.653  1.00  0.00    -0.017 C 
ATOM      3  C   UNL     1     -21.144  54.178  -1.830  1.00  0.00    -0.010 A 
ATOM      4  C   UNL     1     -22.380  53.706  -1.385  1.00  0.00     0.009 A 
ATOM      5  C   UNL     1     -23.531  54.450  -1.700  1.00  0.00     0.001 A 
ATOM      6  C   UNL     1     -23.429  55.641  -2.447  1.00  0.00     0.001 A 
ATOM      7  C   UNL     1     -22.177  56.101  -2.887  1.00  0.00     0.009 A 
ATOM      8  C   UNL     1     -21.047  55.349  -2.564  1.00  0.00    -0.010 A 
ATOM      9  C   UNL     1     -19.643  55.580  -2.883  1.00  0.00    -0.010 A 
ATOM     10  C   UNL     1     -19.045  56.619  -3.597  1.00  0.00     0.009 A 
ATOM     11  C   UNL     1     -17.650  56.596  -3.757  1.00  0.00     0.001 A 
ATOM     12  C   UNL     1     -16.884  55.549  -3.207  1.00  0.00     0.001 A 
ATOM     13  C   UNL     1     -17.506  54.512  -2.490  1.00  0.00     0.009 A 
ATOM     14  C   UNL     1     -18.894  54.550  -2.340  1.00  0.00    -0.010 A 
ENDROOT
TORSDOF 0
ENDMDL
MODEL 2
REMARK VINA RESULT:    -7.361      0.046      4.267
REMARK INTER + INTRA:          -7.361
REMARK INTER:                  -7.361
REMARK INTRA:                   0.000
REMARK UNBOUND:                 0.000
REMARK SMILES C=C1c2ccccc2-c2ccccc21
REMARK SMILES IDX 1 1 2 2 3 3 4 4 5 5 6 6 7 7 8 8 9 9 10 10 11 11 12 12 13 13
REMARK SMILES IDX 14 14
REMARK H PARENT
REMARK Flexibility Score: inf
ROOT
ATOM      1  C   UNL     1     -19.466  52.512  -1.004  1.00  0.00     0.018 C 
ATOM      2  C   UNL     1     -19.799  53.631  -1.645  1.00  0.00    -0.017 C 
ATOM      3  C   UNL     1     -18.895  54.578  -2.312  1.00  0.00    -0.010 A 
ATOM      4  C   UNL     1     -17.505  54.555  -2.442  1.00  0.00     0.009 A 
ATOM      5  C   UNL     1     -16.883  55.604  -3.140  1.00  0.00     0.001 A 
ATOM      6  C   UNL     1     -17.651  56.650  -3.692  1.00  0.00     0.001 A 
ATOM      7  C   UNL     1     -19.049  56.657  -3.551  1.00  0.00     0.009 A 
ATOM      8  C   UNL     1     -19.647  55.607  -2.855  1.00  0.00    -0.010 A 
ATOM      9  C   UNL     1     -21.053  55.358  -2.558  1.00  0.00    -0.010 A 
ATOM     10  C   UNL     1     -22.185  56.103  -2.890  1.00  0.00     0.009 A 
ATOM     11  C   UNL     1     -23.439  55.626  -2.472  1.00  0.00     0.001 A 
ATOM     12  C   UNL     1     -23.539  54.428  -1.738  1.00  0.00     0.001 A 
ATOM     13  C   UNL     1     -22.386  53.692  -1.414  1.00  0.00     0.009 A 
ATOM     14  C   UNL     1     -21.148  54.179  -1.837  1.00  0.00    -0.010 A 
ENDROOT
TORSDOF 0
ENDMDL
MODEL 3
REMARK VINA RESULT:    -6.795      0.792      4.822
REMARK INTER + INTRA:          -6.795
REMARK INTER:                  -6.795
REMARK INTRA:                   0.000
REMARK UNBOUND:                 0.000
REMARK SMILES C=C1c2ccccc2-c2ccccc21
REMARK SMILES IDX 1 1 2 2 3 3 4 4 5 5 6 6 7 7 8 8 9 9 10 10 11 11 12 12 13 13
REMARK SMILES IDX 14 14
REMARK H PARENT
REMARK Flexibility Score: inf
ROOT
ATOM      1  C   UNL     1     -21.859  56.399  -2.877  1.00  0.00     0.018 C 
ATOM      2  C   UNL     1     -20.834  55.646  -2.479  1.00  0.00    -0.017 C 
ATOM      3  C   UNL     1     -19.423  55.786  -2.864  1.00  0.00    -0.010 A 
ATOM      4  C   UNL     1     -18.811  56.707  -3.717  1.00  0.00     0.009 A 
ATOM      5  C   UNL     1     -17.422  56.612  -3.913  1.00  0.00     0.001 A 
ATOM      6  C   UNL     1     -16.674  55.610  -3.261  1.00  0.00     0.001 A 
ATOM      7  C   UNL     1     -17.307  54.691  -2.407  1.00  0.00     0.009 A 
ATOM      8  C   UNL     1     -18.686  54.802  -2.226  1.00  0.00    -0.010 A 
ATOM      9  C   UNL     1     -19.592  54.000  -1.412  1.00  0.00    -0.010 A 
ATOM     10  C   UNL     1     -19.328  52.904  -0.591  1.00  0.00     0.009 A 
ATOM     11  C   UNL     1     -20.404  52.311   0.091  1.00  0.00     0.001 A 
ATOM     12  C   UNL     1     -21.710  52.817  -0.057  1.00  0.00     0.001 A 
ATOM     13  C   UNL     1     -21.955  53.924  -0.889  1.00  0.00     0.009 A 
ATOM     14  C   UNL     1     -20.875  54.501  -1.559  1.00  0.00    -0.010 A 
ENDROOT
TORSDOF 0
ENDMDL
MODEL 4
REMARK VINA RESULT:    -6.782      0.802      2.924
REMARK INTER + INTRA:          -6.782
REMARK INTER:                  -6.782
REMARK INTRA:                   0.000
REMARK UNBOUND:                 0.000
REMARK SMILES C=C1c2ccccc2-c2ccccc21
REMARK SMILES IDX 1 1 2 2 3 3 4 4 5 5 6 6 7 7 8 8 9 9 10 10 11 11 12 12 13 13
REMARK SMILES IDX 14 14
REMARK H PARENT
REMARK Flexibility Score: inf
ROOT
ATOM      1  C   UNL     1     -21.850  56.324  -2.952  1.00  0.00     0.018 C 
ATOM      2  C   UNL     1     -20.823  55.599  -2.511  1.00  0.00    -0.017 C 
ATOM      3  C   UNL     1     -20.864  54.487  -1.552  1.00  0.00    -0.010 A 
ATOM      4  C   UNL     1     -21.948  53.922  -0.876  1.00  0.00     0.009 A 
ATOM      5  C   UNL     1     -21.702  52.850  -0.000  1.00  0.00     0.001 A 
ATOM      6  C   UNL     1     -20.391  52.364   0.186  1.00  0.00     0.001 A 
ATOM      7  C   UNL     1     -19.313  52.945  -0.502  1.00  0.00     0.009 A 
ATOM      8  C   UNL     1     -19.578  54.008  -1.367  1.00  0.00    -0.010 A 
ATOM      9  C   UNL     1     -18.669  54.790  -2.197  1.00  0.00    -0.010 A 
ATOM     10  C   UNL     1     -17.287  54.690  -2.354  1.00  0.00     0.009 A 
ATOM     11  C   UNL     1     -16.652  55.584  -3.232  1.00  0.00     0.001 A 
ATOM     12  C   UNL     1     -17.401  56.552  -3.931  1.00  0.00     0.001 A 
ATOM     13  C   UNL     1     -18.793  56.637  -3.758  1.00  0.00     0.009 A 
ATOM     14  C   UNL     1     -19.408  55.741  -2.882  1.00  0.00    -0.010 A 
ENDROOT
TORSDOF 0
ENDMDL
MODEL 5
REMARK VINA RESULT:    -6.436      2.301      4.113
REMARK INTER + INTRA:          -6.436
REMARK INTER:                  -6.436
REMARK INTRA:                   0.000
REMARK UNBOUND:                 0.000
REMARK SMILES C=C1c2ccccc2-c2ccccc21
REMARK SMILES IDX 1 1 2 2 3 3 4 4 5 5 6 6 7 7 8 8 9 9 10 10 11 11 12 12 13 13
REMARK SMILES IDX 14 14
REMARK H PARENT
REMARK Flexibility Score: inf
ROOT
ATOM      1  C   UNL     1     -23.662  54.000   1.657  1.00  0.00     0.018 C 
ATOM      2  C   UNL     1     -23.740  54.539   0.441  1.00  0.00    -0.017 C 
ATOM      3  C   UNL     1     -24.900  55.206  -0.164  1.00  0.00    -0.010 A 
ATOM      4  C   UNL     1     -26.175  55.440   0.354  1.00  0.00     0.009 A 
ATOM      5  C   UNL     1     -27.111  56.111  -0.452  1.00  0.00     0.001 A 
ATOM      6  C   UNL     1     -26.762  56.534  -1.751  1.00  0.00     0.001 A 
ATOM      7  C   UNL     1     -25.475  56.289  -2.258  1.00  0.00     0.009 A 
ATOM      8  C   UNL     1     -24.561  55.622  -1.442  1.00  0.00    -0.010 A 
ATOM      9  C   UNL     1     -23.178  55.239  -1.700  1.00  0.00    -0.010 A 
ATOM     10  C   UNL     1     -22.390  55.436  -2.834  1.00  0.00     0.009 A 
ATOM     11  C   UNL     1     -21.068  54.959  -2.815  1.00  0.00     0.001 A 
ATOM     12  C   UNL     1     -20.563  54.301  -1.676  1.00  0.00     0.001 A 
ATOM     13  C   UNL     1     -21.373  54.113  -0.543  1.00  0.00     0.009 A 
ATOM     14  C   UNL     1     -22.684  54.593  -0.579  1.00  0.00    -0.010 A 
ENDROOT
TORSDOF 0
ENDMDL
MODEL 6
REMARK VINA RESULT:    -6.419      1.788      3.671
REMARK INTER + INTRA:          -6.419
REMARK INTER:                  -6.419
REMARK INTRA:                   0.000
REMARK UNBOUND:                 0.000
REMARK SMILES C=C1c2ccccc2-c2ccccc21
REMARK SMILES IDX 1 1 2 2 3 3 4 4 5 5 6 6 7 7 8 8 9 9 10 10 11 11 12 12 13 13
REMARK SMILES IDX 14 14
REMARK H PARENT
REMARK Flexibility Score: inf
ROOT
ATOM      1  C   UNL     1     -21.973  56.756  -2.860  1.00  0.00     0.018 C 
ATOM      2  C   UNL     1     -21.937  55.719  -2.023  1.00  0.00    -0.017 C 
ATOM      3  C   UNL     1     -22.846  55.448  -0.901  1.00  0.00    -0.010 A 
ATOM      4  C   UNL     1     -23.942  56.178  -0.435  1.00  0.00     0.009 A 
ATOM      5  C   UNL     1     -24.648  55.684   0.676  1.00  0.00     0.001 A 
ATOM      6  C   UNL     1     -24.252  54.482   1.298  1.00  0.00     0.001 A 
ATOM      7  C   UNL     1     -23.146  53.761   0.815  1.00  0.00     0.009 A 
ATOM      8  C   UNL     1     -22.460  54.268  -0.288  1.00  0.00    -0.010 A 
ATOM      9  C   UNL     1     -21.295  53.741  -0.991  1.00  0.00    -0.010 A 
ATOM     10  C   UNL     1     -20.551  52.586  -0.752  1.00  0.00     0.009 A 
ATOM     11  C   UNL     1     -19.461  52.313  -1.596  1.00  0.00     0.001 A 
ATOM     12  C   UNL     1     -19.138  53.189  -2.652  1.00  0.00     0.001 A 
ATOM     13  C   UNL     1     -19.901  54.348  -2.875  1.00  0.00     0.009 A 
ATOM     14  C   UNL     1     -20.981  54.604  -2.028  1.00  0.00    -0.010 A 
ENDROOT
TORSDOF 0
ENDMDL
MODEL 7
REMARK VINA RESULT:    -6.406      1.777      5.362
REMARK INTER + INTRA:          -6.406
REMARK INTER:                  -6.406
REMARK INTRA:                   0.000
REMARK UNBOUND:                 0.000
REMARK SMILES C=C1c2ccccc2-c2ccccc21
REMARK SMILES IDX 1 1 2 2 3 3 4 4 5 5 6 6 7 7 8 8 9 9 10 10 11 11 12 12 13 13
REMARK SMILES IDX 14 14
REMARK H PARENT
REMARK Flexibility Score: inf
ROOT
ATOM      1  C   UNL     1     -22.103  56.637  -2.867  1.00  0.00     0.018 C 
ATOM      2  C   UNL     1     -22.016  55.616  -2.015  1.00  0.00    -0.017 C 
ATOM      3  C   UNL     1     -21.005  54.550  -2.005  1.00  0.00    -0.010 A 
ATOM      4  C   UNL     1     -19.915  54.335  -2.852  1.00  0.00     0.009 A 
ATOM      5  C   UNL     1     -19.096  53.218  -2.614  1.00  0.00     0.001 A 
ATOM      6  C   UNL     1     -19.375  52.341  -1.545  1.00  0.00     0.001 A 
ATOM      7  C   UNL     1     -20.476  52.573  -0.703  1.00  0.00     0.009 A 
ATOM      8  C   UNL     1     -21.276  53.686  -0.956  1.00  0.00    -0.010 A 
ATOM      9  C   UNL     1     -22.464  54.165  -0.259  1.00  0.00    -0.010 A 
ATOM     10  C   UNL     1     -23.124  53.641   0.852  1.00  0.00     0.009 A 
ATOM     11  C   UNL     1     -24.263  54.314   1.326  1.00  0.00     0.001 A 
ATOM     12  C   UNL     1     -24.718  55.486   0.689  1.00  0.00     0.001 A 
ATOM     13  C   UNL     1     -24.038  55.998  -0.430  1.00  0.00     0.009 A 
ATOM     14  C   UNL     1     -22.908  55.317  -0.888  1.00  0.00    -0.010 A 
ENDROOT
TORSDOF 0
ENDMDL
MODEL 8
REMARK VINA RESULT:    -6.390      2.329      5.132
REMARK INTER + INTRA:          -6.390
REMARK INTER:                  -6.390
REMARK INTRA:                   0.000
REMARK UNBOUND:                 0.000
REMARK SMILES C=C1c2ccccc2-c2ccccc21
REMARK SMILES IDX 1 1 2 2 3 3 4 4 5 5 6 6 7 7 8 8 9 9 10 10 11 11 12 12 13 13
REMARK SMILES IDX 14 14
REMARK H PARENT
REMARK Flexibility Score: inf
ROOT
ATOM      1  C   UNL     1     -17.851  55.977  -3.992  1.00  0.00     0.018 C 
ATOM      2  C   UNL     1     -17.974  55.598  -2.720  1.00  0.00    -0.017 C 
ATOM      3  C   UNL     1     -17.373  56.234  -1.540  1.00  0.00    -0.010 A 
ATOM      4  C   UNL     1     -16.547  57.356  -1.445  1.00  0.00     0.009 A 
ATOM      5  C   UNL     1     -16.107  57.754  -0.171  1.00  0.00     0.001 A 
ATOM      6  C   UNL     1     -16.494  57.032   0.978  1.00  0.00     0.001 A 
ATOM      7  C   UNL     1     -17.325  55.905   0.863  1.00  0.00     0.009 A 
ATOM      8  C   UNL     1     -17.751  55.527  -0.410  1.00  0.00    -0.010 A 
ATOM      9  C   UNL     1     -18.604  54.418  -0.823  1.00  0.00    -0.010 A 
ATOM     10  C   UNL     1     -19.228  53.433  -0.057  1.00  0.00     0.009 A 
ATOM     11  C   UNL     1     -20.006  52.470  -0.720  1.00  0.00     0.001 A 
ATOM     12  C   UNL     1     -20.146  52.507  -2.122  1.00  0.00     0.001 A 
ATOM     13  C   UNL     1     -19.510  53.508  -2.876  1.00  0.00     0.009 A 
ATOM     14  C   UNL     1     -18.741  54.458  -2.201  1.00  0.00    -0.010 A 
ENDROOT
TORSDOF 0
ENDMDL
MODEL 9
REMARK VINA RESULT:    -6.353      1.597      4.864
REMARK INTER + INTRA:          -6.353
REMARK INTER:                  -6.353
REMARK INTRA:                   0.000
REMARK UNBOUND:                 0.000
REMARK SMILES C=C1c2ccccc2-c2ccccc21
REMARK SMILES IDX 1 1 2 2 3 3 4 4 5 5 6 6 7 7 8 8 9 9 10 10 11 11 12 12 13 13
REMARK SMILES IDX 14 14
REMARK H PARENT
REMARK Flexibility Score: inf
ROOT
ATOM      1  C   UNL     1     -18.641  56.691  -3.802  1.00  0.00     0.018 C 
ATOM      2  C   UNL     1     -19.086  55.999  -2.754  1.00  0.00    -0.017 C 
ATOM      3  C   UNL     1     -18.301  55.509  -1.612  1.00  0.00    -0.010 A 
ATOM      4  C   UNL     1     -16.938  55.635  -1.337  1.00  0.00     0.009 A 
ATOM      5  C   UNL     1     -16.440  55.061  -0.154  1.00  0.00     0.001 A 
ATOM      6  C   UNL     1     -17.304  54.378   0.727  1.00  0.00     0.001 A 
ATOM      7  C   UNL     1     -18.673  54.261   0.434  1.00  0.00     0.009 A 
ATOM      8  C   UNL     1     -19.146  54.837  -0.744  1.00  0.00    -0.010 A 
ATOM      9  C   UNL     1     -20.497  54.871  -1.295  1.00  0.00    -0.010 A 
ATOM     10  C   UNL     1     -21.683  54.337  -0.793  1.00  0.00     0.009 A 
ATOM     11  C   UNL     1     -22.860  54.519  -1.538  1.00  0.00     0.001 A 
ATOM     12  C   UNL     1     -22.832  55.224  -2.758  1.00  0.00     0.001 A 
ATOM     13  C   UNL     1     -21.625  55.754  -3.247  1.00  0.00     0.009 A 
ATOM     14  C   UNL     1     -20.465  55.564  -2.494  1.00  0.00    -0.010 A 
ENDROOT
TORSDOF 0
ENDMDL
