MODEL 1
REMARK VINA RESULT:    -3.449      0.000      0.000
REMARK INTER + INTRA:          -4.805
REMARK INTER:                  -4.458
REMARK INTRA:                  -0.347
REMARK UNBOUND:                -0.347
REMARK SMILES CCO[C@@H]1O[C@@H](CO)[C@H](O)[C@@H](O)[C@H]1O
REMARK SMILES IDX 4 1 13 2 11 3 9 4 6 5 5 6 3 7 2 8 1 9 14 10 12 12 7 14 8 15
REMARK SMILES IDX 10 17
REMARK H PARENT 14 11 12 13 8 16 10 18
REMARK Flexibility Score: inf
ROOT
ATOM      1  C   UNL     1      34.328  37.781   0.275  1.00  0.00     0.281 C 
ATOM      2  C   UNL     1      33.672  38.791   1.233  1.00  0.00     0.202 C 
ATOM      3  C   UNL     1      32.272  38.295   1.646  1.00  0.00     0.179 C 
ATOM      4  C   UNL     1      32.350  36.853   2.166  1.00  0.00     0.177 C 
ATOM      5  C   UNL     1      33.091  35.971   1.132  1.00  0.00     0.178 C 
ATOM      6  O   UNL     1      34.386  36.487   0.860  1.00  0.00    -0.341 OA
ENDROOT
BRANCH   1   7
ATOM      7  O   UNL     1      33.632  37.763  -0.962  1.00  0.00    -0.350 OA
BRANCH   7   8
ATOM      8  C   UNL     1      33.691  39.028  -1.598  1.00  0.00     0.160 C 
ATOM      9  C   UNL     1      33.311  38.895  -3.068  1.00  0.00     0.035 C 
ENDBRANCH   7   8
ENDBRANCH   1   7
BRANCH   2  10
ATOM     10  O   UNL     1      34.491  38.946   2.366  1.00  0.00    -0.385 OA
ATOM     11  H   UNL     1      34.978  38.089   2.491  1.00  0.00     0.211 HD
ENDBRANCH   2  10
BRANCH   3  12
ATOM     12  O   UNL     1      31.729  39.124   2.641  1.00  0.00    -0.387 OA
ATOM     13  H   UNL     1      31.495  38.536   3.406  1.00  0.00     0.211 HD
ENDBRANCH   3  12
BRANCH   5  14
ATOM     14  C   UNL     1      33.242  34.527   1.625  1.00  0.00     0.191 C 
BRANCH  14  15
ATOM     15  O   UNL     1      32.124  33.765   1.260  1.00  0.00    -0.394 OA
ATOM     16  H   UNL     1      31.508  34.385   0.789  1.00  0.00     0.210 HD
ENDBRANCH  14  15
ENDBRANCH   5  14
BRANCH   4  17
ATOM     17  O   UNL     1      31.044  36.374   2.368  1.00  0.00    -0.387 OA
ATOM     18  H   UNL     1      30.931  35.577   1.787  1.00  0.00     0.211 HD
ENDBRANCH   4  17
TORSDOF 7
ENDMDL
MODEL 2
REMARK VINA RESULT:    -3.311      1.822      3.685
REMARK INTER + INTRA:          -4.626
REMARK INTER:                  -4.275
REMARK INTRA:                  -0.350
REMARK UNBOUND:                -0.347
REMARK SMILES CCO[C@@H]1O[C@@H](CO)[C@H](O)[C@@H](O)[C@H]1O
REMARK SMILES IDX 4 1 13 2 11 3 9 4 6 5 5 6 3 7 2 8 1 9 14 10 12 12 7 14 8 15
REMARK SMILES IDX 10 17
REMARK H PARENT 14 11 12 13 8 16 10 18
REMARK Flexibility Score: inf
ROOT
ATOM      1  C   UNL     1      33.217  38.387   2.803  1.00  0.00     0.281 C 
ATOM      2  C   UNL     1      32.729  39.116   1.538  1.00  0.00     0.202 C 
ATOM      3  C   UNL     1      33.299  38.432   0.280  1.00  0.00     0.179 C 
ATOM      4  C   UNL     1      33.015  36.925   0.319  1.00  0.00     0.177 C 
ATOM      5  C   UNL     1      33.497  36.343   1.670  1.00  0.00     0.178 C 
ATOM      6  O   UNL     1      32.875  37.009   2.760  1.00  0.00    -0.341 OA
ENDROOT
BRANCH   1   7
ATOM      7  O   UNL     1      34.616  38.573   2.960  1.00  0.00    -0.350 OA
BRANCH   7   8
ATOM      8  C   UNL     1      34.919  39.096   4.240  1.00  0.00     0.160 C 
ATOM      9  C   UNL     1      35.083  37.962   5.246  1.00  0.00     0.035 C 
ENDBRANCH   7   8
ENDBRANCH   1   7
BRANCH   2  10
ATOM     10  O   UNL     1      31.323  39.096   1.512  1.00  0.00    -0.385 OA
ATOM     11  H   UNL     1      31.027  39.975   1.155  1.00  0.00     0.211 HD
ENDBRANCH   2  10
BRANCH   3  12
ATOM     12  O   UNL     1      32.736  38.987  -0.881  1.00  0.00    -0.387 OA
ATOM     13  H   UNL     1      31.993  38.387  -1.152  1.00  0.00     0.211 HD
ENDBRANCH   3  12
BRANCH   5  14
ATOM     14  C   UNL     1      33.190  34.844   1.782  1.00  0.00     0.191 C 
BRANCH  14  15
ATOM     15  O   UNL     1      31.966  34.548   1.169  1.00  0.00    -0.394 OA
ATOM     16  H   UNL     1      31.956  35.051   0.314  1.00  0.00     0.210 HD
ENDBRANCH  14  15
ENDBRANCH   5  14
BRANCH   4  17
ATOM     17  O   UNL     1      33.694  36.309  -0.747  1.00  0.00    -0.387 OA
ATOM     18  H   UNL     1      34.649  36.233  -0.482  1.00  0.00     0.211 HD
ENDBRANCH   4  17
TORSDOF 7
ENDMDL
MODEL 3
REMARK VINA RESULT:    -2.899      1.785      3.478
REMARK INTER + INTRA:          -4.093
REMARK INTER:                  -3.712
REMARK INTRA:                  -0.381
REMARK UNBOUND:                -0.347
REMARK SMILES CCO[C@@H]1O[C@@H](CO)[C@H](O)[C@@H](O)[C@H]1O
REMARK SMILES IDX 4 1 13 2 11 3 9 4 6 5 5 6 3 7 2 8 1 9 14 10 12 12 7 14 8 15
REMARK SMILES IDX 10 17
REMARK H PARENT 14 11 12 13 8 16 10 18
REMARK Flexibility Score: inf
ROOT
ATOM      1  C   UNL     1      32.981  37.337   0.378  1.00  0.00     0.281 C 
ATOM      2  C   UNL     1      33.177  35.863   0.774  1.00  0.00     0.202 C 
ATOM      3  C   UNL     1      34.287  35.744   1.837  1.00  0.00     0.179 C 
ATOM      4  C   UNL     1      34.014  36.706   3.001  1.00  0.00     0.177 C 
ATOM      5  C   UNL     1      33.771  38.131   2.448  1.00  0.00     0.178 C 
ATOM      6  O   UNL     1      32.698  38.138   1.517  1.00  0.00    -0.341 OA
ENDROOT
BRANCH   1   7
ATOM      7  O   UNL     1      34.125  37.808  -0.319  1.00  0.00    -0.350 OA
BRANCH   7   8
ATOM      8  C   UNL     1      33.753  38.610  -1.426  1.00  0.00     0.160 C 
ATOM      9  C   UNL     1      32.987  37.775  -2.446  1.00  0.00     0.035 C 
ENDBRANCH   7   8
ENDBRANCH   1   7
BRANCH   2  10
ATOM     10  O   UNL     1      31.963  35.359   1.274  1.00  0.00    -0.385 OA
ATOM     11  H   UNL     1      31.999  34.371   1.178  1.00  0.00     0.211 HD
ENDBRANCH   2  10
BRANCH   3  12
ATOM     12  O   UNL     1      34.366  34.429   2.322  1.00  0.00    -0.387 OA
ATOM     13  H   UNL     1      33.864  34.410   3.179  1.00  0.00     0.211 HD
ENDBRANCH   3  12
BRANCH   5  14
ATOM     14  C   UNL     1      33.442  39.124   3.570  1.00  0.00     0.191 C 
BRANCH  14  15
ATOM     15  O   UNL     1      33.162  38.443   4.762  1.00  0.00    -0.394 OA
ATOM     16  H   UNL     1      33.993  37.957   5.004  1.00  0.00     0.210 HD
ENDBRANCH  14  15
ENDBRANCH   5  14
BRANCH   4  17
ATOM     17  O   UNL     1      35.125  36.700   3.862  1.00  0.00    -0.387 OA
ATOM     18  H   UNL     1      34.833  37.104   4.721  1.00  0.00     0.211 HD
ENDBRANCH   4  17
TORSDOF 7
ENDMDL
MODEL 4
REMARK VINA RESULT:    -1.846      2.078      4.179
REMARK INTER + INTRA:          -2.733
REMARK INTER:                  -2.566
REMARK INTRA:                  -0.167
REMARK UNBOUND:                -0.347
REMARK SMILES CCO[C@@H]1O[C@@H](CO)[C@H](O)[C@@H](O)[C@H]1O
REMARK SMILES IDX 4 1 13 2 11 3 9 4 6 5 5 6 3 7 2 8 1 9 14 10 12 12 7 14 8 15
REMARK SMILES IDX 10 17
REMARK H PARENT 14 11 12 13 8 16 10 18
REMARK Flexibility Score: inf
ROOT
ATOM      1  C   UNL     1      33.081  38.547   2.801  1.00  0.00     0.281 C 
ATOM      2  C   UNL     1      34.121  38.398   1.677  1.00  0.00     0.202 C 
ATOM      3  C   UNL     1      34.301  36.910   1.317  1.00  0.00     0.179 C 
ATOM      4  C   UNL     1      32.939  36.260   1.041  1.00  0.00     0.177 C 
ATOM      5  C   UNL     1      31.980  36.549   2.221  1.00  0.00     0.178 C 
ATOM      6  O   UNL     1      31.846  37.947   2.436  1.00  0.00    -0.341 OA
ENDROOT
BRANCH   1   7
ATOM      7  O   UNL     1      33.591  37.999   4.008  1.00  0.00    -0.350 OA
BRANCH   7   8
ATOM      8  C   UNL     1      34.379  38.947   4.705  1.00  0.00     0.160 C 
ATOM      9  C   UNL     1      34.713  38.429   6.099  1.00  0.00     0.035 C 
ENDBRANCH   7   8
ENDBRANCH   1   7
BRANCH   2  10
ATOM     10  O   UNL     1      33.687  39.125   0.553  1.00  0.00    -0.385 OA
ATOM     11  H   UNL     1      34.177  38.764  -0.232  1.00  0.00     0.211 HD
ENDBRANCH   2  10
BRANCH   3  12
ATOM     12  O   UNL     1      35.125  36.772   0.188  1.00  0.00    -0.387 OA
ATOM     13  H   UNL     1      34.977  35.855  -0.163  1.00  0.00     0.211 HD
ENDBRANCH   3  12
BRANCH   5  14
ATOM     14  C   UNL     1      30.584  35.963   1.973  1.00  0.00     0.191 C 
BRANCH  14  15
ATOM     15  O   UNL     1      29.594  36.870   2.375  1.00  0.00    -0.394 OA
ATOM     16  H   UNL     1      29.380  36.646   3.317  1.00  0.00     0.210 HD
ENDBRANCH  14  15
ENDBRANCH   5  14
BRANCH   4  17
ATOM     17  O   UNL     1      33.121  34.875   0.889  1.00  0.00    -0.387 OA
ATOM     18  H   UNL     1      33.548  34.542   1.721  1.00  0.00     0.211 HD
ENDBRANCH   4  17
TORSDOF 7
ENDMDL
MODEL 5
REMARK VINA RESULT:    -1.777      1.588      4.240
REMARK INTER + INTRA:          -2.644
REMARK INTER:                  -2.309
REMARK INTRA:                  -0.335
REMARK UNBOUND:                -0.347
REMARK SMILES CCO[C@@H]1O[C@@H](CO)[C@H](O)[C@@H](O)[C@H]1O
REMARK SMILES IDX 4 1 13 2 11 3 9 4 6 5 5 6 3 7 2 8 1 9 14 10 12 12 7 14 8 15
REMARK SMILES IDX 10 17
REMARK H PARENT 14 11 12 13 8 16 10 18
REMARK Flexibility Score: inf
ROOT
ATOM      1  C   UNL     1      32.513  35.821   1.464  1.00  0.00     0.281 C 
ATOM      2  C   UNL     1      32.880  37.165   2.118  1.00  0.00     0.202 C 
ATOM      3  C   UNL     1      34.038  37.830   1.348  1.00  0.00     0.179 C 
ATOM      4  C   UNL     1      33.711  37.897  -0.150  1.00  0.00     0.177 C 
ATOM      5  C   UNL     1      33.297  36.492  -0.652  1.00  0.00     0.178 C 
ATOM      6  O   UNL     1      32.193  35.994   0.091  1.00  0.00    -0.341 OA
ENDROOT
BRANCH   1   7
ATOM      7  O   UNL     1      33.572  34.891   1.640  1.00  0.00    -0.350 OA
BRANCH   7   8
ATOM      8  C   UNL     1      33.087  33.561   1.645  1.00  0.00     0.160 C 
ATOM      9  C   UNL     1      33.978  32.680   2.513  1.00  0.00     0.035 C 
ENDBRANCH   7   8
ENDBRANCH   1   7
BRANCH   2  10
ATOM     10  O   UNL     1      31.748  37.999   2.117  1.00  0.00    -0.385 OA
ATOM     11  H   UNL     1      30.959  37.416   1.959  1.00  0.00     0.211 HD
ENDBRANCH   2  10
BRANCH   3  12
ATOM     12  O   UNL     1      34.275  39.125   1.836  1.00  0.00    -0.387 OA
ATOM     13  H   UNL     1      34.757  39.022   2.698  1.00  0.00     0.211 HD
ENDBRANCH   3  12
BRANCH   5  14
ATOM     14  C   UNL     1      32.909  36.513  -2.136  1.00  0.00     0.191 C 
BRANCH  14  15
ATOM     15  O   UNL     1      32.307  37.734  -2.467  1.00  0.00    -0.394 OA
ATOM     16  H   UNL     1      31.645  37.531  -3.179  1.00  0.00     0.210 HD
ENDBRANCH  14  15
ENDBRANCH   5  14
BRANCH   4  17
ATOM     17  O   UNL     1      34.850  38.345  -0.842  1.00  0.00    -0.387 OA
ATOM     18  H   UNL     1      35.255  37.553  -1.284  1.00  0.00     0.211 HD
ENDBRANCH   4  17
TORSDOF 7
ENDMDL
MODEL 6
REMARK VINA RESULT:    -1.201      1.672      2.479
REMARK INTER + INTRA:          -1.900
REMARK INTER:                  -1.689
REMARK INTRA:                  -0.211
REMARK UNBOUND:                -0.347
REMARK SMILES CCO[C@@H]1O[C@@H](CO)[C@H](O)[C@@H](O)[C@H]1O
REMARK SMILES IDX 4 1 13 2 11 3 9 4 6 5 5 6 3 7 2 8 1 9 14 10 12 12 7 14 8 15
REMARK SMILES IDX 10 17
REMARK H PARENT 14 11 12 13 8 16 10 18
REMARK Flexibility Score: inf
ROOT
ATOM      1  C   UNL     1      34.196  37.176   0.730  1.00  0.00     0.281 C 
ATOM      2  C   UNL     1      35.055  37.293   2.002  1.00  0.00     0.202 C 
ATOM      3  C   UNL     1      34.442  38.333   2.961  1.00  0.00     0.179 C 
ATOM      4  C   UNL     1      32.957  38.028   3.198  1.00  0.00     0.177 C 
ATOM      5  C   UNL     1      32.238  37.872   1.836  1.00  0.00     0.178 C 
ATOM      6  O   UNL     1      32.850  36.857   1.052  1.00  0.00    -0.341 OA
ENDROOT
BRANCH   1   7
ATOM      7  O   UNL     1      34.282  38.376  -0.024  1.00  0.00    -0.350 OA
BRANCH   7   8
ATOM      8  C   UNL     1      34.229  38.109  -1.414  1.00  0.00     0.160 C 
ATOM      9  C   UNL     1      32.898  38.582  -1.989  1.00  0.00     0.035 C 
ENDBRANCH   7   8
ENDBRANCH   1   7
BRANCH   2  10
ATOM     10  O   UNL     1      35.124  36.033   2.624  1.00  0.00    -0.385 OA
ATOM     11  H   UNL     1      35.608  36.161   3.483  1.00  0.00     0.211 HD
ENDBRANCH   2  10
BRANCH   3  12
ATOM     12  O   UNL     1      35.124  38.333   4.189  1.00  0.00    -0.387 OA
ATOM     13  H   UNL     1      34.963  37.446   4.604  1.00  0.00     0.211 HD
ENDBRANCH   3  12
BRANCH   5  14
ATOM     14  C   UNL     1      30.757  37.515   2.015  1.00  0.00     0.191 C 
BRANCH  14  15
ATOM     15  O   UNL     1      30.621  36.181   2.421  1.00  0.00    -0.394 OA
ATOM     16  H   UNL     1      29.977  36.186   3.176  1.00  0.00     0.210 HD
ENDBRANCH  14  15
ENDBRANCH   5  14
BRANCH   4  17
ATOM     17  O   UNL     1      32.390  39.085   3.930  1.00  0.00    -0.387 OA
ATOM     18  H   UNL     1      31.554  38.742   4.342  1.00  0.00     0.211 HD
ENDBRANCH   4  17
TORSDOF 7
ENDMDL
MODEL 7
REMARK VINA RESULT:    -0.801      1.903      4.449
REMARK INTER + INTRA:          -1.383
REMARK INTER:                  -1.233
REMARK INTRA:                  -0.149
REMARK UNBOUND:                -0.347
REMARK SMILES CCO[C@@H]1O[C@@H](CO)[C@H](O)[C@@H](O)[C@H]1O
REMARK SMILES IDX 4 1 13 2 11 3 9 4 6 5 5 6 3 7 2 8 1 9 14 10 12 12 7 14 8 15
REMARK SMILES IDX 10 17
REMARK H PARENT 14 11 12 13 8 16 10 18
REMARK Flexibility Score: inf
ROOT
ATOM      1  C   UNL     1      32.013  36.976   2.379  1.00  0.00     0.281 C 
ATOM      2  C   UNL     1      32.493  36.252   1.108  1.00  0.00     0.202 C 
ATOM      3  C   UNL     1      33.354  37.201   0.251  1.00  0.00     0.179 C 
ATOM      4  C   UNL     1      34.462  37.831   1.106  1.00  0.00     0.177 C 
ATOM      5  C   UNL     1      33.840  38.460   2.376  1.00  0.00     0.178 C 
ATOM      6  O   UNL     1      33.112  37.491   3.117  1.00  0.00    -0.341 OA
ENDROOT
BRANCH   1   7
ATOM      7  O   UNL     1      31.091  38.000   2.034  1.00  0.00    -0.350 OA
BRANCH   7   8
ATOM      8  C   UNL     1      29.771  37.642   2.404  1.00  0.00     0.160 C 
ATOM      9  C   UNL     1      28.882  38.880   2.440  1.00  0.00     0.035 C 
ENDBRANCH   7   8
ENDBRANCH   1   7
BRANCH   2  10
ATOM     10  O   UNL     1      33.236  35.118   1.482  1.00  0.00    -0.385 OA
ATOM     11  H   UNL     1      33.254  35.097   2.474  1.00  0.00     0.211 HD
ENDBRANCH   2  10
BRANCH   3  12
ATOM     12  O   UNL     1      33.928  36.508  -0.826  1.00  0.00    -0.387 OA
ATOM     13  H   UNL     1      33.179  36.216  -1.410  1.00  0.00     0.211 HD
ENDBRANCH   3  12
BRANCH   5  14
ATOM     14  C   UNL     1      34.913  39.061   3.293  1.00  0.00     0.191 C 
BRANCH  14  15
ATOM     15  O   UNL     1      34.980  38.352   4.499  1.00  0.00    -0.394 OA
ATOM     16  H   UNL     1      35.386  38.970   5.161  1.00  0.00     0.210 HD
ENDBRANCH  14  15
ENDBRANCH   5  14
BRANCH   4  17
ATOM     17  O   UNL     1      35.115  38.816   0.344  1.00  0.00    -0.387 OA
ATOM     18  H   UNL     1      35.135  39.645   0.891  1.00  0.00     0.211 HD
ENDBRANCH   4  17
TORSDOF 7
ENDMDL
