MODEL 1
REMARK VINA RESULT:    -3.192      0.000      0.000
REMARK INTER + INTRA:          -3.591
REMARK INTER:                  -3.565
REMARK INTRA:                  -0.026
REMARK UNBOUND:                -0.026
REMARK SMILES CCCC(=O)[O-]
REMARK SMILES IDX 3 1 4 2 5 3 6 4 2 5 1 6
REMARK H PARENT
REMARK Flexibility Score: inf
ROOT
ATOM      1  C   UNL     1      12.940 -29.774  23.718  1.00  0.00     0.052 C 
ENDROOT
BRANCH   1   2
ATOM      2  C   UNL     1      12.386 -30.454  22.507  1.00  0.00     0.041 C 
ATOM      3  O   UNL     1      11.254 -30.132  22.060  1.00  0.00    -0.550 OA
ATOM      4  O   UNL     1      13.141 -31.411  21.839  1.00  0.00    -0.550 OA
ENDBRANCH   1   2
BRANCH   1   5
ATOM      5  C   UNL     1      12.125 -28.520  24.047  1.00  0.00     0.003 C 
ATOM      6  C   UNL     1      13.019 -27.286  24.122  1.00  0.00     0.004 C 
ENDBRANCH   1   5
TORSDOF 2
ENDMDL
MODEL 2
REMARK VINA RESULT:    -3.176      0.146      1.329
REMARK INTER + INTRA:          -3.573
REMARK INTER:                  -3.551
REMARK INTRA:                  -0.022
REMARK UNBOUND:                -0.026
REMARK SMILES CCCC(=O)[O-]
REMARK SMILES IDX 3 1 4 2 5 3 6 4 2 5 1 6
REMARK H PARENT
REMARK Flexibility Score: inf
ROOT
ATOM      1  C   UNL     1      12.902 -29.749  23.730  1.00  0.00     0.052 C 
ENDROOT
BRANCH   1   2
ATOM      2  C   UNL     1      12.331 -30.392  22.507  1.00  0.00     0.041 C 
ATOM      3  O   UNL     1      12.952 -31.323  21.931  1.00  0.00    -0.550 OA
ATOM      4  O   UNL     1      11.087 -29.997  22.029  1.00  0.00    -0.550 OA
ENDBRANCH   1   2
BRANCH   1   5
ATOM      5  C   UNL     1      12.112 -28.487  24.091  1.00  0.00     0.003 C 
ATOM      6  C   UNL     1      13.037 -27.285  24.250  1.00  0.00     0.004 C 
ENDBRANCH   1   5
TORSDOF 2
ENDMDL
MODEL 3
REMARK VINA RESULT:    -3.054      1.161      1.548
REMARK INTER + INTRA:          -3.438
REMARK INTER:                  -3.391
REMARK INTRA:                  -0.046
REMARK UNBOUND:                -0.026
REMARK SMILES CCCC(=O)[O-]
REMARK SMILES IDX 3 1 4 2 5 3 6 4 2 5 1 6
REMARK H PARENT
REMARK Flexibility Score: inf
ROOT
ATOM      1  C   UNL     1      13.569 -29.318  23.218  1.00  0.00     0.052 C 
ENDROOT
BRANCH   1   2
ATOM      2  C   UNL     1      13.220 -30.752  22.981  1.00  0.00     0.041 C 
ATOM      3  O   UNL     1      12.689 -31.105  21.895  1.00  0.00    -0.550 OA
ATOM      4  O   UNL     1      13.526 -31.711  23.939  1.00  0.00    -0.550 OA
ENDBRANCH   1   2
BRANCH   1   5
ATOM      5  C   UNL     1      12.607 -28.693  24.232  1.00  0.00     0.003 C 
ATOM      6  C   UNL     1      11.263 -28.368  23.588  1.00  0.00     0.004 C 
ENDBRANCH   1   5
TORSDOF 2
ENDMDL
MODEL 4
REMARK VINA RESULT:    -3.024      1.947      3.314
REMARK INTER + INTRA:          -3.404
REMARK INTER:                  -3.390
REMARK INTRA:                  -0.014
REMARK UNBOUND:                -0.026
REMARK SMILES CCCC(=O)[O-]
REMARK SMILES IDX 3 1 4 2 5 3 6 4 2 5 1 6
REMARK H PARENT
REMARK Flexibility Score: inf
ROOT
ATOM      1  C   UNL     1      13.057 -29.900  23.534  1.00  0.00     0.052 C 
ENDROOT
BRANCH   1   2
ATOM      2  C   UNL     1      12.223 -28.733  23.956  1.00  0.00     0.041 C 
ATOM      3  O   UNL     1      12.663 -27.913  24.805  1.00  0.00    -0.550 OA
ATOM      4  O   UNL     1      10.978 -28.521  23.377  1.00  0.00    -0.550 OA
ENDBRANCH   1   2
BRANCH   1   5
ATOM      5  C   UNL     1      12.358 -30.681  22.417  1.00  0.00     0.003 C 
ATOM      6  C   UNL     1      13.373 -31.344  21.491  1.00  0.00     0.004 C 
ENDBRANCH   1   5
TORSDOF 2
ENDMDL
MODEL 5
REMARK VINA RESULT:    -3.013      1.781      2.280
REMARK INTER + INTRA:          -3.391
REMARK INTER:                  -3.363
REMARK INTRA:                  -0.028
REMARK UNBOUND:                -0.026
REMARK SMILES CCCC(=O)[O-]
REMARK SMILES IDX 3 1 4 2 5 3 6 4 2 5 1 6
REMARK H PARENT
REMARK Flexibility Score: inf
ROOT
ATOM      1  C   UNL     1      12.642 -30.923  22.318  1.00  0.00     0.052 C 
ENDROOT
BRANCH   1   2
ATOM      2  C   UNL     1      13.681 -31.325  21.321  1.00  0.00     0.041 C 
ATOM      3  O   UNL     1      13.413 -32.177  20.433  1.00  0.00    -0.550 OA
ATOM      4  O   UNL     1      14.933 -30.722  21.339  1.00  0.00    -0.550 OA
ENDBRANCH   1   2
BRANCH   1   5
ATOM      5  C   UNL     1      13.300 -30.405  23.599  1.00  0.00     0.003 C 
ATOM      6  C   UNL     1      12.662 -29.096  24.056  1.00  0.00     0.004 C 
ENDBRANCH   1   5
TORSDOF 2
ENDMDL
MODEL 6
REMARK VINA RESULT:    -2.928     10.509     11.165
REMARK INTER + INTRA:          -3.296
REMARK INTER:                  -3.257
REMARK INTRA:                  -0.039
REMARK UNBOUND:                -0.026
REMARK SMILES CCCC(=O)[O-]
REMARK SMILES IDX 3 1 4 2 5 3 6 4 2 5 1 6
REMARK H PARENT
REMARK Flexibility Score: inf
ROOT
ATOM      1  C   UNL     1      22.030 -25.296  20.655  1.00  0.00     0.052 C 
ENDROOT
BRANCH   1   2
ATOM      2  C   UNL     1      23.117 -25.560  19.663  1.00  0.00     0.041 C 
ATOM      3  O   UNL     1      23.651 -24.606  19.038  1.00  0.00    -0.550 OA
ATOM      4  O   UNL     1      23.577 -26.855  19.463  1.00  0.00    -0.550 OA
ENDBRANCH   1   2
BRANCH   1   5
ATOM      5  C   UNL     1      20.672 -25.716  20.086  1.00  0.00     0.003 C 
ATOM      6  C   UNL     1      20.205 -27.035  20.693  1.00  0.00     0.004 C 
ENDBRANCH   1   5
TORSDOF 2
ENDMDL
MODEL 7
REMARK VINA RESULT:    -2.919      3.094      3.717
REMARK INTER + INTRA:          -3.286
REMARK INTER:                  -3.273
REMARK INTRA:                  -0.013
REMARK UNBOUND:                -0.026
REMARK SMILES CCCC(=O)[O-]
REMARK SMILES IDX 3 1 4 2 5 3 6 4 2 5 1 6
REMARK H PARENT
REMARK Flexibility Score: inf
ROOT
ATOM      1  C   UNL     1      13.452 -31.551  20.872  1.00  0.00     0.052 C 
ENDROOT
BRANCH   1   2
ATOM      2  C   UNL     1      14.225 -32.764  21.279  1.00  0.00     0.041 C 
ATOM      3  O   UNL     1      14.585 -33.607  20.415  1.00  0.00    -0.550 OA
ATOM      4  O   UNL     1      14.595 -32.941  22.607  1.00  0.00    -0.550 OA
ENDBRANCH   1   2
BRANCH   1   5
ATOM      5  C   UNL     1      12.685 -30.979  22.068  1.00  0.00     0.003 C 
ATOM      6  C   UNL     1      11.265 -30.584  21.673  1.00  0.00     0.004 C 
ENDBRANCH   1   5
TORSDOF 2
ENDMDL
MODEL 8
REMARK VINA RESULT:    -2.907     10.842     11.499
REMARK INTER + INTRA:          -3.272
REMARK INTER:                  -3.263
REMARK INTRA:                  -0.009
REMARK UNBOUND:                -0.026
REMARK SMILES CCCC(=O)[O-]
REMARK SMILES IDX 3 1 4 2 5 3 6 4 2 5 1 6
REMARK H PARENT
REMARK Flexibility Score: inf
ROOT
ATOM      1  C   UNL     1      22.427 -26.020  19.999  1.00  0.00     0.052 C 
ENDROOT
BRANCH   1   2
ATOM      2  C   UNL     1      23.196 -24.746  20.145  1.00  0.00     0.041 C 
ATOM      3  O   UNL     1      23.820 -24.265  19.162  1.00  0.00    -0.550 OA
ATOM      4  O   UNL     1      23.185 -24.061  21.353  1.00  0.00    -0.550 OA
ENDBRANCH   1   2
BRANCH   1   5
ATOM      5  C   UNL     1      20.922 -25.751  20.087  1.00  0.00     0.003 C 
ATOM      6  C   UNL     1      20.169 -26.988  20.567  1.00  0.00     0.004 C 
ENDBRANCH   1   5
TORSDOF 2
ENDMDL
MODEL 9
REMARK VINA RESULT:    -2.869      1.856      2.822
REMARK INTER + INTRA:          -3.231
REMARK INTER:                  -3.185
REMARK INTRA:                  -0.046
REMARK UNBOUND:                -0.026
REMARK SMILES CCCC(=O)[O-]
REMARK SMILES IDX 3 1 4 2 5 3 6 4 2 5 1 6
REMARK H PARENT
REMARK Flexibility Score: inf
ROOT
ATOM      1  C   UNL     1      13.303 -30.548  23.179  1.00  0.00     0.052 C 
ENDROOT
BRANCH   1   2
ATOM      2  C   UNL     1      12.568 -30.935  21.936  1.00  0.00     0.041 C 
ATOM      3  O   UNL     1      11.371 -30.581  21.770  1.00  0.00    -0.550 OA
ATOM      4  O   UNL     1      13.219 -31.646  20.935  1.00  0.00    -0.550 OA
ENDBRANCH   1   2
BRANCH   1   5
ATOM      5  C   UNL     1      14.428 -31.547  23.469  1.00  0.00     0.003 C 
ATOM      6  C   UNL     1      13.930 -32.701  24.334  1.00  0.00     0.004 C 
ENDBRANCH   1   5
TORSDOF 2
ENDMDL
