MODEL 1
REMARK VINA RESULT:    -6.717      0.000      0.000
REMARK INTER + INTRA:         -10.712
REMARK INTER:                  -9.269
REMARK INTRA:                  -1.443
REMARK UNBOUND:                -1.443
REMARK SMILES O=C([O-])[C@H]1O[C@H](Oc2cc3oc(-c4ccccc4)cc(=O)c3c(O)c2O)[C@@H](O)[C@@H](O)[C@@H]1O
REMARK SMILES IDX 7 1 6 2 4 3 31 4 5 5 29 6 27 7 2 8 1 9 3 10 32 11 30 13
REMARK SMILES IDX 28 15 8 17 25 18 9 19 23 20 10 21 22 22 11 23 20 24 12 25
REMARK SMILES IDX 19 26 21 27 26 28 24 30 13 32 14 33 18 34 15 35 17 36 16 37
REMARK H PARENT 32 12 30 14 28 16 26 29 24 31
REMARK Flexibility Score: inf
ROOT
ATOM      1  O   UNL     1       6.508  25.594 -10.682  1.00  0.00    -0.458 OA
ENDROOT
BRANCH   1   2
ATOM      2  C   UNL     1       6.356  25.906 -12.073  1.00  0.00     0.339 C 
ATOM      3  C   UNL     1       6.505  28.216 -11.672  1.00  0.00     0.199 C 
ATOM      4  C   UNL     1       7.854  28.364 -12.413  1.00  0.00     0.180 C 
ATOM      5  O   UNL     1       5.727  27.168 -12.229  1.00  0.00    -0.328 OA
ATOM      6  C   UNL     1       8.618  27.028 -12.378  1.00  0.00     0.181 C 
ATOM      7  C   UNL     1       7.713  25.863 -12.818  1.00  0.00     0.214 C 
BRANCH   3   8
ATOM      8  C   UNL     1       5.717  29.488 -11.781  1.00  0.00     0.073 C 
ATOM      9  O   UNL     1       4.759  29.712 -10.992  1.00  0.00    -0.547 OA
ATOM     10  O   UNL     1       6.063  30.444 -12.729  1.00  0.00    -0.547 OA
ENDBRANCH   3   8
BRANCH   4  11
ATOM     11  O   UNL     1       8.636  29.352 -11.790  1.00  0.00    -0.387 OA
ATOM     12  H   UNL     1       9.586  29.134 -11.976  1.00  0.00     0.211 HD
ENDBRANCH   4  11
BRANCH   6  13
ATOM     13  O   UNL     1       9.743  27.087 -13.216  1.00  0.00    -0.387 OA
ATOM     14  H   UNL     1       9.463  27.556 -14.045  1.00  0.00     0.211 HD
ENDBRANCH   6  13
BRANCH   7  15
ATOM     15  O   UNL     1       7.524  25.856 -14.213  1.00  0.00    -0.384 OA
ATOM     16  H   UNL     1       7.430  26.795 -14.518  1.00  0.00     0.211 HD
ENDBRANCH   7  15
ENDBRANCH   1   2
BRANCH   1  17
ATOM     17  C   UNL     1       5.553  24.905  -9.921  1.00  0.00     0.172 A 
ATOM     18  C   UNL     1       4.457  25.557  -9.330  1.00  0.00     0.201 A 
ATOM     19  C   UNL     1       5.720  23.534  -9.744  1.00  0.00     0.098 A 
ATOM     20  C   UNL     1       3.493  24.821  -8.611  1.00  0.00     0.176 A 
ATOM     21  C   UNL     1       4.804  22.792  -9.001  1.00  0.00     0.146 A 
ATOM     22  C   UNL     1       3.682  23.421  -8.405  1.00  0.00     0.111 A 
ATOM     23  O   UNL     1       5.010  21.487  -8.862  1.00  0.00    -0.456 OA
ATOM     24  C   UNL     1       2.844  22.604  -7.608  1.00  0.00     0.197 A 
ATOM     25  C   UNL     1       4.217  20.691  -8.153  1.00  0.00     0.138 A 
ATOM     26  C   UNL     1       3.102  21.237  -7.503  1.00  0.00     0.100 A 
ATOM     27  O   UNL     1       1.875  23.075  -6.956  1.00  0.00    -0.289 OA
BRANCH  18  28
ATOM     28  O   UNL     1       4.339  26.943  -9.450  1.00  0.00    -0.502 OA
ATOM     29  H   UNL     1       3.870  27.386 -10.232  1.00  0.00     0.293 HD
ENDBRANCH  18  28
BRANCH  20  30
ATOM     30  O   UNL     1       2.370  25.519  -8.152  1.00  0.00    -0.504 OA
ATOM     31  H   UNL     1       1.644  25.895  -8.742  1.00  0.00     0.293 HD
ENDBRANCH  20  30
BRANCH  25  32
ATOM     32  C   UNL     1       4.541  19.242  -8.083  1.00  0.00     0.017 A 
ATOM     33  C   UNL     1       5.834  18.756  -8.362  1.00  0.00     0.012 A 
ATOM     34  C   UNL     1       3.527  18.322  -7.757  1.00  0.00     0.012 A 
ATOM     35  C   UNL     1       6.104  17.384  -8.296  1.00  0.00     0.001 A 
ATOM     36  C   UNL     1       3.804  16.952  -7.691  1.00  0.00     0.001 A 
ATOM     37  C   UNL     1       5.092  16.485  -7.957  1.00  0.00     0.000 A 
ENDBRANCH  25  32
ENDBRANCH   1  17
TORSDOF 9
ENDMDL
MODEL 2
REMARK VINA RESULT:    -6.326      5.797      7.106
REMARK INTER + INTRA:         -10.173
REMARK INTER:                  -9.151
REMARK INTRA:                  -1.022
REMARK UNBOUND:                -1.443
REMARK SMILES O=C([O-])[C@H]1O[C@H](Oc2cc3oc(-c4ccccc4)cc(=O)c3c(O)c2O)[C@@H](O)[C@@H](O)[C@@H]1O
REMARK SMILES IDX 7 1 6 2 4 3 31 4 5 5 29 6 27 7 2 8 1 9 3 10 32 11 30 13
REMARK SMILES IDX 28 15 8 17 25 18 9 19 23 20 10 21 22 22 11 23 20 24 12 25
REMARK SMILES IDX 19 26 21 27 26 28 24 30 13 32 14 33 18 34 15 35 17 36 16 37
REMARK H PARENT 32 12 30 14 28 16 26 29 24 31
REMARK Flexibility Score: inf
ROOT
ATOM      1  O   UNL     1       5.635  23.536 -13.789  1.00  0.00    -0.458 OA
ENDROOT
BRANCH   1   2
ATOM      2  C   UNL     1       6.999  23.363 -13.382  1.00  0.00     0.339 C 
ATOM      3  C   UNL     1       6.995  25.373 -12.167  1.00  0.00     0.199 C 
ATOM      4  C   UNL     1       7.137  24.669 -10.798  1.00  0.00     0.180 C 
ATOM      5  O   UNL     1       7.622  24.623 -13.197  1.00  0.00    -0.328 OA
ATOM      6  C   UNL     1       6.554  23.246 -10.881  1.00  0.00     0.181 C 
ATOM      7  C   UNL     1       7.106  22.493 -12.105  1.00  0.00     0.214 C 
BRANCH   3   8
ATOM      8  C   UNL     1       7.642  26.726 -12.118  1.00  0.00     0.073 C 
ATOM      9  O   UNL     1       7.452  27.487 -11.131  1.00  0.00    -0.547 OA
ATOM     10  O   UNL     1       8.486  27.133 -13.145  1.00  0.00    -0.547 OA
ENDBRANCH   3   8
BRANCH   4  11
ATOM     11  O   UNL     1       6.439  25.390  -9.814  1.00  0.00    -0.387 OA
ATOM     12  H   UNL     1       5.658  24.840  -9.547  1.00  0.00     0.211 HD
ENDBRANCH   4  11
BRANCH   6  13
ATOM     13  O   UNL     1       6.858  22.526  -9.714  1.00  0.00    -0.387 OA
ATOM     14  H   UNL     1       6.215  22.819  -9.016  1.00  0.00     0.211 HD
ENDBRANCH   6  13
BRANCH   7  15
ATOM     15  O   UNL     1       8.431  22.068 -11.893  1.00  0.00    -0.384 OA
ATOM     16  H   UNL     1       8.408  21.233 -11.359  1.00  0.00     0.211 HD
ENDBRANCH   7  15
ENDBRANCH   1   2
BRANCH   1  17
ATOM     17  C   UNL     1       5.048  22.876 -14.877  1.00  0.00     0.172 A 
ATOM     18  C   UNL     1       4.880  23.499 -16.126  1.00  0.00     0.201 A 
ATOM     19  C   UNL     1       4.610  21.568 -14.692  1.00  0.00     0.098 A 
ATOM     20  C   UNL     1       4.328  22.786 -17.210  1.00  0.00     0.176 A 
ATOM     21  C   UNL     1       4.021  20.857 -15.736  1.00  0.00     0.146 A 
ATOM     22  C   UNL     1       3.851  21.455 -17.010  1.00  0.00     0.111 A 
ATOM     23  O   UNL     1       3.619  19.611 -15.507  1.00  0.00    -0.456 OA
ATOM     24  C   UNL     1       3.178  20.685 -17.990  1.00  0.00     0.197 A 
ATOM     25  C   UNL     1       3.022  18.853 -16.421  1.00  0.00     0.138 A 
ATOM     26  C   UNL     1       2.786  19.378 -17.698  1.00  0.00     0.100 A 
ATOM     27  O   UNL     1       2.889  21.151 -19.124  1.00  0.00    -0.289 OA
BRANCH  18  28
ATOM     28  O   UNL     1       5.254  24.835 -16.280  1.00  0.00    -0.502 OA
ATOM     29  H   UNL     1       6.077  25.228 -15.837  1.00  0.00     0.293 HD
ENDBRANCH  18  28
BRANCH  20  30
ATOM     30  O   UNL     1       4.300  23.432 -18.450  1.00  0.00    -0.504 OA
ATOM     31  H   UNL     1       5.032  23.382 -19.142  1.00  0.00     0.293 HD
ENDBRANCH  20  30
BRANCH  25  32
ATOM     32  C   UNL     1       2.631  17.468 -16.052  1.00  0.00     0.017 A 
ATOM     33  C   UNL     1       2.288  16.508 -17.026  1.00  0.00     0.012 A 
ATOM     34  C   UNL     1       2.571  17.104 -14.694  1.00  0.00     0.012 A 
ATOM     35  C   UNL     1       1.916  15.214 -16.646  1.00  0.00     0.001 A 
ATOM     36  C   UNL     1       2.200  15.808 -14.320  1.00  0.00     0.001 A 
ATOM     37  C   UNL     1       1.875  14.864 -15.295  1.00  0.00     0.000 A 
ENDBRANCH  25  32
ENDBRANCH   1  17
TORSDOF 9
ENDMDL
MODEL 3
REMARK VINA RESULT:    -6.195      4.393     10.783
REMARK INTER + INTRA:          -9.991
REMARK INTER:                  -9.234
REMARK INTRA:                  -0.757
REMARK UNBOUND:                -1.443
REMARK SMILES O=C([O-])[C@H]1O[C@H](Oc2cc3oc(-c4ccccc4)cc(=O)c3c(O)c2O)[C@@H](O)[C@@H](O)[C@@H]1O
REMARK SMILES IDX 7 1 6 2 4 3 31 4 5 5 29 6 27 7 2 8 1 9 3 10 32 11 30 13
REMARK SMILES IDX 28 15 8 17 25 18 9 19 23 20 10 21 22 22 11 23 20 24 12 25
REMARK SMILES IDX 19 26 21 27 26 28 24 30 13 32 14 33 18 34 15 35 17 36 16 37
REMARK H PARENT 32 12 30 14 28 16 26 29 24 31
REMARK Flexibility Score: inf
ROOT
ATOM      1  O   UNL     1       7.375  28.097 -12.192  1.00  0.00    -0.458 OA
ENDROOT
BRANCH   1   2
ATOM      2  C   UNL     1       7.827  26.827 -12.683  1.00  0.00     0.339 C 
ATOM      3  C   UNL     1       6.813  25.670 -10.908  1.00  0.00     0.199 C 
ATOM      4  C   UNL     1       5.780  24.966 -11.818  1.00  0.00     0.180 C 
ATOM      5  O   UNL     1       8.022  25.925 -11.606  1.00  0.00    -0.328 OA
ATOM      6  C   UNL     1       5.526  25.819 -13.075  1.00  0.00     0.181 C 
ATOM      7  C   UNL     1       6.852  26.242 -13.733  1.00  0.00     0.214 C 
BRANCH   3   8
ATOM      8  C   UNL     1       7.133  24.802  -9.727  1.00  0.00     0.073 C 
ATOM      9  O   UNL     1       7.580  25.312  -8.665  1.00  0.00    -0.547 OA
ATOM     10  O   UNL     1       6.901  23.432  -9.785  1.00  0.00    -0.547 OA
ENDBRANCH   3   8
BRANCH   4  11
ATOM     11  O   UNL     1       4.567  24.800 -11.127  1.00  0.00    -0.387 OA
ATOM     12  H   UNL     1       4.363  23.830 -11.124  1.00  0.00     0.211 HD
ENDBRANCH   4  11
BRANCH   6  13
ATOM     13  O   UNL     1       4.752  25.102 -14.002  1.00  0.00    -0.387 OA
ATOM     14  H   UNL     1       4.148  24.511 -13.480  1.00  0.00     0.211 HD
ENDBRANCH   6  13
BRANCH   7  15
ATOM     15  O   UNL     1       7.443  25.173 -14.432  1.00  0.00    -0.384 OA
ATOM     16  H   UNL     1       7.833  25.529 -15.272  1.00  0.00     0.211 HD
ENDBRANCH   7  15
ENDBRANCH   1   2
BRANCH   1  17
ATOM     17  C   UNL     1       7.478  29.299 -12.906  1.00  0.00     0.172 A 
ATOM     18  C   UNL     1       8.121  30.430 -12.374  1.00  0.00     0.201 A 
ATOM     19  C   UNL     1       6.908  29.360 -14.174  1.00  0.00     0.098 A 
ATOM     20  C   UNL     1       8.245  31.606 -13.142  1.00  0.00     0.176 A 
ATOM     21  C   UNL     1       6.979  30.525 -14.935  1.00  0.00     0.146 A 
ATOM     22  C   UNL     1       7.633  31.677 -14.430  1.00  0.00     0.111 A 
ATOM     23  O   UNL     1       6.418  30.530 -16.140  1.00  0.00    -0.456 OA
ATOM     24  C   UNL     1       7.594  32.837 -15.241  1.00  0.00     0.197 A 
ATOM     25  C   UNL     1       6.403  31.594 -16.937  1.00  0.00     0.138 A 
ATOM     26  C   UNL     1       6.999  32.785 -16.502  1.00  0.00     0.100 A 
ATOM     27  O   UNL     1       8.059  33.941 -14.851  1.00  0.00    -0.289 OA
BRANCH  18  28
ATOM     28  O   UNL     1       8.623  30.383 -11.073  1.00  0.00    -0.502 OA
ATOM     29  H   UNL     1       8.467  31.124 -10.399  1.00  0.00     0.293 HD
ENDBRANCH  18  28
BRANCH  20  30
ATOM     30  O   UNL     1       8.998  32.650 -12.593  1.00  0.00    -0.504 OA
ATOM     31  H   UNL     1       9.735  32.534 -11.915  1.00  0.00     0.293 HD
ENDBRANCH  20  30
BRANCH  25  32
ATOM     32  C   UNL     1       5.758  31.475 -18.270  1.00  0.00     0.017 A 
ATOM     33  C   UNL     1       4.622  32.235 -18.616  1.00  0.00     0.012 A 
ATOM     34  C   UNL     1       6.270  30.560 -19.208  1.00  0.00     0.012 A 
ATOM     35  C   UNL     1       4.032  32.094 -19.877  1.00  0.00     0.001 A 
ATOM     36  C   UNL     1       5.677  30.424 -20.468  1.00  0.00     0.001 A 
ATOM     37  C   UNL     1       4.562  31.192 -20.802  1.00  0.00     0.000 A 
ENDBRANCH  25  32
ENDBRANCH   1  17
TORSDOF 9
ENDMDL
MODEL 4
REMARK VINA RESULT:    -6.171      1.642      2.451
REMARK INTER + INTRA:          -9.959
REMARK INTER:                  -8.812
REMARK INTRA:                  -1.147
REMARK UNBOUND:                -1.443
REMARK SMILES O=C([O-])[C@H]1O[C@H](Oc2cc3oc(-c4ccccc4)cc(=O)c3c(O)c2O)[C@@H](O)[C@@H](O)[C@@H]1O
REMARK SMILES IDX 7 1 6 2 4 3 31 4 5 5 29 6 27 7 2 8 1 9 3 10 32 11 30 13
REMARK SMILES IDX 28 15 8 17 25 18 9 19 23 20 10 21 22 22 11 23 20 24 12 25
REMARK SMILES IDX 19 26 21 27 26 28 24 30 13 32 14 33 18 34 15 35 17 36 16 37
REMARK H PARENT 32 12 30 14 28 16 26 29 24 31
REMARK Flexibility Score: inf
ROOT
ATOM      1  O   UNL     1       6.844  27.603 -10.905  1.00  0.00    -0.458 OA
ENDROOT
BRANCH   1   2
ATOM      2  C   UNL     1       7.643  27.287 -12.053  1.00  0.00     0.339 C 
ATOM      3  C   UNL     1       6.077  28.233 -13.527  1.00  0.00     0.199 C 
ATOM      4  C   UNL     1       7.016  29.385 -13.951  1.00  0.00     0.180 C 
ATOM      5  O   UNL     1       6.816  27.069 -13.185  1.00  0.00    -0.328 OA
ATOM      6  C   UNL     1       8.024  29.680 -12.824  1.00  0.00     0.181 C 
ATOM      7  C   UNL     1       8.697  28.385 -12.334  1.00  0.00     0.214 C 
BRANCH   3   8
ATOM      8  C   UNL     1       5.153  27.882 -14.655  1.00  0.00     0.073 C 
ATOM      9  O   UNL     1       4.094  28.541 -14.839  1.00  0.00    -0.547 OA
ATOM     10  O   UNL     1       5.478  26.849 -15.527  1.00  0.00    -0.547 OA
ENDBRANCH   3   8
BRANCH   4  11
ATOM     11  O   UNL     1       6.265  30.546 -14.204  1.00  0.00    -0.387 OA
ATOM     12  H   UNL     1       6.585  30.919 -15.066  1.00  0.00     0.211 HD
ENDBRANCH   4  11
BRANCH   6  13
ATOM     13  O   UNL     1       9.006  30.578 -13.271  1.00  0.00    -0.387 OA
ATOM     14  H   UNL     1       8.552  31.236 -13.860  1.00  0.00     0.211 HD
ENDBRANCH   6  13
BRANCH   7  15
ATOM     15  O   UNL     1       9.668  27.932 -13.247  1.00  0.00    -0.384 OA
ATOM     16  H   UNL     1       9.231  27.807 -14.129  1.00  0.00     0.211 HD
ENDBRANCH   7  15
ENDBRANCH   1   2
BRANCH   1  17
ATOM     17  C   UNL     1       5.854  26.762 -10.379  1.00  0.00     0.172 A 
ATOM     18  C   UNL     1       4.541  27.208 -10.149  1.00  0.00     0.201 A 
ATOM     19  C   UNL     1       6.204  25.451 -10.068  1.00  0.00     0.098 A 
ATOM     20  C   UNL     1       3.561  26.318  -9.662  1.00  0.00     0.176 A 
ATOM     21  C   UNL     1       5.264  24.565  -9.545  1.00  0.00     0.146 A 
ATOM     22  C   UNL     1       3.929  24.983  -9.314  1.00  0.00     0.111 A 
ATOM     23  O   UNL     1       5.650  23.325  -9.264  1.00  0.00    -0.456 OA
ATOM     24  C   UNL     1       3.061  24.039  -8.714  1.00  0.00     0.197 A 
ATOM     25  C   UNL     1       4.845  22.408  -8.737  1.00  0.00     0.138 A 
ATOM     26  C   UNL     1       3.517  22.747  -8.448  1.00  0.00     0.100 A 
ATOM     27  O   UNL     1       1.884  24.333  -8.378  1.00  0.00    -0.289 OA
BRANCH  18  28
ATOM     28  O   UNL     1       4.219  28.544 -10.394  1.00  0.00    -0.502 OA
ATOM     29  H   UNL     1       3.516  28.823 -11.069  1.00  0.00     0.293 HD
ENDBRANCH  18  28
BRANCH  20  30
ATOM     30  O   UNL     1       2.251  26.801  -9.569  1.00  0.00    -0.504 OA
ATOM     31  H   UNL     1       1.943  27.700  -9.905  1.00  0.00     0.293 HD
ENDBRANCH  20  30
BRANCH  25  32
ATOM     32  C   UNL     1       5.386  21.048  -8.481  1.00  0.00     0.017 A 
ATOM     33  C   UNL     1       6.745  20.737  -8.692  1.00  0.00     0.012 A 
ATOM     34  C   UNL     1       4.520  20.030  -8.043  1.00  0.00     0.012 A 
ATOM     35  C   UNL     1       7.222  19.444  -8.450  1.00  0.00     0.001 A 
ATOM     36  C   UNL     1       5.002  18.739  -7.801  1.00  0.00     0.001 A 
ATOM     37  C   UNL     1       6.352  18.448  -8.001  1.00  0.00     0.000 A 
ENDBRANCH  25  32
ENDBRANCH   1  17
TORSDOF 9
ENDMDL
MODEL 5
REMARK VINA RESULT:    -6.151      4.882      6.506
REMARK INTER + INTRA:          -9.931
REMARK INTER:                  -8.931
REMARK INTRA:                  -1.001
REMARK UNBOUND:                -1.443
REMARK SMILES O=C([O-])[C@H]1O[C@H](Oc2cc3oc(-c4ccccc4)cc(=O)c3c(O)c2O)[C@@H](O)[C@@H](O)[C@@H]1O
REMARK SMILES IDX 7 1 6 2 4 3 31 4 5 5 29 6 27 7 2 8 1 9 3 10 32 11 30 13
REMARK SMILES IDX 28 15 8 17 25 18 9 19 23 20 10 21 22 22 11 23 20 24 12 25
REMARK SMILES IDX 19 26 21 27 26 28 24 30 13 32 14 33 18 34 15 35 17 36 16 37
REMARK H PARENT 32 12 30 14 28 16 26 29 24 31
REMARK Flexibility Score: inf
ROOT
ATOM      1  O   UNL     1       6.074  25.385 -13.433  1.00  0.00    -0.458 OA
ENDROOT
BRANCH   1   2
ATOM      2  C   UNL     1       7.344  25.069 -12.849  1.00  0.00     0.339 C 
ATOM      3  C   UNL     1       7.609  27.245 -12.004  1.00  0.00     0.199 C 
ATOM      4  C   UNL     1       7.506  26.798 -10.528  1.00  0.00     0.180 C 
ATOM      5  O   UNL     1       8.170  26.221 -12.812  1.00  0.00    -0.328 OA
ATOM      6  C   UNL     1       6.681  25.501 -10.432  1.00  0.00     0.181 C 
ATOM      7  C   UNL     1       7.185  24.450 -11.438  1.00  0.00     0.214 C 
BRANCH   3   8
ATOM      8  C   UNL     1       8.487  28.457 -12.114  1.00  0.00     0.073 C 
ATOM      9  O   UNL     1       9.500  28.443 -12.863  1.00  0.00    -0.547 OA
ATOM     10  O   UNL     1       8.165  29.616 -11.416  1.00  0.00    -0.547 OA
ENDBRANCH   3   8
BRANCH   4  11
ATOM     11  O   UNL     1       6.873  27.797  -9.768  1.00  0.00    -0.387 OA
ATOM     12  H   UNL     1       6.587  27.378  -8.916  1.00  0.00     0.211 HD
ENDBRANCH   4  11
BRANCH   6  13
ATOM     13  O   UNL     1       6.751  24.974  -9.132  1.00  0.00    -0.387 OA
ATOM     14  H   UNL     1       6.679  25.740  -8.504  1.00  0.00     0.211 HD
ENDBRANCH   6  13
BRANCH   7  15
ATOM     15  O   UNL     1       8.388  23.859 -11.007  1.00  0.00    -0.384 OA
ATOM     16  H   UNL     1       8.165  23.042 -10.491  1.00  0.00     0.211 HD
ENDBRANCH   7  15
ENDBRANCH   1   2
BRANCH   1  17
ATOM     17  C   UNL     1       5.514  24.700 -14.520  1.00  0.00     0.172 A 
ATOM     18  C   UNL     1       5.306  25.317 -15.765  1.00  0.00     0.201 A 
ATOM     19  C   UNL     1       5.145  23.370 -14.337  1.00  0.00     0.098 A 
ATOM     20  C   UNL     1       4.784  24.580 -16.848  1.00  0.00     0.176 A 
ATOM     21  C   UNL     1       4.586  22.633 -15.379  1.00  0.00     0.146 A 
ATOM     22  C   UNL     1       4.377  23.226 -16.650  1.00  0.00     0.111 A 
ATOM     23  O   UNL     1       4.251  21.367 -15.152  1.00  0.00    -0.456 OA
ATOM     24  C   UNL     1       3.738  22.426 -17.628  1.00  0.00     0.197 A 
ATOM     25  C   UNL     1       3.687  20.583 -16.065  1.00  0.00     0.138 A 
ATOM     26  C   UNL     1       3.416  21.100 -17.339  1.00  0.00     0.100 A 
ATOM     27  O   UNL     1       3.418  22.880 -18.758  1.00  0.00    -0.289 OA
BRANCH  18  28
ATOM     28  O   UNL     1       5.609  26.672 -15.917  1.00  0.00    -0.502 OA
ATOM     29  H   UNL     1       5.444  27.354 -15.186  1.00  0.00     0.293 HD
ENDBRANCH  18  28
BRANCH  20  30
ATOM     30  O   UNL     1       4.714  25.228 -18.086  1.00  0.00    -0.504 OA
ATOM     31  H   UNL     1       5.324  25.976 -18.380  1.00  0.00     0.293 HD
ENDBRANCH  20  30
BRANCH  25  32
ATOM     32  C   UNL     1       3.371  19.178 -15.699  1.00  0.00     0.017 A 
ATOM     33  C   UNL     1       2.139  18.823 -15.112  1.00  0.00     0.012 A 
ATOM     34  C   UNL     1       4.332  18.174 -15.913  1.00  0.00     0.012 A 
ATOM     35  C   UNL     1       1.875  17.492 -14.771  1.00  0.00     0.001 A 
ATOM     36  C   UNL     1       4.063  16.845 -15.571  1.00  0.00     0.001 A 
ATOM     37  C   UNL     1       2.834  16.504 -15.003  1.00  0.00     0.000 A 
ENDBRANCH  25  32
ENDBRANCH   1  17
TORSDOF 9
ENDMDL
MODEL 6
REMARK VINA RESULT:    -6.140      5.563      7.171
REMARK INTER + INTRA:          -9.916
REMARK INTER:                  -8.862
REMARK INTRA:                  -1.054
REMARK UNBOUND:                -1.443
REMARK SMILES O=C([O-])[C@H]1O[C@H](Oc2cc3oc(-c4ccccc4)cc(=O)c3c(O)c2O)[C@@H](O)[C@@H](O)[C@@H]1O
REMARK SMILES IDX 7 1 6 2 4 3 31 4 5 5 29 6 27 7 2 8 1 9 3 10 32 11 30 13
REMARK SMILES IDX 28 15 8 17 25 18 9 19 23 20 10 21 22 22 11 23 20 24 12 25
REMARK SMILES IDX 19 26 21 27 26 28 24 30 13 32 14 33 18 34 15 35 17 36 16 37
REMARK H PARENT 32 12 30 14 28 16 26 29 24 31
REMARK Flexibility Score: inf
ROOT
ATOM      1  O   UNL     1       5.579  25.737 -15.479  1.00  0.00    -0.458 OA
ENDROOT
BRANCH   1   2
ATOM      2  C   UNL     1       5.180  26.200 -14.182  1.00  0.00     0.339 C 
ATOM      3  C   UNL     1       7.126  25.356 -13.173  1.00  0.00     0.199 C 
ATOM      4  C   UNL     1       7.682  26.757 -12.830  1.00  0.00     0.180 C 
ATOM      5  O   UNL     1       5.707  25.354 -13.173  1.00  0.00    -0.328 OA
ATOM      6  C   UNL     1       7.126  27.797 -13.821  1.00  0.00     0.181 C 
ATOM      7  C   UNL     1       5.597  27.673 -13.950  1.00  0.00     0.214 C 
BRANCH   3   8
ATOM      8  C   UNL     1       7.593  24.356 -12.157  1.00  0.00     0.073 C 
ATOM      9  O   UNL     1       7.399  23.124 -12.342  1.00  0.00    -0.547 OA
ATOM     10  O   UNL     1       8.275  24.780 -11.022  1.00  0.00    -0.547 OA
ENDBRANCH   3   8
BRANCH   4  11
ATOM     11  O   UNL     1       9.085  26.751 -12.917  1.00  0.00    -0.387 OA
ATOM     12  H   UNL     1       9.355  25.846 -13.221  1.00  0.00     0.211 HD
ENDBRANCH   4  11
BRANCH   6  13
ATOM     13  O   UNL     1       7.456  29.096 -13.401  1.00  0.00    -0.387 OA
ATOM     14  H   UNL     1       7.020  29.725 -14.034  1.00  0.00     0.211 HD
ENDBRANCH   6  13
BRANCH   7  15
ATOM     15  O   UNL     1       4.940  28.214 -12.828  1.00  0.00    -0.384 OA
ATOM     16  H   UNL     1       3.971  28.020 -12.912  1.00  0.00     0.211 HD
ENDBRANCH   7  15
ENDBRANCH   1   2
BRANCH   1  17
ATOM     17  C   UNL     1       4.840  24.832 -16.253  1.00  0.00     0.172 A 
ATOM     18  C   UNL     1       4.245  25.204 -17.471  1.00  0.00     0.201 A 
ATOM     19  C   UNL     1       4.688  23.533 -15.778  1.00  0.00     0.098 A 
ATOM     20  C   UNL     1       3.548  24.252 -18.244  1.00  0.00     0.176 A 
ATOM     21  C   UNL     1       3.967  22.586 -16.503  1.00  0.00     0.146 A 
ATOM     22  C   UNL     1       3.368  22.929 -17.741  1.00  0.00     0.111 A 
ATOM     23  O   UNL     1       3.852  21.359 -16.004  1.00  0.00    -0.456 OA
ATOM     24  C   UNL     1       2.594  21.925 -18.372  1.00  0.00     0.197 A 
ATOM     25  C   UNL     1       3.166  20.388 -16.597  1.00  0.00     0.138 A 
ATOM     26  C   UNL     1       2.514  20.651 -17.809  1.00  0.00     0.100 A 
ATOM     27  O   UNL     1       1.940  22.149 -19.425  1.00  0.00    -0.289 OA
BRANCH  18  28
ATOM     28  O   UNL     1       4.339  26.529 -17.902  1.00  0.00    -0.502 OA
ATOM     29  H   UNL     1       5.179  27.083 -17.788  1.00  0.00     0.293 HD
ENDBRANCH  18  28
BRANCH  20  30
ATOM     30  O   UNL     1       3.085  24.665 -19.498  1.00  0.00    -0.504 OA
ATOM     31  H   UNL     1       2.647  24.063 -20.178  1.00  0.00     0.293 HD
ENDBRANCH  20  30
BRANCH  25  32
ATOM     32  C   UNL     1       3.121  19.051 -15.951  1.00  0.00     0.017 A 
ATOM     33  C   UNL     1       4.216  18.164 -16.001  1.00  0.00     0.012 A 
ATOM     34  C   UNL     1       1.947  18.639 -15.293  1.00  0.00     0.012 A 
ATOM     35  C   UNL     1       4.139  16.908 -15.390  1.00  0.00     0.001 A 
ATOM     36  C   UNL     1       1.877  17.383 -14.682  1.00  0.00     0.001 A 
ATOM     37  C   UNL     1       2.972  16.520 -14.729  1.00  0.00     0.000 A 
ENDBRANCH  25  32
ENDBRANCH   1  17
TORSDOF 9
ENDMDL
MODEL 7
REMARK VINA RESULT:    -6.006      5.842      7.187
REMARK INTER + INTRA:          -9.731
REMARK INTER:                  -8.323
REMARK INTRA:                  -1.408
REMARK UNBOUND:                -1.443
REMARK SMILES O=C([O-])[C@H]1O[C@H](Oc2cc3oc(-c4ccccc4)cc(=O)c3c(O)c2O)[C@@H](O)[C@@H](O)[C@@H]1O
REMARK SMILES IDX 7 1 6 2 4 3 31 4 5 5 29 6 27 7 2 8 1 9 3 10 32 11 30 13
REMARK SMILES IDX 28 15 8 17 25 18 9 19 23 20 10 21 22 22 11 23 20 24 12 25
REMARK SMILES IDX 19 26 21 27 26 28 24 30 13 32 14 33 18 34 15 35 17 36 16 37
REMARK H PARENT 32 12 30 14 28 16 26 29 24 31
REMARK Flexibility Score: inf
ROOT
ATOM      1  O   UNL     1       6.146  28.547 -13.874  1.00  0.00    -0.458 OA
ENDROOT
BRANCH   1   2
ATOM      2  C   UNL     1       7.515  28.956 -14.004  1.00  0.00     0.339 C 
ATOM      3  C   UNL     1       6.986  31.206 -13.586  1.00  0.00     0.199 C 
ATOM      4  C   UNL     1       7.741  31.242 -12.237  1.00  0.00     0.180 C 
ATOM      5  O   UNL     1       7.588  30.288 -14.486  1.00  0.00    -0.328 OA
ATOM      6  C   UNL     1       7.795  29.827 -11.631  1.00  0.00     0.181 C 
ATOM      7  C   UNL     1       8.285  28.801 -12.669  1.00  0.00     0.214 C 
BRANCH   3   8
ATOM      8  C   UNL     1       7.008  32.564 -14.223  1.00  0.00     0.073 C 
ATOM      9  O   UNL     1       7.764  33.466 -13.773  1.00  0.00    -0.547 OA
ATOM     10  O   UNL     1       6.221  32.823 -15.339  1.00  0.00    -0.547 OA
ENDBRANCH   3   8
BRANCH   4  11
ATOM     11  O   UNL     1       7.077  32.096 -11.339  1.00  0.00    -0.387 OA
ATOM     12  H   UNL     1       6.250  31.631 -11.050  1.00  0.00     0.211 HD
ENDBRANCH   4  11
BRANCH   6  13
ATOM     13  O   UNL     1       8.648  29.807 -10.516  1.00  0.00    -0.387 OA
ATOM     14  H   UNL     1       9.220  30.617 -10.573  1.00  0.00     0.211 HD
ENDBRANCH   6  13
BRANCH   7  15
ATOM     15  O   UNL     1       9.674  28.897 -12.873  1.00  0.00    -0.384 OA
ATOM     16  H   UNL     1      10.112  28.154 -12.384  1.00  0.00     0.211 HD
ENDBRANCH   7  15
ENDBRANCH   1   2
BRANCH   1  17
ATOM     17  C   UNL     1       5.420  27.897 -14.881  1.00  0.00     0.172 A 
ATOM     18  C   UNL     1       4.923  28.582 -16.004  1.00  0.00     0.201 A 
ATOM     19  C   UNL     1       5.180  26.534 -14.741  1.00  0.00     0.098 A 
ATOM     20  C   UNL     1       4.236  27.884 -17.018  1.00  0.00     0.176 A 
ATOM     21  C   UNL     1       4.466  25.830 -15.709  1.00  0.00     0.146 A 
ATOM     22  C   UNL     1       3.965  26.492 -16.858  1.00  0.00     0.111 A 
ATOM     23  O   UNL     1       4.264  24.528 -15.526  1.00  0.00    -0.456 OA
ATOM     24  C   UNL     1       3.190  25.714 -17.752  1.00  0.00     0.197 A 
ATOM     25  C   UNL     1       3.575  23.768 -16.371  1.00  0.00     0.138 A 
ATOM     26  C   UNL     1       3.017  24.349 -17.517  1.00  0.00     0.100 A 
ATOM     27  O   UNL     1       2.617  26.219 -18.753  1.00  0.00    -0.289 OA
BRANCH  18  28
ATOM     28  O   UNL     1       5.103  29.963 -16.098  1.00  0.00    -0.502 OA
ATOM     29  H   UNL     1       5.102  30.456 -16.984  1.00  0.00     0.293 HD
ENDBRANCH  18  28
BRANCH  20  30
ATOM     30  O   UNL     1       3.874  28.609 -18.158  1.00  0.00    -0.504 OA
ATOM     31  H   UNL     1       2.937  28.682 -18.521  1.00  0.00     0.293 HD
ENDBRANCH  20  30
BRANCH  25  32
ATOM     32  C   UNL     1       3.429  22.321 -16.068  1.00  0.00     0.017 A 
ATOM     33  C   UNL     1       2.173  21.681 -16.087  1.00  0.00     0.012 A 
ATOM     34  C   UNL     1       4.567  21.568 -15.724  1.00  0.00     0.012 A 
ATOM     35  C   UNL     1       2.068  20.318 -15.789  1.00  0.00     0.001 A 
ATOM     36  C   UNL     1       4.456  20.205 -15.428  1.00  0.00     0.001 A 
ATOM     37  C   UNL     1       3.208  19.581 -15.463  1.00  0.00     0.000 A 
ENDBRANCH  25  32
ENDBRANCH   1  17
TORSDOF 9
ENDMDL
MODEL 8
REMARK VINA RESULT:    -5.970      4.967      6.352
REMARK INTER + INTRA:          -9.681
REMARK INTER:                  -8.340
REMARK INTRA:                  -1.341
REMARK UNBOUND:                -1.443
REMARK SMILES O=C([O-])[C@H]1O[C@H](Oc2cc3oc(-c4ccccc4)cc(=O)c3c(O)c2O)[C@@H](O)[C@@H](O)[C@@H]1O
REMARK SMILES IDX 7 1 6 2 4 3 31 4 5 5 29 6 27 7 2 8 1 9 3 10 32 11 30 13
REMARK SMILES IDX 28 15 8 17 25 18 9 19 23 20 10 21 22 22 11 23 20 24 12 25
REMARK SMILES IDX 19 26 21 27 26 28 24 30 13 32 14 33 18 34 15 35 17 36 16 37
REMARK H PARENT 32 12 30 14 28 16 26 29 24 31
REMARK Flexibility Score: inf
ROOT
ATOM      1  O   UNL     1       6.820  28.615 -14.406  1.00  0.00    -0.458 OA
ENDROOT
BRANCH   1   2
ATOM      2  C   UNL     1       5.866  29.574 -13.930  1.00  0.00     0.339 C 
ATOM      3  C   UNL     1       7.494  30.726 -12.689  1.00  0.00     0.199 C 
ATOM      4  C   UNL     1       7.417  31.996 -13.568  1.00  0.00     0.180 C 
ATOM      5  O   UNL     1       6.245  30.053 -12.650  1.00  0.00    -0.328 OA
ATOM      6  C   UNL     1       6.944  31.621 -14.985  1.00  0.00     0.181 C 
ATOM      7  C   UNL     1       5.682  30.741 -14.931  1.00  0.00     0.214 C 
BRANCH   3   8
ATOM      8  C   UNL     1       7.868  31.097 -11.284  1.00  0.00     0.073 C 
ATOM      9  O   UNL     1       7.887  32.306 -10.929  1.00  0.00    -0.547 OA
ATOM     10  O   UNL     1       8.158  30.104 -10.355  1.00  0.00    -0.547 OA
ENDBRANCH   3   8
BRANCH   4  11
ATOM     11  O   UNL     1       8.686  32.596 -13.656  1.00  0.00    -0.387 OA
ATOM     12  H   UNL     1       8.882  32.995 -12.770  1.00  0.00     0.211 HD
ENDBRANCH   4  11
BRANCH   6  13
ATOM     13  O   UNL     1       6.674  32.780 -15.731  1.00  0.00    -0.387 OA
ATOM     14  H   UNL     1       6.212  33.415 -15.123  1.00  0.00     0.211 HD
ENDBRANCH   6  13
BRANCH   7  15
ATOM     15  O   UNL     1       4.538  31.499 -14.620  1.00  0.00    -0.384 OA
ATOM     16  H   UNL     1       3.756  30.889 -14.603  1.00  0.00     0.211 HD
ENDBRANCH   7  15
ENDBRANCH   1   2
BRANCH   1  17
ATOM     17  C   UNL     1       6.864  27.277 -13.992  1.00  0.00     0.172 A 
ATOM     18  C   UNL     1       7.685  26.848 -12.935  1.00  0.00     0.201 A 
ATOM     19  C   UNL     1       6.074  26.354 -14.672  1.00  0.00     0.098 A 
ATOM     20  C   UNL     1       7.666  25.501 -12.519  1.00  0.00     0.176 A 
ATOM     21  C   UNL     1       6.071  25.009 -14.307  1.00  0.00     0.146 A 
ATOM     22  C   UNL     1       6.879  24.551 -13.236  1.00  0.00     0.111 A 
ATOM     23  O   UNL     1       5.299  24.170 -14.989  1.00  0.00    -0.456 OA
ATOM     24  C   UNL     1       6.869  23.158 -12.982  1.00  0.00     0.197 A 
ATOM     25  C   UNL     1       5.240  22.865 -14.745  1.00  0.00     0.138 A 
ATOM     26  C   UNL     1       6.032  22.322 -13.723  1.00  0.00     0.100 A 
ATOM     27  O   UNL     1       7.618  22.630 -12.119  1.00  0.00    -0.289 OA
BRANCH  18  28
ATOM     28  O   UNL     1       8.530  27.767 -12.309  1.00  0.00    -0.502 OA
ATOM     29  H   UNL     1       8.922  27.610 -11.388  1.00  0.00     0.293 HD
ENDBRANCH  18  28
BRANCH  20  30
ATOM     30  O   UNL     1       8.420  25.173 -11.387  1.00  0.00    -0.504 OA
ATOM     31  H   UNL     1       8.110  25.289 -10.434  1.00  0.00     0.293 HD
ENDBRANCH  20  30
BRANCH  25  32
ATOM     32  C   UNL     1       4.327  22.027 -15.564  1.00  0.00     0.017 A 
ATOM     33  C   UNL     1       3.241  22.584 -16.271  1.00  0.00     0.012 A 
ATOM     34  C   UNL     1       4.527  20.636 -15.619  1.00  0.00     0.012 A 
ATOM     35  C   UNL     1       2.394  21.766 -17.026  1.00  0.00     0.001 A 
ATOM     36  C   UNL     1       3.677  19.823 -16.378  1.00  0.00     0.001 A 
ATOM     37  C   UNL     1       2.614  20.389 -17.083  1.00  0.00     0.000 A 
ENDBRANCH  25  32
ENDBRANCH   1  17
TORSDOF 9
ENDMDL
MODEL 9
REMARK VINA RESULT:    -5.926      3.653      5.499
REMARK INTER + INTRA:          -9.620
REMARK INTER:                  -8.597
REMARK INTRA:                  -1.023
REMARK UNBOUND:                -1.443
REMARK SMILES O=C([O-])[C@H]1O[C@H](Oc2cc3oc(-c4ccccc4)cc(=O)c3c(O)c2O)[C@@H](O)[C@@H](O)[C@@H]1O
REMARK SMILES IDX 7 1 6 2 4 3 31 4 5 5 29 6 27 7 2 8 1 9 3 10 32 11 30 13
REMARK SMILES IDX 28 15 8 17 25 18 9 19 23 20 10 21 22 22 11 23 20 24 12 25
REMARK SMILES IDX 19 26 21 27 26 28 24 30 13 32 14 33 18 34 15 35 17 36 16 37
REMARK H PARENT 32 12 30 14 28 16 26 29 24 31
REMARK Flexibility Score: inf
ROOT
ATOM      1  O   UNL     1       5.987  24.938 -14.996  1.00  0.00    -0.458 OA
ENDROOT
BRANCH   1   2
ATOM      2  C   UNL     1       4.676  24.992 -15.575  1.00  0.00     0.339 C 
ATOM      3  C   UNL     1       5.537  25.248 -17.745  1.00  0.00     0.199 C 
ATOM      4  C   UNL     1       5.025  23.870 -18.224  1.00  0.00     0.180 C 
ATOM      5  O   UNL     1       4.687  25.792 -16.746  1.00  0.00    -0.328 OA
ATOM      6  C   UNL     1       4.899  22.914 -17.023  1.00  0.00     0.181 C 
ATOM      7  C   UNL     1       4.124  23.576 -15.869  1.00  0.00     0.214 C 
BRANCH   3   8
ATOM      8  C   UNL     1       5.575  26.209 -18.896  1.00  0.00     0.073 C 
ATOM      9  O   UNL     1       6.511  26.155 -19.739  1.00  0.00    -0.547 OA
ATOM     10  O   UNL     1       4.557  27.142 -19.060  1.00  0.00    -0.547 OA
ENDBRANCH   3   8
BRANCH   4  11
ATOM     11  O   UNL     1       5.928  23.319 -19.151  1.00  0.00    -0.387 OA
ATOM     12  H   UNL     1       6.102  22.384 -18.869  1.00  0.00     0.211 HD
ENDBRANCH   4  11
BRANCH   6  13
ATOM     13  O   UNL     1       4.246  21.732 -17.407  1.00  0.00    -0.387 OA
ATOM     14  H   UNL     1       3.497  21.994 -18.003  1.00  0.00     0.211 HD
ENDBRANCH   6  13
BRANCH   7  15
ATOM     15  O   UNL     1       2.742  23.617 -16.135  1.00  0.00    -0.384 OA
ATOM     16  H   UNL     1       2.577  23.152 -16.995  1.00  0.00     0.211 HD
ENDBRANCH   7  15
ENDBRANCH   1   2
BRANCH   1  17
ATOM     17  C   UNL     1       6.245  25.029 -13.621  1.00  0.00     0.172 A 
ATOM     18  C   UNL     1       6.610  26.241 -13.009  1.00  0.00     0.201 A 
ATOM     19  C   UNL     1       6.147  23.870 -12.858  1.00  0.00     0.098 A 
ATOM     20  C   UNL     1       6.816  26.300 -11.615  1.00  0.00     0.176 A 
ATOM     21  C   UNL     1       6.389  23.895 -11.486  1.00  0.00     0.146 A 
ATOM     22  C   UNL     1       6.745  25.105 -10.838  1.00  0.00     0.111 A 
ATOM     23  O   UNL     1       6.282  22.759 -10.802  1.00  0.00    -0.456 OA
ATOM     24  C   UNL     1       7.043  25.023  -9.456  1.00  0.00     0.197 A 
ATOM     25  C   UNL     1       6.516  22.664  -9.498  1.00  0.00     0.138 A 
ATOM     26  C   UNL     1       6.906  23.807  -8.786  1.00  0.00     0.100 A 
ATOM     27  O   UNL     1       7.461  26.015  -8.803  1.00  0.00    -0.289 OA
BRANCH  18  28
ATOM     28  O   UNL     1       6.779  27.381 -13.795  1.00  0.00    -0.502 OA
ATOM     29  H   UNL     1       7.016  28.286 -13.403  1.00  0.00     0.293 HD
ENDBRANCH  18  28
BRANCH  20  30
ATOM     30  O   UNL     1       7.060  27.561 -11.060  1.00  0.00    -0.504 OA
ATOM     31  H   UNL     1       6.381  28.111 -10.558  1.00  0.00     0.293 HD
ENDBRANCH  20  30
BRANCH  25  32
ATOM     32  C   UNL     1       6.349  21.343  -8.839  1.00  0.00     0.017 A 
ATOM     33  C   UNL     1       7.286  20.303  -9.011  1.00  0.00     0.012 A 
ATOM     34  C   UNL     1       5.213  21.105  -8.044  1.00  0.00     0.012 A 
ATOM     35  C   UNL     1       7.095  19.067  -8.383  1.00  0.00     0.001 A 
ATOM     36  C   UNL     1       5.028  19.868  -7.419  1.00  0.00     0.001 A 
ATOM     37  C   UNL     1       5.970  18.851  -7.586  1.00  0.00     0.000 A 
ENDBRANCH  25  32
ENDBRANCH   1  17
TORSDOF 9
ENDMDL
