MODEL 1
REMARK VINA RESULT:    -2.870      0.000      0.000
REMARK INTER + INTRA:          -5.996
REMARK INTER:                  -4.716
REMARK INTRA:                  -1.280
REMARK UNBOUND:                -1.280
REMARK SMILES COc1ccc([C@@H]2CC(=O)c3c(O)cc(O[C@@H]4O[C@H](CO[C@@H]5O[C@H](C)[C@H](O)[C@H](O)[C@H]5O)[C@H](O)[C@H](O)[C@@H]4O)cc3O2)cc1O
REMARK SMILES IDX 19 1 32 2 34 3 36 4 17 5 18 6 20 7 21 8 22 9 25 10 24 11
REMARK SMILES IDX 26 12 23 13 28 14 30 15 27 16 29 18 31 20 33 22 35 24 16 26
REMARK SMILES IDX 15 27 14 28 38 29 12 30 39 31 11 32 40 33 9 34 7 35 10 36
REMARK SMILES IDX 8 37 13 38 6 40 41 41 5 42 42 43 4 44 3 45 43 46 2 48 1 49
REMARK SMILES IDX 37 50
REMARK H PARENT 27 17 29 19 31 21 33 23 35 25 13 39 43 47 37 51
REMARK Flexibility Score: inf
ROOT
ATOM      1  C   UNL     1      23.487  28.250  22.449  1.00  0.00     0.180 C 
ATOM      2  C   UNL     1      22.758  26.883  22.580  1.00  0.00     0.177 C 
ATOM      3  C   UNL     1      21.702  26.902  23.681  1.00  0.00     0.180 C 
ATOM      4  C   UNL     1      22.360  27.367  24.991  1.00  0.00     0.214 C 
ATOM      5  C   UNL     1      23.264  28.619  24.818  1.00  0.00     0.339 C 
ATOM      6  O   UNL     1      24.125  28.595  23.676  1.00  0.00    -0.332 OA
ENDROOT
BRANCH   1   7
ATOM      7  C   UNL     1      22.772  29.480  21.793  1.00  0.00     0.198 C 
BRANCH   7   8
ATOM      8  O   UNL     1      22.947  29.545  20.388  1.00  0.00    -0.347 OA
BRANCH   8   9
ATOM      9  C   UNL     1      21.743  29.268  19.685  1.00  0.00     0.281 C 
ATOM     10  C   UNL     1      24.098  27.635  18.478  1.00  0.00     0.041 C 
ATOM     11  C   UNL     1      22.627  27.770  18.044  1.00  0.00     0.150 C 
ATOM     12  C   UNL     1      22.386  28.777  16.894  1.00  0.00     0.174 C 
ATOM     13  O   UNL     1      21.741  27.947  19.142  1.00  0.00    -0.344 OA
ATOM     14  C   UNL     1      22.361  30.229  17.379  1.00  0.00     0.179 C 
ATOM     15  C   UNL     1      21.455  30.357  18.623  1.00  0.00     0.202 C 
BRANCH  12  16
ATOM     16  O   UNL     1      23.348  28.621  15.876  1.00  0.00    -0.388 OA
ATOM     17  H   UNL     1      24.167  29.099  16.178  1.00  0.00     0.211 HD
ENDBRANCH  12  16
BRANCH  14  18
ATOM     18  O   UNL     1      23.666  30.737  17.555  1.00  0.00    -0.387 OA
ATOM     19  H   UNL     1      23.735  31.180  18.438  1.00  0.00     0.211 HD
ENDBRANCH  14  18
BRANCH  15  20
ATOM     20  O   UNL     1      20.114  30.260  18.212  1.00  0.00    -0.385 OA
ATOM     21  H   UNL     1      19.777  31.187  18.103  1.00  0.00     0.211 HD
ENDBRANCH  15  20
ENDBRANCH   8   9
ENDBRANCH   7   8
ENDBRANCH   1   7
BRANCH   2  22
ATOM     22  O   UNL     1      22.279  26.303  21.387  1.00  0.00    -0.387 OA
ATOM     23  H   UNL     1      22.434  25.324  21.397  1.00  0.00     0.211 HD
ENDBRANCH   2  22
BRANCH   3  24
ATOM     24  O   UNL     1      20.572  27.665  23.337  1.00  0.00    -0.387 OA
ATOM     25  H   UNL     1      20.155  27.262  22.538  1.00  0.00     0.211 HD
ENDBRANCH   3  24
BRANCH   5  26
ATOM     26  O   UNL     1      22.517  29.835  24.873  1.00  0.00    -0.462 OA
BRANCH  26  27
ATOM     27  C   UNL     1      22.550  30.740  25.954  1.00  0.00     0.130 A 
ATOM     28  C   UNL     1      22.816  32.112  25.783  1.00  0.00     0.093 A 
ATOM     29  C   UNL     1      22.298  30.249  27.241  1.00  0.00     0.094 A 
ATOM     30  C   UNL     1      22.898  32.967  26.890  1.00  0.00     0.133 A 
ATOM     31  C   UNL     1      22.318  31.108  28.343  1.00  0.00     0.138 A 
ATOM     32  C   UNL     1      22.676  32.458  28.184  1.00  0.00     0.102 A 
ATOM     33  O   UNL     1      21.947  30.618  29.608  1.00  0.00    -0.484 OA
ATOM     34  C   UNL     1      22.814  33.285  29.404  1.00  0.00     0.174 C 
ATOM     35  C   UNL     1      21.781  31.463  30.757  1.00  0.00     0.211 C 
ATOM     36  O   UNL     1      22.972  34.534  29.340  1.00  0.00    -0.294 OA
ATOM     37  C   UNL     1      22.814  32.606  30.742  1.00  0.00     0.131 C 
BRANCH  30  38
ATOM     38  O   UNL     1      23.202  34.315  26.699  1.00  0.00    -0.507 OA
ATOM     39  H   UNL     1      24.013  34.608  26.163  1.00  0.00     0.293 HD
ENDBRANCH  30  38
BRANCH  35  40
ATOM     40  C   UNL     1      20.368  32.021  30.868  1.00  0.00    -0.003 A 
ATOM     41  C   UNL     1      20.196  33.407  31.033  1.00  0.00     0.057 A 
ATOM     42  C   UNL     1      19.230  31.217  30.679  1.00  0.00     0.011 A 
ATOM     43  C   UNL     1      18.920  33.987  30.973  1.00  0.00     0.158 A 
ATOM     44  C   UNL     1      17.957  31.794  30.622  1.00  0.00     0.051 A 
ATOM     45  C   UNL     1      17.795  33.186  30.744  1.00  0.00     0.160 A 
BRANCH  43  46
ATOM     46  O   UNL     1      18.766  35.364  31.125  1.00  0.00    -0.504 OA
ATOM     47  H   UNL     1      18.413  35.766  31.987  1.00  0.00     0.293 HD
ENDBRANCH  43  46
BRANCH  45  48
ATOM     48  O   UNL     1      16.541  33.812  30.632  1.00  0.00    -0.493 OA
ATOM     49  C   UNL     1      15.298  33.150  30.824  1.00  0.00     0.278 C 
ENDBRANCH  45  48
ENDBRANCH  35  40
ENDBRANCH  26  27
ENDBRANCH   5  26
BRANCH   4  50
ATOM     50  O   UNL     1      21.374  27.603  25.966  1.00  0.00    -0.384 OA
ATOM     51  H   UNL     1      20.932  26.733  26.143  1.00  0.00     0.211 HD
ENDBRANCH   4  50
TORSDOF 15
ENDMDL
MODEL 2
REMARK VINA RESULT:    -1.163      3.043      4.961
REMARK INTER + INTRA:          -3.191
REMARK INTER:                  -3.671
REMARK INTRA:                   0.480
REMARK UNBOUND:                -1.280
REMARK SMILES COc1ccc([C@@H]2CC(=O)c3c(O)cc(O[C@@H]4O[C@H](CO[C@@H]5O[C@H](C)[C@H](O)[C@H](O)[C@H]5O)[C@H](O)[C@H](O)[C@@H]4O)cc3O2)cc1O
REMARK SMILES IDX 19 1 32 2 34 3 36 4 17 5 18 6 20 7 21 8 22 9 25 10 24 11
REMARK SMILES IDX 26 12 23 13 28 14 30 15 27 16 29 18 31 20 33 22 35 24 16 26
REMARK SMILES IDX 15 27 14 28 38 29 12 30 39 31 11 32 40 33 9 34 7 35 10 36
REMARK SMILES IDX 8 37 13 38 6 40 41 41 5 42 42 43 4 44 3 45 43 46 2 48 1 49
REMARK SMILES IDX 37 50
REMARK H PARENT 27 17 29 19 31 21 33 23 35 25 13 39 43 47 37 51
REMARK Flexibility Score: inf
ROOT
ATOM      1  C   UNL     1      23.661  26.466  19.657  1.00  0.00     0.180 C 
ATOM      2  C   UNL     1      24.125  25.134  20.310  1.00  0.00     0.177 C 
ATOM      3  C   UNL     1      23.611  24.989  21.740  1.00  0.00     0.180 C 
ATOM      4  C   UNL     1      24.023  26.235  22.543  1.00  0.00     0.214 C 
ATOM      5  C   UNL     1      23.751  27.570  21.796  1.00  0.00     0.339 C 
ATOM      6  O   UNL     1      24.124  27.581  20.416  1.00  0.00    -0.332 OA
ENDROOT
BRANCH   1   7
ATOM      7  C   UNL     1      22.180  26.654  19.184  1.00  0.00     0.198 C 
BRANCH   7   8
ATOM      8  O   UNL     1      21.902  27.964  18.718  1.00  0.00    -0.347 OA
BRANCH   8   9
ATOM      9  C   UNL     1      22.801  28.369  17.695  1.00  0.00     0.281 C 
ATOM     10  C   UNL     1      22.135  30.768  19.557  1.00  0.00     0.041 C 
ATOM     11  C   UNL     1      22.971  30.685  18.268  1.00  0.00     0.150 C 
ATOM     12  C   UNL     1      22.223  31.128  16.988  1.00  0.00     0.174 C 
ATOM     13  O   UNL     1      23.643  29.439  18.124  1.00  0.00    -0.344 OA
ATOM     14  C   UNL     1      21.297  30.039  16.440  1.00  0.00     0.179 C 
ATOM     15  C   UNL     1      22.043  28.688  16.383  1.00  0.00     0.202 C 
BRANCH  12  16
ATOM     16  O   UNL     1      21.498  32.315  17.211  1.00  0.00    -0.388 OA
ATOM     17  H   UNL     1      20.696  32.067  17.745  1.00  0.00     0.211 HD
ENDBRANCH  12  16
BRANCH  14  18
ATOM     18  O   UNL     1      20.075  29.999  17.144  1.00  0.00    -0.387 OA
ATOM     19  H   UNL     1      19.650  30.894  17.126  1.00  0.00     0.211 HD
ENDBRANCH  14  18
BRANCH  15  20
ATOM     20  O   UNL     1      22.958  28.726  15.317  1.00  0.00    -0.385 OA
ATOM     21  H   UNL     1      22.922  27.840  14.872  1.00  0.00     0.211 HD
ENDBRANCH  15  20
ENDBRANCH   8   9
ENDBRANCH   7   8
ENDBRANCH   1   7
BRANCH   2  22
ATOM     22  O   UNL     1      23.941  23.959  19.553  1.00  0.00    -0.387 OA
ATOM     23  H   UNL     1      24.333  24.071  18.649  1.00  0.00     0.211 HD
ENDBRANCH   2  22
BRANCH   3  24
ATOM     24  O   UNL     1      22.229  24.735  21.797  1.00  0.00    -0.387 OA
ATOM     25  H   UNL     1      21.892  25.039  22.674  1.00  0.00     0.211 HD
ENDBRANCH   3  24
BRANCH   5  26
ATOM     26  O   UNL     1      22.407  28.020  21.969  1.00  0.00    -0.462 OA
BRANCH  26  27
ATOM     27  C   UNL     1      21.915  28.619  23.147  1.00  0.00     0.130 A 
ATOM     28  C   UNL     1      20.581  28.466  23.572  1.00  0.00     0.093 A 
ATOM     29  C   UNL     1      22.793  29.385  23.922  1.00  0.00     0.094 A 
ATOM     30  C   UNL     1      20.115  29.126  24.717  1.00  0.00     0.133 A 
ATOM     31  C   UNL     1      22.352  29.996  25.099  1.00  0.00     0.138 A 
ATOM     32  C   UNL     1      20.998  29.921  25.472  1.00  0.00     0.102 A 
ATOM     33  O   UNL     1      23.278  30.662  25.921  1.00  0.00    -0.484 OA
ATOM     34  C   UNL     1      20.562  30.703  26.651  1.00  0.00     0.174 C 
ATOM     35  C   UNL     1      22.944  31.173  27.221  1.00  0.00     0.211 C 
ATOM     36  O   UNL     1      19.411  30.563  27.145  1.00  0.00    -0.294 OA
ATOM     37  C   UNL     1      21.502  31.716  27.235  1.00  0.00     0.131 C 
BRANCH  30  38
ATOM     38  O   UNL     1      18.780  28.990  25.096  1.00  0.00    -0.507 OA
ATOM     39  H   UNL     1      18.381  29.541  25.849  1.00  0.00     0.293 HD
ENDBRANCH  30  38
BRANCH  35  40
ATOM     40  C   UNL     1      23.135  30.136  28.319  1.00  0.00    -0.003 A 
ATOM     41  C   UNL     1      22.832  28.791  28.043  1.00  0.00     0.057 A 
ATOM     42  C   UNL     1      23.726  30.455  29.554  1.00  0.00     0.011 A 
ATOM     43  C   UNL     1      23.147  27.778  28.962  1.00  0.00     0.158 A 
ATOM     44  C   UNL     1      24.038  29.446  30.473  1.00  0.00     0.051 A 
ATOM     45  C   UNL     1      23.772  28.098  30.172  1.00  0.00     0.160 A 
BRANCH  43  46
ATOM     46  O   UNL     1      22.854  26.447  28.669  1.00  0.00    -0.504 OA
ATOM     47  H   UNL     1      22.617  26.152  27.726  1.00  0.00     0.293 HD
ENDBRANCH  43  46
BRANCH  45  48
ATOM     48  O   UNL     1      24.125  27.049  31.040  1.00  0.00    -0.493 OA
ATOM     49  C   UNL     1      23.567  25.743  30.982  1.00  0.00     0.278 C 
ENDBRANCH  45  48
ENDBRANCH  35  40
ENDBRANCH  26  27
ENDBRANCH   5  26
BRANCH   4  50
ATOM     50  O   UNL     1      23.382  26.231  23.795  1.00  0.00    -0.384 OA
ATOM     51  H   UNL     1      22.408  26.186  23.619  1.00  0.00     0.211 HD
ENDBRANCH   4  50
TORSDOF 15
ENDMDL
MODEL 3
REMARK VINA RESULT:    -0.402      1.637      2.540
REMARK INTER + INTRA:          -1.940
REMARK INTER:                  -0.691
REMARK INTRA:                  -1.249
REMARK UNBOUND:                -1.280
REMARK SMILES COc1ccc([C@@H]2CC(=O)c3c(O)cc(O[C@@H]4O[C@H](CO[C@@H]5O[C@H](C)[C@H](O)[C@H](O)[C@H]5O)[C@H](O)[C@H](O)[C@@H]4O)cc3O2)cc1O
REMARK SMILES IDX 19 1 32 2 34 3 36 4 17 5 18 6 20 7 21 8 22 9 25 10 24 11
REMARK SMILES IDX 26 12 23 13 28 14 30 15 27 16 29 18 31 20 33 22 35 24 16 26
REMARK SMILES IDX 15 27 14 28 38 29 12 30 39 31 11 32 40 33 9 34 7 35 10 36
REMARK SMILES IDX 8 37 13 38 6 40 41 41 5 42 42 43 4 44 3 45 43 46 2 48 1 49
REMARK SMILES IDX 37 50
REMARK H PARENT 27 17 29 19 31 21 33 23 35 25 13 39 43 47 37 51
REMARK Flexibility Score: inf
ROOT
ATOM      1  C   UNL     1      23.331  26.717  23.570  1.00  0.00     0.180 C 
ATOM      2  C   UNL     1      23.521  25.178  23.680  1.00  0.00     0.177 C 
ATOM      3  C   UNL     1      23.129  24.651  25.058  1.00  0.00     0.180 C 
ATOM      4  C   UNL     1      23.908  25.437  26.128  1.00  0.00     0.214 C 
ATOM      5  C   UNL     1      23.896  26.973  25.898  1.00  0.00     0.339 C 
ATOM      6  O   UNL     1      24.123  27.388  24.548  1.00  0.00    -0.332 OA
ENDROOT
BRANCH   1   7
ATOM      7  C   UNL     1      21.900  27.342  23.445  1.00  0.00     0.198 C 
BRANCH   7   8
ATOM      8  O   UNL     1      21.831  28.396  22.499  1.00  0.00    -0.347 OA
BRANCH   8   9
ATOM      9  C   UNL     1      22.717  28.194  21.407  1.00  0.00     0.281 C 
ATOM     10  C   UNL     1      23.571  30.699  23.037  1.00  0.00     0.041 C 
ATOM     11  C   UNL     1      24.125  30.099  21.733  1.00  0.00     0.150 C 
ATOM     12  C   UNL     1      23.614  30.784  20.443  1.00  0.00     0.174 C 
ATOM     13  O   UNL     1      24.028  28.680  21.692  1.00  0.00    -0.344 OA
ATOM     14  C   UNL     1      22.211  30.319  20.045  1.00  0.00     0.179 C 
ATOM     15  C   UNL     1      22.129  28.777  20.098  1.00  0.00     0.202 C 
BRANCH  12  16
ATOM     16  O   UNL     1      23.642  32.187  20.571  1.00  0.00    -0.388 OA
ATOM     17  H   UNL     1      22.815  32.448  21.060  1.00  0.00     0.211 HD
ENDBRANCH  12  16
BRANCH  14  18
ATOM     18  O   UNL     1      21.216  30.980  20.794  1.00  0.00    -0.387 OA
ATOM     19  H   UNL     1      21.550  31.866  21.085  1.00  0.00     0.211 HD
ENDBRANCH  14  18
BRANCH  15  20
ATOM     20  O   UNL     1      22.833  28.253  19.000  1.00  0.00    -0.385 OA
ATOM     21  H   UNL     1      22.250  27.566  18.584  1.00  0.00     0.211 HD
ENDBRANCH  15  20
ENDBRANCH   8   9
ENDBRANCH   7   8
ENDBRANCH   1   7
BRANCH   2  22
ATOM     22  O   UNL     1      22.984  24.398  22.635  1.00  0.00    -0.387 OA
ATOM     23  H   UNL     1      22.103  24.757  22.358  1.00  0.00     0.211 HD
ENDBRANCH   2  22
BRANCH   3  24
ATOM     24  O   UNL     1      21.740  24.668  25.272  1.00  0.00    -0.387 OA
ATOM     25  H   UNL     1      21.551  25.248  26.048  1.00  0.00     0.211 HD
ENDBRANCH   3  24
BRANCH   5  26
ATOM     26  O   UNL     1      22.724  27.589  26.434  1.00  0.00    -0.462 OA
BRANCH  26  27
ATOM     27  C   UNL     1      22.681  28.901  26.950  1.00  0.00     0.130 A 
ATOM     28  C   UNL     1      22.619  30.037  26.121  1.00  0.00     0.093 A 
ATOM     29  C   UNL     1      22.692  29.071  28.340  1.00  0.00     0.094 A 
ATOM     30  C   UNL     1      22.638  31.325  26.671  1.00  0.00     0.133 A 
ATOM     31  C   UNL     1      22.648  30.352  28.897  1.00  0.00     0.138 A 
ATOM     32  C   UNL     1      22.682  31.487  28.069  1.00  0.00     0.102 A 
ATOM     33  O   UNL     1      22.541  30.495  30.292  1.00  0.00    -0.484 OA
ATOM     34  C   UNL     1      22.774  32.814  28.719  1.00  0.00     0.174 C 
ATOM     35  C   UNL     1      22.326  31.761  30.935  1.00  0.00     0.211 C 
ATOM     36  O   UNL     1      22.646  33.881  28.060  1.00  0.00    -0.294 OA
ATOM     37  C   UNL     1      23.075  32.881  30.188  1.00  0.00     0.131 C 
BRANCH  30  38
ATOM     38  O   UNL     1      22.615  32.436  25.827  1.00  0.00    -0.507 OA
ATOM     39  H   UNL     1      23.182  33.258  26.013  1.00  0.00     0.293 HD
ENDBRANCH  30  38
BRANCH  35  40
ATOM     40  C   UNL     1      20.848  32.102  31.065  1.00  0.00    -0.003 A 
ATOM     41  C   UNL     1      20.465  33.454  31.125  1.00  0.00     0.057 A 
ATOM     42  C   UNL     1      19.845  31.119  30.997  1.00  0.00     0.011 A 
ATOM     43  C   UNL     1      19.112  33.823  31.078  1.00  0.00     0.158 A 
ATOM     44  C   UNL     1      18.496  31.485  30.952  1.00  0.00     0.051 A 
ATOM     45  C   UNL     1      18.121  32.841  30.968  1.00  0.00     0.160 A 
BRANCH  43  46
ATOM     46  O   UNL     1      18.749  35.168  31.123  1.00  0.00    -0.504 OA
ATOM     47  H   UNL     1      19.336  35.860  31.578  1.00  0.00     0.293 HD
ENDBRANCH  43  46
BRANCH  45  48
ATOM     48  O   UNL     1      16.781  33.254  30.864  1.00  0.00    -0.493 OA
ATOM     49  C   UNL     1      15.664  32.405  31.091  1.00  0.00     0.278 C 
ENDBRANCH  45  48
ENDBRANCH  35  40
ENDBRANCH  26  27
ENDBRANCH   5  26
BRANCH   4  50
ATOM     50  O   UNL     1      23.411  25.125  27.406  1.00  0.00    -0.384 OA
ATOM     51  H   UNL     1      22.821  25.875  27.675  1.00  0.00     0.211 HD
ENDBRANCH   4  50
TORSDOF 15
ENDMDL
MODEL 4
REMARK VINA RESULT:    -0.263      2.161      9.783
REMARK INTER + INTRA:          -1.712
REMARK INTER:                  -5.543
REMARK INTRA:                   3.831
REMARK UNBOUND:                -1.280
REMARK SMILES COc1ccc([C@@H]2CC(=O)c3c(O)cc(O[C@@H]4O[C@H](CO[C@@H]5O[C@H](C)[C@H](O)[C@H](O)[C@H]5O)[C@H](O)[C@H](O)[C@@H]4O)cc3O2)cc1O
REMARK SMILES IDX 19 1 32 2 34 3 36 4 17 5 18 6 20 7 21 8 22 9 25 10 24 11
REMARK SMILES IDX 26 12 23 13 28 14 30 15 27 16 29 18 31 20 33 22 35 24 16 26
REMARK SMILES IDX 15 27 14 28 38 29 12 30 39 31 11 32 40 33 9 34 7 35 10 36
REMARK SMILES IDX 8 37 13 38 6 40 41 41 5 42 42 43 4 44 3 45 43 46 2 48 1 49
REMARK SMILES IDX 37 50
REMARK H PARENT 27 17 29 19 31 21 33 23 35 25 13 39 43 47 37 51
REMARK Flexibility Score: inf
ROOT
ATOM      1  C   UNL     1      22.830  31.980  28.707  1.00  0.00     0.180 C 
ATOM      2  C   UNL     1      22.114  32.806  29.814  1.00  0.00     0.177 C 
ATOM      3  C   UNL     1      20.603  32.596  29.795  1.00  0.00     0.180 C 
ATOM      4  C   UNL     1      20.079  32.895  28.379  1.00  0.00     0.214 C 
ATOM      5  C   UNL     1      20.925  32.237  27.255  1.00  0.00     0.339 C 
ATOM      6  O   UNL     1      22.342  32.345  27.418  1.00  0.00    -0.332 OA
ENDROOT
BRANCH   1   7
ATOM      7  C   UNL     1      23.005  30.430  28.851  1.00  0.00     0.198 C 
BRANCH   7   8
ATOM      8  O   UNL     1      22.205  29.869  29.879  1.00  0.00    -0.347 OA
BRANCH   8   9
ATOM      9  C   UNL     1      22.789  28.699  30.433  1.00  0.00     0.281 C 
ATOM     10  C   UNL     1      23.893  29.202  27.571  1.00  0.00     0.041 C 
ATOM     11  C   UNL     1      24.125  28.047  28.560  1.00  0.00     0.150 C 
ATOM     12  C   UNL     1      23.261  26.791  28.294  1.00  0.00     0.174 C 
ATOM     13  O   UNL     1      24.100  28.468  29.918  1.00  0.00    -0.344 OA
ATOM     14  C   UNL     1      21.832  26.936  28.821  1.00  0.00     0.179 C 
ATOM     15  C   UNL     1      21.853  27.477  30.267  1.00  0.00     0.202 C 
BRANCH  12  16
ATOM     16  O   UNL     1      23.243  26.471  26.922  1.00  0.00    -0.388 OA
ATOM     17  H   UNL     1      23.922  27.052  26.482  1.00  0.00     0.211 HD
ENDBRANCH  12  16
BRANCH  14  18
ATOM     18  O   UNL     1      21.027  27.680  27.933  1.00  0.00    -0.387 OA
ATOM     19  H   UNL     1      21.121  28.647  28.128  1.00  0.00     0.211 HD
ENDBRANCH  14  18
BRANCH  15  20
ATOM     20  O   UNL     1      22.278  26.447  31.125  1.00  0.00    -0.385 OA
ATOM     21  H   UNL     1      21.931  25.597  30.751  1.00  0.00     0.211 HD
ENDBRANCH  15  20
ENDBRANCH   8   9
ENDBRANCH   7   8
ENDBRANCH   1   7
BRANCH   2  22
ATOM     22  O   UNL     1      22.652  32.722  31.114  1.00  0.00    -0.387 OA
ATOM     23  H   UNL     1      21.922  32.661  31.782  1.00  0.00     0.211 HD
ENDBRANCH   2  22
BRANCH   3  24
ATOM     24  O   UNL     1      20.225  31.324  30.260  1.00  0.00    -0.387 OA
ATOM     25  H   UNL     1      20.230  31.339  31.248  1.00  0.00     0.211 HD
ENDBRANCH   3  24
BRANCH   5  26
ATOM     26  O   UNL     1      20.539  30.884  27.011  1.00  0.00    -0.462 OA
BRANCH  26  27
ATOM     27  C   UNL     1      21.042  30.091  25.959  1.00  0.00     0.130 A 
ATOM     28  C   UNL     1      20.550  28.801  25.682  1.00  0.00     0.093 A 
ATOM     29  C   UNL     1      22.063  30.618  25.157  1.00  0.00     0.094 A 
ATOM     30  C   UNL     1      21.117  28.023  24.665  1.00  0.00     0.133 A 
ATOM     31  C   UNL     1      22.592  29.870  24.102  1.00  0.00     0.138 A 
ATOM     32  C   UNL     1      22.166  28.548  23.886  1.00  0.00     0.102 A 
ATOM     33  O   UNL     1      23.532  30.462  23.240  1.00  0.00    -0.484 OA
ATOM     34  C   UNL     1      22.860  27.760  22.842  1.00  0.00     0.174 C 
ATOM     35  C   UNL     1      24.002  29.828  22.040  1.00  0.00     0.211 C 
ATOM     36  O   UNL     1      22.436  26.631  22.477  1.00  0.00    -0.294 OA
ATOM     37  C   UNL     1      24.125  28.306  22.245  1.00  0.00     0.131 C 
BRANCH  30  38
ATOM     38  O   UNL     1      20.639  26.732  24.435  1.00  0.00    -0.507 OA
ATOM     39  H   UNL     1      20.796  25.980  25.098  1.00  0.00     0.293 HD
ENDBRANCH  30  38
BRANCH  35  40
ATOM     40  C   UNL     1      23.120  30.134  20.837  1.00  0.00    -0.003 A 
ATOM     41  C   UNL     1      23.618  29.883  19.547  1.00  0.00     0.057 A 
ATOM     42  C   UNL     1      21.779  30.536  20.976  1.00  0.00     0.011 A 
ATOM     43  C   UNL     1      22.789  29.991  18.420  1.00  0.00     0.158 A 
ATOM     44  C   UNL     1      20.952  30.647  19.853  1.00  0.00     0.051 A 
ATOM     45  C   UNL     1      21.445  30.351  18.569  1.00  0.00     0.160 A 
BRANCH  43  46
ATOM     46  O   UNL     1      23.294  29.724  17.148  1.00  0.00    -0.504 OA
ATOM     47  H   UNL     1      23.185  30.386  16.386  1.00  0.00     0.293 HD
ENDBRANCH  43  46
BRANCH  45  48
ATOM     48  O   UNL     1      20.632  30.391  17.422  1.00  0.00    -0.493 OA
ATOM     49  C   UNL     1      20.587  31.482  16.513  1.00  0.00     0.278 C 
ENDBRANCH  45  48
ENDBRANCH  35  40
ENDBRANCH  26  27
ENDBRANCH   5  26
BRANCH   4  50
ATOM     50  O   UNL     1      18.732  32.503  28.276  1.00  0.00    -0.384 OA
ATOM     51  H   UNL     1      18.327  32.626  29.172  1.00  0.00     0.211 HD
ENDBRANCH   4  50
TORSDOF 15
ENDMDL
MODEL 5
REMARK VINA RESULT:    -0.047      2.334     10.338
REMARK INTER + INTRA:          -1.358
REMARK INTER:                   0.530
REMARK INTRA:                  -1.887
REMARK UNBOUND:                -1.280
REMARK SMILES COc1ccc([C@@H]2CC(=O)c3c(O)cc(O[C@@H]4O[C@H](CO[C@@H]5O[C@H](C)[C@H](O)[C@H](O)[C@H]5O)[C@H](O)[C@H](O)[C@@H]4O)cc3O2)cc1O
REMARK SMILES IDX 19 1 32 2 34 3 36 4 17 5 18 6 20 7 21 8 22 9 25 10 24 11
REMARK SMILES IDX 26 12 23 13 28 14 30 15 27 16 29 18 31 20 33 22 35 24 16 26
REMARK SMILES IDX 15 27 14 28 38 29 12 30 39 31 11 32 40 33 9 34 7 35 10 36
REMARK SMILES IDX 8 37 13 38 6 40 41 41 5 42 42 43 4 44 3 45 43 46 2 48 1 49
REMARK SMILES IDX 37 50
REMARK H PARENT 27 17 29 19 31 21 33 23 35 25 13 39 43 47 37 51
REMARK Flexibility Score: inf
ROOT
ATOM      1  C   UNL     1      21.574  27.893  27.109  1.00  0.00     0.180 C 
ATOM      2  C   UNL     1      21.828  26.665  28.029  1.00  0.00     0.177 C 
ATOM      3  C   UNL     1      22.799  25.671  27.400  1.00  0.00     0.180 C 
ATOM      4  C   UNL     1      22.280  25.286  26.003  1.00  0.00     0.214 C 
ATOM      5  C   UNL     1      21.825  26.506  25.156  1.00  0.00     0.339 C 
ATOM      6  O   UNL     1      21.039  27.475  25.855  1.00  0.00    -0.332 OA
ENDROOT
BRANCH   1   7
ATOM      7  C   UNL     1      22.663  29.006  26.940  1.00  0.00     0.198 C 
BRANCH   7   8
ATOM      8  O   UNL     1      23.094  29.559  28.172  1.00  0.00    -0.347 OA
BRANCH   8   9
ATOM      9  C   UNL     1      23.470  30.923  28.044  1.00  0.00     0.281 C 
ATOM     10  C   UNL     1      22.207  30.413  30.838  1.00  0.00     0.041 C 
ATOM     11  C   UNL     1      22.694  31.708  30.165  1.00  0.00     0.150 C 
ATOM     12  C   UNL     1      21.573  32.556  29.519  1.00  0.00     0.174 C 
ATOM     13  O   UNL     1      23.808  31.500  29.306  1.00  0.00    -0.344 OA
ATOM     14  C   UNL     1      21.145  32.022  28.149  1.00  0.00     0.179 C 
ATOM     15  C   UNL     1      22.390  31.730  27.282  1.00  0.00     0.202 C 
BRANCH  12  16
ATOM     16  O   UNL     1      20.456  32.653  30.372  1.00  0.00    -0.388 OA
ATOM     17  H   UNL     1      20.361  31.771  30.823  1.00  0.00     0.211 HD
ENDBRANCH  12  16
BRANCH  14  18
ATOM     18  O   UNL     1      20.255  30.935  28.274  1.00  0.00    -0.387 OA
ATOM     19  H   UNL     1      20.678  30.217  28.810  1.00  0.00     0.211 HD
ENDBRANCH  14  18
BRANCH  15  20
ATOM     20  O   UNL     1      22.938  32.953  26.858  1.00  0.00    -0.385 OA
ATOM     21  H   UNL     1      22.252  33.397  26.296  1.00  0.00     0.211 HD
ENDBRANCH  15  20
ENDBRANCH   8   9
ENDBRANCH   7   8
ENDBRANCH   1   7
BRANCH   2  22
ATOM     22  O   UNL     1      22.137  26.937  29.377  1.00  0.00    -0.387 OA
ATOM     23  H   UNL     1      21.328  27.253  29.856  1.00  0.00     0.211 HD
ENDBRANCH   2  22
BRANCH   3  24
ATOM     24  O   UNL     1      24.123  26.144  27.378  1.00  0.00    -0.387 OA
ATOM     25  H   UNL     1      24.670  25.567  27.963  1.00  0.00     0.211 HD
ENDBRANCH   3  24
BRANCH   5  26
ATOM     26  O   UNL     1      22.917  27.127  24.474  1.00  0.00    -0.462 OA
BRANCH  26  27
ATOM     27  C   UNL     1      22.785  28.220  23.594  1.00  0.00     0.130 A 
ATOM     28  C   UNL     1      23.567  29.386  23.716  1.00  0.00     0.093 A 
ATOM     29  C   UNL     1      21.848  28.133  22.558  1.00  0.00     0.094 A 
ATOM     30  C   UNL     1      23.364  30.474  22.857  1.00  0.00     0.133 A 
ATOM     31  C   UNL     1      21.684  29.191  21.659  1.00  0.00     0.138 A 
ATOM     32  C   UNL     1      22.396  30.390  21.838  1.00  0.00     0.102 A 
ATOM     33  O   UNL     1      20.824  29.035  20.559  1.00  0.00    -0.484 OA
ATOM     34  C   UNL     1      22.079  31.522  20.939  1.00  0.00     0.174 C 
ATOM     35  C   UNL     1      20.721  30.002  19.502  1.00  0.00     0.211 C 
ATOM     36  O   UNL     1      22.780  32.570  20.927  1.00  0.00    -0.294 OA
ATOM     37  C   UNL     1      20.866  31.431  20.061  1.00  0.00     0.131 C 
BRANCH  30  38
ATOM     38  O   UNL     1      24.123  31.633  23.022  1.00  0.00    -0.507 OA
ATOM     39  H   UNL     1      25.138  31.609  23.024  1.00  0.00     0.293 HD
ENDBRANCH  30  38
BRANCH  35  40
ATOM     40  C   UNL     1      21.733  29.758  18.391  1.00  0.00    -0.003 A 
ATOM     41  C   UNL     1      22.318  28.485  18.272  1.00  0.00     0.057 A 
ATOM     42  C   UNL     1      22.005  30.720  17.403  1.00  0.00     0.011 A 
ATOM     43  C   UNL     1      23.126  28.163  17.171  1.00  0.00     0.158 A 
ATOM     44  C   UNL     1      22.812  30.401  16.305  1.00  0.00     0.051 A 
ATOM     45  C   UNL     1      23.359  29.112  16.170  1.00  0.00     0.160 A 
BRANCH  43  46
ATOM     46  O   UNL     1      23.688  26.892  17.060  1.00  0.00    -0.504 OA
ATOM     47  H   UNL     1      23.754  26.418  16.165  1.00  0.00     0.293 HD
ENDBRANCH  43  46
BRANCH  45  48
ATOM     48  O   UNL     1      24.125  28.732  15.054  1.00  0.00    -0.493 OA
ATOM     49  C   UNL     1      24.099  29.403  13.801  1.00  0.00     0.278 C 
ENDBRANCH  45  48
ENDBRANCH  35  40
ENDBRANCH  26  27
ENDBRANCH   5  26
BRANCH   4  50
ATOM     50  O   UNL     1      23.258  24.545  25.316  1.00  0.00    -0.384 OA
ATOM     51  H   UNL     1      23.885  24.194  25.999  1.00  0.00     0.211 HD
ENDBRANCH   4  50
TORSDOF 15
ENDMDL
MODEL 6
REMARK VINA RESULT:     0.086      1.499      2.432
REMARK INTER + INTRA:          -1.139
REMARK INTER:                  -4.925
REMARK INTRA:                   3.786
REMARK UNBOUND:                -1.280
REMARK SMILES COc1ccc([C@@H]2CC(=O)c3c(O)cc(O[C@@H]4O[C@H](CO[C@@H]5O[C@H](C)[C@H](O)[C@H](O)[C@H]5O)[C@H](O)[C@H](O)[C@@H]4O)cc3O2)cc1O
REMARK SMILES IDX 19 1 32 2 34 3 36 4 17 5 18 6 20 7 21 8 22 9 25 10 24 11
REMARK SMILES IDX 26 12 23 13 28 14 30 15 27 16 29 18 31 20 33 22 35 24 16 26
REMARK SMILES IDX 15 27 14 28 38 29 12 30 39 31 11 32 40 33 9 34 7 35 10 36
REMARK SMILES IDX 8 37 13 38 6 40 41 41 5 42 42 43 4 44 3 45 43 46 2 48 1 49
REMARK SMILES IDX 37 50
REMARK H PARENT 27 17 29 19 31 21 33 23 35 25 13 39 43 47 37 51
REMARK Flexibility Score: inf
ROOT
ATOM      1  C   UNL     1      21.299  27.909  23.674  1.00  0.00     0.180 C 
ATOM      2  C   UNL     1      20.014  28.151  24.516  1.00  0.00     0.177 C 
ATOM      3  C   UNL     1      20.331  28.772  25.874  1.00  0.00     0.180 C 
ATOM      4  C   UNL     1      21.370  27.892  26.591  1.00  0.00     0.214 C 
ATOM      5  C   UNL     1      22.557  27.472  25.680  1.00  0.00     0.339 C 
ATOM      6  O   UNL     1      22.193  27.040  24.366  1.00  0.00    -0.332 OA
ENDROOT
BRANCH   1   7
ATOM      7  C   UNL     1      22.049  29.104  22.995  1.00  0.00     0.198 C 
BRANCH   7   8
ATOM      8  O   UNL     1      22.536  28.795  21.699  1.00  0.00    -0.347 OA
BRANCH   8   9
ATOM      9  C   UNL     1      22.936  29.958  20.987  1.00  0.00     0.281 C 
ATOM     10  C   UNL     1      19.846  29.633  20.870  1.00  0.00     0.041 C 
ATOM     11  C   UNL     1      20.786  30.654  20.204  1.00  0.00     0.150 C 
ATOM     12  C   UNL     1      21.142  30.334  18.733  1.00  0.00     0.174 C 
ATOM     13  O   UNL     1      21.922  30.963  21.003  1.00  0.00    -0.344 OA
ATOM     14  C   UNL     1      22.234  29.269  18.609  1.00  0.00     0.179 C 
ATOM     15  C   UNL     1      23.408  29.600  19.556  1.00  0.00     0.202 C 
BRANCH  12  16
ATOM     16  O   UNL     1      19.997  29.943  18.010  1.00  0.00    -0.388 OA
ATOM     17  H   UNL     1      19.208  30.235  18.540  1.00  0.00     0.211 HD
ENDBRANCH  12  16
BRANCH  14  18
ATOM     18  O   UNL     1      21.708  27.969  18.767  1.00  0.00    -0.387 OA
ATOM     19  H   UNL     1      21.116  27.943  19.561  1.00  0.00     0.211 HD
ENDBRANCH  14  18
BRANCH  15  20
ATOM     20  O   UNL     1      24.124  30.684  19.020  1.00  0.00    -0.385 OA
ATOM     21  H   UNL     1      24.423  31.240  19.785  1.00  0.00     0.211 HD
ENDBRANCH  15  20
ENDBRANCH   8   9
ENDBRANCH   7   8
ENDBRANCH   1   7
BRANCH   2  22
ATOM     22  O   UNL     1      18.944  28.798  23.867  1.00  0.00    -0.387 OA
ATOM     23  H   UNL     1      18.299  28.130  23.520  1.00  0.00     0.211 HD
ENDBRANCH   2  22
BRANCH   3  24
ATOM     24  O   UNL     1      20.728  30.117  25.777  1.00  0.00    -0.387 OA
ATOM     25  H   UNL     1      21.293  30.218  24.974  1.00  0.00     0.211 HD
ENDBRANCH   3  24
BRANCH   5  26
ATOM     26  O   UNL     1      23.577  28.470  25.629  1.00  0.00    -0.462 OA
BRANCH  26  27
ATOM     27  C   UNL     1      23.544  29.678  26.356  1.00  0.00     0.130 A 
ATOM     28  C   UNL     1      23.450  30.935  25.728  1.00  0.00     0.093 A 
ATOM     29  C   UNL     1      23.598  29.616  27.753  1.00  0.00     0.094 A 
ATOM     30  C   UNL     1      23.480  32.114  26.484  1.00  0.00     0.133 A 
ATOM     31  C   UNL     1      23.566  30.786  28.516  1.00  0.00     0.138 A 
ATOM     32  C   UNL     1      23.568  32.043  27.887  1.00  0.00     0.102 A 
ATOM     33  O   UNL     1      23.503  30.695  29.918  1.00  0.00    -0.484 OA
ATOM     34  C   UNL     1      23.674  33.245  28.745  1.00  0.00     0.174 C 
ATOM     35  C   UNL     1      23.302  31.835  30.768  1.00  0.00     0.211 C 
ATOM     36  O   UNL     1      23.520  34.405  28.276  1.00  0.00    -0.294 OA
ATOM     37  C   UNL     1      24.022  33.071  30.194  1.00  0.00     0.131 C 
BRANCH  30  38
ATOM     38  O   UNL     1      23.425  33.349  25.837  1.00  0.00    -0.507 OA
ATOM     39  H   UNL     1      24.263  33.807  25.491  1.00  0.00     0.293 HD
ENDBRANCH  30  38
BRANCH  35  40
ATOM     40  C   UNL     1      21.827  32.135  30.999  1.00  0.00    -0.003 A 
ATOM     41  C   UNL     1      21.406  33.476  31.047  1.00  0.00     0.057 A 
ATOM     42  C   UNL     1      20.855  31.121  31.034  1.00  0.00     0.011 A 
ATOM     43  C   UNL     1      20.041  33.802  31.090  1.00  0.00     0.158 A 
ATOM     44  C   UNL     1      19.494  31.444  31.079  1.00  0.00     0.051 A 
ATOM     45  C   UNL     1      19.077  32.788  31.083  1.00  0.00     0.160 A 
BRANCH  43  46
ATOM     46  O   UNL     1      19.638  35.136  31.123  1.00  0.00    -0.504 OA
ATOM     47  H   UNL     1      18.793  35.421  31.607  1.00  0.00     0.293 HD
ENDBRANCH  43  46
BRANCH  45  48
ATOM     48  O   UNL     1      17.720  33.156  31.067  1.00  0.00    -0.493 OA
ATOM     49  C   UNL     1      17.085  33.814  29.980  1.00  0.00     0.278 C 
ENDBRANCH  45  48
ENDBRANCH  35  40
ENDBRANCH  26  27
ENDBRANCH   5  26
BRANCH   4  50
ATOM     50  O   UNL     1      21.841  28.549  27.742  1.00  0.00    -0.384 OA
ATOM     51  H   UNL     1      22.268  29.390  27.438  1.00  0.00     0.211 HD
ENDBRANCH   4  50
TORSDOF 15
ENDMDL
