MODEL 1
REMARK VINA RESULT:    -4.864      0.000      0.000
REMARK INTER + INTRA:          -7.686
REMARK INTER:                  -7.139
REMARK INTRA:                  -0.547
REMARK UNBOUND:                -0.547
REMARK SMILES O=C([O-])CCCCCCCC(=O)[O-]
REMARK SMILES IDX 7 1 6 2 5 3 4 4 2 5 1 6 3 7 8 8 9 9 10 10 11 11 12 12 13 13
REMARK H PARENT
REMARK Flexibility Score: inf
ROOT
ATOM      1  C   UNL     1      -7.923  62.706  54.459  1.00  0.00     0.000 C 
ENDROOT
BRANCH   1   2
ATOM      2  C   UNL     1      -7.653  61.460  53.606  1.00  0.00     0.000 C 
BRANCH   2   3
ATOM      3  C   UNL     1      -6.329  60.797  54.003  1.00  0.00     0.006 C 
BRANCH   3   4
ATOM      4  C   UNL     1      -5.994  61.074  55.472  1.00  0.00     0.053 C 
BRANCH   4   5
ATOM      5  C   UNL     1      -5.746  59.793  56.203  1.00  0.00     0.041 C 
ATOM      6  O   UNL     1      -4.732  59.670  56.939  1.00  0.00    -0.550 OA
ATOM      7  O   UNL     1      -6.660  58.752  56.110  1.00  0.00    -0.550 OA
ENDBRANCH   4   5
ENDBRANCH   3   4
ENDBRANCH   2   3
ENDBRANCH   1   2
BRANCH   1   8
ATOM      8  C   UNL     1      -7.987  63.967  53.585  1.00  0.00     0.000 C 
BRANCH   8   9
ATOM      9  C   UNL     1      -6.598  64.554  53.290  1.00  0.00     0.006 C 
BRANCH   9  10
ATOM     10  C   UNL     1      -6.568  65.383  51.999  1.00  0.00     0.053 C 
BRANCH  10  11
ATOM     11  C   UNL     1      -6.972  64.541  50.830  1.00  0.00     0.041 C 
ATOM     12  O   UNL     1      -6.291  63.532  50.511  1.00  0.00    -0.550 OA
ATOM     13  O   UNL     1      -8.128  64.843  50.122  1.00  0.00    -0.550 OA
ENDBRANCH  10  11
ENDBRANCH   9  10
ENDBRANCH   8   9
ENDBRANCH   1   8
TORSDOF 8
ENDMDL
MODEL 2
REMARK VINA RESULT:    -4.801      0.859      6.258
REMARK INTER + INTRA:          -7.592
REMARK INTER:                  -7.173
REMARK INTRA:                  -0.420
REMARK UNBOUND:                -0.547
REMARK SMILES O=C([O-])CCCCCCCC(=O)[O-]
REMARK SMILES IDX 7 1 6 2 5 3 4 4 2 5 1 6 3 7 8 8 9 9 10 10 11 11 12 12 13 13
REMARK H PARENT
REMARK Flexibility Score: inf
ROOT
ATOM      1  C   UNL     1      -7.867  62.705  54.480  1.00  0.00     0.000 C 
ENDROOT
BRANCH   1   2
ATOM      2  C   UNL     1      -7.966  63.931  53.563  1.00  0.00     0.000 C 
BRANCH   2   3
ATOM      3  C   UNL     1      -6.574  64.427  53.155  1.00  0.00     0.006 C 
BRANCH   3   4
ATOM      4  C   UNL     1      -6.674  65.585  52.158  1.00  0.00     0.053 C 
BRANCH   4   5
ATOM      5  C   UNL     1      -5.985  65.236  50.877  1.00  0.00     0.041 C 
ATOM      6  O   UNL     1      -5.157  66.033  50.365  1.00  0.00    -0.550 OA
ATOM      7  O   UNL     1      -6.223  64.008  50.274  1.00  0.00    -0.550 OA
ENDBRANCH   4   5
ENDBRANCH   3   4
ENDBRANCH   2   3
ENDBRANCH   1   2
BRANCH   1   8
ATOM      8  C   UNL     1      -7.597  61.431  53.667  1.00  0.00     0.000 C 
BRANCH   8   9
ATOM      9  C   UNL     1      -6.290  60.733  54.076  1.00  0.00     0.006 C 
BRANCH   9  10
ATOM     10  C   UNL     1      -5.943  60.949  55.555  1.00  0.00     0.053 C 
BRANCH  10  11
ATOM     11  C   UNL     1      -5.764  59.633  56.246  1.00  0.00     0.041 C 
ATOM     12  O   UNL     1      -6.606  58.712  56.082  1.00  0.00    -0.550 OA
ATOM     13  O   UNL     1      -4.641  59.407  57.031  1.00  0.00    -0.550 OA
ENDBRANCH  10  11
ENDBRANCH   9  10
ENDBRANCH   8   9
ENDBRANCH   1   8
TORSDOF 8
ENDMDL
MODEL 3
REMARK VINA RESULT:    -4.796      1.171      6.557
REMARK INTER + INTRA:          -7.586
REMARK INTER:                  -7.224
REMARK INTRA:                  -0.362
REMARK UNBOUND:                -0.547
REMARK SMILES O=C([O-])CCCCCCCC(=O)[O-]
REMARK SMILES IDX 7 1 6 2 5 3 4 4 2 5 1 6 3 7 8 8 9 9 10 10 11 11 12 12 13 13
REMARK H PARENT
REMARK Flexibility Score: inf
ROOT
ATOM      1  C   UNL     1      -7.522  61.487  53.586  1.00  0.00     0.000 C 
ENDROOT
BRANCH   1   2
ATOM      2  C   UNL     1      -7.905  62.656  54.502  1.00  0.00     0.000 C 
BRANCH   2   3
ATOM      3  C   UNL     1      -7.967  63.972  53.718  1.00  0.00     0.006 C 
BRANCH   3   4
ATOM      4  C   UNL     1      -6.665  64.216  52.950  1.00  0.00     0.053 C 
BRANCH   4   5
ATOM      5  C   UNL     1      -6.890  65.184  51.831  1.00  0.00     0.041 C 
ATOM      6  O   UNL     1      -7.771  64.953  50.961  1.00  0.00    -0.550 OA
ATOM      7  O   UNL     1      -6.161  66.364  51.777  1.00  0.00    -0.550 OA
ENDBRANCH   4   5
ENDBRANCH   3   4
ENDBRANCH   2   3
ENDBRANCH   1   2
BRANCH   1   8
ATOM      8  C   UNL     1      -6.307  60.730  54.140  1.00  0.00     0.000 C 
BRANCH   8   9
ATOM      9  C   UNL     1      -6.335  60.605  55.672  1.00  0.00     0.006 C 
BRANCH   9  10
ATOM     10  C   UNL     1      -5.997  59.188  56.155  1.00  0.00     0.053 C 
BRANCH  10  11
ATOM     11  C   UNL     1      -4.571  59.116  56.601  1.00  0.00     0.041 C 
ATOM     12  O   UNL     1      -4.147  59.892  57.498  1.00  0.00    -0.550 OA
ATOM     13  O   UNL     1      -3.720  58.160  56.061  1.00  0.00    -0.550 OA
ENDBRANCH  10  11
ENDBRANCH   9  10
ENDBRANCH   8   9
ENDBRANCH   1   8
TORSDOF 8
ENDMDL
MODEL 4
REMARK VINA RESULT:    -4.790     13.250     15.501
REMARK INTER + INTRA:          -7.577
REMARK INTER:                  -6.966
REMARK INTRA:                  -0.611
REMARK UNBOUND:                -0.547
REMARK SMILES O=C([O-])CCCCCCCC(=O)[O-]
REMARK SMILES IDX 7 1 6 2 5 3 4 4 2 5 1 6 3 7 8 8 9 9 10 10 11 11 12 12 13 13
REMARK H PARENT
REMARK Flexibility Score: inf
ROOT
ATOM      1  C   UNL     1     -11.967  60.856  40.553  1.00  0.00     0.000 C 
ENDROOT
BRANCH   1   2
ATOM      2  C   UNL     1     -10.506  61.093  40.152  1.00  0.00     0.000 C 
BRANCH   2   3
ATOM      3  C   UNL     1     -10.392  62.230  39.130  1.00  0.00     0.006 C 
BRANCH   3   4
ATOM      4  C   UNL     1     -10.560  63.595  39.804  1.00  0.00     0.053 C 
BRANCH   4   5
ATOM      5  C   UNL     1      -9.446  63.842  40.771  1.00  0.00     0.041 C 
ATOM      6  O   UNL     1      -8.270  64.007  40.354  1.00  0.00    -0.550 OA
ATOM      7  O   UNL     1      -9.715  63.938  42.130  1.00  0.00    -0.550 OA
ENDBRANCH   4   5
ENDBRANCH   3   4
ENDBRANCH   2   3
ENDBRANCH   1   2
BRANCH   1   8
ATOM      8  C   UNL     1     -12.563  59.670  39.781  1.00  0.00     0.000 C 
BRANCH   8   9
ATOM      9  C   UNL     1     -13.481  60.113  38.631  1.00  0.00     0.006 C 
BRANCH   9  10
ATOM     10  C   UNL     1     -14.760  60.800  39.127  1.00  0.00     0.053 C 
BRANCH  10  11
ATOM     11  C   UNL     1     -14.874  62.173  38.543  1.00  0.00     0.041 C 
ATOM     12  O   UNL     1     -13.906  62.975  38.616  1.00  0.00    -0.550 OA
ATOM     13  O   UNL     1     -16.031  62.552  37.875  1.00  0.00    -0.550 OA
ENDBRANCH  10  11
ENDBRANCH   9  10
ENDBRANCH   8   9
ENDBRANCH   1   8
TORSDOF 8
ENDMDL
MODEL 5
REMARK VINA RESULT:    -4.789     12.589     15.591
REMARK INTER + INTRA:          -7.575
REMARK INTER:                  -7.118
REMARK INTRA:                  -0.457
REMARK UNBOUND:                -0.547
REMARK SMILES O=C([O-])CCCCCCCC(=O)[O-]
REMARK SMILES IDX 7 1 6 2 5 3 4 4 2 5 1 6 3 7 8 8 9 9 10 10 11 11 12 12 13 13
REMARK H PARENT
REMARK Flexibility Score: inf
ROOT
ATOM      1  C   UNL     1     -12.065  60.732  40.602  1.00  0.00     0.000 C 
ENDROOT
BRANCH   1   2
ATOM      2  C   UNL     1     -12.616  59.569  39.767  1.00  0.00     0.000 C 
BRANCH   2   3
ATOM      3  C   UNL     1     -13.468  60.083  38.600  1.00  0.00     0.006 C 
BRANCH   3   4
ATOM      4  C   UNL     1     -14.842  60.551  39.087  1.00  0.00     0.053 C 
BRANCH   4   5
ATOM      5  C   UNL     1     -15.227  61.833  38.419  1.00  0.00     0.041 C 
ATOM      6  O   UNL     1     -16.360  61.954  37.884  1.00  0.00    -0.550 OA
ATOM      7  O   UNL     1     -14.352  62.911  38.430  1.00  0.00    -0.550 OA
ENDBRANCH   4   5
ENDBRANCH   3   4
ENDBRANCH   2   3
ENDBRANCH   1   2
BRANCH   1   8
ATOM      8  C   UNL     1     -11.164  61.639  39.753  1.00  0.00     0.000 C 
BRANCH   8   9
ATOM      9  C   UNL     1      -9.766  61.825  40.364  1.00  0.00     0.006 C 
BRANCH   9  10
ATOM     10  C   UNL     1      -9.276  63.277  40.290  1.00  0.00     0.053 C 
BRANCH  10  11
ATOM     11  C   UNL     1      -9.606  64.003  41.556  1.00  0.00     0.041 C 
ATOM     12  O   UNL     1      -9.653  65.262  41.570  1.00  0.00    -0.550 OA
ATOM     13  O   UNL     1      -9.908  63.291  42.709  1.00  0.00    -0.550 OA
ENDBRANCH  10  11
ENDBRANCH   9  10
ENDBRANCH   8   9
ENDBRANCH   1   8
TORSDOF 8
ENDMDL
MODEL 6
REMARK VINA RESULT:    -4.777     13.314     15.731
REMARK INTER + INTRA:          -7.559
REMARK INTER:                  -6.988
REMARK INTRA:                  -0.571
REMARK UNBOUND:                -0.547
REMARK SMILES O=C([O-])CCCCCCCC(=O)[O-]
REMARK SMILES IDX 7 1 6 2 5 3 4 4 2 5 1 6 3 7 8 8 9 9 10 10 11 11 12 12 13 13
REMARK H PARENT
REMARK Flexibility Score: inf
ROOT
ATOM      1  C   UNL     1     -12.033  60.871  40.594  1.00  0.00     0.000 C 
ENDROOT
BRANCH   1   2
ATOM      2  C   UNL     1     -12.629  59.626  39.925  1.00  0.00     0.000 C 
BRANCH   2   3
ATOM      3  C   UNL     1     -13.357  59.993  38.627  1.00  0.00     0.006 C 
BRANCH   3   4
ATOM      4  C   UNL     1     -14.801  60.421  38.908  1.00  0.00     0.053 C 
BRANCH   4   5
ATOM      5  C   UNL     1     -15.028  61.828  38.454  1.00  0.00     0.041 C 
ATOM      6  O   UNL     1     -14.107  62.681  38.547  1.00  0.00    -0.550 OA
ATOM      7  O   UNL     1     -16.243  62.185  37.884  1.00  0.00    -0.550 OA
ENDBRANCH   4   5
ENDBRANCH   3   4
ENDBRANCH   2   3
ENDBRANCH   1   2
BRANCH   1   8
ATOM      8  C   UNL     1     -10.582  61.094  40.146  1.00  0.00     0.000 C 
BRANCH   8   9
ATOM      9  C   UNL     1     -10.443  62.249  39.142  1.00  0.00     0.006 C 
BRANCH   9  10
ATOM     10  C   UNL     1     -10.664  63.623  39.787  1.00  0.00     0.053 C 
BRANCH  10  11
ATOM     11  C   UNL     1      -9.587  63.910  40.785  1.00  0.00     0.041 C 
ATOM     12  O   UNL     1      -9.873  64.035  42.006  1.00  0.00    -0.550 OA
ATOM     13  O   UNL     1      -8.263  63.991  40.377  1.00  0.00    -0.550 OA
ENDBRANCH  10  11
ENDBRANCH   9  10
ENDBRANCH   8   9
ENDBRANCH   1   8
TORSDOF 8
ENDMDL
MODEL 7
REMARK VINA RESULT:    -4.655      1.891      6.289
REMARK INTER + INTRA:          -7.379
REMARK INTER:                  -6.988
REMARK INTRA:                  -0.392
REMARK UNBOUND:                -0.547
REMARK SMILES O=C([O-])CCCCCCCC(=O)[O-]
REMARK SMILES IDX 7 1 6 2 5 3 4 4 2 5 1 6 3 7 8 8 9 9 10 10 11 11 12 12 13 13
REMARK H PARENT
REMARK Flexibility Score: inf
ROOT
ATOM      1  C   UNL     1      -6.611  63.764  52.298  1.00  0.00     0.000 C 
ENDROOT
BRANCH   1   2
ATOM      2  C   UNL     1      -6.423  64.905  51.290  1.00  0.00     0.000 C 
BRANCH   2   3
ATOM      3  C   UNL     1      -7.518  64.878  50.218  1.00  0.00     0.006 C 
BRANCH   3   4
ATOM      4  C   UNL     1      -7.710  63.465  49.662  1.00  0.00     0.053 C 
BRANCH   4   5
ATOM      5  C   UNL     1      -8.832  63.437  48.674  1.00  0.00     0.041 C 
ATOM      6  O   UNL     1      -8.869  62.551  47.781  1.00  0.00    -0.550 OA
ATOM      7  O   UNL     1      -9.864  64.362  48.769  1.00  0.00    -0.550 OA
ENDBRANCH   4   5
ENDBRANCH   3   4
ENDBRANCH   2   3
ENDBRANCH   1   2
BRANCH   1   8
ATOM      8  C   UNL     1      -7.663  64.132  53.355  1.00  0.00     0.000 C 
BRANCH   8   9
ATOM      9  C   UNL     1      -7.996  62.960  54.291  1.00  0.00     0.006 C 
BRANCH   9  10
ATOM     10  C   UNL     1      -7.365  61.638  53.833  1.00  0.00     0.053 C 
BRANCH  10  11
ATOM     11  C   UNL     1      -6.278  61.225  54.774  1.00  0.00     0.041 C 
ATOM     12  O   UNL     1      -6.558  60.884  55.954  1.00  0.00    -0.550 OA
ATOM     13  O   UNL     1      -4.962  61.170  54.336  1.00  0.00    -0.550 OA
ENDBRANCH  10  11
ENDBRANCH   9  10
ENDBRANCH   8   9
ENDBRANCH   1   8
TORSDOF 8
ENDMDL
MODEL 8
REMARK VINA RESULT:    -4.628      1.260      1.722
REMARK INTER + INTRA:          -7.339
REMARK INTER:                  -7.064
REMARK INTRA:                  -0.275
REMARK UNBOUND:                -0.547
REMARK SMILES O=C([O-])CCCCCCCC(=O)[O-]
REMARK SMILES IDX 7 1 6 2 5 3 4 4 2 5 1 6 3 7 8 8 9 9 10 10 11 11 12 12 13 13
REMARK H PARENT
REMARK Flexibility Score: inf
ROOT
ATOM      1  C   UNL     1      -7.582  61.430  53.595  1.00  0.00     0.000 C 
ENDROOT
BRANCH   1   2
ATOM      2  C   UNL     1      -6.302  60.763  54.114  1.00  0.00     0.000 C 
BRANCH   2   3
ATOM      3  C   UNL     1      -6.307  60.676  55.645  1.00  0.00     0.006 C 
BRANCH   3   4
ATOM      4  C   UNL     1      -5.715  59.347  56.121  1.00  0.00     0.053 C 
BRANCH   4   5
ATOM      5  C   UNL     1      -4.335  59.551  56.660  1.00  0.00     0.041 C 
ATOM      6  O   UNL     1      -3.712  60.619  56.420  1.00  0.00    -0.550 OA
ATOM      7  O   UNL     1      -3.754  58.582  57.468  1.00  0.00    -0.550 OA
ENDBRANCH   4   5
ENDBRANCH   3   4
ENDBRANCH   2   3
ENDBRANCH   1   2
BRANCH   1   8
ATOM      8  C   UNL     1      -7.898  62.705  54.390  1.00  0.00     0.000 C 
BRANCH   8   9
ATOM      9  C   UNL     1      -7.697  63.984  53.563  1.00  0.00     0.006 C 
BRANCH   9  10
ATOM     10  C   UNL     1      -6.697  63.795  52.415  1.00  0.00     0.053 C 
BRANCH  10  11
ATOM     11  C   UNL     1      -6.890  64.853  51.375  1.00  0.00     0.041 C 
ATOM     12  O   UNL     1      -6.000  65.723  51.184  1.00  0.00    -0.550 OA
ATOM     13  O   UNL     1      -8.031  64.850  50.583  1.00  0.00    -0.550 OA
ENDBRANCH  10  11
ENDBRANCH   9  10
ENDBRANCH   8   9
ENDBRANCH   1   8
TORSDOF 8
ENDMDL
MODEL 9
REMARK VINA RESULT:    -4.619     14.401     16.516
REMARK INTER + INTRA:          -7.326
REMARK INTER:                  -6.906
REMARK INTRA:                  -0.420
REMARK UNBOUND:                -0.547
REMARK SMILES O=C([O-])CCCCCCCC(=O)[O-]
REMARK SMILES IDX 7 1 6 2 5 3 4 4 2 5 1 6 3 7 8 8 9 9 10 10 11 11 12 12 13 13
REMARK H PARENT
REMARK Flexibility Score: inf
ROOT
ATOM      1  C   UNL     1     -12.638  59.625  39.837  1.00  0.00     0.000 C 
ENDROOT
BRANCH   1   2
ATOM      2  C   UNL     1     -11.979  60.811  40.552  1.00  0.00     0.000 C 
BRANCH   2   3
ATOM      3  C   UNL     1     -10.819  61.378  39.725  1.00  0.00     0.006 C 
BRANCH   3   4
ATOM      4  C   UNL     1     -11.101  62.821  39.299  1.00  0.00     0.053 C 
BRANCH   4   5
ATOM      5  C   UNL     1      -9.832  63.611  39.250  1.00  0.00     0.041 C 
ATOM      6  O   UNL     1      -8.930  63.414  40.106  1.00  0.00    -0.550 OA
ATOM      7  O   UNL     1      -9.625  64.531  38.230  1.00  0.00    -0.550 OA
ENDBRANCH   4   5
ENDBRANCH   3   4
ENDBRANCH   2   3
ENDBRANCH   1   2
BRANCH   1   8
ATOM      8  C   UNL     1     -13.494  60.103  38.655  1.00  0.00     0.000 C 
BRANCH   8   9
ATOM      9  C   UNL     1     -14.522  61.170  39.061  1.00  0.00     0.006 C 
BRANCH   9  10
ATOM     10  C   UNL     1     -15.664  61.308  38.046  1.00  0.00     0.053 C 
BRANCH  10  11
ATOM     11  C   UNL     1     -16.948  60.813  38.634  1.00  0.00     0.041 C 
ATOM     12  O   UNL     1     -17.014  59.656  39.127  1.00  0.00    -0.550 OA
ATOM     13  O   UNL     1     -18.058  61.646  38.683  1.00  0.00    -0.550 OA
ENDBRANCH  10  11
ENDBRANCH   9  10
ENDBRANCH   8   9
ENDBRANCH   1   8
TORSDOF 8
ENDMDL
