MODEL 1
REMARK VINA RESULT:    -7.500      0.000      0.000
REMARK INTER + INTRA:         -10.879
REMARK INTER:                 -10.131
REMARK INTRA:                  -0.747
REMARK UNBOUND:                -0.747
REMARK SMILES O=c1c(-c2ccc(O)cc2)coc2c([C@@H]3O[C@@H](CO)[C@@H](O)[C@H](O)[C@@H]3O)c(O)ccc12
REMARK SMILES IDX 3 1 11 2 12 3 13 4 30 5 2 6 1 7 29 8 28 9 26 10 14 11 4 12
REMARK SMILES IDX 5 13 6 14 7 15 10 16 9 17 8 18 15 20 24 21 16 22 22 23 17 24
REMARK SMILES IDX 20 25 25 26 23 28 18 30 19 31 21 33 27 35
REMARK H PARENT 8 19 25 27 23 29 19 32 21 34 27 36
REMARK Flexibility Score: inf
ROOT
ATOM      1  C   UNL     1      21.164  50.178  47.212  1.00  0.00     0.065 A 
ATOM      2  C   UNL     1      21.145  50.192  45.812  1.00  0.00     0.208 A 
ATOM      3  O   UNL     1      20.293  49.432  45.135  1.00  0.00    -0.463 OA
ATOM      4  C   UNL     1      19.414  48.617  45.717  1.00  0.00     0.147 A 
ATOM      5  C   UNL     1      19.364  48.548  47.130  1.00  0.00     0.066 A 
ATOM      6  C   UNL     1      20.260  49.332  47.879  1.00  0.00     0.200 A 
ATOM      7  O   UNL     1      20.265  49.265  49.140  1.00  0.00    -0.288 OA
ATOM      8  C   UNL     1      18.429  47.710  47.747  1.00  0.00     0.020 A 
ATOM      9  C   UNL     1      17.537  46.973  46.978  1.00  0.00     0.047 A 
ATOM     10  C   UNL     1      17.568  47.038  45.579  1.00  0.00     0.125 A 
ATOM     11  C   UNL     1      18.538  47.834  44.919  1.00  0.00     0.069 A 
ENDROOT
BRANCH   1  12
ATOM     12  C   UNL     1      22.123  51.041  47.949  1.00  0.00    -0.011 A 
ATOM     13  C   UNL     1      21.666  52.114  48.734  1.00  0.00     0.013 A 
ATOM     14  C   UNL     1      22.574  52.928  49.417  1.00  0.00     0.047 A 
ATOM     15  C   UNL     1      23.950  52.684  49.321  1.00  0.00     0.115 A 
ATOM     16  C   UNL     1      23.506  50.807  47.851  1.00  0.00     0.013 A 
ATOM     17  C   UNL     1      24.412  51.623  48.536  1.00  0.00     0.047 A 
BRANCH  15  18
ATOM     18  O   UNL     1      24.864  53.487  49.998  1.00  0.00    -0.508 OA
ATOM     19  H   UNL     1      25.853  53.464  49.779  1.00  0.00     0.293 HD
ENDBRANCH  15  18
ENDBRANCH   1  12
BRANCH  11  20
ATOM     20  C   UNL     1      18.631  47.977  43.388  1.00  0.00     0.188 C 
ATOM     21  C   UNL     1      18.717  46.700  42.471  1.00  0.00     0.179 C 
ATOM     22  O   UNL     1      17.744  48.981  42.924  1.00  0.00    -0.362 OA
ATOM     23  C   UNL     1      17.426  46.332  41.686  1.00  0.00     0.177 C 
ATOM     24  C   UNL     1      16.471  48.453  42.616  1.00  0.00     0.176 C 
ATOM     25  C   UNL     1      16.578  47.571  41.361  1.00  0.00     0.177 C 
BRANCH  21  26
ATOM     26  O   UNL     1      19.201  45.585  43.176  1.00  0.00    -0.387 OA
ATOM     27  H   UNL     1      20.124  45.417  42.850  1.00  0.00     0.211 HD
ENDBRANCH  21  26
BRANCH  23  28
ATOM     28  O   UNL     1      16.657  45.390  42.387  1.00  0.00    -0.387 OA
ATOM     29  H   UNL     1      16.556  44.597  41.798  1.00  0.00     0.211 HD
ENDBRANCH  23  28
BRANCH  24  30
ATOM     30  C   UNL     1      15.493  49.616  42.398  1.00  0.00     0.191 C 
BRANCH  30  31
ATOM     31  O   UNL     1      14.665  49.357  41.297  1.00  0.00    -0.394 OA
ATOM     32  H   UNL     1      13.739  49.575  41.581  1.00  0.00     0.210 HD
ENDBRANCH  30  31
ENDBRANCH  24  30
BRANCH  25  33
ATOM     33  O   UNL     1      17.189  48.284  40.313  1.00  0.00    -0.388 OA
ATOM     34  H   UNL     1      17.012  49.248  40.472  1.00  0.00     0.211 HD
ENDBRANCH  25  33
ENDBRANCH  11  20
BRANCH  10  35
ATOM     35  O   UNL     1      16.625  46.313  44.864  1.00  0.00    -0.507 OA
ATOM     36  H   UNL     1      16.338  45.383  45.146  1.00  0.00     0.293 HD
ENDBRANCH  10  35
TORSDOF 9
ENDMDL
MODEL 2
REMARK VINA RESULT:    -7.436      2.141      3.997
REMARK INTER + INTRA:         -10.791
REMARK INTER:                 -10.098
REMARK INTRA:                  -0.693
REMARK UNBOUND:                -0.747
REMARK SMILES O=c1c(-c2ccc(O)cc2)coc2c([C@@H]3O[C@@H](CO)[C@@H](O)[C@H](O)[C@@H]3O)c(O)ccc12
REMARK SMILES IDX 3 1 11 2 12 3 13 4 30 5 2 6 1 7 29 8 28 9 26 10 14 11 4 12
REMARK SMILES IDX 5 13 6 14 7 15 10 16 9 17 8 18 15 20 24 21 16 22 22 23 17 24
REMARK SMILES IDX 20 25 25 26 23 28 18 30 19 31 21 33 27 35
REMARK H PARENT 8 19 25 27 23 29 19 32 21 34 27 36
REMARK Flexibility Score: inf
ROOT
ATOM      1  C   UNL     1      19.914  49.162  44.707  1.00  0.00     0.065 A 
ATOM      2  C   UNL     1      19.951  47.860  44.192  1.00  0.00     0.208 A 
ATOM      3  O   UNL     1      19.006  47.427  43.366  1.00  0.00    -0.463 OA
ATOM      4  C   UNL     1      17.976  48.175  42.974  1.00  0.00     0.147 A 
ATOM      5  C   UNL     1      17.867  49.505  43.443  1.00  0.00     0.066 A 
ATOM      6  C   UNL     1      18.846  49.994  44.329  1.00  0.00     0.200 A 
ATOM      7  O   UNL     1      18.757  51.164  44.794  1.00  0.00    -0.288 OA
ATOM      8  C   UNL     1      16.799  50.303  43.017  1.00  0.00     0.020 A 
ATOM      9  C   UNL     1      15.868  49.800  42.117  1.00  0.00     0.047 A 
ATOM     10  C   UNL     1      15.968  48.487  41.636  1.00  0.00     0.125 A 
ATOM     11  C   UNL     1      17.005  47.634  42.089  1.00  0.00     0.069 A 
ENDROOT
BRANCH   1  12
ATOM     12  C   UNL     1      20.985  49.626  45.626  1.00  0.00    -0.011 A 
ATOM     13  C   UNL     1      20.688  49.982  46.953  1.00  0.00     0.013 A 
ATOM     14  C   UNL     1      21.700  50.428  47.809  1.00  0.00     0.047 A 
ATOM     15  C   UNL     1      23.019  50.526  47.349  1.00  0.00     0.115 A 
ATOM     16  C   UNL     1      22.311  49.735  45.169  1.00  0.00     0.013 A 
ATOM     17  C   UNL     1      23.320  50.180  46.028  1.00  0.00     0.047 A 
BRANCH  15  18
ATOM     18  O   UNL     1      24.035  50.968  48.193  1.00  0.00    -0.508 OA
ATOM     19  H   UNL     1      24.814  50.369  48.441  1.00  0.00     0.293 HD
ENDBRANCH  15  18
ENDBRANCH   1  12
BRANCH  11  20
ATOM     20  C   UNL     1      17.199  46.187  41.598  1.00  0.00     0.188 C 
ATOM     21  C   UNL     1      16.001  45.165  41.632  1.00  0.00     0.179 C 
ATOM     22  O   UNL     1      17.967  46.161  40.406  1.00  0.00    -0.362 OA
ATOM     23  C   UNL     1      15.347  44.831  40.261  1.00  0.00     0.177 C 
ATOM     24  C   UNL     1      17.152  46.249  39.257  1.00  0.00     0.176 C 
ATOM     25  C   UNL     1      16.348  44.946  39.103  1.00  0.00     0.177 C 
BRANCH  21  26
ATOM     26  O   UNL     1      15.023  45.543  42.567  1.00  0.00    -0.387 OA
ATOM     27  H   UNL     1      14.147  45.248  42.203  1.00  0.00     0.211 HD
ENDBRANCH  21  26
BRANCH  23  28
ATOM     28  O   UNL     1      14.231  45.648  40.019  1.00  0.00    -0.387 OA
ATOM     29  H   UNL     1      14.571  46.561  39.827  1.00  0.00     0.211 HD
ENDBRANCH  23  28
BRANCH  24  30
ATOM     30  C   UNL     1      18.046  46.500  38.034  1.00  0.00     0.191 C 
BRANCH  30  31
ATOM     31  O   UNL     1      19.238  45.771  38.144  1.00  0.00    -0.394 OA
ATOM     32  H   UNL     1      19.915  46.388  38.528  1.00  0.00     0.210 HD
ENDBRANCH  30  31
ENDBRANCH  24  30
BRANCH  25  33
ATOM     33  O   UNL     1      17.211  43.835  39.129  1.00  0.00    -0.388 OA
ATOM     34  H   UNL     1      16.662  43.044  39.373  1.00  0.00     0.211 HD
ENDBRANCH  25  33
ENDBRANCH  11  20
BRANCH  10  35
ATOM     35  O   UNL     1      15.034  48.054  40.706  1.00  0.00    -0.507 OA
ATOM     36  H   UNL     1      14.395  48.695  40.248  1.00  0.00     0.293 HD
ENDBRANCH  10  35
TORSDOF 9
ENDMDL
MODEL 3
REMARK VINA RESULT:    -6.694      2.459      8.850
REMARK INTER + INTRA:          -9.790
REMARK INTER:                  -9.040
REMARK INTRA:                  -0.750
REMARK UNBOUND:                -0.747
REMARK SMILES O=c1c(-c2ccc(O)cc2)coc2c([C@@H]3O[C@@H](CO)[C@@H](O)[C@H](O)[C@@H]3O)c(O)ccc12
REMARK SMILES IDX 3 1 11 2 12 3 13 4 30 5 2 6 1 7 29 8 28 9 26 10 14 11 4 12
REMARK SMILES IDX 5 13 6 14 7 15 10 16 9 17 8 18 15 20 24 21 16 22 22 23 17 24
REMARK SMILES IDX 20 25 25 26 23 28 18 30 19 31 21 33 27 35
REMARK H PARENT 8 19 25 27 23 29 19 32 21 34 27 36
REMARK Flexibility Score: inf
ROOT
ATOM      1  C   UNL     1      17.364  46.829  41.011  1.00  0.00     0.065 A 
ATOM      2  C   UNL     1      18.321  46.488  41.975  1.00  0.00     0.208 A 
ATOM      3  O   UNL     1      18.432  47.184  43.100  1.00  0.00    -0.463 OA
ATOM      4  C   UNL     1      17.664  48.231  43.393  1.00  0.00     0.147 A 
ATOM      5  C   UNL     1      16.667  48.638  42.475  1.00  0.00     0.066 A 
ATOM      6  C   UNL     1      16.529  47.930  41.267  1.00  0.00     0.200 A 
ATOM      7  O   UNL     1      15.673  48.291  40.411  1.00  0.00    -0.288 OA
ATOM      8  C   UNL     1      15.842  49.725  42.787  1.00  0.00     0.020 A 
ATOM      9  C   UNL     1      15.984  50.383  44.003  1.00  0.00     0.047 A 
ATOM     10  C   UNL     1      16.961  49.986  44.926  1.00  0.00     0.125 A 
ATOM     11  C   UNL     1      17.849  48.925  44.620  1.00  0.00     0.069 A 
ENDROOT
BRANCH   1  12
ATOM     12  C   UNL     1      17.255  46.033  39.762  1.00  0.00    -0.011 A 
ATOM     13  C   UNL     1      17.976  46.399  38.611  1.00  0.00     0.013 A 
ATOM     14  C   UNL     1      17.861  45.651  37.436  1.00  0.00     0.047 A 
ATOM     15  C   UNL     1      17.022  44.530  37.393  1.00  0.00     0.115 A 
ATOM     16  C   UNL     1      16.409  44.911  39.708  1.00  0.00     0.013 A 
ATOM     17  C   UNL     1      16.296  44.164  38.532  1.00  0.00     0.047 A 
BRANCH  15  18
ATOM     18  O   UNL     1      16.900  43.777  36.229  1.00  0.00    -0.508 OA
ATOM     19  H   UNL     1      16.215  43.035  36.148  1.00  0.00     0.293 HD
ENDBRANCH  15  18
ENDBRANCH   1  12
BRANCH  11  20
ATOM     20  C   UNL     1      18.936  48.412  45.583  1.00  0.00     0.188 C 
ATOM     21  C   UNL     1      20.229  49.270  45.856  1.00  0.00     0.179 C 
ATOM     22  O   UNL     1      18.351  47.838  46.740  1.00  0.00    -0.362 OA
ATOM     23  C   UNL     1      20.295  49.991  47.233  1.00  0.00     0.177 C 
ATOM     24  C   UNL     1      18.156  48.796  47.758  1.00  0.00     0.176 C 
ATOM     25  C   UNL     1      19.522  49.227  48.318  1.00  0.00     0.177 C 
BRANCH  21  26
ATOM     26  O   UNL     1      20.481  50.176  44.812  1.00  0.00    -0.387 OA
ATOM     27  H   UNL     1      19.598  50.512  44.504  1.00  0.00     0.211 HD
ENDBRANCH  21  26
BRANCH  23  28
ATOM     28  O   UNL     1      19.821  51.309  47.139  1.00  0.00    -0.387 OA
ATOM     29  H   UNL     1      19.963  51.606  46.202  1.00  0.00     0.211 HD
ENDBRANCH  23  28
BRANCH  24  30
ATOM     30  C   UNL     1      17.274  48.181  48.853  1.00  0.00     0.191 C 
BRANCH  30  31
ATOM     31  O   UNL     1      17.714  48.587  50.121  1.00  0.00    -0.394 OA
ATOM     32  H   UNL     1      16.944  48.478  50.737  1.00  0.00     0.210 HD
ENDBRANCH  30  31
ENDBRANCH  24  30
BRANCH  25  33
ATOM     33  O   UNL     1      20.269  48.099  48.706  1.00  0.00    -0.388 OA
ATOM     34  H   UNL     1      19.854  47.309  48.270  1.00  0.00     0.211 HD
ENDBRANCH  25  33
ENDBRANCH  11  20
BRANCH  10  35
ATOM     35  O   UNL     1      17.027  50.652  46.142  1.00  0.00    -0.507 OA
ATOM     36  H   UNL     1      16.926  50.166  47.025  1.00  0.00     0.293 HD
ENDBRANCH  10  35
TORSDOF 9
ENDMDL
MODEL 4
REMARK VINA RESULT:    -6.677      2.897      9.091
REMARK INTER + INTRA:          -9.766
REMARK INTER:                  -9.685
REMARK INTRA:                  -0.081
REMARK UNBOUND:                -0.747
REMARK SMILES O=c1c(-c2ccc(O)cc2)coc2c([C@@H]3O[C@@H](CO)[C@@H](O)[C@H](O)[C@@H]3O)c(O)ccc12
REMARK SMILES IDX 3 1 11 2 12 3 13 4 30 5 2 6 1 7 29 8 28 9 26 10 14 11 4 12
REMARK SMILES IDX 5 13 6 14 7 15 10 16 9 17 8 18 15 20 24 21 16 22 22 23 17 24
REMARK SMILES IDX 20 25 25 26 23 28 18 30 19 31 21 33 27 35
REMARK H PARENT 8 19 25 27 23 29 19 32 21 34 27 36
REMARK Flexibility Score: inf
ROOT
ATOM      1  C   UNL     1      16.817  46.104  40.613  1.00  0.00     0.065 A 
ATOM      2  C   UNL     1      16.166  46.846  41.606  1.00  0.00     0.208 A 
ATOM      3  O   UNL     1      16.777  47.141  42.747  1.00  0.00    -0.463 OA
ATOM      4  C   UNL     1      18.023  46.764  43.030  1.00  0.00     0.147 A 
ATOM      5  C   UNL     1      18.754  46.015  42.078  1.00  0.00     0.066 A 
ATOM      6  C   UNL     1      18.133  45.676  40.861  1.00  0.00     0.200 A 
ATOM      7  O   UNL     1      18.746  44.978  40.006  1.00  0.00    -0.288 OA
ATOM      8  C   UNL     1      20.070  45.635  42.361  1.00  0.00     0.020 A 
ATOM      9  C   UNL     1      20.664  46.014  43.559  1.00  0.00     0.047 A 
ATOM     10  C   UNL     1      19.956  46.763  44.508  1.00  0.00     0.125 A 
ATOM     11  C   UNL     1      18.604  47.118  44.278  1.00  0.00     0.069 A 
ENDROOT
BRANCH   1  12
ATOM     12  C   UNL     1      16.115  45.791  39.342  1.00  0.00    -0.011 A 
ATOM     13  C   UNL     1      16.838  45.406  38.199  1.00  0.00     0.013 A 
ATOM     14  C   UNL     1      16.171  45.122  37.003  1.00  0.00     0.047 A 
ATOM     15  C   UNL     1      14.776  45.222  36.933  1.00  0.00     0.115 A 
ATOM     16  C   UNL     1      14.715  45.896  39.261  1.00  0.00     0.013 A 
ATOM     17  C   UNL     1      14.052  45.611  38.064  1.00  0.00     0.047 A 
BRANCH  15  18
ATOM     18  O   UNL     1      14.102  44.940  35.748  1.00  0.00    -0.508 OA
ATOM     19  H   UNL     1      14.575  44.521  34.956  1.00  0.00     0.293 HD
ENDBRANCH  15  18
ENDBRANCH   1  12
BRANCH  11  20
ATOM     20  C   UNL     1      17.759  47.955  45.257  1.00  0.00     0.188 C 
ATOM     21  C   UNL     1      17.312  47.351  46.642  1.00  0.00     0.179 C 
ATOM     22  O   UNL     1      18.237  49.288  45.319  1.00  0.00    -0.362 OA
ATOM     23  C   UNL     1      18.069  47.878  47.895  1.00  0.00     0.177 C 
ATOM     24  C   UNL     1      19.222  49.446  46.317  1.00  0.00     0.176 C 
ATOM     25  C   UNL     1      18.566  49.319  47.703  1.00  0.00     0.177 C 
BRANCH  21  26
ATOM     26  O   UNL     1      17.311  45.947  46.620  1.00  0.00    -0.387 OA
ATOM     27  H   UNL     1      16.449  45.666  46.213  1.00  0.00     0.211 HD
ENDBRANCH  21  26
BRANCH  23  28
ATOM     28  O   UNL     1      19.141  47.037  48.231  1.00  0.00    -0.387 OA
ATOM     29  H   UNL     1      19.496  47.349  49.104  1.00  0.00     0.211 HD
ENDBRANCH  23  28
BRANCH  24  30
ATOM     30  C   UNL     1      19.890  50.817  46.141  1.00  0.00     0.191 C 
BRANCH  30  31
ATOM     31  O   UNL     1      18.973  51.743  45.624  1.00  0.00    -0.394 OA
ATOM     32  H   UNL     1      18.375  52.001  46.374  1.00  0.00     0.210 HD
ENDBRANCH  30  31
ENDBRANCH  24  30
BRANCH  25  33
ATOM     33  O   UNL     1      17.474  50.199  47.808  1.00  0.00    -0.388 OA
ATOM     34  H   UNL     1      16.676  49.721  47.460  1.00  0.00     0.211 HD
ENDBRANCH  25  33
ENDBRANCH  11  20
BRANCH  10  35
ATOM     35  O   UNL     1      20.615  47.149  45.667  1.00  0.00    -0.507 OA
ATOM     36  H   UNL     1      21.194  47.980  45.702  1.00  0.00     0.293 HD
ENDBRANCH  10  35
TORSDOF 9
ENDMDL
MODEL 5
REMARK VINA RESULT:    -6.619      3.156      4.915
REMARK INTER + INTRA:          -9.689
REMARK INTER:                  -8.886
REMARK INTRA:                  -0.803
REMARK UNBOUND:                -0.747
REMARK SMILES O=c1c(-c2ccc(O)cc2)coc2c([C@@H]3O[C@@H](CO)[C@@H](O)[C@H](O)[C@@H]3O)c(O)ccc12
REMARK SMILES IDX 3 1 11 2 12 3 13 4 30 5 2 6 1 7 29 8 28 9 26 10 14 11 4 12
REMARK SMILES IDX 5 13 6 14 7 15 10 16 9 17 8 18 15 20 24 21 16 22 22 23 17 24
REMARK SMILES IDX 20 25 25 26 23 28 18 30 19 31 21 33 27 35
REMARK H PARENT 8 19 25 27 23 29 19 32 21 34 27 36
REMARK Flexibility Score: inf
ROOT
ATOM      1  C   UNL     1      19.024  49.673  46.527  1.00  0.00     0.065 A 
ATOM      2  C   UNL     1      18.391  48.606  47.176  1.00  0.00     0.208 A 
ATOM      3  O   UNL     1      17.167  48.226  46.828  1.00  0.00    -0.463 OA
ATOM      4  C   UNL     1      16.464  48.814  45.862  1.00  0.00     0.147 A 
ATOM      5  C   UNL     1      17.033  49.898  45.152  1.00  0.00     0.066 A 
ATOM      6  C   UNL     1      18.325  50.333  45.501  1.00  0.00     0.200 A 
ATOM      7  O   UNL     1      18.846  51.321  44.912  1.00  0.00    -0.288 OA
ATOM      8  C   UNL     1      16.308  50.505  44.121  1.00  0.00     0.020 A 
ATOM      9  C   UNL     1      15.047  50.029  43.779  1.00  0.00     0.047 A 
ATOM     10  C   UNL     1      14.475  48.952  44.468  1.00  0.00     0.125 A 
ATOM     11  C   UNL     1      15.158  48.348  45.552  1.00  0.00     0.069 A 
ENDROOT
BRANCH   1  12
ATOM     12  C   UNL     1      20.395  50.077  46.930  1.00  0.00    -0.011 A 
ATOM     13  C   UNL     1      21.504  49.747  46.132  1.00  0.00     0.013 A 
ATOM     14  C   UNL     1      22.793  50.122  46.522  1.00  0.00     0.047 A 
ATOM     15  C   UNL     1      22.991  50.828  47.716  1.00  0.00     0.115 A 
ATOM     16  C   UNL     1      20.602  50.779  48.131  1.00  0.00     0.013 A 
ATOM     17  C   UNL     1      21.893  51.153  48.519  1.00  0.00     0.047 A 
BRANCH  15  18
ATOM     18  O   UNL     1      24.270  51.208  48.114  1.00  0.00    -0.508 OA
ATOM     19  H   UNL     1      24.971  51.493  47.441  1.00  0.00     0.293 HD
ENDBRANCH  15  18
ENDBRANCH   1  12
BRANCH  11  20
ATOM     20  C   UNL     1      14.610  47.149  46.349  1.00  0.00     0.188 C 
ATOM     21  C   UNL     1      13.290  47.290  47.197  1.00  0.00     0.179 C 
ATOM     22  O   UNL     1      14.700  45.957  45.587  1.00  0.00    -0.362 OA
ATOM     23  C   UNL     1      12.019  46.618  46.603  1.00  0.00     0.177 C 
ATOM     24  C   UNL     1      13.539  45.742  44.813  1.00  0.00     0.176 C 
ATOM     25  C   UNL     1      12.366  45.392  45.745  1.00  0.00     0.177 C 
BRANCH  21  26
ATOM     26  O   UNL     1      13.029  48.629  47.532  1.00  0.00    -0.387 OA
ATOM     27  H   UNL     1      12.080  48.673  47.823  1.00  0.00     0.211 HD
ENDBRANCH  21  26
BRANCH  23  28
ATOM     28  O   UNL     1      11.263  47.533  45.854  1.00  0.00    -0.387 OA
ATOM     29  H   UNL     1      11.080  47.113  44.974  1.00  0.00     0.211 HD
ENDBRANCH  23  28
BRANCH  24  30
ATOM     30  C   UNL     1      13.813  44.610  43.814  1.00  0.00     0.191 C 
BRANCH  30  31
ATOM     31  O   UNL     1      14.546  43.584  44.427  1.00  0.00    -0.394 OA
ATOM     32  H   UNL     1      14.917  43.024  43.696  1.00  0.00     0.210 HD
ENDBRANCH  30  31
ENDBRANCH  24  30
BRANCH  25  33
ATOM     33  O   UNL     1      12.716  44.324  46.591  1.00  0.00    -0.388 OA
ATOM     34  H   UNL     1      13.562  44.576  47.046  1.00  0.00     0.211 HD
ENDBRANCH  25  33
ENDBRANCH  11  20
BRANCH  10  35
ATOM     35  O   UNL     1      13.232  48.492  44.054  1.00  0.00    -0.507 OA
ATOM     36  H   UNL     1      12.567  49.095  43.583  1.00  0.00     0.293 HD
ENDBRANCH  10  35
TORSDOF 9
ENDMDL
MODEL 6
REMARK VINA RESULT:    -6.609      2.064      3.130
REMARK INTER + INTRA:          -9.674
REMARK INTER:                  -9.047
REMARK INTRA:                  -0.627
REMARK UNBOUND:                -0.747
REMARK SMILES O=c1c(-c2ccc(O)cc2)coc2c([C@@H]3O[C@@H](CO)[C@@H](O)[C@H](O)[C@@H]3O)c(O)ccc12
REMARK SMILES IDX 3 1 11 2 12 3 13 4 30 5 2 6 1 7 29 8 28 9 26 10 14 11 4 12
REMARK SMILES IDX 5 13 6 14 7 15 10 16 9 17 8 18 15 20 24 21 16 22 22 23 17 24
REMARK SMILES IDX 20 25 25 26 23 28 18 30 19 31 21 33 27 35
REMARK H PARENT 8 19 25 27 23 29 19 32 21 34 27 36
REMARK Flexibility Score: inf
ROOT
ATOM      1  C   UNL     1      20.935  49.897  46.276  1.00  0.00     0.065 A 
ATOM      2  C   UNL     1      19.729  50.595  46.132  1.00  0.00     0.208 A 
ATOM      3  O   UNL     1      18.825  50.214  45.237  1.00  0.00    -0.463 OA
ATOM      4  C   UNL     1      18.989  49.168  44.429  1.00  0.00     0.147 A 
ATOM      5  C   UNL     1      20.177  48.405  44.514  1.00  0.00     0.066 A 
ATOM      6  C   UNL     1      21.162  48.787  45.444  1.00  0.00     0.200 A 
ATOM      7  O   UNL     1      22.249  48.149  45.519  1.00  0.00    -0.288 OA
ATOM      8  C   UNL     1      20.346  47.293  43.682  1.00  0.00     0.020 A 
ATOM      9  C   UNL     1      19.339  46.924  42.797  1.00  0.00     0.047 A 
ATOM     10  C   UNL     1      18.153  47.665  42.707  1.00  0.00     0.125 A 
ATOM     11  C   UNL     1      17.972  48.828  43.496  1.00  0.00     0.069 A 
ENDROOT
BRANCH   1  12
ATOM     12  C   UNL     1      21.930  50.338  47.287  1.00  0.00    -0.011 A 
ATOM     13  C   UNL     1      21.631  50.284  48.660  1.00  0.00     0.013 A 
ATOM     14  C   UNL     1      22.568  50.710  49.605  1.00  0.00     0.047 A 
ATOM     15  C   UNL     1      23.814  51.199  49.192  1.00  0.00     0.115 A 
ATOM     16  C   UNL     1      23.180  50.838  46.880  1.00  0.00     0.013 A 
ATOM     17  C   UNL     1      24.115  51.262  47.828  1.00  0.00     0.047 A 
BRANCH  15  18
ATOM     18  O   UNL     1      24.756  51.625  50.125  1.00  0.00    -0.508 OA
ATOM     19  H   UNL     1      25.331  52.443  49.961  1.00  0.00     0.293 HD
ENDBRANCH  15  18
ENDBRANCH   1  12
BRANCH  11  20
ATOM     20  C   UNL     1      16.694  49.688  43.473  1.00  0.00     0.188 C 
ATOM     21  C   UNL     1      16.033  50.100  42.104  1.00  0.00     0.179 C 
ATOM     22  O   UNL     1      15.780  49.252  44.465  1.00  0.00    -0.362 OA
ATOM     23  C   UNL     1      14.728  49.346  41.720  1.00  0.00     0.177 C 
ATOM     24  C   UNL     1      14.904  48.261  43.971  1.00  0.00     0.176 C 
ATOM     25  C   UNL     1      13.938  48.897  42.958  1.00  0.00     0.177 C 
BRANCH  21  26
ATOM     26  O   UNL     1      16.958  50.056  41.047  1.00  0.00    -0.387 OA
ATOM     27  H   UNL     1      17.824  50.379  41.410  1.00  0.00     0.211 HD
ENDBRANCH  21  26
BRANCH  23  28
ATOM     28  O   UNL     1      15.002  48.244  40.895  1.00  0.00    -0.387 OA
ATOM     29  H   UNL     1      14.407  47.504  41.186  1.00  0.00     0.211 HD
ENDBRANCH  23  28
BRANCH  24  30
ATOM     30  C   UNL     1      14.145  47.640  45.151  1.00  0.00     0.191 C 
BRANCH  30  31
ATOM     31  O   UNL     1      13.779  48.631  46.073  1.00  0.00    -0.394 OA
ATOM     32  H   UNL     1      13.967  48.263  46.976  1.00  0.00     0.210 HD
ENDBRANCH  30  31
ENDBRANCH  24  30
BRANCH  25  33
ATOM     33  O   UNL     1      13.300  50.015  43.526  1.00  0.00    -0.388 OA
ATOM     34  H   UNL     1      12.501  50.211  42.971  1.00  0.00     0.211 HD
ENDBRANCH  25  33
ENDBRANCH  11  20
BRANCH  10  35
ATOM     35  O   UNL     1      17.166  47.224  41.837  1.00  0.00    -0.507 OA
ATOM     36  H   UNL     1      17.043  46.242  41.619  1.00  0.00     0.293 HD
ENDBRANCH  10  35
TORSDOF 9
ENDMDL
MODEL 7
REMARK VINA RESULT:    -6.381      4.143      8.146
REMARK INTER + INTRA:          -9.367
REMARK INTER:                  -8.697
REMARK INTRA:                  -0.670
REMARK UNBOUND:                -0.747
REMARK SMILES O=c1c(-c2ccc(O)cc2)coc2c([C@@H]3O[C@@H](CO)[C@@H](O)[C@H](O)[C@@H]3O)c(O)ccc12
REMARK SMILES IDX 3 1 11 2 12 3 13 4 30 5 2 6 1 7 29 8 28 9 26 10 14 11 4 12
REMARK SMILES IDX 5 13 6 14 7 15 10 16 9 17 8 18 15 20 24 21 16 22 22 23 17 24
REMARK SMILES IDX 20 25 25 26 23 28 18 30 19 31 21 33 27 35
REMARK H PARENT 8 19 25 27 23 29 19 32 21 34 27 36
REMARK Flexibility Score: inf
ROOT
ATOM      1  C   UNL     1      13.706  48.129  47.412  1.00  0.00     0.065 A 
ATOM      2  C   UNL     1      14.326  48.136  46.157  1.00  0.00     0.208 A 
ATOM      3  O   UNL     1      15.590  48.520  46.023  1.00  0.00    -0.463 OA
ATOM      4  C   UNL     1      16.346  48.919  47.044  1.00  0.00     0.147 A 
ATOM      5  C   UNL     1      15.798  48.937  48.348  1.00  0.00     0.066 A 
ATOM      6  C   UNL     1      14.458  48.546  48.525  1.00  0.00     0.200 A 
ATOM      7  O   UNL     1      13.928  48.586  49.670  1.00  0.00    -0.288 OA
ATOM      8  C   UNL     1      16.594  49.335  49.428  1.00  0.00     0.020 A 
ATOM      9  C   UNL     1      17.924  49.684  49.223  1.00  0.00     0.047 A 
ATOM     10  C   UNL     1      18.484  49.663  47.939  1.00  0.00     0.125 A 
ATOM     11  C   UNL     1      17.691  49.318  46.816  1.00  0.00     0.069 A 
ENDROOT
BRANCH   1  12
ATOM     12  C   UNL     1      12.292  47.691  47.538  1.00  0.00    -0.011 A 
ATOM     13  C   UNL     1      11.238  48.595  47.320  1.00  0.00     0.013 A 
ATOM     14  C   UNL     1       9.910  48.177  47.450  1.00  0.00     0.047 A 
ATOM     15  C   UNL     1       9.619  46.853  47.803  1.00  0.00     0.115 A 
ATOM     16  C   UNL     1      11.992  46.365  47.899  1.00  0.00     0.013 A 
ATOM     17  C   UNL     1      10.663  45.950  48.028  1.00  0.00     0.047 A 
BRANCH  15  18
ATOM     18  O   UNL     1       8.300  46.425  47.934  1.00  0.00    -0.508 OA
ATOM     19  H   UNL     1       7.544  46.879  47.434  1.00  0.00     0.293 HD
ENDBRANCH  15  18
ENDBRANCH   1  12
BRANCH  11  20
ATOM     20  C   UNL     1      18.230  49.251  45.374  1.00  0.00     0.188 C 
ATOM     21  C   UNL     1      19.220  50.355  44.840  1.00  0.00     0.179 C 
ATOM     22  O   UNL     1      18.586  47.922  45.034  1.00  0.00    -0.362 OA
ATOM     23  C   UNL     1      20.710  49.930  44.704  1.00  0.00     0.177 C 
ATOM     24  C   UNL     1      19.931  47.640  45.357  1.00  0.00     0.176 C 
ATOM     25  C   UNL     1      20.856  48.429  44.414  1.00  0.00     0.177 C 
BRANCH  21  26
ATOM     26  O   UNL     1      19.111  51.548  45.573  1.00  0.00    -0.387 OA
ATOM     27  H   UNL     1      19.014  52.283  44.913  1.00  0.00     0.211 HD
ENDBRANCH  21  26
BRANCH  23  28
ATOM     28  O   UNL     1      21.443  50.275  45.850  1.00  0.00    -0.387 OA
ATOM     29  H   UNL     1      21.358  51.257  45.968  1.00  0.00     0.211 HD
ENDBRANCH  23  28
BRANCH  24  30
ATOM     30  C   UNL     1      20.164  46.128  45.230  1.00  0.00     0.191 C 
BRANCH  30  31
ATOM     31  O   UNL     1      19.724  45.670  43.981  1.00  0.00    -0.394 OA
ATOM     32  H   UNL     1      19.067  44.946  44.159  1.00  0.00     0.210 HD
ENDBRANCH  30  31
ENDBRANCH  24  30
BRANCH  25  33
ATOM     33  O   UNL     1      20.509  48.184  43.073  1.00  0.00    -0.388 OA
ATOM     34  H   UNL     1      20.529  49.057  42.601  1.00  0.00     0.211 HD
ENDBRANCH  25  33
ENDBRANCH  11  20
BRANCH  10  35
ATOM     35  O   UNL     1      19.828  49.980  47.801  1.00  0.00    -0.507 OA
ATOM     36  H   UNL     1      20.557  49.425  48.234  1.00  0.00     0.293 HD
ENDBRANCH  10  35
TORSDOF 9
ENDMDL
MODEL 8
REMARK VINA RESULT:    -6.264      2.554      3.059
REMARK INTER + INTRA:          -9.208
REMARK INTER:                  -8.665
REMARK INTRA:                  -0.543
REMARK UNBOUND:                -0.747
REMARK SMILES O=c1c(-c2ccc(O)cc2)coc2c([C@@H]3O[C@@H](CO)[C@@H](O)[C@H](O)[C@@H]3O)c(O)ccc12
REMARK SMILES IDX 3 1 11 2 12 3 13 4 30 5 2 6 1 7 29 8 28 9 26 10 14 11 4 12
REMARK SMILES IDX 5 13 6 14 7 15 10 16 9 17 8 18 15 20 24 21 16 22 22 23 17 24
REMARK SMILES IDX 20 25 25 26 23 28 18 30 19 31 21 33 27 35
REMARK H PARENT 8 19 25 27 23 29 19 32 21 34 27 36
REMARK Flexibility Score: inf
ROOT
ATOM      1  C   UNL     1      19.703  50.485  47.938  1.00  0.00     0.065 A 
ATOM      2  C   UNL     1      19.445  49.890  46.696  1.00  0.00     0.208 A 
ATOM      3  O   UNL     1      18.298  49.263  46.466  1.00  0.00    -0.463 OA
ATOM      4  C   UNL     1      17.328  49.152  47.373  1.00  0.00     0.147 A 
ATOM      5  C   UNL     1      17.506  49.731  48.652  1.00  0.00     0.066 A 
ATOM      6  C   UNL     1      18.714  50.394  48.934  1.00  0.00     0.200 A 
ATOM      7  O   UNL     1      18.918  50.889  50.077  1.00  0.00    -0.288 OA
ATOM      8  C   UNL     1      16.482  49.636  49.601  1.00  0.00     0.020 A 
ATOM      9  C   UNL     1      15.288  49.002  49.279  1.00  0.00     0.047 A 
ATOM     10  C   UNL     1      15.094  48.432  48.014  1.00  0.00     0.125 A 
ATOM     11  C   UNL     1      16.130  48.461  47.048  1.00  0.00     0.069 A 
ENDROOT
BRANCH   1  12
ATOM     12  C   UNL     1      20.991  51.186  48.170  1.00  0.00    -0.011 A 
ATOM     13  C   UNL     1      21.014  52.542  48.540  1.00  0.00     0.013 A 
ATOM     14  C   UNL     1      22.231  53.198  48.747  1.00  0.00     0.047 A 
ATOM     15  C   UNL     1      23.440  52.509  48.586  1.00  0.00     0.115 A 
ATOM     16  C   UNL     1      22.209  50.503  48.002  1.00  0.00     0.013 A 
ATOM     17  C   UNL     1      23.424  51.162  48.211  1.00  0.00     0.047 A 
BRANCH  15  18
ATOM     18  O   UNL     1      24.658  53.152  48.791  1.00  0.00    -0.508 OA
ATOM     19  H   UNL     1      24.714  54.158  48.895  1.00  0.00     0.293 HD
ENDBRANCH  15  18
ENDBRANCH   1  12
BRANCH  11  20
ATOM     20  C   UNL     1      15.995  47.876  45.629  1.00  0.00     0.188 C 
ATOM     21  C   UNL     1      15.920  46.318  45.412  1.00  0.00     0.179 C 
ATOM     22  O   UNL     1      15.065  48.626  44.864  1.00  0.00    -0.362 OA
ATOM     23  C   UNL     1      14.519  45.742  45.058  1.00  0.00     0.177 C 
ATOM     24  C   UNL     1      13.752  48.126  45.000  1.00  0.00     0.176 C 
ATOM     25  C   UNL     1      13.654  46.760  44.300  1.00  0.00     0.177 C 
BRANCH  21  26
ATOM     26  O   UNL     1      16.484  45.616  46.490  1.00  0.00    -0.387 OA
ATOM     27  H   UNL     1      16.144  46.042  47.320  1.00  0.00     0.211 HD
ENDBRANCH  21  26
BRANCH  23  28
ATOM     28  O   UNL     1      13.848  45.297  46.207  1.00  0.00    -0.387 OA
ATOM     29  H   UNL     1      13.238  46.027  46.492  1.00  0.00     0.211 HD
ENDBRANCH  23  28
BRANCH  24  30
ATOM     30  C   UNL     1      12.773  49.137  44.387  1.00  0.00     0.191 C 
BRANCH  30  31
ATOM     31  O   UNL     1      13.120  49.409  43.057  1.00  0.00    -0.394 OA
ATOM     32  H   UNL     1      13.698  50.217  43.074  1.00  0.00     0.210 HD
ENDBRANCH  30  31
ENDBRANCH  24  30
BRANCH  25  33
ATOM     33  O   UNL     1      14.113  46.857  42.974  1.00  0.00    -0.388 OA
ATOM     34  H   UNL     1      13.476  46.350  42.405  1.00  0.00     0.211 HD
ENDBRANCH  25  33
ENDBRANCH  11  20
BRANCH  10  35
ATOM     35  O   UNL     1      13.866  47.849  47.736  1.00  0.00    -0.507 OA
ATOM     36  H   UNL     1      13.004  48.194  48.144  1.00  0.00     0.293 HD
ENDBRANCH  10  35
TORSDOF 9
ENDMDL
MODEL 9
REMARK VINA RESULT:    -6.154      4.676      6.522
REMARK INTER + INTRA:          -9.060
REMARK INTER:                  -8.282
REMARK INTRA:                  -0.778
REMARK UNBOUND:                -0.747
REMARK SMILES O=c1c(-c2ccc(O)cc2)coc2c([C@@H]3O[C@@H](CO)[C@@H](O)[C@H](O)[C@@H]3O)c(O)ccc12
REMARK SMILES IDX 3 1 11 2 12 3 13 4 30 5 2 6 1 7 29 8 28 9 26 10 14 11 4 12
REMARK SMILES IDX 5 13 6 14 7 15 10 16 9 17 8 18 15 20 24 21 16 22 22 23 17 24
REMARK SMILES IDX 20 25 25 26 23 28 18 30 19 31 21 33 27 35
REMARK H PARENT 8 19 25 27 23 29 19 32 21 34 27 36
REMARK Flexibility Score: inf
ROOT
ATOM      1  C   UNL     1      17.366  48.520  45.775  1.00  0.00     0.065 A 
ATOM      2  C   UNL     1      16.257  48.175  44.991  1.00  0.00     0.208 A 
ATOM      3  O   UNL     1      15.054  48.039  45.535  1.00  0.00    -0.463 OA
ATOM      4  C   UNL     1      14.812  48.214  46.833  1.00  0.00     0.147 A 
ATOM      5  C   UNL     1      15.877  48.569  47.695  1.00  0.00     0.066 A 
ATOM      6  C   UNL     1      17.168  48.712  47.154  1.00  0.00     0.200 A 
ATOM      7  O   UNL     1      18.145  48.992  47.903  1.00  0.00    -0.288 OA
ATOM      8  C   UNL     1      15.625  48.775  49.056  1.00  0.00     0.020 A 
ATOM      9  C   UNL     1      14.332  48.658  49.552  1.00  0.00     0.047 A 
ATOM     10  C   UNL     1      13.266  48.315  48.710  1.00  0.00     0.125 A 
ATOM     11  C   UNL     1      13.494  48.046  47.337  1.00  0.00     0.069 A 
ENDROOT
BRANCH   1  12
ATOM     12  C   UNL     1      18.701  48.671  45.144  1.00  0.00    -0.011 A 
ATOM     13  C   UNL     1      19.558  47.566  45.002  1.00  0.00     0.013 A 
ATOM     14  C   UNL     1      20.818  47.718  44.415  1.00  0.00     0.047 A 
ATOM     15  C   UNL     1      21.239  48.976  43.967  1.00  0.00     0.115 A 
ATOM     16  C   UNL     1      19.135  49.933  44.699  1.00  0.00     0.013 A 
ATOM     17  C   UNL     1      20.395  50.082  44.112  1.00  0.00     0.047 A 
BRANCH  15  18
ATOM     18  O   UNL     1      22.492  49.140  43.380  1.00  0.00    -0.508 OA
ATOM     19  H   UNL     1      22.638  48.974  42.391  1.00  0.00     0.293 HD
ENDBRANCH  15  18
ENDBRANCH   1  12
BRANCH  11  20
ATOM     20  C   UNL     1      12.379  47.682  46.339  1.00  0.00     0.188 C 
ATOM     21  C   UNL     1      11.620  46.307  46.456  1.00  0.00     0.179 C 
ATOM     22  O   UNL     1      11.543  48.801  46.091  1.00  0.00    -0.362 OA
ATOM     23  C   UNL     1      10.172  46.370  47.020  1.00  0.00     0.177 C 
ATOM     24  C   UNL     1      10.463  48.858  46.998  1.00  0.00     0.176 C 
ATOM     25  C   UNL     1       9.488  47.707  46.700  1.00  0.00     0.177 C 
BRANCH  21  26
ATOM     26  O   UNL     1      12.380  45.352  47.152  1.00  0.00    -0.387 OA
ATOM     27  H   UNL     1      13.325  45.658  47.121  1.00  0.00     0.211 HD
ENDBRANCH  21  26
BRANCH  23  28
ATOM     28  O   UNL     1      10.156  46.138  48.404  1.00  0.00    -0.387 OA
ATOM     29  H   UNL     1      11.086  46.249  48.732  1.00  0.00     0.211 HD
ENDBRANCH  23  28
BRANCH  24  30
ATOM     30  C   UNL     1       9.774  50.222  46.860  1.00  0.00     0.191 C 
BRANCH  30  31
ATOM     31  O   UNL     1      10.051  50.785  45.607  1.00  0.00    -0.394 OA
ATOM     32  H   UNL     1       9.202  50.767  45.093  1.00  0.00     0.210 HD
ENDBRANCH  30  31
ENDBRANCH  24  30
BRANCH  25  33
ATOM     33  O   UNL     1       9.118  47.720  45.342  1.00  0.00    -0.388 OA
ATOM     34  H   UNL     1       8.354  47.093  45.241  1.00  0.00     0.211 HD
ENDBRANCH  25  33
ENDBRANCH  11  20
BRANCH  10  35
ATOM     35  O   UNL     1      11.990  48.255  49.253  1.00  0.00    -0.507 OA
ATOM     36  H   UNL     1      11.204  48.733  48.828  1.00  0.00     0.293 HD
ENDBRANCH  10  35
TORSDOF 9
ENDMDL
