MODEL 1
REMARK VINA RESULT:    -4.529      0.000      0.000
REMARK INTER + INTRA:          -4.935
REMARK INTER:                  -4.793
REMARK INTRA:                  -0.142
REMARK UNBOUND:                -0.142
REMARK SMILES C=C1CC=C(C(C)C)CC1
REMARK SMILES IDX 5 1 4 2 3 3 2 4 1 5 10 6 9 7 6 8 7 9 8 10
REMARK H PARENT
REMARK Flexibility Score: inf
ROOT
ATOM      1  C   UNL     1     135.450 138.752 127.854  1.00  0.00    -0.071 C 
ATOM      2  C   UNL     1     134.881 138.548 129.061  1.00  0.00    -0.023 C 
ATOM      3  C   UNL     1     135.181 137.311 129.868  1.00  0.00     0.057 C 
ATOM      4  C   UNL     1     135.370 136.109 128.966  1.00  0.00    -0.073 C 
ATOM      5  C   UNL     1     135.121 134.875 129.430  1.00  0.00     0.008 C 
ATOM      6  C   UNL     1     135.872 136.294 127.549  1.00  0.00     0.035 C 
ATOM      7  C   UNL     1     136.415 137.712 127.324  1.00  0.00     0.035 C 
ENDROOT
BRANCH   1   8
ATOM      8  C   UNL     1     135.121 139.979 127.019  1.00  0.00     0.008 C 
ATOM      9  C   UNL     1     134.875 141.205 127.907  1.00  0.00     0.012 C 
ATOM     10  C   UNL     1     136.215 140.259 125.982  1.00  0.00     0.012 C 
ENDBRANCH   1   8
TORSDOF 1
ENDMDL
MODEL 2
REMARK VINA RESULT:    -4.397     12.094     12.917
REMARK INTER + INTRA:          -4.796
REMARK INTER:                  -4.610
REMARK INTRA:                  -0.186
REMARK UNBOUND:                -0.142
REMARK SMILES C=C1CC=C(C(C)C)CC1
REMARK SMILES IDX 5 1 4 2 3 3 2 4 1 5 10 6 9 7 6 8 7 9 8 10
REMARK H PARENT
REMARK Flexibility Score: inf
ROOT
ATOM      1  C   UNL     1     145.980 145.342 132.564  1.00  0.00    -0.071 C 
ATOM      2  C   UNL     1     145.326 144.470 133.362  1.00  0.00    -0.023 C 
ATOM      3  C   UNL     1     144.846 143.141 132.838  1.00  0.00     0.057 C 
ATOM      4  C   UNL     1     144.388 143.258 131.400  1.00  0.00    -0.073 C 
ATOM      5  C   UNL     1     143.474 142.407 130.913  1.00  0.00     0.008 C 
ATOM      6  C   UNL     1     144.988 144.317 130.496  1.00  0.00     0.035 C 
ATOM      7  C   UNL     1     146.236 144.953 131.124  1.00  0.00     0.035 C 
ENDROOT
BRANCH   1   8
ATOM      8  C   UNL     1     146.431 146.700 133.077  1.00  0.00     0.008 C 
ATOM      9  C   UNL     1     146.626 147.692 131.923  1.00  0.00     0.012 C 
ATOM     10  C   UNL     1     145.456 147.254 134.123  1.00  0.00     0.012 C 
ENDBRANCH   1   8
TORSDOF 1
ENDMDL
MODEL 3
REMARK VINA RESULT:    -4.370     12.450     13.879
REMARK INTER + INTRA:          -4.767
REMARK INTER:                  -4.582
REMARK INTRA:                  -0.185
REMARK UNBOUND:                -0.142
REMARK SMILES C=C1CC=C(C(C)C)CC1
REMARK SMILES IDX 5 1 4 2 3 3 2 4 1 5 10 6 9 7 6 8 7 9 8 10
REMARK H PARENT
REMARK Flexibility Score: inf
ROOT
ATOM      1  C   UNL     1     144.774 145.447 132.646  1.00  0.00    -0.071 C 
ATOM      2  C   UNL     1     145.438 146.325 133.430  1.00  0.00    -0.023 C 
ATOM      3  C   UNL     1     145.908 147.652 132.892  1.00  0.00     0.057 C 
ATOM      4  C   UNL     1     146.346 147.527 131.448  1.00  0.00    -0.073 C 
ATOM      5  C   UNL     1     147.252 148.377 130.944  1.00  0.00     0.008 C 
ATOM      6  C   UNL     1     145.736 146.462 130.559  1.00  0.00     0.035 C 
ATOM      7  C   UNL     1     144.497 145.828 131.207  1.00  0.00     0.035 C 
ENDROOT
BRANCH   1   8
ATOM      8  C   UNL     1     144.332 144.091 133.173  1.00  0.00     0.008 C 
ATOM      9  C   UNL     1     144.017 143.126 132.023  1.00  0.00     0.012 C 
ATOM     10  C   UNL     1     145.376 143.495 134.125  1.00  0.00     0.012 C 
ENDBRANCH   1   8
TORSDOF 1
ENDMDL
MODEL 4
REMARK VINA RESULT:    -4.126      0.931      4.342
REMARK INTER + INTRA:          -4.509
REMARK INTER:                  -4.326
REMARK INTRA:                  -0.183
REMARK UNBOUND:                -0.142
REMARK SMILES C=C1CC=C(C(C)C)CC1
REMARK SMILES IDX 5 1 4 2 3 3 2 4 1 5 10 6 9 7 6 8 7 9 8 10
REMARK H PARENT
REMARK Flexibility Score: inf
ROOT
ATOM      1  C   UNL     1     135.947 136.941 128.112  1.00  0.00    -0.071 C 
ATOM      2  C   UNL     1     136.220 137.633 126.985  1.00  0.00    -0.023 C 
ATOM      3  C   UNL     1     136.322 139.137 126.997  1.00  0.00     0.057 C 
ATOM      4  C   UNL     1     135.331 139.740 127.970  1.00  0.00    -0.073 C 
ATOM      5  C   UNL     1     134.875 140.986 127.781  1.00  0.00     0.008 C 
ATOM      6  C   UNL     1     134.879 138.949 129.181  1.00  0.00     0.035 C 
ATOM      7  C   UNL     1     135.756 137.708 129.403  1.00  0.00     0.035 C 
ENDROOT
BRANCH   1   8
ATOM      8  C   UNL     1     135.804 135.428 128.098  1.00  0.00     0.008 C 
ATOM      9  C   UNL     1     135.302 134.905 129.449  1.00  0.00     0.012 C 
ATOM     10  C   UNL     1     134.895 134.964 126.954  1.00  0.00     0.012 C 
ENDBRANCH   1   8
TORSDOF 1
ENDMDL
MODEL 5
REMARK VINA RESULT:    -3.951     12.581     13.651
REMARK INTER + INTRA:          -4.323
REMARK INTER:                  -4.141
REMARK INTRA:                  -0.183
REMARK UNBOUND:                -0.142
REMARK SMILES C=C1CC=C(C(C)C)CC1
REMARK SMILES IDX 5 1 4 2 3 3 2 4 1 5 10 6 9 7 6 8 7 9 8 10
REMARK H PARENT
REMARK Flexibility Score: inf
ROOT
ATOM      1  C   UNL     1     145.369 146.232 132.573  1.00  0.00    -0.071 C 
ATOM      2  C   UNL     1     146.336 145.681 133.338  1.00  0.00    -0.023 C 
ATOM      3  C   UNL     1     147.607 145.150 132.727  1.00  0.00     0.057 C 
ATOM      4  C   UNL     1     147.339 144.526 131.374  1.00  0.00    -0.073 C 
ATOM      5  C   UNL     1     148.148 143.565 130.904  1.00  0.00     0.008 C 
ATOM      6  C   UNL     1     146.177 145.010 130.531  1.00  0.00     0.035 C 
ATOM      7  C   UNL     1     145.592 146.321 131.078  1.00  0.00     0.035 C 
ENDROOT
BRANCH   1   8
ATOM      8  C   UNL     1     144.068 146.734 133.179  1.00  0.00     0.008 C 
ATOM      9  C   UNL     1     143.071 147.145 132.089  1.00  0.00     0.012 C 
ATOM     10  C   UNL     1     143.456 145.694 134.125  1.00  0.00     0.012 C 
ENDBRANCH   1   8
TORSDOF 1
ENDMDL
MODEL 6
REMARK VINA RESULT:    -3.901     12.010     13.222
REMARK INTER + INTRA:          -4.271
REMARK INTER:                  -4.085
REMARK INTRA:                  -0.186
REMARK UNBOUND:                -0.142
REMARK SMILES C=C1CC=C(C(C)C)CC1
REMARK SMILES IDX 5 1 4 2 3 3 2 4 1 5 10 6 9 7 6 8 7 9 8 10
REMARK H PARENT
REMARK Flexibility Score: inf
ROOT
ATOM      1  C   UNL     1     145.470 144.574 132.427  1.00  0.00    -0.071 C 
ATOM      2  C   UNL     1     144.766 145.086 133.460  1.00  0.00    -0.023 C 
ATOM      3  C   UNL     1     143.412 145.712 133.247  1.00  0.00     0.057 C 
ATOM      4  C   UNL     1     143.356 146.446 131.924  1.00  0.00    -0.073 C 
ATOM      5  C   UNL     1     142.508 147.472 131.760  1.00  0.00     0.008 C 
ATOM      6  C   UNL     1     144.233 146.002 130.771  1.00  0.00     0.035 C 
ATOM      7  C   UNL     1     144.865 144.629 131.041  1.00  0.00     0.035 C 
ENDROOT
BRANCH   1   8
ATOM      8  C   UNL     1     146.854 143.976 132.630  1.00  0.00     0.008 C 
ATOM      9  C   UNL     1     147.660 143.989 131.326  1.00  0.00     0.012 C 
ATOM     10  C   UNL     1     147.611 144.692 133.755  1.00  0.00     0.012 C 
ENDBRANCH   1   8
TORSDOF 1
ENDMDL
MODEL 7
REMARK VINA RESULT:    -3.843     11.909     12.947
REMARK INTER + INTRA:          -4.209
REMARK INTER:                  -4.022
REMARK INTRA:                  -0.187
REMARK UNBOUND:                -0.142
REMARK SMILES C=C1CC=C(C(C)C)CC1
REMARK SMILES IDX 5 1 4 2 3 3 2 4 1 5 10 6 9 7 6 8 7 9 8 10
REMARK H PARENT
REMARK Flexibility Score: inf
ROOT
ATOM      1  C   UNL     1     145.049 146.430 131.964  1.00  0.00    -0.071 C 
ATOM      2  C   UNL     1     145.641 145.680 131.010  1.00  0.00    -0.023 C 
ATOM      3  C   UNL     1     144.942 144.488 130.408  1.00  0.00     0.057 C 
ATOM      4  C   UNL     1     144.100 143.774 131.444  1.00  0.00    -0.073 C 
ATOM      5  C   UNL     1     143.834 142.466 131.310  1.00  0.00     0.008 C 
ATOM      6  C   UNL     1     143.527 144.542 132.618  1.00  0.00     0.035 C 
ATOM      7  C   UNL     1     143.653 146.058 132.414  1.00  0.00     0.035 C 
ENDROOT
BRANCH   1   8
ATOM      8  C   UNL     1     145.765 147.610 132.602  1.00  0.00     0.008 C 
ATOM      9  C   UNL     1     145.585 147.611 134.125  1.00  0.00     0.012 C 
ATOM     10  C   UNL     1     147.251 147.634 132.222  1.00  0.00     0.012 C 
ENDBRANCH   1   8
TORSDOF 1
ENDMDL
MODEL 8
REMARK VINA RESULT:    -3.789     12.511     13.805
REMARK INTER + INTRA:          -4.152
REMARK INTER:                  -3.965
REMARK INTRA:                  -0.187
REMARK UNBOUND:                -0.142
REMARK SMILES C=C1CC=C(C(C)C)CC1
REMARK SMILES IDX 5 1 4 2 3 3 2 4 1 5 10 6 9 7 6 8 7 9 8 10
REMARK H PARENT
REMARK Flexibility Score: inf
ROOT
ATOM      1  C   UNL     1     145.704 144.352 131.972  1.00  0.00    -0.071 C 
ATOM      2  C   UNL     1     145.077 145.122 131.057  1.00  0.00    -0.023 C 
ATOM      3  C   UNL     1     145.750 146.332 130.460  1.00  0.00     0.057 C 
ATOM      4  C   UNL     1     146.624 147.026 131.484  1.00  0.00    -0.073 C 
ATOM      5  C   UNL     1     146.880 148.337 131.372  1.00  0.00     0.008 C 
ATOM      6  C   UNL     1     147.239 146.233 132.620  1.00  0.00     0.035 C 
ATOM      7  C   UNL     1     147.113 144.721 132.384  1.00  0.00     0.035 C 
ENDROOT
BRANCH   1   8
ATOM      8  C   UNL     1     145.015 143.154 132.606  1.00  0.00     0.008 C 
ATOM      9  C   UNL     1     145.222 143.134 134.125  1.00  0.00     0.012 C 
ATOM     10  C   UNL     1     143.523 143.116 132.251  1.00  0.00     0.012 C 
ENDBRANCH   1   8
TORSDOF 1
ENDMDL
MODEL 9
REMARK VINA RESULT:    -3.574     11.876     13.322
REMARK INTER + INTRA:          -3.925
REMARK INTER:                  -3.762
REMARK INTRA:                  -0.163
REMARK UNBOUND:                -0.142
REMARK SMILES C=C1CC=C(C(C)C)CC1
REMARK SMILES IDX 5 1 4 2 3 3 2 4 1 5 10 6 9 7 6 8 7 9 8 10
REMARK H PARENT
REMARK Flexibility Score: inf
ROOT
ATOM      1  C   UNL     1     145.483 145.332 132.564  1.00  0.00    -0.071 C 
ATOM      2  C   UNL     1     145.320 145.115 131.241  1.00  0.00    -0.023 C 
ATOM      3  C   UNL     1     144.577 146.099 130.374  1.00  0.00     0.057 C 
ATOM      4  C   UNL     1     143.427 146.728 131.131  1.00  0.00    -0.073 C 
ATOM      5  C   UNL     1     142.358 147.191 130.467  1.00  0.00     0.008 C 
ATOM      6  C   UNL     1     143.495 146.867 132.638  1.00  0.00     0.035 C 
ATOM      7  C   UNL     1     144.912 146.599 133.165  1.00  0.00     0.035 C 
ENDROOT
BRANCH   1   8
ATOM      8  C   UNL     1     146.197 144.324 133.450  1.00  0.00     0.008 C 
ATOM      9  C   UNL     1     145.297 143.123 133.761  1.00  0.00     0.012 C 
ATOM     10  C   UNL     1     147.524 143.875 132.826  1.00  0.00     0.012 C 
ENDBRANCH   1   8
TORSDOF 1
ENDMDL
