MODEL 1
REMARK VINA RESULT:    -6.952      0.000      0.000
REMARK INTER + INTRA:          -8.451
REMARK INTER:                  -8.172
REMARK INTRA:                  -0.280
REMARK UNBOUND:                -0.280
REMARK SMILES O=c1c(O)c(-c2ccc(O)cc2)oc2cc(O)cc(O)c12
REMARK SMILES IDX 5 1 3 2 2 3 1 4 21 5 19 6 18 7 16 8 15 9 14 10 13 11 6 12
REMARK SMILES IDX 7 13 8 14 9 15 12 16 11 17 10 18 4 20 20 22 17 24
REMARK H PARENT 10 19 4 21 20 23 17 25
REMARK Flexibility Score: inf
ROOT
ATOM      1  C   UNL     1       9.572  11.351 -16.060  1.00  0.00     0.180 A 
ATOM      2  C   UNL     1      10.180  10.153 -16.470  1.00  0.00     0.208 A 
ATOM      3  C   UNL     1       9.837   8.957 -15.819  1.00  0.00     0.238 A 
ATOM      4  O   UNL     1      10.328   7.877 -16.240  1.00  0.00    -0.285 OA
ATOM      5  C   UNL     1       8.932   8.982 -14.729  1.00  0.00     0.111 A 
ATOM      6  C   UNL     1       8.547   7.838 -13.966  1.00  0.00     0.134 A 
ATOM      7  C   UNL     1       7.564   7.967 -12.978  1.00  0.00     0.093 A 
ATOM      8  C   UNL     1       6.999   9.205 -12.680  1.00  0.00     0.123 A 
ATOM      9  C   UNL     1       7.407  10.340 -13.381  1.00  0.00     0.094 A 
ATOM     10  C   UNL     1       8.359  10.238 -14.400  1.00  0.00     0.146 A 
ATOM     11  O   UNL     1       8.704  11.339 -15.056  1.00  0.00    -0.452 OA
ENDROOT
BRANCH   1  12
ATOM     12  C   UNL     1       9.872  12.649 -16.707  1.00  0.00     0.021 A 
ATOM     13  C   UNL     1      10.861  13.511 -16.197  1.00  0.00     0.016 A 
ATOM     14  C   UNL     1      11.143  14.720 -16.839  1.00  0.00     0.047 A 
ATOM     15  C   UNL     1      10.454  15.078 -18.002  1.00  0.00     0.115 A 
ATOM     16  C   UNL     1       9.199  13.006 -17.888  1.00  0.00     0.016 A 
ATOM     17  C   UNL     1       9.483  14.215 -18.526  1.00  0.00     0.047 A 
BRANCH  15  18
ATOM     18  O   UNL     1      10.745  16.287 -18.629  1.00  0.00    -0.508 OA
ATOM     19  H   UNL     1      10.459  17.174 -18.229  1.00  0.00     0.293 HD
ENDBRANCH  15  18
ENDBRANCH   1  12
BRANCH   2  20
ATOM     20  O   UNL     1      11.128  10.159 -17.497  1.00  0.00    -0.502 OA
ATOM     21  H   UNL     1      11.994  10.678 -17.435  1.00  0.00     0.293 HD
ENDBRANCH   2  20
BRANCH   6  22
ATOM     22  O   UNL     1       9.111   6.568 -14.120  1.00  0.00    -0.507 OA
ATOM     23  H   UNL     1      10.077   6.340 -13.944  1.00  0.00     0.293 HD
ENDBRANCH   6  22
BRANCH   8  24
ATOM     24  O   UNL     1       6.035   9.298 -11.678  1.00  0.00    -0.508 OA
ATOM     25  H   UNL     1       5.545  10.166 -11.493  1.00  0.00     0.293 HD
ENDBRANCH   8  24
TORSDOF 5
ENDMDL
MODEL 2
REMARK VINA RESULT:    -6.392      2.872      7.729
REMARK INTER + INTRA:          -7.793
REMARK INTER:                  -7.553
REMARK INTRA:                  -0.240
REMARK UNBOUND:                -0.280
REMARK SMILES O=c1c(O)c(-c2ccc(O)cc2)oc2cc(O)cc(O)c12
REMARK SMILES IDX 5 1 3 2 2 3 1 4 21 5 19 6 18 7 16 8 15 9 14 10 13 11 6 12
REMARK SMILES IDX 7 13 8 14 9 15 12 16 11 17 10 18 4 20 20 22 17 24
REMARK H PARENT 10 19 4 21 20 23 17 25
REMARK Flexibility Score: inf
ROOT
ATOM      1  C   UNL     1       9.179  12.221 -18.338  1.00  0.00     0.180 A 
ATOM      2  C   UNL     1       9.701  13.158 -17.432  1.00  0.00     0.208 A 
ATOM      3  C   UNL     1       9.829  14.497 -17.833  1.00  0.00     0.238 A 
ATOM      4  O   UNL     1      10.227  15.345 -16.992  1.00  0.00    -0.285 OA
ATOM      5  C   UNL     1       9.484  14.872 -19.156  1.00  0.00     0.111 A 
ATOM      6  C   UNL     1       9.615  16.192 -19.686  1.00  0.00     0.134 A 
ATOM      7  C   UNL     1       9.142  16.467 -20.974  1.00  0.00     0.093 A 
ATOM      8  C   UNL     1       8.605  15.462 -21.775  1.00  0.00     0.123 A 
ATOM      9  C   UNL     1       8.523  14.157 -21.289  1.00  0.00     0.094 A 
ATOM     10  C   UNL     1       8.950  13.858 -19.992  1.00  0.00     0.146 A 
ATOM     11  O   UNL     1       8.834  12.608 -19.560  1.00  0.00    -0.452 OA
ENDROOT
BRANCH   1  12
ATOM     12  C   UNL     1       9.001  10.794 -17.983  1.00  0.00     0.021 A 
ATOM     13  C   UNL     1      10.095   9.910 -17.933  1.00  0.00     0.016 A 
ATOM     14  C   UNL     1       9.906   8.572 -17.572  1.00  0.00     0.047 A 
ATOM     15  C   UNL     1       8.630   8.105 -17.243  1.00  0.00     0.115 A 
ATOM     16  C   UNL     1       7.726  10.322 -17.631  1.00  0.00     0.016 A 
ATOM     17  C   UNL     1       7.540   8.985 -17.270  1.00  0.00     0.047 A 
BRANCH  15  18
ATOM     18  O   UNL     1       8.457   6.769 -16.887  1.00  0.00    -0.508 OA
ATOM     19  H   UNL     1       9.196   6.241 -16.438  1.00  0.00     0.293 HD
ENDBRANCH  15  18
ENDBRANCH   1  12
BRANCH   2  20
ATOM     20  O   UNL     1      10.108  12.754 -16.157  1.00  0.00    -0.502 OA
ATOM     21  H   UNL     1       9.805  11.883 -15.740  1.00  0.00     0.293 HD
ENDBRANCH   2  20
BRANCH   6  22
ATOM     22  O   UNL     1      10.218  17.254 -19.005  1.00  0.00    -0.507 OA
ATOM     23  H   UNL     1      10.188  17.392 -18.006  1.00  0.00     0.293 HD
ENDBRANCH   6  22
BRANCH   8  24
ATOM     24  O   UNL     1       8.160  15.770 -23.059  1.00  0.00    -0.508 OA
ATOM     25  H   UNL     1       7.655  16.627 -23.255  1.00  0.00     0.293 HD
ENDBRANCH   8  24
TORSDOF 5
ENDMDL
MODEL 3
REMARK VINA RESULT:    -6.276      2.746      7.271
REMARK INTER + INTRA:          -7.657
REMARK INTER:                  -7.423
REMARK INTRA:                  -0.233
REMARK UNBOUND:                -0.280
REMARK SMILES O=c1c(O)c(-c2ccc(O)cc2)oc2cc(O)cc(O)c12
REMARK SMILES IDX 5 1 3 2 2 3 1 4 21 5 19 6 18 7 16 8 15 9 14 10 13 11 6 12
REMARK SMILES IDX 7 13 8 14 9 15 12 16 11 17 10 18 4 20 20 22 17 24
REMARK H PARENT 10 19 4 21 20 23 17 25
REMARK Flexibility Score: inf
ROOT
ATOM      1  C   UNL     1       7.355   7.859 -14.678  1.00  0.00     0.180 A 
ATOM      2  C   UNL     1       6.982   8.264 -13.387  1.00  0.00     0.208 A 
ATOM      3  C   UNL     1       7.246   9.582 -12.983  1.00  0.00     0.238 A 
ATOM      4  O   UNL     1       6.842   9.960 -11.852  1.00  0.00    -0.285 OA
ATOM      5  C   UNL     1       7.931  10.463 -13.856  1.00  0.00     0.111 A 
ATOM      6  C   UNL     1       8.292  11.807 -13.535  1.00  0.00     0.134 A 
ATOM      7  C   UNL     1       8.874  12.618 -14.517  1.00  0.00     0.093 A 
ATOM      8  C   UNL     1       9.166  12.119 -15.784  1.00  0.00     0.123 A 
ATOM      9  C   UNL     1       8.869  10.791 -16.092  1.00  0.00     0.094 A 
ATOM     10  C   UNL     1       8.252   9.967 -15.146  1.00  0.00     0.146 A 
ATOM     11  O   UNL     1       7.967   8.716 -15.486  1.00  0.00    -0.452 OA
ENDROOT
BRANCH   1  12
ATOM     12  C   UNL     1       7.097   6.490 -15.181  1.00  0.00     0.021 A 
ATOM     13  C   UNL     1       6.083   6.233 -16.122  1.00  0.00     0.016 A 
ATOM     14  C   UNL     1       5.875   4.936 -16.600  1.00  0.00     0.047 A 
ATOM     15  C   UNL     1       6.682   3.884 -16.158  1.00  0.00     0.115 A 
ATOM     16  C   UNL     1       7.919   5.431 -14.758  1.00  0.00     0.016 A 
ATOM     17  C   UNL     1       7.707   4.136 -15.238  1.00  0.00     0.047 A 
BRANCH  15  18
ATOM     18  O   UNL     1       6.462   2.596 -16.642  1.00  0.00    -0.508 OA
ATOM     19  H   UNL     1       7.159   1.867 -16.543  1.00  0.00     0.293 HD
ENDBRANCH  15  18
ENDBRANCH   1  12
BRANCH   2  20
ATOM     20  O   UNL     1       6.375   7.358 -12.512  1.00  0.00    -0.502 OA
ATOM     21  H   UNL     1       6.160   7.591 -11.550  1.00  0.00     0.293 HD
ENDBRANCH   2  20
BRANCH   6  22
ATOM     22  O   UNL     1       8.126  12.383 -12.272  1.00  0.00    -0.507 OA
ATOM     23  H   UNL     1       7.246  12.690 -11.888  1.00  0.00     0.293 HD
ENDBRANCH   6  22
BRANCH   8  24
ATOM     24  O   UNL     1       9.761  12.950 -16.731  1.00  0.00    -0.508 OA
ATOM     25  H   UNL     1      10.557  13.533 -16.499  1.00  0.00     0.293 HD
ENDBRANCH   8  24
TORSDOF 5
ENDMDL
MODEL 4
REMARK VINA RESULT:    -6.271      1.898      7.265
REMARK INTER + INTRA:          -7.650
REMARK INTER:                  -7.369
REMARK INTRA:                  -0.282
REMARK UNBOUND:                -0.280
REMARK SMILES O=c1c(O)c(-c2ccc(O)cc2)oc2cc(O)cc(O)c12
REMARK SMILES IDX 5 1 3 2 2 3 1 4 21 5 19 6 18 7 16 8 15 9 14 10 13 11 6 12
REMARK SMILES IDX 7 13 8 14 9 15 12 16 11 17 10 18 4 20 20 22 17 24
REMARK H PARENT 10 19 4 21 20 23 17 25
REMARK Flexibility Score: inf
ROOT
ATOM      1  C   UNL     1       9.771  12.176 -17.069  1.00  0.00     0.180 A 
ATOM      2  C   UNL     1      10.487  13.271 -16.559  1.00  0.00     0.208 A 
ATOM      3  C   UNL     1      10.511  14.470 -17.288  1.00  0.00     0.238 A 
ATOM      4  O   UNL     1      11.091  15.470 -16.790  1.00  0.00    -0.285 OA
ATOM      5  C   UNL     1       9.863  14.542 -18.547  1.00  0.00     0.111 A 
ATOM      6  C   UNL     1       9.860  15.692 -19.394  1.00  0.00     0.134 A 
ATOM      7  C   UNL     1       9.097  15.681 -20.568  1.00  0.00     0.093 A 
ATOM      8  C   UNL     1       8.391  14.545 -20.959  1.00  0.00     0.123 A 
ATOM      9  C   UNL     1       8.432  13.397 -20.167  1.00  0.00     0.094 A 
ATOM     10  C   UNL     1       9.152  13.389 -18.970  1.00  0.00     0.146 A 
ATOM     11  O   UNL     1       9.148  12.283 -18.236  1.00  0.00    -0.452 OA
ENDROOT
BRANCH   1  12
ATOM     12  C   UNL     1       9.688  10.883 -16.351  1.00  0.00     0.021 A 
ATOM     13  C   UNL     1      10.598   9.841 -16.610  1.00  0.00     0.016 A 
ATOM     14  C   UNL     1      10.515   8.639 -15.902  1.00  0.00     0.047 A 
ATOM     15  C   UNL     1       9.535   8.465 -14.920  1.00  0.00     0.115 A 
ATOM     16  C   UNL     1       8.720  10.710 -15.347  1.00  0.00     0.016 A 
ATOM     17  C   UNL     1       8.640   9.506 -14.642  1.00  0.00     0.047 A 
BRANCH  15  18
ATOM     18  O   UNL     1       9.464   7.261 -14.223  1.00  0.00    -0.508 OA
ATOM     19  H   UNL     1       9.018   6.444 -14.624  1.00  0.00     0.293 HD
ENDBRANCH  15  18
ENDBRANCH   1  12
BRANCH   2  20
ATOM     20  O   UNL     1      11.183  13.157 -15.352  1.00  0.00    -0.502 OA
ATOM     21  H   UNL     1      12.083  13.595 -15.199  1.00  0.00     0.293 HD
ENDBRANCH   2  20
BRANCH   6  22
ATOM     22  O   UNL     1      10.601  16.851 -19.145  1.00  0.00    -0.507 OA
ATOM     23  H   UNL     1      11.338  16.929 -18.462  1.00  0.00     0.293 HD
ENDBRANCH   6  22
BRANCH   8  24
ATOM     24  O   UNL     1       7.656  14.566 -22.142  1.00  0.00    -0.508 OA
ATOM     25  H   UNL     1       6.852  13.964 -22.278  1.00  0.00     0.293 HD
ENDBRANCH   8  24
TORSDOF 5
ENDMDL
MODEL 5
REMARK VINA RESULT:    -6.262      1.917      6.980
REMARK INTER + INTRA:          -7.640
REMARK INTER:                  -7.585
REMARK INTRA:                  -0.055
REMARK UNBOUND:                -0.280
REMARK SMILES O=c1c(O)c(-c2ccc(O)cc2)oc2cc(O)cc(O)c12
REMARK SMILES IDX 5 1 3 2 2 3 1 4 21 5 19 6 18 7 16 8 15 9 14 10 13 11 6 12
REMARK SMILES IDX 7 13 8 14 9 15 12 16 11 17 10 18 4 20 20 22 17 24
REMARK H PARENT 10 19 4 21 20 23 17 25
REMARK Flexibility Score: inf
ROOT
ATOM      1  C   UNL     1       8.274  11.138 -14.900  1.00  0.00     0.180 A 
ATOM      2  C   UNL     1       8.723  12.402 -14.482  1.00  0.00     0.208 A 
ATOM      3  C   UNL     1       9.122  13.338 -15.449  1.00  0.00     0.238 A 
ATOM      4  O   UNL     1       9.452  14.493 -15.072  1.00  0.00    -0.285 OA
ATOM      5  C   UNL     1       9.120  12.979 -16.820  1.00  0.00     0.111 A 
ATOM      6  C   UNL     1       9.547  13.832 -17.883  1.00  0.00     0.134 A 
ATOM      7  C   UNL     1       9.400  13.407 -19.209  1.00  0.00     0.093 A 
ATOM      8  C   UNL     1       8.905  12.141 -19.510  1.00  0.00     0.123 A 
ATOM      9  C   UNL     1       8.537  11.277 -18.477  1.00  0.00     0.094 A 
ATOM     10  C   UNL     1       8.635  11.686 -17.144  1.00  0.00     0.146 A 
ATOM     11  O   UNL     1       8.254  10.842 -16.194  1.00  0.00    -0.452 OA
ENDROOT
BRANCH   1  12
ATOM     12  C   UNL     1       7.824  10.104 -13.941  1.00  0.00     0.021 A 
ATOM     13  C   UNL     1       6.803  10.363 -13.008  1.00  0.00     0.016 A 
ATOM     14  C   UNL     1       6.379   9.363 -12.129  1.00  0.00     0.047 A 
ATOM     15  C   UNL     1       6.955   8.090 -12.178  1.00  0.00     0.115 A 
ATOM     16  C   UNL     1       8.384   8.816 -13.999  1.00  0.00     0.016 A 
ATOM     17  C   UNL     1       7.957   7.818 -13.118  1.00  0.00     0.047 A 
BRANCH  15  18
ATOM     18  O   UNL     1       6.522   7.104 -11.295  1.00  0.00    -0.508 OA
ATOM     19  H   UNL     1       5.633   7.176 -10.814  1.00  0.00     0.293 HD
ENDBRANCH  15  18
ENDBRANCH   1  12
BRANCH   2  20
ATOM     20  O   UNL     1       8.790  12.710 -13.120  1.00  0.00    -0.502 OA
ATOM     21  H   UNL     1       8.098  12.389 -12.455  1.00  0.00     0.293 HD
ENDBRANCH   2  20
BRANCH   6  22
ATOM     22  O   UNL     1      10.139  15.085 -17.693  1.00  0.00    -0.507 OA
ATOM     23  H   UNL     1       9.677  15.888 -17.296  1.00  0.00     0.293 HD
ENDBRANCH   6  22
BRANCH   8  24
ATOM     24  O   UNL     1       8.789  11.745 -20.840  1.00  0.00    -0.508 OA
ATOM     25  H   UNL     1       9.441  12.066 -21.547  1.00  0.00     0.293 HD
ENDBRANCH   8  24
TORSDOF 5
ENDMDL
MODEL 6
REMARK VINA RESULT:    -6.226      2.302      7.127
REMARK INTER + INTRA:          -7.597
REMARK INTER:                  -7.308
REMARK INTRA:                  -0.289
REMARK UNBOUND:                -0.280
REMARK SMILES O=c1c(O)c(-c2ccc(O)cc2)oc2cc(O)cc(O)c12
REMARK SMILES IDX 5 1 3 2 2 3 1 4 21 5 19 6 18 7 16 8 15 9 14 10 13 11 6 12
REMARK SMILES IDX 7 13 8 14 9 15 12 16 11 17 10 18 4 20 20 22 17 24
REMARK H PARENT 10 19 4 21 20 23 17 25
REMARK Flexibility Score: inf
ROOT
ATOM      1  C   UNL     1       8.815  11.498 -17.624  1.00  0.00     0.180 A 
ATOM      2  C   UNL     1       8.018  11.235 -18.749  1.00  0.00     0.208 A 
ATOM      3  C   UNL     1       7.873  12.229 -19.730  1.00  0.00     0.238 A 
ATOM      4  O   UNL     1       7.219  11.961 -20.771  1.00  0.00    -0.285 OA
ATOM      5  C   UNL     1       8.483  13.495 -19.545  1.00  0.00     0.111 A 
ATOM      6  C   UNL     1       8.366  14.593 -20.451  1.00  0.00     0.134 A 
ATOM      7  C   UNL     1       9.100  15.761 -20.216  1.00  0.00     0.093 A 
ATOM      8  C   UNL     1       9.894  15.899 -19.080  1.00  0.00     0.123 A 
ATOM      9  C   UNL     1       9.972  14.854 -18.159  1.00  0.00     0.094 A 
ATOM     10  C   UNL     1       9.282  13.659 -18.384  1.00  0.00     0.146 A 
ATOM     11  O   UNL     1       9.400  12.682 -17.493  1.00  0.00    -0.452 OA
ENDROOT
BRANCH   1  12
ATOM     12  C   UNL     1       9.027  10.495 -16.555  1.00  0.00     0.021 A 
ATOM     13  C   UNL     1       8.170  10.418 -15.441  1.00  0.00     0.016 A 
ATOM     14  C   UNL     1       8.376   9.446 -14.457  1.00  0.00     0.047 A 
ATOM     15  C   UNL     1       9.427   8.533 -14.578  1.00  0.00     0.115 A 
ATOM     16  C   UNL     1      10.068   9.559 -16.680  1.00  0.00     0.016 A 
ATOM     17  C   UNL     1      10.271   8.590 -15.694  1.00  0.00     0.047 A 
BRANCH  15  18
ATOM     18  O   UNL     1       9.621   7.571 -13.588  1.00  0.00    -0.508 OA
ATOM     19  H   UNL     1       8.959   6.816 -13.448  1.00  0.00     0.293 HD
ENDBRANCH  15  18
ENDBRANCH   1  12
BRANCH   2  20
ATOM     20  O   UNL     1       7.362  10.007 -18.877  1.00  0.00    -0.502 OA
ATOM     21  H   UNL     1       6.528   9.891 -19.439  1.00  0.00     0.293 HD
ENDBRANCH   2  20
BRANCH   6  22
ATOM     22  O   UNL     1       7.532  14.597 -21.573  1.00  0.00    -0.507 OA
ATOM     23  H   UNL     1       6.529  14.507 -21.548  1.00  0.00     0.293 HD
ENDBRANCH   6  22
BRANCH   8  24
ATOM     24  O   UNL     1      10.597  17.083 -18.870  1.00  0.00    -0.508 OA
ATOM     25  H   UNL     1      11.550  17.198 -19.194  1.00  0.00     0.293 HD
ENDBRANCH   8  24
TORSDOF 5
ENDMDL
MODEL 7
REMARK VINA RESULT:    -6.174      2.290      3.208
REMARK INTER + INTRA:          -7.536
REMARK INTER:                  -7.561
REMARK INTRA:                   0.025
REMARK UNBOUND:                -0.280
REMARK SMILES O=c1c(O)c(-c2ccc(O)cc2)oc2cc(O)cc(O)c12
REMARK SMILES IDX 5 1 3 2 2 3 1 4 21 5 19 6 18 7 16 8 15 9 14 10 13 11 6 12
REMARK SMILES IDX 7 13 8 14 9 15 12 16 11 17 10 18 4 20 20 22 17 24
REMARK H PARENT 10 19 4 21 20 23 17 25
REMARK Flexibility Score: inf
ROOT
ATOM      1  C   UNL     1       8.920  12.945 -18.463  1.00  0.00     0.180 A 
ATOM      2  C   UNL     1       9.351  11.640 -18.753  1.00  0.00     0.208 A 
ATOM      3  C   UNL     1       9.352  10.679 -17.730  1.00  0.00     0.238 A 
ATOM      4  O   UNL     1       9.668   9.494 -18.014  1.00  0.00    -0.285 OA
ATOM      5  C   UNL     1       8.974  11.049 -16.415  1.00  0.00     0.111 A 
ATOM      6  C   UNL     1       8.979  10.168 -15.290  1.00  0.00     0.134 A 
ATOM      7  C   UNL     1       8.484  10.618 -14.060  1.00  0.00     0.093 A 
ATOM      8  C   UNL     1       8.044  11.930 -13.896  1.00  0.00     0.123 A 
ATOM      9  C   UNL     1       8.086  12.815 -14.974  1.00  0.00     0.094 A 
ATOM     10  C   UNL     1       8.538  12.386 -16.225  1.00  0.00     0.146 A 
ATOM     11  O   UNL     1       8.541  13.254 -17.229  1.00  0.00    -0.452 OA
ENDROOT
BRANCH   1  12
ATOM     12  C   UNL     1       8.878  14.009 -19.492  1.00  0.00     0.021 A 
ATOM     13  C   UNL     1       9.542  15.236 -19.305  1.00  0.00     0.016 A 
ATOM     14  C   UNL     1       9.508  16.216 -20.301  1.00  0.00     0.047 A 
ATOM     15  C   UNL     1       8.825  15.981 -21.499  1.00  0.00     0.115 A 
ATOM     16  C   UNL     1       8.212  13.771 -20.706  1.00  0.00     0.016 A 
ATOM     17  C   UNL     1       8.180  14.754 -21.700  1.00  0.00     0.047 A 
BRANCH  15  18
ATOM     18  O   UNL     1       8.799  16.967 -22.482  1.00  0.00    -0.508 OA
ATOM     19  H   UNL     1       9.605  17.555 -22.663  1.00  0.00     0.293 HD
ENDBRANCH  15  18
ENDBRANCH   1  12
BRANCH   2  20
ATOM     20  O   UNL     1       9.793  11.313 -20.038  1.00  0.00    -0.502 OA
ATOM     21  H   UNL     1      10.409  11.915 -20.571  1.00  0.00     0.293 HD
ENDBRANCH   2  20
BRANCH   6  22
ATOM     22  O   UNL     1       9.479   8.863 -15.320  1.00  0.00    -0.507 OA
ATOM     23  H   UNL     1      10.341   8.564 -14.890  1.00  0.00     0.293 HD
ENDBRANCH   6  22
BRANCH   8  24
ATOM     24  O   UNL     1       7.574  12.347 -12.653  1.00  0.00    -0.508 OA
ATOM     25  H   UNL     1       6.800  12.996 -12.569  1.00  0.00     0.293 HD
ENDBRANCH   8  24
TORSDOF 5
ENDMDL
MODEL 8
REMARK VINA RESULT:    -6.153      1.660      2.263
REMARK INTER + INTRA:          -7.512
REMARK INTER:                  -7.219
REMARK INTRA:                  -0.293
REMARK UNBOUND:                -0.280
REMARK SMILES O=c1c(O)c(-c2ccc(O)cc2)oc2cc(O)cc(O)c12
REMARK SMILES IDX 5 1 3 2 2 3 1 4 21 5 19 6 18 7 16 8 15 9 14 10 13 11 6 12
REMARK SMILES IDX 7 13 8 14 9 15 12 16 11 17 10 18 4 20 20 22 17 24
REMARK H PARENT 10 19 4 21 20 23 17 25
REMARK Flexibility Score: inf
ROOT
ATOM      1  C   UNL     1       8.529  10.954 -17.448  1.00  0.00     0.180 A 
ATOM      2  C   UNL     1       9.432   9.883 -17.537  1.00  0.00     0.208 A 
ATOM      3  C   UNL     1       9.467   8.933 -16.504  1.00  0.00     0.238 A 
ATOM      4  O   UNL     1      10.226   7.936 -16.625  1.00  0.00    -0.285 OA
ATOM      5  C   UNL     1       8.637   9.097 -15.367  1.00  0.00     0.111 A 
ATOM      6  C   UNL     1       8.621   8.221 -14.240  1.00  0.00     0.134 A 
ATOM      7  C   UNL     1       7.682   8.424 -13.222  1.00  0.00     0.093 A 
ATOM      8  C   UNL     1       6.803   9.505 -13.257  1.00  0.00     0.123 A 
ATOM      9  C   UNL     1       6.846  10.399 -14.326  1.00  0.00     0.094 A 
ATOM     10  C   UNL     1       7.746  10.202 -15.377  1.00  0.00     0.146 A 
ATOM     11  O   UNL     1       7.740  11.064 -16.386  1.00  0.00    -0.452 OA
ENDROOT
BRANCH   1  12
ATOM     12  C   UNL     1       8.424  11.988 -18.504  1.00  0.00     0.021 A 
ATOM     13  C   UNL     1       7.490  11.874 -19.551  1.00  0.00     0.016 A 
ATOM     14  C   UNL     1       7.393  12.874 -20.523  1.00  0.00     0.047 A 
ATOM     15  C   UNL     1       8.213  14.005 -20.455  1.00  0.00     0.115 A 
ATOM     16  C   UNL     1       9.229  13.137 -18.431  1.00  0.00     0.016 A 
ATOM     17  C   UNL     1       9.130  14.134 -19.404  1.00  0.00     0.047 A 
BRANCH  15  18
ATOM     18  O   UNL     1       8.106  14.993 -21.431  1.00  0.00    -0.508 OA
ATOM     19  H   UNL     1       7.581  14.839 -22.285  1.00  0.00     0.293 HD
ENDBRANCH  15  18
ENDBRANCH   1  12
BRANCH   2  20
ATOM     20  O   UNL     1      10.298   9.780 -18.630  1.00  0.00    -0.502 OA
ATOM     21  H   UNL     1      10.301  10.453 -19.387  1.00  0.00     0.293 HD
ENDBRANCH   2  20
BRANCH   6  22
ATOM     22  O   UNL     1       9.514   7.160 -14.059  1.00  0.00    -0.507 OA
ATOM     23  H   UNL     1       9.942   6.632 -14.804  1.00  0.00     0.293 HD
ENDBRANCH   6  22
BRANCH   8  24
ATOM     24  O   UNL     1       5.893   9.685 -12.217  1.00  0.00    -0.508 OA
ATOM     25  H   UNL     1       5.150  10.372 -12.276  1.00  0.00     0.293 HD
ENDBRANCH   8  24
TORSDOF 5
ENDMDL
MODEL 9
REMARK VINA RESULT:    -6.013      1.371      3.260
REMARK INTER + INTRA:          -7.347
REMARK INTER:                  -7.067
REMARK INTRA:                  -0.281
REMARK UNBOUND:                -0.280
REMARK SMILES O=c1c(O)c(-c2ccc(O)cc2)oc2cc(O)cc(O)c12
REMARK SMILES IDX 5 1 3 2 2 3 1 4 21 5 19 6 18 7 16 8 15 9 14 10 13 11 6 12
REMARK SMILES IDX 7 13 8 14 9 15 12 16 11 17 10 18 4 20 20 22 17 24
REMARK H PARENT 10 19 4 21 20 23 17 25
REMARK Flexibility Score: inf
ROOT
ATOM      1  C   UNL     1       8.558  12.439 -15.690  1.00  0.00     0.180 A 
ATOM      2  C   UNL     1       7.538  12.810 -14.799  1.00  0.00     0.208 A 
ATOM      3  C   UNL     1       7.022  11.848 -13.916  1.00  0.00     0.238 A 
ATOM      4  O   UNL     1       6.162  12.205 -13.069  1.00  0.00    -0.285 OA
ATOM      5  C   UNL     1       7.494  10.513 -13.973  1.00  0.00     0.111 A 
ATOM      6  C   UNL     1       7.012   9.445 -13.157  1.00  0.00     0.134 A 
ATOM      7  C   UNL     1       7.628   8.190 -13.229  1.00  0.00     0.093 A 
ATOM      8  C   UNL     1       8.663   7.945 -14.129  1.00  0.00     0.123 A 
ATOM      9  C   UNL     1       9.105   8.965 -14.970  1.00  0.00     0.094 A 
ATOM     10  C   UNL     1       8.537  10.240 -14.896  1.00  0.00     0.146 A 
ATOM     11  O   UNL     1       9.003  11.189 -15.700  1.00  0.00    -0.452 OA
ENDROOT
BRANCH   1  12
ATOM     12  C   UNL     1       9.162  13.400 -16.642  1.00  0.00     0.021 A 
ATOM     13  C   UNL     1       8.564  13.674 -17.886  1.00  0.00     0.016 A 
ATOM     14  C   UNL     1       9.139  14.604 -18.757  1.00  0.00     0.047 A 
ATOM     15  C   UNL     1      10.308  15.280 -18.394  1.00  0.00     0.115 A 
ATOM     16  C   UNL     1      10.324  14.100 -16.275  1.00  0.00     0.016 A 
ATOM     17  C   UNL     1      10.897  15.028 -17.148  1.00  0.00     0.047 A 
BRANCH  15  18
ATOM     18  O   UNL     1      10.871  16.203 -19.273  1.00  0.00    -0.508 OA
ATOM     19  H   UNL     1      10.973  17.180 -19.022  1.00  0.00     0.293 HD
ENDBRANCH  15  18
ENDBRANCH   1  12
BRANCH   2  20
ATOM     20  O   UNL     1       7.032  14.113 -14.809  1.00  0.00    -0.502 OA
ATOM     21  H   UNL     1       6.330  14.418 -15.471  1.00  0.00     0.293 HD
ENDBRANCH   2  20
BRANCH   6  22
ATOM     22  O   UNL     1       5.924   9.555 -12.286  1.00  0.00    -0.507 OA
ATOM     23  H   UNL     1       5.981   9.852 -11.324  1.00  0.00     0.293 HD
ENDBRANCH   6  22
BRANCH   8  24
ATOM     24  O   UNL     1       9.240   6.678 -14.184  1.00  0.00    -0.508 OA
ATOM     25  H   UNL     1       9.548   6.274 -15.061  1.00  0.00     0.293 HD
ENDBRANCH   8  24
TORSDOF 5
ENDMDL
