MODEL 1
REMARK VINA RESULT:    -5.359      0.000      0.000
REMARK INTER + INTRA:          -5.829
REMARK INTER:                  -5.829
REMARK INTRA:                   0.000
REMARK UNBOUND:                 0.000
REMARK SMILES Cc1cc(O)c2c(c1)C(=O)c1cc(O)cc(O)c1C2=O
REMARK SMILES IDX 1 1 2 2 8 3 7 4 6 5 4 6 3 7 19 8 20 9 18 10 11 11 9 12 10 13
REMARK SMILES IDX 12 14 13 15 15 16 16 17 5 18 17 20 14 22
REMARK H PARENT 5 19 17 21 14 23
REMARK Flexibility Score: inf
ROOT
ATOM      1  C   UNL     1      -2.237 -17.000 -18.891  1.00  0.00     0.044 C 
ATOM      2  C   UNL     1      -1.424 -16.746 -20.126  1.00  0.00    -0.047 A 
ATOM      3  C   UNL     1      -1.901 -17.147 -21.378  1.00  0.00     0.016 A 
ATOM      4  C   UNL     1      -1.131 -16.948 -22.537  1.00  0.00     0.038 A 
ATOM      5  C   UNL     1       0.141 -16.345 -22.439  1.00  0.00     0.076 A 
ATOM      6  C   UNL     1       0.631 -15.966 -21.168  1.00  0.00     0.127 A 
ATOM      7  C   UNL     1      -0.151 -16.174 -20.025  1.00  0.00     0.050 A 
ATOM      8  C   UNL     1       0.925 -16.104 -23.678  1.00  0.00     0.201 C 
ATOM      9  O   UNL     1       1.864 -15.264 -23.664  1.00  0.00    -0.288 OA
ATOM     10  C   UNL     1       0.531 -16.763 -24.954  1.00  0.00     0.076 A 
ATOM     11  C   UNL     1      -0.770 -17.311 -25.054  1.00  0.00     0.041 A 
ATOM     12  C   UNL     1      -1.646 -17.368 -23.860  1.00  0.00     0.194 C 
ATOM     13  O   UNL     1      -2.831 -17.793 -23.968  1.00  0.00    -0.289 OA
ATOM     14  C   UNL     1      -1.228 -17.809 -26.285  1.00  0.00     0.059 A 
ATOM     15  C   UNL     1      -0.403 -17.785 -27.412  1.00  0.00     0.120 A 
ATOM     16  C   UNL     1       0.896 -17.291 -27.309  1.00  0.00     0.093 A 
ATOM     17  C   UNL     1       1.386 -16.813 -26.089  1.00  0.00     0.131 A 
ENDROOT
BRANCH   6  18
ATOM     18  O   UNL     1       1.897 -15.396 -21.035  1.00  0.00    -0.507 OA
ATOM     19  H   UNL     1       2.647 -15.601 -21.686  1.00  0.00     0.293 HD
ENDBRANCH   6  18
BRANCH  17  20
ATOM     20  O   UNL     1       2.731 -16.436 -26.047  1.00  0.00    -0.507 OA
ATOM     21  H   UNL     1       3.070 -15.621 -25.557  1.00  0.00     0.293 HD
ENDBRANCH  17  20
BRANCH  15  22
ATOM     22  O   UNL     1      -0.860 -18.263 -28.639  1.00  0.00    -0.508 OA
ATOM     23  H   UNL     1      -0.265 -18.273 -29.459  1.00  0.00     0.293 HD
ENDBRANCH  15  22
TORSDOF 3
ENDMDL
MODEL 2
REMARK VINA RESULT:    -4.509      1.449      5.511
REMARK INTER + INTRA:          -4.905
REMARK INTER:                  -4.905
REMARK INTRA:                   0.000
REMARK UNBOUND:                 0.000
REMARK SMILES Cc1cc(O)c2c(c1)C(=O)c1cc(O)cc(O)c1C2=O
REMARK SMILES IDX 1 1 2 2 8 3 7 4 6 5 4 6 3 7 19 8 20 9 18 10 11 11 9 12 10 13
REMARK SMILES IDX 12 14 13 15 15 16 16 17 5 18 17 20 14 22
REMARK H PARENT 5 19 17 21 14 23
REMARK Flexibility Score: inf
ROOT
ATOM      1  C   UNL     1      -0.596 -18.130 -28.290  1.00  0.00     0.044 C 
ATOM      2  C   UNL     1      -0.234 -17.701 -26.899  1.00  0.00    -0.047 A 
ATOM      3  C   UNL     1      -1.147 -17.865 -25.851  1.00  0.00     0.016 A 
ATOM      4  C   UNL     1      -0.833 -17.431 -24.552  1.00  0.00     0.038 A 
ATOM      5  C   UNL     1       0.413 -16.819 -24.298  1.00  0.00     0.076 A 
ATOM      6  C   UNL     1       1.321 -16.631 -25.365  1.00  0.00     0.127 A 
ATOM      7  C   UNL     1       0.989 -17.068 -26.654  1.00  0.00     0.050 A 
ATOM      8  C   UNL     1       0.747 -16.404 -22.911  1.00  0.00     0.201 C 
ATOM      9  O   UNL     1       1.950 -16.202 -22.597  1.00  0.00    -0.288 OA
ATOM     10  C   UNL     1      -0.318 -16.341 -21.871  1.00  0.00     0.076 A 
ATOM     11  C   UNL     1      -1.539 -17.012 -22.119  1.00  0.00     0.041 A 
ATOM     12  C   UNL     1      -1.801 -17.616 -23.446  1.00  0.00     0.194 C 
ATOM     13  O   UNL     1      -2.861 -18.273 -23.642  1.00  0.00    -0.289 OA
ATOM     14  C   UNL     1      -2.508 -17.098 -21.105  1.00  0.00     0.059 A 
ATOM     15  C   UNL     1      -2.285 -16.512 -19.857  1.00  0.00     0.120 A 
ATOM     16  C   UNL     1      -1.105 -15.809 -19.623  1.00  0.00     0.093 A 
ATOM     17  C   UNL     1      -0.134 -15.686 -20.623  1.00  0.00     0.131 A 
ENDROOT
BRANCH   6  18
ATOM     18  O   UNL     1       2.548 -16.000 -25.153  1.00  0.00    -0.507 OA
ATOM     19  H   UNL     1       2.784 -15.578 -24.262  1.00  0.00     0.293 HD
ENDBRANCH   6  18
BRANCH  17  20
ATOM     20  O   UNL     1       0.969 -14.875 -20.342  1.00  0.00    -0.507 OA
ATOM     21  H   UNL     1       0.976 -13.874 -20.475  1.00  0.00     0.293 HD
ENDBRANCH  17  20
BRANCH  15  22
ATOM     22  O   UNL     1      -3.237 -16.610 -18.844  1.00  0.00    -0.508 OA
ATOM     23  H   UNL     1      -3.940 -15.894 -18.706  1.00  0.00     0.293 HD
ENDBRANCH  15  22
TORSDOF 3
ENDMDL
MODEL 3
REMARK VINA RESULT:    -4.474      2.239      5.539
REMARK INTER + INTRA:          -4.866
REMARK INTER:                  -4.866
REMARK INTRA:                   0.000
REMARK UNBOUND:                 0.000
REMARK SMILES Cc1cc(O)c2c(c1)C(=O)c1cc(O)cc(O)c1C2=O
REMARK SMILES IDX 1 1 2 2 8 3 7 4 6 5 4 6 3 7 19 8 20 9 18 10 11 11 9 12 10 13
REMARK SMILES IDX 12 14 13 15 15 16 16 17 5 18 17 20 14 22
REMARK H PARENT 5 19 17 21 14 23
REMARK Flexibility Score: inf
ROOT
ATOM      1  C   UNL     1      -4.350 -14.976 -27.861  1.00  0.00     0.044 C 
ATOM      2  C   UNL     1      -3.006 -15.247 -27.253  1.00  0.00    -0.047 A 
ATOM      3  C   UNL     1      -2.820 -15.124 -25.871  1.00  0.00     0.016 A 
ATOM      4  C   UNL     1      -1.556 -15.339 -25.296  1.00  0.00     0.038 A 
ATOM      5  C   UNL     1      -0.459 -15.677 -26.116  1.00  0.00     0.076 A 
ATOM      6  C   UNL     1      -0.645 -15.774 -27.514  1.00  0.00     0.127 A 
ATOM      7  C   UNL     1      -1.912 -15.554 -28.070  1.00  0.00     0.050 A 
ATOM      8  C   UNL     1       0.861 -15.942 -25.488  1.00  0.00     0.201 C 
ATOM      9  O   UNL     1       1.735 -16.583 -26.129  1.00  0.00    -0.288 OA
ATOM     10  C   UNL     1       1.107 -15.554 -24.071  1.00  0.00     0.076 A 
ATOM     11  C   UNL     1      -0.009 -15.276 -23.246  1.00  0.00     0.041 A 
ATOM     12  C   UNL     1      -1.369 -15.214 -23.832  1.00  0.00     0.194 C 
ATOM     13  O   UNL     1      -2.370 -15.035 -23.083  1.00  0.00    -0.289 OA
ATOM     14  C   UNL     1       0.174 -15.051 -21.872  1.00  0.00     0.059 A 
ATOM     15  C   UNL     1       1.454 -15.083 -21.311  1.00  0.00     0.120 A 
ATOM     16  C   UNL     1       2.561 -15.308 -22.126  1.00  0.00     0.093 A 
ATOM     17  C   UNL     1       2.409 -15.509 -23.502  1.00  0.00     0.131 A 
ENDROOT
BRANCH   6  18
ATOM     18  O   UNL     1       0.426 -16.075 -28.356  1.00  0.00    -0.507 OA
ATOM     19  H   UNL     1       1.177 -16.691 -28.064  1.00  0.00     0.293 HD
ENDBRANCH   6  18
BRANCH  17  20
ATOM     20  O   UNL     1       3.577 -15.621 -24.261  1.00  0.00    -0.507 OA
ATOM     21  H   UNL     1       4.458 -15.949 -23.890  1.00  0.00     0.293 HD
ENDBRANCH  17  20
BRANCH  15  22
ATOM     22  O   UNL     1       1.637 -14.876 -19.946  1.00  0.00    -0.508 OA
ATOM     23  H   UNL     1       1.730 -15.651 -19.300  1.00  0.00     0.293 HD
ENDBRANCH  15  22
TORSDOF 3
ENDMDL
MODEL 4
REMARK VINA RESULT:    -4.469      2.137      4.275
REMARK INTER + INTRA:          -4.861
REMARK INTER:                  -4.861
REMARK INTRA:                   0.000
REMARK UNBOUND:                 0.000
REMARK SMILES Cc1cc(O)c2c(c1)C(=O)c1cc(O)cc(O)c1C2=O
REMARK SMILES IDX 1 1 2 2 8 3 7 4 6 5 4 6 3 7 19 8 20 9 18 10 11 11 9 12 10 13
REMARK SMILES IDX 12 14 13 15 15 16 16 17 5 18 17 20 14 22
REMARK H PARENT 5 19 17 21 14 23
REMARK Flexibility Score: inf
ROOT
ATOM      1  C   UNL     1      -4.775 -19.375 -22.876  1.00  0.00     0.044 C 
ATOM      2  C   UNL     1      -3.663 -18.502 -22.376  1.00  0.00    -0.047 A 
ATOM      3  C   UNL     1      -2.626 -18.120 -23.234  1.00  0.00     0.016 A 
ATOM      4  C   UNL     1      -1.559 -17.334 -22.765  1.00  0.00     0.038 A 
ATOM      5  C   UNL     1      -1.527 -16.928 -21.414  1.00  0.00     0.076 A 
ATOM      6  C   UNL     1      -2.563 -17.339 -20.544  1.00  0.00     0.127 A 
ATOM      7  C   UNL     1      -3.616 -18.125 -21.029  1.00  0.00     0.050 A 
ATOM      8  C   UNL     1      -0.415 -16.062 -20.944  1.00  0.00     0.201 C 
ATOM      9  O   UNL     1      -0.550 -15.404 -19.878  1.00  0.00    -0.288 OA
ATOM     10  C   UNL     1       0.802 -15.885 -21.784  1.00  0.00     0.076 A 
ATOM     11  C   UNL     1       0.733 -16.242 -23.152  1.00  0.00     0.041 A 
ATOM     12  C   UNL     1      -0.470 -16.927 -23.681  1.00  0.00     0.194 C 
ATOM     13  O   UNL     1      -0.558 -17.181 -24.915  1.00  0.00    -0.289 OA
ATOM     14  C   UNL     1       1.810 -15.953 -24.006  1.00  0.00     0.059 A 
ATOM     15  C   UNL     1       2.960 -15.330 -23.514  1.00  0.00     0.120 A 
ATOM     16  C   UNL     1       3.053 -15.020 -22.159  1.00  0.00     0.093 A 
ATOM     17  C   UNL     1       2.006 -15.320 -21.281  1.00  0.00     0.131 A 
ENDROOT
BRANCH   6  18
ATOM     18  O   UNL     1      -2.543 -16.981 -19.195  1.00  0.00    -0.507 OA
ATOM     19  H   UNL     1      -3.105 -16.217 -18.838  1.00  0.00     0.293 HD
ENDBRANCH   6  18
BRANCH  17  20
ATOM     20  O   UNL     1       2.225 -15.074 -19.923  1.00  0.00    -0.507 OA
ATOM     21  H   UNL     1       1.535 -14.661 -19.311  1.00  0.00     0.293 HD
ENDBRANCH  17  20
BRANCH  15  22
ATOM     22  O   UNL     1       4.023 -15.028 -24.363  1.00  0.00    -0.508 OA
ATOM     23  H   UNL     1       4.940 -15.439 -24.232  1.00  0.00     0.293 HD
ENDBRANCH  15  22
TORSDOF 3
ENDMDL
MODEL 5
REMARK VINA RESULT:    -4.462      0.987      1.204
REMARK INTER + INTRA:          -4.853
REMARK INTER:                  -4.853
REMARK INTRA:                   0.000
REMARK UNBOUND:                 0.000
REMARK SMILES Cc1cc(O)c2c(c1)C(=O)c1cc(O)cc(O)c1C2=O
REMARK SMILES IDX 1 1 2 2 8 3 7 4 6 5 4 6 3 7 19 8 20 9 18 10 11 11 9 12 10 13
REMARK SMILES IDX 12 14 13 15 15 16 16 17 5 18 17 20 14 22
REMARK H PARENT 5 19 17 21 14 23
REMARK Flexibility Score: inf
ROOT
ATOM      1  C   UNL     1      -3.235 -18.136 -18.478  1.00  0.00     0.044 C 
ATOM      2  C   UNL     1      -2.323 -17.584 -19.533  1.00  0.00    -0.047 A 
ATOM      3  C   UNL     1      -2.592 -17.814 -20.887  1.00  0.00     0.016 A 
ATOM      4  C   UNL     1      -1.723 -17.333 -21.882  1.00  0.00     0.038 A 
ATOM      5  C   UNL     1      -0.564 -16.616 -21.516  1.00  0.00     0.076 A 
ATOM      6  C   UNL     1      -0.283 -16.409 -20.146  1.00  0.00     0.127 A 
ATOM      7  C   UNL     1      -1.159 -16.898 -19.169  1.00  0.00     0.050 A 
ATOM      8  C   UNL     1       0.321 -16.078 -22.581  1.00  0.00     0.201 C 
ATOM      9  O   UNL     1       1.131 -15.153 -22.305  1.00  0.00    -0.288 OA
ATOM     10  C   UNL     1       0.172 -16.548 -23.986  1.00  0.00     0.076 A 
ATOM     11  C   UNL     1      -1.023 -17.214 -24.350  1.00  0.00     0.041 A 
ATOM     12  C   UNL     1      -2.018 -17.574 -23.313  1.00  0.00     0.194 C 
ATOM     13  O   UNL     1      -3.114 -18.104 -23.648  1.00  0.00    -0.289 OA
ATOM     14  C   UNL     1      -1.261 -17.540 -25.695  1.00  0.00     0.059 A 
ATOM     15  C   UNL     1      -0.319 -17.229 -26.680  1.00  0.00     0.120 A 
ATOM     16  C   UNL     1       0.880 -16.617 -26.321  1.00  0.00     0.093 A 
ATOM     17  C   UNL     1       1.154 -16.304 -24.986  1.00  0.00     0.131 A 
ENDROOT
BRANCH   6  18
ATOM     18  O   UNL     1       0.871 -15.732 -19.751  1.00  0.00    -0.507 OA
ATOM     19  H   UNL     1       0.880 -14.727 -19.614  1.00  0.00     0.293 HD
ENDBRANCH   6  18
BRANCH  17  20
ATOM     20  O   UNL     1       2.422 -15.792 -24.700  1.00  0.00    -0.507 OA
ATOM     21  H   UNL     1       3.004 -16.125 -23.943  1.00  0.00     0.293 HD
ENDBRANCH  17  20
BRANCH  15  22
ATOM     22  O   UNL     1      -0.560 -17.537 -28.017  1.00  0.00    -0.508 OA
ATOM     23  H   UNL     1      -1.423 -17.978 -28.312  1.00  0.00     0.293 HD
ENDBRANCH  15  22
TORSDOF 3
ENDMDL
MODEL 6
REMARK VINA RESULT:    -4.338      1.643      6.440
REMARK INTER + INTRA:          -4.718
REMARK INTER:                  -4.718
REMARK INTRA:                   0.000
REMARK UNBOUND:                 0.000
REMARK SMILES Cc1cc(O)c2c(c1)C(=O)c1cc(O)cc(O)c1C2=O
REMARK SMILES IDX 1 1 2 2 8 3 7 4 6 5 4 6 3 7 19 8 20 9 18 10 11 11 9 12 10 13
REMARK SMILES IDX 12 14 13 15 15 16 16 17 5 18 17 20 14 22
REMARK H PARENT 5 19 17 21 14 23
REMARK Flexibility Score: inf
ROOT
ATOM      1  C   UNL     1       1.332 -17.051 -27.474  1.00  0.00     0.044 C 
ATOM      2  C   UNL     1       0.705 -16.944 -26.116  1.00  0.00    -0.047 A 
ATOM      3  C   UNL     1       1.416 -16.375 -25.054  1.00  0.00     0.016 A 
ATOM      4  C   UNL     1       0.851 -16.305 -23.768  1.00  0.00     0.038 A 
ATOM      5  C   UNL     1      -0.444 -16.819 -23.541  1.00  0.00     0.076 A 
ATOM      6  C   UNL     1      -1.147 -17.418 -24.611  1.00  0.00     0.127 A 
ATOM      7  C   UNL     1      -0.567 -17.480 -25.885  1.00  0.00     0.050 A 
ATOM      8  C   UNL     1      -1.043 -16.700 -22.187  1.00  0.00     0.201 C 
ATOM      9  O   UNL     1      -2.290 -16.809 -22.049  1.00  0.00    -0.288 OA
ATOM     10  C   UNL     1      -0.190 -16.339 -21.020  1.00  0.00     0.076 A 
ATOM     11  C   UNL     1       1.082 -15.770 -21.267  1.00  0.00     0.041 A 
ATOM     12  C   UNL     1       1.607 -15.694 -22.651  1.00  0.00     0.194 C 
ATOM     13  O   UNL     1       2.710 -15.124 -22.876  1.00  0.00    -0.289 OA
ATOM     14  C   UNL     1       1.852 -15.284 -20.197  1.00  0.00     0.059 A 
ATOM     15  C   UNL     1       1.380 -15.371 -18.885  1.00  0.00     0.120 A 
ATOM     16  C   UNL     1       0.149 -15.974 -18.631  1.00  0.00     0.093 A 
ATOM     17  C   UNL     1      -0.625 -16.490 -19.675  1.00  0.00     0.131 A 
ENDROOT
BRANCH   6  18
ATOM     18  O   UNL     1      -2.416 -17.963 -24.412  1.00  0.00    -0.507 OA
ATOM     19  H   UNL     1      -2.639 -18.912 -24.688  1.00  0.00     0.293 HD
ENDBRANCH   6  18
BRANCH  17  20
ATOM     20  O   UNL     1      -1.793 -17.173 -19.323  1.00  0.00    -0.507 OA
ATOM     21  H   UNL     1      -2.516 -17.422 -19.983  1.00  0.00     0.293 HD
ENDBRANCH  17  20
BRANCH  15  22
ATOM     22  O   UNL     1       2.133 -14.875 -17.824  1.00  0.00    -0.508 OA
ATOM     23  H   UNL     1       1.890 -14.008 -17.360  1.00  0.00     0.293 HD
ENDBRANCH  15  22
TORSDOF 3
ENDMDL
MODEL 7
REMARK VINA RESULT:    -4.112      2.081      5.758
REMARK INTER + INTRA:          -4.473
REMARK INTER:                  -4.473
REMARK INTRA:                   0.000
REMARK UNBOUND:                 0.000
REMARK SMILES Cc1cc(O)c2c(c1)C(=O)c1cc(O)cc(O)c1C2=O
REMARK SMILES IDX 1 1 2 2 8 3 7 4 6 5 4 6 3 7 19 8 20 9 18 10 11 11 9 12 10 13
REMARK SMILES IDX 12 14 13 15 15 16 16 17 5 18 17 20 14 22
REMARK H PARENT 5 19 17 21 14 23
REMARK Flexibility Score: inf
ROOT
ATOM      1  C   UNL     1       3.664 -14.875 -23.140  1.00  0.00     0.044 C 
ATOM      2  C   UNL     1       2.305 -15.505 -23.226  1.00  0.00    -0.047 A 
ATOM      3  C   UNL     1       1.509 -15.622 -22.082  1.00  0.00     0.016 A 
ATOM      4  C   UNL     1       0.251 -16.246 -22.144  1.00  0.00     0.038 A 
ATOM      5  C   UNL     1      -0.216 -16.765 -23.370  1.00  0.00     0.076 A 
ATOM      6  C   UNL     1       0.603 -16.669 -24.518  1.00  0.00     0.127 A 
ATOM      7  C   UNL     1       1.856 -16.046 -24.436  1.00  0.00     0.050 A 
ATOM      8  C   UNL     1      -1.566 -17.383 -23.428  1.00  0.00     0.201 C 
ATOM      9  O   UNL     1      -2.139 -17.516 -24.542  1.00  0.00    -0.288 OA
ATOM     10  C   UNL     1      -2.282 -17.736 -22.171  1.00  0.00     0.076 A 
ATOM     11  C   UNL     1      -1.836 -17.159 -20.958  1.00  0.00     0.041 A 
ATOM     12  C   UNL     1      -0.589 -16.359 -20.930  1.00  0.00     0.194 C 
ATOM     13  O   UNL     1      -0.232 -15.787 -19.862  1.00  0.00    -0.289 OA
ATOM     14  C   UNL     1      -2.574 -17.351 -19.778  1.00  0.00     0.059 A 
ATOM     15  C   UNL     1      -3.738 -18.124 -19.786  1.00  0.00     0.120 A 
ATOM     16  C   UNL     1      -4.156 -18.734 -20.967  1.00  0.00     0.093 A 
ATOM     17  C   UNL     1      -3.426 -18.581 -22.150  1.00  0.00     0.131 A 
ENDROOT
BRANCH   6  18
ATOM     18  O   UNL     1       0.184 -17.200 -25.738  1.00  0.00    -0.507 OA
ATOM     19  H   UNL     1       0.814 -17.718 -26.340  1.00  0.00     0.293 HD
ENDBRANCH   6  18
BRANCH  17  20
ATOM     20  O   UNL     1      -3.853 -19.313 -23.261  1.00  0.00    -0.507 OA
ATOM     21  H   UNL     1      -3.844 -18.955 -24.205  1.00  0.00     0.293 HD
ENDBRANCH  17  20
BRANCH  15  22
ATOM     22  O   UNL     1      -4.481 -18.303 -18.621  1.00  0.00    -0.508 OA
ATOM     23  H   UNL     1      -4.725 -19.227 -18.284  1.00  0.00     0.293 HD
ENDBRANCH  15  22
TORSDOF 3
ENDMDL
MODEL 8
REMARK VINA RESULT:    -3.935      2.163      6.355
REMARK INTER + INTRA:          -4.280
REMARK INTER:                  -4.280
REMARK INTRA:                   0.000
REMARK UNBOUND:                 0.000
REMARK SMILES Cc1cc(O)c2c(c1)C(=O)c1cc(O)cc(O)c1C2=O
REMARK SMILES IDX 1 1 2 2 8 3 7 4 6 5 4 6 3 7 19 8 20 9 18 10 11 11 9 12 10 13
REMARK SMILES IDX 12 14 13 15 15 16 16 17 5 18 17 20 14 22
REMARK H PARENT 5 19 17 21 14 23
REMARK Flexibility Score: inf
ROOT
ATOM      1  C   UNL     1       1.631 -18.908 -28.460  1.00  0.00     0.044 C 
ATOM      2  C   UNL     1       0.611 -18.076 -27.740  1.00  0.00    -0.047 A 
ATOM      3  C   UNL     1       0.750 -17.818 -26.372  1.00  0.00     0.016 A 
ATOM      4  C   UNL     1      -0.219 -17.072 -25.680  1.00  0.00     0.038 A 
ATOM      5  C   UNL     1      -1.350 -16.581 -26.367  1.00  0.00     0.076 A 
ATOM      6  C   UNL     1      -1.501 -16.868 -27.743  1.00  0.00     0.127 A 
ATOM      7  C   UNL     1      -0.524 -17.615 -28.415  1.00  0.00     0.050 A 
ATOM      8  C   UNL     1      -2.344 -15.759 -25.631  1.00  0.00     0.201 C 
ATOM      9  O   UNL     1      -3.140 -15.025 -26.275  1.00  0.00    -0.288 OA
ATOM     10  C   UNL     1      -2.324 -15.714 -24.142  1.00  0.00     0.076 A 
ATOM     11  C   UNL     1      -1.158 -16.156 -23.472  1.00  0.00     0.041 A 
ATOM     12  C   UNL     1      -0.060 -16.796 -24.234  1.00  0.00     0.194 C 
ATOM     13  O   UNL     1       1.007 -17.125 -23.644  1.00  0.00    -0.289 OA
ATOM     14  C   UNL     1      -1.046 -15.993 -22.081  1.00  0.00     0.059 A 
ATOM     15  C   UNL     1      -2.084 -15.413 -21.348  1.00  0.00     0.120 A 
ATOM     16  C   UNL     1      -3.254 -15.021 -21.995  1.00  0.00     0.093 A 
ATOM     17  C   UNL     1      -3.403 -15.195 -23.375  1.00  0.00     0.131 A 
ENDROOT
BRANCH   6  18
ATOM     18  O   UNL     1      -2.623 -16.424 -28.444  1.00  0.00    -0.507 OA
ATOM     19  H   UNL     1      -2.762 -15.444 -28.663  1.00  0.00     0.293 HD
ENDBRANCH   6  18
BRANCH  17  20
ATOM     20  O   UNL     1      -4.646 -14.875 -23.926  1.00  0.00    -0.507 OA
ATOM     21  H   UNL     1      -4.782 -14.156 -24.624  1.00  0.00     0.293 HD
ENDBRANCH  17  20
BRANCH  15  22
ATOM     22  O   UNL     1      -1.969 -15.235 -19.971  1.00  0.00    -0.508 OA
ATOM     23  H   UNL     1      -1.066 -15.230 -19.510  1.00  0.00     0.293 HD
ENDBRANCH  15  22
TORSDOF 3
ENDMDL
MODEL 9
REMARK VINA RESULT:    -3.747      1.974      3.284
REMARK INTER + INTRA:          -4.076
REMARK INTER:                  -4.076
REMARK INTRA:                   0.000
REMARK UNBOUND:                 0.000
REMARK SMILES Cc1cc(O)c2c(c1)C(=O)c1cc(O)cc(O)c1C2=O
REMARK SMILES IDX 1 1 2 2 8 3 7 4 6 5 4 6 3 7 19 8 20 9 18 10 11 11 9 12 10 13
REMARK SMILES IDX 12 14 13 15 15 16 16 17 5 18 17 20 14 22
REMARK H PARENT 5 19 17 21 14 23
REMARK Flexibility Score: inf
ROOT
ATOM      1  C   UNL     1      -0.651 -15.614 -18.679  1.00  0.00     0.044 C 
ATOM      2  C   UNL     1      -1.132 -15.674 -20.099  1.00  0.00    -0.047 A 
ATOM      3  C   UNL     1      -0.252 -16.029 -21.126  1.00  0.00     0.016 A 
ATOM      4  C   UNL     1      -0.682 -16.051 -22.464  1.00  0.00     0.038 A 
ATOM      5  C   UNL     1      -2.014 -15.706 -22.779  1.00  0.00     0.076 A 
ATOM      6  C   UNL     1      -2.893 -15.322 -21.740  1.00  0.00     0.127 A 
ATOM      7  C   UNL     1      -2.444 -15.304 -20.413  1.00  0.00     0.050 A 
ATOM      8  C   UNL     1      -2.465 -15.775 -24.193  1.00  0.00     0.201 C 
ATOM      9  O   UNL     1      -3.697 -15.831 -24.448  1.00  0.00    -0.288 OA
ATOM     10  C   UNL     1      -1.467 -15.894 -25.292  1.00  0.00     0.076 A 
ATOM     11  C   UNL     1      -0.151 -16.298 -24.964  1.00  0.00     0.041 A 
ATOM     12  C   UNL     1       0.254 -16.435 -23.546  1.00  0.00     0.194 C 
ATOM     13  O   UNL     1       1.406 -16.863 -23.257  1.00  0.00    -0.289 OA
ATOM     14  C   UNL     1       0.776 -16.563 -25.987  1.00  0.00     0.059 A 
ATOM     15  C   UNL     1       0.415 -16.414 -27.329  1.00  0.00     0.120 A 
ATOM     16  C   UNL     1      -0.865 -15.970 -27.656  1.00  0.00     0.093 A 
ATOM     17  C   UNL     1      -1.798 -15.675 -26.657  1.00  0.00     0.131 A 
ENDROOT
BRANCH   6  18
ATOM     18  O   UNL     1      -4.206 -14.946 -22.023  1.00  0.00    -0.507 OA
ATOM     19  H   UNL     1      -4.590 -14.065 -21.700  1.00  0.00     0.293 HD
ENDBRANCH   6  18
BRANCH  17  20
ATOM     20  O   UNL     1      -3.019 -15.133 -27.068  1.00  0.00    -0.507 OA
ATOM     21  H   UNL     1      -3.101 -14.363 -27.717  1.00  0.00     0.293 HD
ENDBRANCH  17  20
BRANCH  15  22
ATOM     22  O   UNL     1       1.327 -16.691 -28.345  1.00  0.00    -0.508 OA
ATOM     23  H   UNL     1       1.038 -17.128 -29.213  1.00  0.00     0.293 HD
ENDBRANCH  15  22
TORSDOF 3
ENDMDL
