MODEL 1
REMARK VINA RESULT:    -3.960      0.000      0.000
REMARK INTER + INTRA:          -5.870
REMARK INTER:                  -5.349
REMARK INTRA:                  -0.520
REMARK UNBOUND:                -0.520
REMARK SMILES CCCCCCCC(=O)[O-]
REMARK SMILES IDX 5 1 6 2 7 3 8 4 9 5 10 6 4 7 3 8 2 9 1 10
REMARK H PARENT
REMARK Flexibility Score: inf
ROOT
ATOM      1  C   UNL     1      98.596  91.849  86.646  1.00  0.00     0.000 C 
ENDROOT
BRANCH   1   2
ATOM      2  C   UNL     1      98.460  92.550  88.007  1.00  0.00     0.006 C 
BRANCH   2   3
ATOM      3  C   UNL     1      99.540  92.104  89.000  1.00  0.00     0.053 C 
BRANCH   3   4
ATOM      4  C   UNL     1      99.210  90.784  89.627  1.00  0.00     0.041 C 
ATOM      5  O   UNL     1      99.916  89.771  89.377  1.00  0.00    -0.550 OA
ATOM      6  O   UNL     1      98.145  90.679  90.511  1.00  0.00    -0.550 OA
ENDBRANCH   3   4
ENDBRANCH   2   3
ENDBRANCH   1   2
BRANCH   1   7
ATOM      7  C   UNL     1      99.966  92.132  86.018  1.00  0.00     0.000 C 
BRANCH   7   8
ATOM      8  C   UNL     1     100.716  90.828  85.721  1.00  0.00    -0.000 C 
BRANCH   8   9
ATOM      9  C   UNL     1      99.738  89.687  85.419  1.00  0.00    -0.003 C 
ATOM     10  C   UNL     1     100.135  88.411  86.156  1.00  0.00     0.004 C 
ENDBRANCH   8   9
ENDBRANCH   7   8
ENDBRANCH   1   7
TORSDOF 6
ENDMDL
MODEL 2
REMARK VINA RESULT:    -3.940      1.784      2.762
REMARK INTER + INTRA:          -5.843
REMARK INTER:                  -5.319
REMARK INTRA:                  -0.524
REMARK UNBOUND:                -0.520
REMARK SMILES CCCCCCCC(=O)[O-]
REMARK SMILES IDX 5 1 6 2 7 3 8 4 9 5 10 6 4 7 3 8 2 9 1 10
REMARK H PARENT
REMARK Flexibility Score: inf
ROOT
ATOM      1  C   UNL     1      99.495  90.054  84.947  1.00  0.00     0.000 C 
ENDROOT
BRANCH   1   2
ATOM      2  C   UNL     1      98.870  91.364  85.453  1.00  0.00     0.006 C 
BRANCH   2   3
ATOM      3  C   UNL     1      99.793  92.110  86.425  1.00  0.00     0.053 C 
BRANCH   3   4
ATOM      4  C   UNL     1      99.090  92.466  87.699  1.00  0.00     0.041 C 
ATOM      5  O   UNL     1      99.738  92.559  88.774  1.00  0.00    -0.550 OA
ATOM      6  O   UNL     1      97.726  92.727  87.693  1.00  0.00    -0.550 OA
ENDBRANCH   3   4
ENDBRANCH   2   3
ENDBRANCH   1   2
BRANCH   1   7
ATOM      7  C   UNL     1     100.645  89.608  85.857  1.00  0.00     0.000 C 
BRANCH   7   8
ATOM      8  C   UNL     1     100.519  88.122  86.216  1.00  0.00    -0.000 C 
BRANCH   8   9
ATOM      9  C   UNL     1      99.586  87.923  87.415  1.00  0.00    -0.003 C 
ATOM     10  C   UNL     1      99.885  88.930  88.521  1.00  0.00     0.004 C 
ENDBRANCH   8   9
ENDBRANCH   7   8
ENDBRANCH   1   7
TORSDOF 6
ENDMDL
MODEL 3
REMARK VINA RESULT:    -3.838      1.221      3.258
REMARK INTER + INTRA:          -5.704
REMARK INTER:                  -5.134
REMARK INTRA:                  -0.570
REMARK UNBOUND:                -0.520
REMARK SMILES CCCCCCCC(=O)[O-]
REMARK SMILES IDX 5 1 6 2 7 3 8 4 9 5 10 6 4 7 3 8 2 9 1 10
REMARK H PARENT
REMARK Flexibility Score: inf
ROOT
ATOM      1  C   UNL     1      99.687  89.740  85.504  1.00  0.00     0.000 C 
ENDROOT
BRANCH   1   2
ATOM      2  C   UNL     1     100.233  88.412  86.050  1.00  0.00     0.006 C 
BRANCH   2   3
ATOM      3  C   UNL     1      99.534  87.986  87.347  1.00  0.00     0.053 C 
BRANCH   3   4
ATOM      4  C   UNL     1     100.241  88.509  88.559  1.00  0.00     0.041 C 
ATOM      5  O   UNL     1     101.386  88.079  88.859  1.00  0.00    -0.550 OA
ATOM      6  O   UNL     1      99.650  89.494  89.340  1.00  0.00    -0.550 OA
ENDBRANCH   3   4
ENDBRANCH   2   3
ENDBRANCH   1   2
BRANCH   1   7
ATOM      7  C   UNL     1     100.725  90.860  85.644  1.00  0.00     0.000 C 
BRANCH   7   8
ATOM      8  C   UNL     1     100.311  91.863  86.728  1.00  0.00    -0.000 C 
BRANCH   8   9
ATOM      9  C   UNL     1      98.786  91.924  86.868  1.00  0.00    -0.003 C 
ATOM     10  C   UNL     1      98.378  92.663  88.139  1.00  0.00     0.004 C 
ENDBRANCH   8   9
ENDBRANCH   7   8
ENDBRANCH   1   7
TORSDOF 6
ENDMDL
MODEL 4
REMARK VINA RESULT:    -3.763      1.554      2.764
REMARK INTER + INTRA:          -5.603
REMARK INTER:                  -5.129
REMARK INTRA:                  -0.475
REMARK UNBOUND:                -0.520
REMARK SMILES CCCCCCCC(=O)[O-]
REMARK SMILES IDX 5 1 6 2 7 3 8 4 9 5 10 6 4 7 3 8 2 9 1 10
REMARK H PARENT
REMARK Flexibility Score: inf
ROOT
ATOM      1  C   UNL     1      99.459  88.353  87.176  1.00  0.00     0.000 C 
ENDROOT
BRANCH   1   2
ATOM      2  C   UNL     1     100.118  88.732  88.511  1.00  0.00     0.006 C 
BRANCH   2   3
ATOM      3  C   UNL     1      99.545  90.030  89.093  1.00  0.00     0.053 C 
BRANCH   3   4
ATOM      4  C   UNL     1      99.298  89.919  90.567  1.00  0.00     0.041 C 
ATOM      5  O   UNL     1      98.179  90.238  91.046  1.00  0.00    -0.550 OA
ATOM      6  O   UNL     1     100.292  89.431  91.405  1.00  0.00    -0.550 OA
ENDBRANCH   3   4
ENDBRANCH   2   3
ENDBRANCH   1   2
BRANCH   1   7
ATOM      7  C   UNL     1     100.305  88.835  85.990  1.00  0.00     0.000 C 
BRANCH   7   8
ATOM      8  C   UNL     1      99.553  89.890  85.170  1.00  0.00    -0.000 C 
BRANCH   8   9
ATOM      9  C   UNL     1      99.958  91.307  85.591  1.00  0.00    -0.003 C 
ATOM     10  C   UNL     1     101.429  91.363  85.991  1.00  0.00     0.004 C 
ENDBRANCH   8   9
ENDBRANCH   7   8
ENDBRANCH   1   7
TORSDOF 6
ENDMDL
MODEL 5
REMARK VINA RESULT:    -3.748     11.776     12.803
REMARK INTER + INTRA:          -5.583
REMARK INTER:                  -5.242
REMARK INTRA:                  -0.341
REMARK UNBOUND:                -0.520
REMARK SMILES CCCCCCCC(=O)[O-]
REMARK SMILES IDX 5 1 6 2 7 3 8 4 9 5 10 6 4 7 3 8 2 9 1 10
REMARK H PARENT
REMARK Flexibility Score: inf
ROOT
ATOM      1  C   UNL     1     105.452  97.036  96.698  1.00  0.00     0.000 C 
ENDROOT
BRANCH   1   2
ATOM      2  C   UNL     1     105.189  97.545  95.272  1.00  0.00     0.006 C 
BRANCH   2   3
ATOM      3  C   UNL     1     103.820  98.222  95.141  1.00  0.00     0.053 C 
BRANCH   3   4
ATOM      4  C   UNL     1     103.948  99.689  94.866  1.00  0.00     0.041 C 
ATOM      5  O   UNL     1     103.165 100.252  94.056  1.00  0.00    -0.550 OA
ATOM      6  O   UNL     1     104.910 100.441  95.528  1.00  0.00    -0.550 OA
ENDBRANCH   3   4
ENDBRANCH   2   3
ENDBRANCH   1   2
BRANCH   1   7
ATOM      7  C   UNL     1     104.145  96.936  97.494  1.00  0.00     0.000 C 
BRANCH   7   8
ATOM      8  C   UNL     1     104.021  95.571  98.182  1.00  0.00    -0.000 C 
BRANCH   8   9
ATOM      9  C   UNL     1     102.748  95.496  99.031  1.00  0.00    -0.003 C 
ATOM     10  C   UNL     1     101.698  96.488  98.541  1.00  0.00     0.004 C 
ENDBRANCH   8   9
ENDBRANCH   7   8
ENDBRANCH   1   7
TORSDOF 6
ENDMDL
MODEL 6
REMARK VINA RESULT:    -3.645      2.596      4.633
REMARK INTER + INTRA:          -5.443
REMARK INTER:                  -5.112
REMARK INTRA:                  -0.331
REMARK UNBOUND:                -0.520
REMARK SMILES CCCCCCCC(=O)[O-]
REMARK SMILES IDX 5 1 6 2 7 3 8 4 9 5 10 6 4 7 3 8 2 9 1 10
REMARK H PARENT
REMARK Flexibility Score: inf
ROOT
ATOM      1  C   UNL     1      99.546  88.122  87.317  1.00  0.00     0.000 C 
ENDROOT
BRANCH   1   2
ATOM      2  C   UNL     1     100.345  88.463  86.050  1.00  0.00     0.006 C 
BRANCH   2   3
ATOM      3  C   UNL     1      99.655  89.537  85.201  1.00  0.00     0.053 C 
BRANCH   3   4
ATOM      4  C   UNL     1     100.156  90.911  85.525  1.00  0.00     0.041 C 
ATOM      5  O   UNL     1     101.346  91.078  85.903  1.00  0.00    -0.550 OA
ATOM      6  O   UNL     1      99.320  92.010  85.379  1.00  0.00    -0.550 OA
ENDBRANCH   3   4
ENDBRANCH   2   3
ENDBRANCH   1   2
BRANCH   1   7
ATOM      7  C   UNL     1     100.262  88.637  88.572  1.00  0.00     0.000 C 
BRANCH   7   8
ATOM      8  C   UNL     1      99.623  89.936  89.076  1.00  0.00    -0.000 C 
BRANCH   8   9
ATOM      9  C   UNL     1      99.587  89.974  90.607  1.00  0.00    -0.003 C 
ATOM     10  C   UNL     1      98.197  90.343  91.117  1.00  0.00     0.004 C 
ENDBRANCH   8   9
ENDBRANCH   7   8
ENDBRANCH   1   7
TORSDOF 6
ENDMDL
MODEL 7
REMARK VINA RESULT:    -3.575     11.823     12.833
REMARK INTER + INTRA:          -5.349
REMARK INTER:                  -5.080
REMARK INTRA:                  -0.269
REMARK UNBOUND:                -0.520
REMARK SMILES CCCCCCCC(=O)[O-]
REMARK SMILES IDX 5 1 6 2 7 3 8 4 9 5 10 6 4 7 3 8 2 9 1 10
REMARK H PARENT
REMARK Flexibility Score: inf
ROOT
ATOM      1  C   UNL     1     104.259  96.926  97.388  1.00  0.00     0.000 C 
ENDROOT
BRANCH   1   2
ATOM      2  C   UNL     1     105.584  97.003  96.615  1.00  0.00     0.006 C 
BRANCH   2   3
ATOM      3  C   UNL     1     105.393  97.528  95.186  1.00  0.00     0.053 C 
BRANCH   3   4
ATOM      4  C   UNL     1     104.712  98.862  95.170  1.00  0.00     0.041 C 
ATOM      5  O   UNL     1     105.312  99.884  95.595  1.00  0.00    -0.550 OA
ATOM      6  O   UNL     1     103.428  98.982  94.655  1.00  0.00    -0.550 OA
ENDBRANCH   3   4
ENDBRANCH   2   3
ENDBRANCH   1   2
BRANCH   1   7
ATOM      7  C   UNL     1     104.116  95.576  98.101  1.00  0.00     0.000 C 
BRANCH   7   8
ATOM      8  C   UNL     1     102.885  95.564  99.016  1.00  0.00    -0.000 C 
BRANCH   8   9
ATOM      9  C   UNL     1     101.976  96.764  98.732  1.00  0.00    -0.003 C 
ATOM     10  C   UNL     1     100.662  96.322  98.096  1.00  0.00     0.004 C 
ENDBRANCH   8   9
ENDBRANCH   7   8
ENDBRANCH   1   7
TORSDOF 6
ENDMDL
MODEL 8
REMARK VINA RESULT:    -3.541      1.872      2.857
REMARK INTER + INTRA:          -5.304
REMARK INTER:                  -4.675
REMARK INTRA:                  -0.629
REMARK UNBOUND:                -0.520
REMARK SMILES CCCCCCCC(=O)[O-]
REMARK SMILES IDX 5 1 6 2 7 3 8 4 9 5 10 6 4 7 3 8 2 9 1 10
REMARK H PARENT
REMARK Flexibility Score: inf
ROOT
ATOM      1  C   UNL     1      99.722  89.116  88.876  1.00  0.00     0.000 C 
ENDROOT
BRANCH   1   2
ATOM      2  C   UNL     1      99.798  90.416  89.692  1.00  0.00     0.006 C 
BRANCH   2   3
ATOM      3  C   UNL     1      98.535  91.273  89.538  1.00  0.00     0.053 C 
BRANCH   3   4
ATOM      4  C   UNL     1      98.729  92.377  88.544  1.00  0.00     0.041 C 
ATOM      5  O   UNL     1      97.841  92.618  87.685  1.00  0.00    -0.550 OA
ATOM      6  O   UNL     1      99.875  93.160  88.589  1.00  0.00    -0.550 OA
ENDBRANCH   3   4
ENDBRANCH   2   3
ENDBRANCH   1   2
BRANCH   1   7
ATOM      7  C   UNL     1     100.485  89.255  87.553  1.00  0.00     0.000 C 
BRANCH   7   8
ATOM      8  C   UNL     1      99.519  89.456  86.379  1.00  0.00    -0.000 C 
BRANCH   8   9
ATOM      9  C   UNL     1     100.052  90.509  85.401  1.00  0.00    -0.003 C 
ATOM     10  C   UNL     1     101.275  91.220  85.970  1.00  0.00     0.004 C 
ENDBRANCH   8   9
ENDBRANCH   7   8
ENDBRANCH   1   7
TORSDOF 6
ENDMDL
MODEL 9
REMARK VINA RESULT:    -3.517     11.427     12.116
REMARK INTER + INTRA:          -5.271
REMARK INTER:                  -4.871
REMARK INTRA:                  -0.400
REMARK UNBOUND:                -0.520
REMARK SMILES CCCCCCCC(=O)[O-]
REMARK SMILES IDX 5 1 6 2 7 3 8 4 9 5 10 6 4 7 3 8 2 9 1 10
REMARK H PARENT
REMARK Flexibility Score: inf
ROOT
ATOM      1  C   UNL     1     104.117  95.615  98.019  1.00  0.00     0.000 C 
ENDROOT
BRANCH   1   2
ATOM      2  C   UNL     1     102.835  95.527  98.862  1.00  0.00     0.006 C 
BRANCH   2   3
ATOM      3  C   UNL     1     101.940  96.760  98.687  1.00  0.00     0.053 C 
BRANCH   3   4
ATOM      4  C   UNL     1     100.778  96.481  97.783  1.00  0.00     0.041 C 
ATOM      5  O   UNL     1     100.509  97.267  96.837  1.00  0.00    -0.550 OA
ATOM      6  O   UNL     1     100.012  95.337  97.966  1.00  0.00    -0.550 OA
ENDBRANCH   3   4
ENDBRANCH   2   3
ENDBRANCH   1   2
BRANCH   1   7
ATOM      7  C   UNL     1     104.339  97.043  97.506  1.00  0.00     0.000 C 
BRANCH   7   8
ATOM      8  C   UNL     1     105.461  97.084  96.461  1.00  0.00    -0.000 C 
BRANCH   8   9
ATOM      9  C   UNL     1     104.969  97.707  95.150  1.00  0.00    -0.003 C 
ATOM     10  C   UNL     1     103.581  98.318  95.316  1.00  0.00     0.004 C 
ENDBRANCH   8   9
ENDBRANCH   7   8
ENDBRANCH   1   7
TORSDOF 6
ENDMDL
