MODEL 1
REMARK VINA RESULT:    -3.369      0.000      0.000
REMARK INTER + INTRA:          -5.499
REMARK INTER:                  -4.944
REMARK INTRA:                  -0.555
REMARK UNBOUND:                -0.555
REMARK SMILES O=C([O-])CCCCCCCC(=O)[O-]
REMARK SMILES IDX 7 1 6 2 5 3 4 4 2 5 1 6 3 7 8 8 9 9 10 10 11 11 12 12 13 13
REMARK H PARENT
REMARK Flexibility Score: inf
ROOT
ATOM      1  C   UNL     1      24.466   7.633  30.356  1.00  0.00     0.000 C 
ENDROOT
BRANCH   1   2
ATOM      2  C   UNL     1      23.276   6.909  31.002  1.00  0.00     0.000 C 
BRANCH   2   3
ATOM      3  C   UNL     1      22.631   5.869  30.067  1.00  0.00     0.006 C 
BRANCH   3   4
ATOM      4  C   UNL     1      23.387   5.651  28.747  1.00  0.00     0.053 C 
BRANCH   4   5
ATOM      5  C   UNL     1      22.866   4.468  27.989  1.00  0.00     0.041 C 
ATOM      6  O   UNL     1      23.115   4.342  26.762  1.00  0.00    -0.550 OA
ATOM      7  O   UNL     1      22.077   3.522  28.633  1.00  0.00    -0.550 OA
ENDBRANCH   4   5
ENDBRANCH   3   4
ENDBRANCH   2   3
ENDBRANCH   1   2
BRANCH   1   8
ATOM      8  C   UNL     1      24.337   9.153  30.516  1.00  0.00     0.000 C 
BRANCH   8   9
ATOM      9  C   UNL     1      24.725   9.879  29.222  1.00  0.00     0.006 C 
BRANCH   9  10
ATOM     10  C   UNL     1      25.460   8.938  28.263  1.00  0.00     0.053 C 
BRANCH  10  11
ATOM     11  C   UNL     1      24.906   9.062  26.879  1.00  0.00     0.041 C 
ATOM     12  O   UNL     1      25.436   9.852  26.053  1.00  0.00    -0.550 OA
ATOM     13  O   UNL     1      23.835   8.269  26.485  1.00  0.00    -0.550 OA
ENDBRANCH  10  11
ENDBRANCH   9  10
ENDBRANCH   8   9
ENDBRANCH   1   8
TORSDOF 8
ENDMDL
MODEL 2
REMARK VINA RESULT:    -3.350      3.545      4.633
REMARK INTER + INTRA:          -5.472
REMARK INTER:                  -5.056
REMARK INTRA:                  -0.416
REMARK UNBOUND:                -0.555
REMARK SMILES O=C([O-])CCCCCCCC(=O)[O-]
REMARK SMILES IDX 7 1 6 2 5 3 4 4 2 5 1 6 3 7 8 8 9 9 10 10 11 11 12 12 13 13
REMARK H PARENT
REMARK Flexibility Score: inf
ROOT
ATOM      1  C   UNL     1      22.264   5.272  30.391  1.00  0.00     0.000 C 
ENDROOT
BRANCH   1   2
ATOM      2  C   UNL     1      21.908   4.701  31.772  1.00  0.00     0.000 C 
BRANCH   2   3
ATOM      3  C   UNL     1      22.497   5.527  32.929  1.00  0.00     0.006 C 
BRANCH   3   4
ATOM      4  C   UNL     1      21.478   5.917  34.011  1.00  0.00     0.053 C 
BRANCH   4   5
ATOM      5  C   UNL     1      21.276   7.400  34.086  1.00  0.00     0.041 C 
ATOM      6  O   UNL     1      20.268   7.873  34.672  1.00  0.00    -0.550 OA
ATOM      7  O   UNL     1      22.185   8.258  33.477  1.00  0.00    -0.550 OA
ENDBRANCH   4   5
ENDBRANCH   3   4
ENDBRANCH   2   3
ENDBRANCH   1   2
BRANCH   1   8
ATOM      8  C   UNL     1      23.040   6.588  30.524  1.00  0.00     0.000 C 
BRANCH   8   9
ATOM      9  C   UNL     1      24.080   6.730  29.406  1.00  0.00     0.006 C 
BRANCH   9  10
ATOM     10  C   UNL     1      25.231   7.642  29.839  1.00  0.00     0.053 C 
BRANCH  10  11
ATOM     11  C   UNL     1      25.227   8.907  29.040  1.00  0.00     0.041 C 
ATOM     12  O   UNL     1      25.247  10.024  29.622  1.00  0.00    -0.550 OA
ATOM     13  O   UNL     1      25.251   8.853  27.652  1.00  0.00    -0.550 OA
ENDBRANCH  10  11
ENDBRANCH   9  10
ENDBRANCH   8   9
ENDBRANCH   1   8
TORSDOF 8
ENDMDL
MODEL 3
REMARK VINA RESULT:    -3.149     13.034     14.417
REMARK INTER + INTRA:          -5.178
REMARK INTER:                  -4.291
REMARK INTRA:                  -0.886
REMARK UNBOUND:                -0.555
REMARK SMILES O=C([O-])CCCCCCCC(=O)[O-]
REMARK SMILES IDX 7 1 6 2 5 3 4 4 2 5 1 6 3 7 8 8 9 9 10 10 11 11 12 12 13 13
REMARK H PARENT
REMARK Flexibility Score: inf
ROOT
ATOM      1  C   UNL     1       8.421   7.457  30.796  1.00  0.00     0.000 C 
ENDROOT
BRANCH   1   2
ATOM      2  C   UNL     1       8.995   8.340  31.915  1.00  0.00     0.000 C 
BRANCH   2   3
ATOM      3  C   UNL     1      10.533   8.329  31.955  1.00  0.00     0.006 C 
BRANCH   3   4
ATOM      4  C   UNL     1      11.128   7.864  33.293  1.00  0.00     0.053 C 
BRANCH   4   5
ATOM      5  C   UNL     1      11.277   6.374  33.356  1.00  0.00     0.041 C 
ATOM      6  O   UNL     1      12.152   5.795  32.662  1.00  0.00    -0.550 OA
ATOM      7  O   UNL     1      10.424   5.623  34.156  1.00  0.00    -0.550 OA
ENDBRANCH   4   5
ENDBRANCH   3   4
ENDBRANCH   2   3
ENDBRANCH   1   2
BRANCH   1   8
ATOM      8  C   UNL     1       8.104   6.050  31.315  1.00  0.00     0.000 C 
BRANCH   8   9
ATOM      9  C   UNL     1       9.041   5.008  30.692  1.00  0.00     0.006 C 
BRANCH   9  10
ATOM     10  C   UNL     1       9.538   5.468  29.319  1.00  0.00     0.053 C 
BRANCH  10  11
ATOM     11  C   UNL     1      11.014   5.257  29.198  1.00  0.00     0.041 C 
ATOM     12  O   UNL     1      11.807   6.224  29.345  1.00  0.00    -0.550 OA
ATOM     13  O   UNL     1      11.517   3.982  28.972  1.00  0.00    -0.550 OA
ENDBRANCH  10  11
ENDBRANCH   9  10
ENDBRANCH   8   9
ENDBRANCH   1   8
TORSDOF 8
ENDMDL
MODEL 4
REMARK VINA RESULT:    -3.149      2.014      2.659
REMARK INTER + INTRA:          -5.178
REMARK INTER:                  -4.767
REMARK INTRA:                  -0.411
REMARK UNBOUND:                -0.555
REMARK SMILES O=C([O-])CCCCCCCC(=O)[O-]
REMARK SMILES IDX 7 1 6 2 5 3 4 4 2 5 1 6 3 7 8 8 9 9 10 10 11 11 12 12 13 13
REMARK H PARENT
REMARK Flexibility Score: inf
ROOT
ATOM      1  C   UNL     1      25.283   7.906  29.968  1.00  0.00     0.000 C 
ENDROOT
BRANCH   1   2
ATOM      2  C   UNL     1      24.281   6.762  29.752  1.00  0.00     0.000 C 
BRANCH   2   3
ATOM      3  C   UNL     1      23.137   6.769  30.781  1.00  0.00     0.006 C 
BRANCH   3   4
ATOM      4  C   UNL     1      22.347   5.454  30.858  1.00  0.00     0.053 C 
BRANCH   4   5
ATOM      5  C   UNL     1      21.998   5.088  32.269  1.00  0.00     0.041 C 
ATOM      6  O   UNL     1      22.885   5.089  33.161  1.00  0.00    -0.550 OA
ATOM      7  O   UNL     1      20.699   4.713  32.589  1.00  0.00    -0.550 OA
ENDBRANCH   4   5
ENDBRANCH   3   4
ENDBRANCH   2   3
ENDBRANCH   1   2
BRANCH   1   8
ATOM      8  C   UNL     1      24.557   9.236  30.201  1.00  0.00     0.000 C 
BRANCH   8   9
ATOM      9  C   UNL     1      24.550  10.091  28.928  1.00  0.00     0.006 C 
BRANCH   9  10
ATOM     10  C   UNL     1      25.533   9.540  27.891  1.00  0.00     0.053 C 
BRANCH  10  11
ATOM     11  C   UNL     1      24.826   9.239  26.607  1.00  0.00     0.041 C 
ATOM     12  O   UNL     1      25.185   9.802  25.539  1.00  0.00    -0.550 OA
ATOM     13  O   UNL     1      23.803   8.300  26.581  1.00  0.00    -0.550 OA
ENDBRANCH  10  11
ENDBRANCH   9  10
ENDBRANCH   8   9
ENDBRANCH   1   8
TORSDOF 8
ENDMDL
MODEL 5
REMARK VINA RESULT:    -3.140      4.243      6.433
REMARK INTER + INTRA:          -5.164
REMARK INTER:                  -4.747
REMARK INTRA:                  -0.418
REMARK UNBOUND:                -0.555
REMARK SMILES O=C([O-])CCCCCCCC(=O)[O-]
REMARK SMILES IDX 7 1 6 2 5 3 4 4 2 5 1 6 3 7 8 8 9 9 10 10 11 11 12 12 13 13
REMARK H PARENT
REMARK Flexibility Score: inf
ROOT
ATOM      1  C   UNL     1      22.917   6.099  31.403  1.00  0.00     0.000 C 
ENDROOT
BRANCH   1   2
ATOM      2  C   UNL     1      22.980   5.945  29.876  1.00  0.00     0.000 C 
BRANCH   2   3
ATOM      3  C   UNL     1      24.033   6.860  29.226  1.00  0.00     0.006 C 
BRANCH   3   4
ATOM      4  C   UNL     1      24.918   7.617  30.229  1.00  0.00     0.053 C 
BRANCH   4   5
ATOM      5  C   UNL     1      24.671   9.095  30.194  1.00  0.00     0.041 C 
ATOM      6  O   UNL     1      23.876   9.624  31.014  1.00  0.00    -0.550 OA
ATOM      7  O   UNL     1      25.293   9.882  29.232  1.00  0.00    -0.550 OA
ENDBRANCH   4   5
ENDBRANCH   3   4
ENDBRANCH   2   3
ENDBRANCH   1   2
BRANCH   1   8
ATOM      8  C   UNL     1      21.465   6.126  31.893  1.00  0.00     0.000 C 
BRANCH   8   9
ATOM      9  C   UNL     1      21.395   6.437  33.393  1.00  0.00     0.006 C 
BRANCH   9  10
ATOM     10  C   UNL     1      21.819   7.881  33.675  1.00  0.00     0.053 C 
BRANCH  10  11
ATOM     11  C   UNL     1      21.211   8.366  34.953  1.00  0.00     0.041 C 
ATOM     12  O   UNL     1      19.959   8.434  35.074  1.00  0.00    -0.550 OA
ATOM     13  O   UNL     1      22.025   8.695  36.029  1.00  0.00    -0.550 OA
ENDBRANCH  10  11
ENDBRANCH   9  10
ENDBRANCH   8   9
ENDBRANCH   1   8
TORSDOF 8
ENDMDL
MODEL 6
REMARK VINA RESULT:    -3.114      3.492      6.014
REMARK INTER + INTRA:          -5.126
REMARK INTER:                  -4.871
REMARK INTRA:                  -0.254
REMARK UNBOUND:                -0.555
REMARK SMILES O=C([O-])CCCCCCCC(=O)[O-]
REMARK SMILES IDX 7 1 6 2 5 3 4 4 2 5 1 6 3 7 8 8 9 9 10 10 11 11 12 12 13 13
REMARK H PARENT
REMARK Flexibility Score: inf
ROOT
ATOM      1  C   UNL     1      23.553   6.785  29.936  1.00  0.00     0.000 C 
ENDROOT
BRANCH   1   2
ATOM      2  C   UNL     1      24.893   7.534  29.881  1.00  0.00     0.000 C 
BRANCH   2   3
ATOM      3  C   UNL     1      24.801   8.866  29.117  1.00  0.00     0.006 C 
BRANCH   3   4
ATOM      4  C   UNL     1      25.569   8.887  27.786  1.00  0.00     0.053 C 
BRANCH   4   5
ATOM      5  C   UNL     1      24.745   9.451  26.669  1.00  0.00     0.041 C 
ATOM      6  O   UNL     1      23.681  10.075  26.919  1.00  0.00    -0.550 OA
ATOM      7  O   UNL     1      25.136   9.256  25.350  1.00  0.00    -0.550 OA
ENDBRANCH   4   5
ENDBRANCH   3   4
ENDBRANCH   2   3
ENDBRANCH   1   2
BRANCH   1   8
ATOM      8  C   UNL     1      23.164   6.461  31.383  1.00  0.00     0.000 C 
BRANCH   8   9
ATOM      9  C   UNL     1      22.501   7.667  32.059  1.00  0.00     0.006 C 
BRANCH   9  10
ATOM     10  C   UNL     1      21.439   7.217  33.067  1.00  0.00     0.053 C 
BRANCH  10  11
ATOM     11  C   UNL     1      21.702   7.821  34.410  1.00  0.00     0.041 C 
ATOM     12  O   UNL     1      21.322   7.231  35.456  1.00  0.00    -0.550 OA
ATOM     13  O   UNL     1      22.412   9.011  34.510  1.00  0.00    -0.550 OA
ENDBRANCH  10  11
ENDBRANCH   9  10
ENDBRANCH   8   9
ENDBRANCH   1   8
TORSDOF 8
ENDMDL
MODEL 7
REMARK VINA RESULT:    -3.082     13.873     14.995
REMARK INTER + INTRA:          -5.079
REMARK INTER:                  -4.292
REMARK INTRA:                  -0.787
REMARK UNBOUND:                -0.555
REMARK SMILES O=C([O-])CCCCCCCC(=O)[O-]
REMARK SMILES IDX 7 1 6 2 5 3 4 4 2 5 1 6 3 7 8 8 9 9 10 10 11 11 12 12 13 13
REMARK H PARENT
REMARK Flexibility Score: inf
ROOT
ATOM      1  C   UNL     1       9.298   5.373  29.483  1.00  0.00     0.000 C 
ENDROOT
BRANCH   1   2
ATOM      2  C   UNL     1       9.134   4.305  30.575  1.00  0.00     0.000 C 
BRANCH   2   3
ATOM      3  C   UNL     1       8.558   4.873  31.884  1.00  0.00     0.006 C 
BRANCH   3   4
ATOM      4  C   UNL     1       9.156   4.258  33.159  1.00  0.00     0.053 C 
BRANCH   4   5
ATOM      5  C   UNL     1      10.306   5.062  33.686  1.00  0.00     0.041 C 
ATOM      6  O   UNL     1      11.440   4.974  33.148  1.00  0.00    -0.550 OA
ATOM      7  O   UNL     1      10.131   5.881  34.795  1.00  0.00    -0.550 OA
ENDBRANCH   4   5
ENDBRANCH   3   4
ENDBRANCH   2   3
ENDBRANCH   1   2
BRANCH   1   8
ATOM      8  C   UNL     1       8.315   6.531  29.696  1.00  0.00     0.000 C 
BRANCH   8   9
ATOM      9  C   UNL     1       9.048   7.877  29.725  1.00  0.00     0.006 C 
BRANCH   9  10
ATOM     10  C   UNL     1      10.359   7.773  30.510  1.00  0.00     0.053 C 
BRANCH  10  11
ATOM     11  C   UNL     1      10.172   8.272  31.909  1.00  0.00     0.041 C 
ATOM     12  O   UNL     1       9.022   8.569  32.328  1.00  0.00    -0.550 OA
ATOM     13  O   UNL     1      11.263   8.362  32.765  1.00  0.00    -0.550 OA
ENDBRANCH  10  11
ENDBRANCH   9  10
ENDBRANCH   8   9
ENDBRANCH   1   8
TORSDOF 8
ENDMDL
MODEL 8
REMARK VINA RESULT:    -3.082      5.151      6.286
REMARK INTER + INTRA:          -5.079
REMARK INTER:                  -4.776
REMARK INTRA:                  -0.303
REMARK UNBOUND:                -0.555
REMARK SMILES O=C([O-])CCCCCCCC(=O)[O-]
REMARK SMILES IDX 7 1 6 2 5 3 4 4 2 5 1 6 3 7 8 8 9 9 10 10 11 11 12 12 13 13
REMARK H PARENT
REMARK Flexibility Score: inf
ROOT
ATOM      1  C   UNL     1      22.224   5.971  32.896  1.00  0.00     0.000 C 
ENDROOT
BRANCH   1   2
ATOM      2  C   UNL     1      21.726   7.345  33.371  1.00  0.00     0.000 C 
BRANCH   2   3
ATOM      3  C   UNL     1      21.037   7.287  34.746  1.00  0.00     0.006 C 
BRANCH   3   4
ATOM      4  C   UNL     1      20.349   8.595  35.164  1.00  0.00     0.053 C 
BRANCH   4   5
ATOM      5  C   UNL     1      21.049   9.259  36.310  1.00  0.00     0.041 C 
ATOM      6  O   UNL     1      22.304   9.228  36.389  1.00  0.00    -0.550 OA
ATOM      7  O   UNL     1      20.311   9.882  37.310  1.00  0.00    -0.550 OA
ENDBRANCH   4   5
ENDBRANCH   3   4
ENDBRANCH   2   3
ENDBRANCH   1   2
BRANCH   1   8
ATOM      8  C   UNL     1      22.808   6.058  31.481  1.00  0.00     0.000 C 
BRANCH   8   9
ATOM      9  C   UNL     1      23.165   7.505  31.120  1.00  0.00     0.006 C 
BRANCH   9  10
ATOM     10  C   UNL     1      24.416   7.558  30.238  1.00  0.00     0.053 C 
BRANCH  10  11
ATOM     11  C   UNL     1      24.833   8.976  30.006  1.00  0.00     0.041 C 
ATOM     12  O   UNL     1      24.781   9.814  30.945  1.00  0.00    -0.550 OA
ATOM     13  O   UNL     1      25.328   9.361  28.766  1.00  0.00    -0.550 OA
ENDBRANCH  10  11
ENDBRANCH   9  10
ENDBRANCH   8   9
ENDBRANCH   1   8
TORSDOF 8
ENDMDL
MODEL 9
REMARK VINA RESULT:    -3.076     12.996     14.236
REMARK INTER + INTRA:          -5.069
REMARK INTER:                  -4.240
REMARK INTRA:                  -0.830
REMARK UNBOUND:                -0.555
REMARK SMILES O=C([O-])CCCCCCCC(=O)[O-]
REMARK SMILES IDX 7 1 6 2 5 3 4 4 2 5 1 6 3 7 8 8 9 9 10 10 11 11 12 12 13 13
REMARK H PARENT
REMARK Flexibility Score: inf
ROOT
ATOM      1  C   UNL     1       8.423   7.306  30.834  1.00  0.00     0.000 C 
ENDROOT
BRANCH   1   2
ATOM      2  C   UNL     1       8.249   5.903  31.433  1.00  0.00     0.000 C 
BRANCH   2   3
ATOM      3  C   UNL     1       9.174   4.857  30.785  1.00  0.00     0.006 C 
BRANCH   3   4
ATOM      4  C   UNL     1       9.568   5.175  29.334  1.00  0.00     0.053 C 
BRANCH   4   5
ATOM      5  C   UNL     1      11.054   5.174  29.141  1.00  0.00     0.041 C 
ATOM      6  O   UNL     1      11.729   6.200  29.415  1.00  0.00    -0.550 OA
ATOM      7  O   UNL     1      11.687   4.050  28.624  1.00  0.00    -0.550 OA
ENDBRANCH   4   5
ENDBRANCH   3   4
ENDBRANCH   2   3
ENDBRANCH   1   2
BRANCH   1   8
ATOM      8  C   UNL     1       8.968   8.286  31.880  1.00  0.00     0.000 C 
BRANCH   8   9
ATOM      9  C   UNL     1      10.501   8.263  31.911  1.00  0.00     0.006 C 
BRANCH   9  10
ATOM     10  C   UNL     1      11.017   7.908  33.309  1.00  0.00     0.053 C 
BRANCH  10  11
ATOM     11  C   UNL     1      11.399   6.463  33.375  1.00  0.00     0.041 C 
ATOM     12  O   UNL     1      12.361   6.030  32.687  1.00  0.00    -0.550 OA
ATOM     13  O   UNL     1      10.724   5.604  34.233  1.00  0.00    -0.550 OA
ENDBRANCH  10  11
ENDBRANCH   9  10
ENDBRANCH   8   9
ENDBRANCH   1   8
TORSDOF 8
ENDMDL
