MODEL 1
REMARK VINA RESULT:    -5.031      0.000      0.000
REMARK INTER + INTRA:          -5.326
REMARK INTER:                  -5.326
REMARK INTRA:                   0.000
REMARK UNBOUND:                 0.000
REMARK SMILES Cc1cc(O)c(C)c(C)c1O
REMARK SMILES IDX 1 1 2 2 3 3 4 4 6 5 8 6 10 7 9 8 7 9 11 10 5 12
REMARK H PARENT 11 11 5 13
REMARK Flexibility Score: inf
ROOT
ATOM      1  C   UNL     1       9.289   6.681  -5.916  1.00  0.00     0.048 C 
ATOM      2  C   UNL     1       9.169   5.900  -7.198  1.00  0.00    -0.005 A 
ATOM      3  C   UNL     1       8.850   4.540  -7.142  1.00  0.00     0.053 A 
ATOM      4  C   UNL     1       8.719   3.781  -8.304  1.00  0.00     0.119 A 
ATOM      5  C   UNL     1       8.886   4.387  -9.571  1.00  0.00    -0.003 A 
ATOM      6  C   UNL     1       9.274   5.754  -9.640  1.00  0.00    -0.002 A 
ATOM      7  C   UNL     1       9.388   6.512  -8.451  1.00  0.00     0.121 A 
ATOM      8  C   UNL     1       9.541   6.418 -10.972  1.00  0.00     0.049 C 
ATOM      9  C   UNL     1       8.678   3.558 -10.820  1.00  0.00     0.049 C 
ENDROOT
BRANCH   7  10
ATOM     10  O   UNL     1       9.717   7.870  -8.535  1.00  0.00    -0.507 OA
ATOM     11  H   UNL     1       9.510   8.542  -7.808  1.00  0.00     0.293 HD
ENDBRANCH   7  10
BRANCH   4  12
ATOM     12  O   UNL     1       8.428   2.422  -8.159  1.00  0.00    -0.508 OA
ATOM     13  H   UNL     1       7.488   2.054  -8.096  1.00  0.00     0.293 HD
ENDBRANCH   4  12
TORSDOF 2
ENDMDL
MODEL 2
REMARK VINA RESULT:    -4.646      1.236      4.087
REMARK INTER + INTRA:          -4.918
REMARK INTER:                  -4.918
REMARK INTRA:                   0.000
REMARK UNBOUND:                 0.000
REMARK SMILES Cc1cc(O)c(C)c(C)c1O
REMARK SMILES IDX 1 1 2 2 3 3 4 4 6 5 8 6 10 7 9 8 7 9 11 10 5 12
REMARK H PARENT 11 11 5 13
REMARK Flexibility Score: inf
ROOT
ATOM      1  C   UNL     1       8.519   2.505  -9.877  1.00  0.00     0.048 C 
ATOM      2  C   UNL     1       8.829   3.916  -9.456  1.00  0.00    -0.005 A 
ATOM      3  C   UNL     1       9.146   4.867 -10.430  1.00  0.00     0.053 A 
ATOM      4  C   UNL     1       9.429   6.187 -10.086  1.00  0.00     0.119 A 
ATOM      5  C   UNL     1       9.376   6.596  -8.733  1.00  0.00    -0.003 A 
ATOM      6  C   UNL     1       9.118   5.624  -7.726  1.00  0.00    -0.002 A 
ATOM      7  C   UNL     1       8.818   4.293  -8.095  1.00  0.00     0.121 A 
ATOM      8  C   UNL     1       9.132   6.004  -6.261  1.00  0.00     0.049 C 
ATOM      9  C   UNL     1       9.626   8.048  -8.389  1.00  0.00     0.049 C 
ENDROOT
BRANCH   7  10
ATOM     10  O   UNL     1       8.512   3.360  -7.098  1.00  0.00    -0.507 OA
ATOM     11  H   UNL     1       7.853   2.603  -7.223  1.00  0.00     0.293 HD
ENDBRANCH   7  10
BRANCH   4  12
ATOM     12  O   UNL     1       9.767   7.067 -11.118  1.00  0.00    -0.508 OA
ATOM     13  H   UNL     1       9.680   8.073 -11.048  1.00  0.00     0.293 HD
ENDBRANCH   4  12
TORSDOF 2
ENDMDL
MODEL 3
REMARK VINA RESULT:    -4.643      5.356      7.066
REMARK INTER + INTRA:          -4.914
REMARK INTER:                  -4.914
REMARK INTRA:                   0.000
REMARK UNBOUND:                 0.000
REMARK SMILES Cc1cc(O)c(C)c(C)c1O
REMARK SMILES IDX 1 1 2 2 3 3 4 4 6 5 8 6 10 7 9 8 7 9 11 10 5 12
REMARK H PARENT 11 11 5 13
REMARK Flexibility Score: inf
ROOT
ATOM      1  C   UNL     1       6.942   9.081  -0.516  1.00  0.00     0.048 C 
ATOM      2  C   UNL     1       6.910   7.748  -1.213  1.00  0.00    -0.005 A 
ATOM      3  C   UNL     1       6.500   6.615  -0.503  1.00  0.00     0.053 A 
ATOM      4  C   UNL     1       6.446   5.362  -1.111  1.00  0.00     0.119 A 
ATOM      5  C   UNL     1       6.786   5.220  -2.477  1.00  0.00    -0.003 A 
ATOM      6  C   UNL     1       7.266   6.352  -3.193  1.00  0.00    -0.002 A 
ATOM      7  C   UNL     1       7.300   7.618  -2.563  1.00  0.00     0.121 A 
ATOM      8  C   UNL     1       7.716   6.225  -4.631  1.00  0.00     0.049 C 
ATOM      9  C   UNL     1       6.660   3.862  -3.133  1.00  0.00     0.049 C 
ENDROOT
BRANCH   7  10
ATOM     10  O   UNL     1       7.723   8.733  -3.295  1.00  0.00    -0.507 OA
ATOM     11  H   UNL     1       7.976   9.617  -2.872  1.00  0.00     0.293 HD
ENDBRANCH   7  10
BRANCH   4  12
ATOM     12  O   UNL     1       6.054   4.276  -0.323  1.00  0.00    -0.508 OA
ATOM     13  H   UNL     1       5.950   3.335  -0.678  1.00  0.00     0.293 HD
ENDBRANCH   4  12
TORSDOF 2
ENDMDL
MODEL 4
REMARK VINA RESULT:    -4.622      5.346      7.665
REMARK INTER + INTRA:          -4.892
REMARK INTER:                  -4.892
REMARK INTRA:                   0.000
REMARK UNBOUND:                 0.000
REMARK SMILES Cc1cc(O)c(C)c(C)c1O
REMARK SMILES IDX 1 1 2 2 3 3 4 4 6 5 8 6 10 7 9 8 7 9 11 10 5 12
REMARK H PARENT 11 11 5 13
REMARK Flexibility Score: inf
ROOT
ATOM      1  C   UNL     1       6.086   4.028  -0.315  1.00  0.00     0.048 C 
ATOM      2  C   UNL     1       6.498   5.225  -1.130  1.00  0.00    -0.005 A 
ATOM      3  C   UNL     1       6.493   6.490  -0.537  1.00  0.00     0.053 A 
ATOM      4  C   UNL     1       6.876   7.624  -1.251  1.00  0.00     0.119 A 
ATOM      5  C   UNL     1       7.304   7.507  -2.594  1.00  0.00    -0.003 A 
ATOM      6  C   UNL     1       7.253   6.235  -3.229  1.00  0.00    -0.002 A 
ATOM      7  C   UNL     1       6.875   5.093  -2.484  1.00  0.00     0.121 A 
ATOM      8  C   UNL     1       7.625   6.081  -4.687  1.00  0.00     0.049 C 
ATOM      9  C   UNL     1       7.776   8.742  -3.330  1.00  0.00     0.049 C 
ENDROOT
BRANCH   7  10
ATOM     10  O   UNL     1       6.881   3.840  -3.106  1.00  0.00    -0.507 OA
ATOM     11  H   UNL     1       7.718   3.395  -3.461  1.00  0.00     0.293 HD
ENDBRANCH   7  10
BRANCH   4  12
ATOM     12  O   UNL     1       6.814   8.856  -0.593  1.00  0.00    -0.508 OA
ATOM     13  H   UNL     1       7.291   9.051   0.277  1.00  0.00     0.293 HD
ENDBRANCH   4  12
TORSDOF 2
ENDMDL
MODEL 5
REMARK VINA RESULT:    -4.366      5.548      7.622
REMARK INTER + INTRA:          -4.621
REMARK INTER:                  -4.621
REMARK INTRA:                   0.000
REMARK UNBOUND:                 0.000
REMARK SMILES Cc1cc(O)c(C)c(C)c1O
REMARK SMILES IDX 1 1 2 2 3 3 4 4 6 5 8 6 10 7 9 8 7 9 11 10 5 12
REMARK H PARENT 11 11 5 13
REMARK Flexibility Score: inf
ROOT
ATOM      1  C   UNL     1       6.861   3.779  -1.740  1.00  0.00     0.048 C 
ATOM      2  C   UNL     1       6.985   5.230  -2.123  1.00  0.00    -0.005 A 
ATOM      3  C   UNL     1       7.232   5.565  -3.457  1.00  0.00     0.053 A 
ATOM      4  C   UNL     1       7.343   6.896  -3.858  1.00  0.00     0.119 A 
ATOM      5  C   UNL     1       7.184   7.938  -2.915  1.00  0.00    -0.003 A 
ATOM      6  C   UNL     1       6.997   7.609  -1.544  1.00  0.00    -0.002 A 
ATOM      7  C   UNL     1       6.871   6.254  -1.158  1.00  0.00     0.121 A 
ATOM      8  C   UNL     1       6.903   8.692  -0.492  1.00  0.00     0.049 C 
ATOM      9  C   UNL     1       7.247   9.375  -3.384  1.00  0.00     0.049 C 
ENDROOT
BRANCH   7  10
ATOM     10  O   UNL     1       6.633   5.946   0.186  1.00  0.00    -0.507 OA
ATOM     11  H   UNL     1       5.708   5.869   0.587  1.00  0.00     0.293 HD
ENDBRANCH   7  10
BRANCH   4  12
ATOM     12  O   UNL     1       7.621   7.145  -5.205  1.00  0.00    -0.508 OA
ATOM     13  H   UNL     1       8.189   6.538  -5.782  1.00  0.00     0.293 HD
ENDBRANCH   4  12
TORSDOF 2
ENDMDL
MODEL 6
REMARK VINA RESULT:    -4.266      5.830      7.519
REMARK INTER + INTRA:          -4.515
REMARK INTER:                  -4.515
REMARK INTRA:                   0.000
REMARK UNBOUND:                 0.000
REMARK SMILES Cc1cc(O)c(C)c(C)c1O
REMARK SMILES IDX 1 1 2 2 3 3 4 4 6 5 8 6 10 7 9 8 7 9 11 10 5 12
REMARK H PARENT 11 11 5 13
REMARK Flexibility Score: inf
ROOT
ATOM      1  C   UNL     1       6.456   4.113   1.024  1.00  0.00     0.048 C 
ATOM      2  C   UNL     1       6.640   4.666  -0.364  1.00  0.00    -0.005 A 
ATOM      3  C   UNL     1       6.548   3.804  -1.461  1.00  0.00     0.053 A 
ATOM      4  C   UNL     1       6.702   4.275  -2.764  1.00  0.00     0.119 A 
ATOM      5  C   UNL     1       6.932   5.650  -3.000  1.00  0.00    -0.003 A 
ATOM      6  C   UNL     1       7.092   6.526  -1.890  1.00  0.00    -0.002 A 
ATOM      7  C   UNL     1       6.918   6.033  -0.576  1.00  0.00     0.121 A 
ATOM      8  C   UNL     1       7.419   7.988  -2.098  1.00  0.00     0.049 C 
ATOM      9  C   UNL     1       7.033   6.149  -4.425  1.00  0.00     0.049 C 
ENDROOT
BRANCH   7  10
ATOM     10  O   UNL     1       7.024   6.916   0.504  1.00  0.00    -0.507 OA
ATOM     11  H   UNL     1       6.487   6.826   1.356  1.00  0.00     0.293 HD
ENDBRANCH   7  10
BRANCH   4  12
ATOM     12  O   UNL     1       6.625   3.342  -3.802  1.00  0.00    -0.508 OA
ATOM     13  H   UNL     1       6.699   3.586  -4.781  1.00  0.00     0.293 HD
ENDBRANCH   4  12
TORSDOF 2
ENDMDL
MODEL 7
REMARK VINA RESULT:    -4.236      0.934      3.154
REMARK INTER + INTRA:          -4.484
REMARK INTER:                  -4.484
REMARK INTRA:                   0.000
REMARK UNBOUND:                 0.000
REMARK SMILES Cc1cc(O)c(C)c(C)c1O
REMARK SMILES IDX 1 1 2 2 3 3 4 4 6 5 8 6 10 7 9 8 7 9 11 10 5 12
REMARK H PARENT 11 11 5 13
REMARK Flexibility Score: inf
ROOT
ATOM      1  C   UNL     1       8.677   5.980  -5.369  1.00  0.00     0.048 C 
ATOM      2  C   UNL     1       8.905   5.978  -6.857  1.00  0.00    -0.005 A 
ATOM      3  C   UNL     1       9.194   7.183  -7.506  1.00  0.00     0.053 A 
ATOM      4  C   UNL     1       9.422   7.226  -8.880  1.00  0.00     0.119 A 
ATOM      5  C   UNL     1       9.386   6.036  -9.644  1.00  0.00    -0.003 A 
ATOM      6  C   UNL     1       9.029   4.815  -9.008  1.00  0.00    -0.002 A 
ATOM      7  C   UNL     1       8.816   4.788  -7.610  1.00  0.00     0.121 A 
ATOM      8  C   UNL     1       8.900   3.535  -9.804  1.00  0.00     0.049 C 
ATOM      9  C   UNL     1       9.697   6.098 -11.124  1.00  0.00     0.049 C 
ENDROOT
BRANCH   7  10
ATOM     10  O   UNL     1       8.519   3.570  -6.988  1.00  0.00    -0.507 OA
ATOM     11  H   UNL     1       8.330   3.478  -5.998  1.00  0.00     0.293 HD
ENDBRANCH   7  10
BRANCH   4  12
ATOM     12  O   UNL     1       9.675   8.474  -9.455  1.00  0.00    -0.508 OA
ATOM     13  H   UNL     1      10.447   8.656 -10.084  1.00  0.00     0.293 HD
ENDBRANCH   4  12
TORSDOF 2
ENDMDL
MODEL 8
REMARK VINA RESULT:    -4.181      4.776      6.844
REMARK INTER + INTRA:          -4.425
REMARK INTER:                  -4.425
REMARK INTRA:                   0.000
REMARK UNBOUND:                 0.000
REMARK SMILES Cc1cc(O)c(C)c(C)c1O
REMARK SMILES IDX 1 1 2 2 3 3 4 4 6 5 8 6 10 7 9 8 7 9 11 10 5 12
REMARK H PARENT 11 11 5 13
REMARK Flexibility Score: inf
ROOT
ATOM      1  C   UNL     1       8.459   7.580  -5.305  1.00  0.00     0.048 C 
ATOM      2  C   UNL     1       7.831   6.884  -4.126  1.00  0.00    -0.005 A 
ATOM      3  C   UNL     1       7.474   5.537  -4.240  1.00  0.00     0.053 A 
ATOM      4  C   UNL     1       6.900   4.850  -3.171  1.00  0.00     0.119 A 
ATOM      5  C   UNL     1       6.690   5.506  -1.935  1.00  0.00    -0.003 A 
ATOM      6  C   UNL     1       6.990   6.893  -1.827  1.00  0.00    -0.002 A 
ATOM      7  C   UNL     1       7.585   7.569  -2.918  1.00  0.00     0.121 A 
ATOM      8  C   UNL     1       6.705   7.649  -0.549  1.00  0.00     0.049 C 
ATOM      9  C   UNL     1       6.124   4.724  -0.770  1.00  0.00     0.049 C 
ENDROOT
BRANCH   7  10
ATOM     10  O   UNL     1       7.925   8.919  -2.780  1.00  0.00    -0.507 OA
ATOM     11  H   UNL     1       8.856   9.282  -2.940  1.00  0.00     0.293 HD
ENDBRANCH   7  10
BRANCH   4  12
ATOM     12  O   UNL     1       6.544   3.514  -3.376  1.00  0.00    -0.508 OA
ATOM     13  H   UNL     1       7.105   2.731  -3.069  1.00  0.00     0.293 HD
ENDBRANCH   4  12
TORSDOF 2
ENDMDL
MODEL 9
REMARK VINA RESULT:    -3.828     11.975     13.050
REMARK INTER + INTRA:          -4.052
REMARK INTER:                  -4.052
REMARK INTRA:                   0.000
REMARK UNBOUND:                 0.000
REMARK SMILES Cc1cc(O)c(C)c(C)c1O
REMARK SMILES IDX 1 1 2 2 3 3 4 4 6 5 8 6 10 7 9 8 7 9 11 10 5 12
REMARK H PARENT 11 11 5 13
REMARK Flexibility Score: inf
ROOT
ATOM      1  C   UNL     1       1.634   8.947  -1.654  1.00  0.00     0.048 C 
ATOM      2  C   UNL     1       0.138   8.907  -1.813  1.00  0.00    -0.005 A 
ATOM      3  C   UNL     1      -0.659   8.625  -0.699  1.00  0.00     0.053 A 
ATOM      4  C   UNL     1      -2.049   8.588  -0.798  1.00  0.00     0.119 A 
ATOM      5  C   UNL     1      -2.682   8.861  -2.034  1.00  0.00    -0.003 A 
ATOM      6  C   UNL     1      -1.880   9.086  -3.187  1.00  0.00    -0.002 A 
ATOM      7  C   UNL     1      -0.472   9.134  -3.065  1.00  0.00     0.121 A 
ATOM      8  C   UNL     1      -2.516   9.302  -4.543  1.00  0.00     0.049 C 
ATOM      9  C   UNL     1      -4.193   8.877  -2.103  1.00  0.00     0.049 C 
ENDROOT
BRANCH   7  10
ATOM     10  O   UNL     1       0.303   9.410  -4.197  1.00  0.00    -0.507 OA
ATOM     11  H   UNL     1       1.313   9.367  -4.208  1.00  0.00     0.293 HD
ENDBRANCH   7  10
BRANCH   4  12
ATOM     12  O   UNL     1      -2.772   8.269   0.355  1.00  0.00    -0.508 OA
ATOM     13  H   UNL     1      -3.642   7.752   0.347  1.00  0.00     0.293 HD
ENDBRANCH   4  12
TORSDOF 2
ENDMDL
