MODEL 1
REMARK VINA RESULT:    -3.396      0.000      0.000
REMARK INTER + INTRA:          -3.447
REMARK INTER:                  -4.587
REMARK INTRA:                   1.141
REMARK UNBOUND:                 1.141
REMARK SMILES C=C1C(=O)O[C@H]2[C@@H]1CCC(C)=CCC[C@@]1(C)O[C@@H]21
REMARK SMILES IDX 6 1 7 2 2 3 1 4 3 5 4 6 5 7 8 8 9 9 10 10 11 11 12 12 18 14
REMARK SMILES IDX 15 15 17 16 16 17 14 18 13 19
REMARK H PARENT
REMARK Flexibility Score: 70.00
ROOT
ATOM      1  C   UNL     1      21.450  -8.179  24.972  1.00  0.00     0.216 C 
ATOM      2  C   UNL     1      20.035  -7.602  24.630  1.00  0.00     0.070 C 
ATOM      3  C   UNL     1      19.132  -8.337  25.576  1.00  0.00     0.037 C 
ATOM      4  C   UNL     1      17.800  -8.312  25.571  1.00  0.00     0.021 C 
ATOM      5  C   UNL     1      19.964  -9.091  26.486  1.00  0.00     0.334 C 
ATOM      6  O   UNL     1      19.553  -9.780  27.456  1.00  0.00    -0.247 OA
ATOM      7  O   UNL     1      21.299  -8.940  26.169  1.00  0.00    -0.455 OA
ENDROOT
BRANCH   2   8
ATOM      8  C   UNL     1      19.885  -6.062  24.726  1.00  0.00     0.017 C 
BRANCH   8   9
ATOM      9  C   UNL     1      19.525  -5.510  26.127  1.00  0.00     0.031 C 
BRANCH   9  10
ATOM     10  C   UNL     1      19.898  -4.048  26.251  1.00  0.00    -0.077 C 
ATOM     11  C   UNL     1      19.009  -3.022  25.596  1.00  0.00     0.039 C 
ATOM     12  C   UNL     1      21.002  -3.612  26.899  1.00  0.00    -0.028 CG0
ATOM     13  G   UNL     1      21.963  -4.462  27.702  1.00  0.00     0.000 G0
ENDBRANCH   9  10
ENDBRANCH   8   9
ENDBRANCH   2   8
BRANCH   1  14
ATOM     14  C   UNL     1      22.638  -7.186  24.975  1.00  0.00     0.192 C 
ATOM     15  C   UNL     1      22.985  -6.185  26.040  1.00  0.00     0.096 C 
ATOM     16  O   UNL     1      23.505  -7.496  26.043  1.00  0.00    -0.362 OA
ATOM     17  C   UNL     1      24.105  -5.188  25.719  1.00  0.00     0.045 C 
BRANCH  15  18
ATOM     18  C   UNL     1      22.128  -5.934  27.301  1.00  0.00     0.042 C 
BRANCH  18  19
ATOM     19  C   UNL     1      21.954  -4.451  27.706  1.00  0.00     0.030 CG0
ATOM     20  G   UNL     1      20.986  -3.629  26.884  1.00  0.00     0.000 G0
ENDBRANCH  18  19
ENDBRANCH  15  18
ENDBRANCH   1  14
TORSDOF 0
ENDMDL
MODEL 2
REMARK VINA RESULT:    -3.171      2.494      4.726
REMARK INTER + INTRA:          -3.143
REMARK INTER:                  -4.005
REMARK INTRA:                   0.862
REMARK UNBOUND:                 1.141
REMARK SMILES C=C1C(=O)O[C@H]2[C@@H]1CCC(C)=CCC[C@@]1(C)O[C@@H]21
REMARK SMILES IDX 6 1 7 2 2 3 1 4 3 5 4 6 5 7 8 8 9 9 10 10 11 11 12 12 18 14
REMARK SMILES IDX 15 15 17 16 16 17 14 18 13 19
REMARK H PARENT
REMARK Flexibility Score: 70.00
ROOT
ATOM      1  C   UNL     1      20.004  -5.307  25.120  1.00  0.00     0.216 C 
ATOM      2  C   UNL     1      21.425  -4.649  25.158  1.00  0.00     0.070 C 
ATOM      3  C   UNL     1      21.342  -3.735  26.345  1.00  0.00     0.037 C 
ATOM      4  C   UNL     1      22.253  -2.832  26.705  1.00  0.00     0.021 C 
ATOM      5  C   UNL     1      20.092  -3.998  27.020  1.00  0.00     0.334 C 
ATOM      6  O   UNL     1      19.711  -3.461  28.093  1.00  0.00    -0.247 OA
ATOM      7  O   UNL     1      19.359  -4.952  26.343  1.00  0.00    -0.455 OA
ENDROOT
BRANCH   2   8
ATOM      8  C   UNL     1      22.626  -5.626  25.230  1.00  0.00     0.017 C 
BRANCH   8   9
ATOM      9  C   UNL     1      23.111  -5.988  26.655  1.00  0.00     0.031 C 
BRANCH   9  10
ATOM     10  C   UNL     1      23.150  -7.488  26.855  1.00  0.00    -0.077 C 
ATOM     11  C   UNL     1      24.375  -8.241  26.404  1.00  0.00     0.039 C 
ATOM     12  C   UNL     1      22.131  -8.195  27.395  1.00  0.00    -0.028 CG0
ATOM     13  G   UNL     1      20.866  -7.624  27.998  1.00  0.00     0.000 G0
ENDBRANCH   9  10
ENDBRANCH   8   9
ENDBRANCH   2   8
BRANCH   1  14
ATOM     14  C   UNL     1      19.929  -6.810  24.756  1.00  0.00     0.192 C 
ATOM     15  C   UNL     1      19.681  -7.961  25.689  1.00  0.00     0.096 C 
ATOM     16  O   UNL     1      18.631  -7.293  25.025  1.00  0.00    -0.362 OA
ATOM     17  C   UNL     1      19.840  -9.373  25.110  1.00  0.00     0.045 C 
BRANCH  15  18
ATOM     18  C   UNL     1      19.539  -7.817  27.221  1.00  0.00     0.042 C 
BRANCH  18  19
ATOM     19  C   UNL     1      20.862  -7.628  28.000  1.00  0.00     0.030 CG0
ATOM     20  G   UNL     1      22.112  -8.202  27.369  1.00  0.00     0.000 G0
ENDBRANCH  18  19
ENDBRANCH  15  18
ENDBRANCH   1  14
TORSDOF 0
ENDMDL
MODEL 3
REMARK VINA RESULT:    -3.088      2.929      4.749
REMARK INTER + INTRA:          -3.031
REMARK INTER:                  -3.925
REMARK INTRA:                   0.895
REMARK UNBOUND:                 1.141
REMARK SMILES C=C1C(=O)O[C@H]2[C@@H]1CCC(C)=CCC[C@@]1(C)O[C@@H]21
REMARK SMILES IDX 6 1 7 2 2 3 1 4 3 5 4 6 5 7 8 8 9 9 10 10 11 11 12 12 18 14
REMARK SMILES IDX 15 15 17 16 16 17 14 18 13 19
REMARK H PARENT
REMARK Flexibility Score: 70.00
ROOT
ATOM      1  C   UNL     1      20.440  -7.302  27.092  1.00  0.00     0.216 C 
ATOM      2  C   UNL     1      19.520  -8.436  26.526  1.00  0.00     0.070 C 
ATOM      3  C   UNL     1      18.772  -7.745  25.424  1.00  0.00     0.037 C 
ATOM      4  C   UNL     1      17.748  -8.247  24.734  1.00  0.00     0.021 C 
ATOM      5  C   UNL     1      19.349  -6.432  25.254  1.00  0.00     0.334 C 
ATOM      6  O   UNL     1      19.015  -5.592  24.377  1.00  0.00    -0.247 OA
ATOM      7  O   UNL     1      20.352  -6.212  26.176  1.00  0.00    -0.455 OA
ENDROOT
BRANCH   2   8
ATOM      8  C   UNL     1      20.240  -9.725  26.052  1.00  0.00     0.017 C 
BRANCH   8   9
ATOM      9  C   UNL     1      20.761  -9.704  24.594  1.00  0.00     0.031 C 
BRANCH   9  10
ATOM     10  C   UNL     1      21.909 -10.673  24.409  1.00  0.00    -0.077 C 
ATOM     11  C   UNL     1      21.598 -12.146  24.328  1.00  0.00     0.039 C 
ATOM     12  C   UNL     1      23.204 -10.290  24.337  1.00  0.00    -0.028 CG0
ATOM     13  G   UNL     1      23.716  -8.866  24.297  1.00  0.00     0.000 G0
ENDBRANCH   9  10
ENDBRANCH   8   9
ENDBRANCH   2   8
BRANCH   1  14
ATOM     14  C   UNL     1      21.881  -7.697  27.500  1.00  0.00     0.192 C 
ATOM     15  C   UNL     1      23.067  -7.872  26.595  1.00  0.00     0.096 C 
ATOM     16  O   UNL     1      22.760  -6.636  27.200  1.00  0.00    -0.362 OA
ATOM     17  C   UNL     1      24.342  -8.450  27.224  1.00  0.00     0.045 C 
BRANCH  15  18
ATOM     18  C   UNL     1      23.003  -7.758  25.056  1.00  0.00     0.042 C 
BRANCH  18  19
ATOM     19  C   UNL     1      23.754  -8.861  24.273  1.00  0.00     0.030 CG0
ATOM     20  G   UNL     1      23.186 -10.261  24.353  1.00  0.00     0.000 G0
ENDBRANCH  18  19
ENDBRANCH  15  18
ENDBRANCH   1  14
TORSDOF 0
ENDMDL
MODEL 4
REMARK VINA RESULT:    -3.060      1.872      3.779
REMARK INTER + INTRA:          -2.993
REMARK INTER:                  -3.975
REMARK INTRA:                   0.982
REMARK UNBOUND:                 1.141
REMARK SMILES C=C1C(=O)O[C@H]2[C@@H]1CCC(C)=CCC[C@@]1(C)O[C@@H]21
REMARK SMILES IDX 6 1 7 2 2 3 1 4 3 5 4 6 5 7 8 8 9 9 10 10 11 11 12 12 18 14
REMARK SMILES IDX 15 15 17 16 16 17 14 18 13 19
REMARK H PARENT
REMARK Flexibility Score: 70.00
ROOT
ATOM      1  C   UNL     1      20.492  -9.268  25.567  1.00  0.00     0.216 C 
ATOM      2  C   UNL     1      22.034  -9.194  25.308  1.00  0.00     0.070 C 
ATOM      3  C   UNL     1      22.138  -9.418  23.827  1.00  0.00     0.037 C 
ATOM      4  C   UNL     1      23.263  -9.602  23.138  1.00  0.00     0.021 C 
ATOM      5  C   UNL     1      20.799  -9.415  23.284  1.00  0.00     0.334 C 
ATOM      6  O   UNL     1      20.503  -9.514  22.065  1.00  0.00    -0.247 OA
ATOM      7  O   UNL     1      19.863  -9.261  24.287  1.00  0.00    -0.455 OA
ENDROOT
BRANCH   2   8
ATOM      8  C   UNL     1      22.742  -7.896  25.773  1.00  0.00     0.017 C 
BRANCH   8   9
ATOM      9  C   UNL     1      22.663  -6.700  24.793  1.00  0.00     0.031 C 
BRANCH   9  10
ATOM     10  C   UNL     1      22.794  -5.382  25.526  1.00  0.00    -0.077 C 
ATOM     11  C   UNL     1      24.138  -5.009  26.097  1.00  0.00     0.039 C 
ATOM     12  C   UNL     1      21.762  -4.530  25.718  1.00  0.00    -0.028 CG0
ATOM     13  G   UNL     1      20.368  -4.667  25.145  1.00  0.00     0.000 G0
ENDBRANCH   9  10
ENDBRANCH   8   9
ENDBRANCH   2   8
BRANCH   1  14
ATOM     14  C   UNL     1      19.897  -8.268  26.590  1.00  0.00     0.192 C 
ATOM     15  C   UNL     1      19.520  -6.834  26.348  1.00  0.00     0.096 C 
ATOM     16  O   UNL     1      18.602  -7.891  26.178  1.00  0.00    -0.362 OA
ATOM     17  C   UNL     1      19.126  -6.002  27.576  1.00  0.00     0.045 C 
BRANCH  15  18
ATOM     18  C   UNL     1      19.755  -6.093  25.014  1.00  0.00     0.042 C 
BRANCH  18  19
ATOM     19  C   UNL     1      20.332  -4.663  25.135  1.00  0.00     0.030 CG0
ATOM     20  G   UNL     1      21.724  -4.536  25.715  1.00  0.00     0.000 G0
ENDBRANCH  18  19
ENDBRANCH  15  18
ENDBRANCH   1  14
TORSDOF 0
ENDMDL
MODEL 5
REMARK VINA RESULT:    -2.835      2.092      3.691
REMARK INTER + INTRA:          -2.688
REMARK INTER:                  -3.875
REMARK INTRA:                   1.187
REMARK UNBOUND:                 1.141
REMARK SMILES C=C1C(=O)O[C@H]2[C@@H]1CCC(C)=CCC[C@@]1(C)O[C@@H]21
REMARK SMILES IDX 6 1 7 2 2 3 1 4 3 5 4 6 5 7 8 8 9 9 10 10 11 11 12 12 18 14
REMARK SMILES IDX 15 15 17 16 16 17 14 18 13 19
REMARK H PARENT
REMARK Flexibility Score: 70.00
ROOT
ATOM      1  C   UNL     1      19.217  -7.147  26.007  1.00  0.00     0.216 C 
ATOM      2  C   UNL     1      20.150  -8.251  26.610  1.00  0.00     0.070 C 
ATOM      3  C   UNL     1      20.391  -9.164  25.444  1.00  0.00     0.037 C 
ATOM      4  C   UNL     1      21.001 -10.347  25.486  1.00  0.00     0.021 C 
ATOM      5  C   UNL     1      19.827  -8.539  24.269  1.00  0.00     0.334 C 
ATOM      6  O   UNL     1      19.896  -8.989  23.096  1.00  0.00    -0.247 OA
ATOM      7  O   UNL     1      19.212  -7.347  24.594  1.00  0.00    -0.455 OA
ENDROOT
BRANCH   2   8
ATOM      8  C   UNL     1      21.462  -7.751  27.267  1.00  0.00     0.017 C 
BRANCH   8   9
ATOM      9  C   UNL     1      22.687  -7.650  26.325  1.00  0.00     0.031 C 
BRANCH   9  10
ATOM     10  C   UNL     1      23.760  -6.762  26.916  1.00  0.00    -0.077 C 
ATOM     11  C   UNL     1      24.702  -7.354  27.933  1.00  0.00     0.039 C 
ATOM     12  C   UNL     1      23.905  -5.455  26.599  1.00  0.00    -0.028 CG0
ATOM     13  G   UNL     1      23.135  -4.701  25.537  1.00  0.00     0.000 G0
ENDBRANCH   9  10
ENDBRANCH   8   9
ENDBRANCH   2   8
BRANCH   1  14
ATOM     14  C   UNL     1      19.465  -5.686  26.458  1.00  0.00     0.192 C 
ATOM     15  C   UNL     1      20.590  -4.783  26.039  1.00  0.00     0.096 C 
ATOM     16  O   UNL     1      19.364  -4.828  25.343  1.00  0.00    -0.362 OA
ATOM     17  C   UNL     1      20.715  -3.442  26.774  1.00  0.00     0.045 C 
BRANCH  15  18
ATOM     18  C   UNL     1      21.754  -5.221  25.124  1.00  0.00     0.042 C 
BRANCH  18  19
ATOM     19  C   UNL     1      23.151  -4.684  25.515  1.00  0.00     0.030 CG0
ATOM     20  G   UNL     1      23.895  -5.441  26.594  1.00  0.00     0.000 G0
ENDBRANCH  18  19
ENDBRANCH  15  18
ENDBRANCH   1  14
TORSDOF 0
ENDMDL
MODEL 6
REMARK VINA RESULT:    -2.754      9.434     10.918
REMARK INTER + INTRA:          -2.579
REMARK INTER:                  -3.908
REMARK INTRA:                   1.330
REMARK UNBOUND:                 1.141
REMARK SMILES C=C1C(=O)O[C@H]2[C@@H]1CCC(C)=CCC[C@@]1(C)O[C@@H]21
REMARK SMILES IDX 6 1 7 2 2 3 1 4 3 5 4 6 5 7 8 8 9 9 10 10 11 11 12 12 18 14
REMARK SMILES IDX 15 15 17 16 16 17 14 18 13 19
REMARK H PARENT
REMARK Flexibility Score: 70.00
ROOT
ATOM      1  C   UNL     1      24.625   0.432  21.681  1.00  0.00     0.216 C 
ATOM      2  C   UNL     1      24.615   1.998  21.656  1.00  0.00     0.070 C 
ATOM      3  C   UNL     1      25.005   2.360  23.059  1.00  0.00     0.037 C 
ATOM      4  C   UNL     1      24.986   3.582  23.589  1.00  0.00     0.021 C 
ATOM      5  C   UNL     1      25.388   1.144  23.740  1.00  0.00     0.334 C 
ATOM      6  O   UNL     1      25.832   1.071  24.916  1.00  0.00    -0.247 OA
ATOM      7  O   UNL     1      25.228   0.049  22.915  1.00  0.00    -0.455 OA
ENDROOT
BRANCH   2   8
ATOM      8  C   UNL     1      25.516   2.668  20.587  1.00  0.00     0.017 C 
BRANCH   8   9
ATOM      9  C   UNL     1      24.814   3.701  19.672  1.00  0.00     0.031 C 
BRANCH   9  10
ATOM     10  C   UNL     1      23.308   3.604  19.792  1.00  0.00    -0.077 C 
ATOM     11  C   UNL     1      22.588   4.621  20.640  1.00  0.00     0.039 C 
ATOM     12  C   UNL     1      22.573   2.637  19.197  1.00  0.00    -0.028 CG0
ATOM     13  G   UNL     1      23.085   1.590  18.231  1.00  0.00     0.000 G0
ENDBRANCH   9  10
ENDBRANCH   8   9
ENDBRANCH   2   8
BRANCH   1  14
ATOM     14  C   UNL     1      25.182  -0.292  20.430  1.00  0.00     0.192 C 
ATOM     15  C   UNL     1      24.533  -0.407  19.080  1.00  0.00     0.096 C 
ATOM     16  O   UNL     1      25.408   0.650  19.405  1.00  0.00    -0.362 OA
ATOM     17  C   UNL     1      25.205  -1.337  18.062  1.00  0.00     0.045 C 
BRANCH  15  18
ATOM     18  C   UNL     1      23.123   0.133  18.751  1.00  0.00     0.042 C 
BRANCH  18  19
ATOM     19  C   UNL     1      23.069   1.586  18.225  1.00  0.00     0.030 CG0
ATOM     20  G   UNL     1      22.571   2.642  19.189  1.00  0.00     0.000 G0
ENDBRANCH  18  19
ENDBRANCH  15  18
ENDBRANCH   1  14
TORSDOF 0
ENDMDL
MODEL 7
REMARK VINA RESULT:    -2.668      2.653      5.128
REMARK INTER + INTRA:          -2.463
REMARK INTER:                  -3.306
REMARK INTRA:                   0.843
REMARK UNBOUND:                 1.141
REMARK SMILES C=C1C(=O)O[C@H]2[C@@H]1CCC(C)=CCC[C@@]1(C)O[C@@H]21
REMARK SMILES IDX 6 1 7 2 2 3 1 4 3 5 4 6 5 7 8 8 9 9 10 10 11 11 12 12 18 14
REMARK SMILES IDX 15 15 17 16 16 17 14 18 13 19
REMARK H PARENT
REMARK Flexibility Score: 70.00
ROOT
ATOM      1  C   UNL     1      21.971  -4.013  25.174  1.00  0.00     0.216 C 
ATOM      2  C   UNL     1      23.372  -4.456  25.717  1.00  0.00     0.070 C 
ATOM      3  C   UNL     1      23.600  -3.518  26.866  1.00  0.00     0.037 C 
ATOM      4  C   UNL     1      24.730  -3.388  27.561  1.00  0.00     0.021 C 
ATOM      5  C   UNL     1      22.383  -2.769  27.074  1.00  0.00     0.334 C 
ATOM      6  O   UNL     1      22.186  -1.931  27.993  1.00  0.00    -0.247 OA
ATOM      7  O   UNL     1      21.430  -3.109  26.136  1.00  0.00    -0.455 OA
ENDROOT
BRANCH   2   8
ATOM      8  C   UNL     1      23.506  -5.947  26.119  1.00  0.00     0.017 C 
BRANCH   8   9
ATOM      9  C   UNL     1      23.228  -6.268  27.609  1.00  0.00     0.031 C 
BRANCH   9  10
ATOM     10  C   UNL     1      22.173  -7.344  27.749  1.00  0.00    -0.077 C 
ATOM     11  C   UNL     1      22.612  -8.786  27.725  1.00  0.00     0.039 C 
ATOM     12  C   UNL     1      20.852  -7.083  27.870  1.00  0.00    -0.028 CG0
ATOM     13  G   UNL     1      20.219  -5.716  28.015  1.00  0.00     0.000 G0
ENDBRANCH   9  10
ENDBRANCH   8   9
ENDBRANCH   2   8
BRANCH   1  14
ATOM     14  C   UNL     1      21.004  -5.131  24.712  1.00  0.00     0.192 C 
ATOM     15  C   UNL     1      19.792  -5.642  25.438  1.00  0.00     0.096 C 
ATOM     16  O   UNL     1      19.720  -4.585  24.508  1.00  0.00    -0.362 OA
ATOM     17  C   UNL     1      19.107  -6.886  24.857  1.00  0.00     0.045 C 
BRANCH  15  18
ATOM     18  C   UNL     1      19.361  -5.166  26.842  1.00  0.00     0.042 C 
BRANCH  18  19
ATOM     19  C   UNL     1      20.208  -5.702  28.020  1.00  0.00     0.030 CG0
ATOM     20  G   UNL     1      20.823  -7.075  27.848  1.00  0.00     0.000 G0
ENDBRANCH  18  19
ENDBRANCH  15  18
ENDBRANCH   1  14
TORSDOF 0
ENDMDL
MODEL 8
REMARK VINA RESULT:    -2.588      2.636      4.295
REMARK INTER + INTRA:          -2.355
REMARK INTER:                  -3.533
REMARK INTRA:                   1.178
REMARK UNBOUND:                 1.141
REMARK SMILES C=C1C(=O)O[C@H]2[C@@H]1CCC(C)=CCC[C@@]1(C)O[C@@H]21
REMARK SMILES IDX 6 1 7 2 2 3 1 4 3 5 4 6 5 7 8 8 9 9 10 10 11 11 12 12 18 14
REMARK SMILES IDX 15 15 17 16 16 17 14 18 13 19
REMARK H PARENT
REMARK Flexibility Score: 70.00
ROOT
ATOM      1  C   UNL     1      20.889  -5.944  27.258  1.00  0.00     0.216 C 
ATOM      2  C   UNL     1      20.363  -7.192  26.472  1.00  0.00     0.070 C 
ATOM      3  C   UNL     1      19.561  -6.579  25.362  1.00  0.00     0.037 C 
ATOM      4  C   UNL     1      18.777  -7.233  24.505  1.00  0.00     0.021 C 
ATOM      5  C   UNL     1      19.777  -5.151  25.397  1.00  0.00     0.334 C 
ATOM      6  O   UNL     1      19.312  -4.319  24.574  1.00  0.00    -0.247 OA
ATOM      7  O   UNL     1      20.596  -4.804  26.452  1.00  0.00    -0.455 OA
ENDROOT
BRANCH   2   8
ATOM      8  C   UNL     1      21.442  -8.181  25.962  1.00  0.00     0.017 C 
BRANCH   8   9
ATOM      9  C   UNL     1      22.079  -7.833  24.595  1.00  0.00     0.031 C 
BRANCH   9  10
ATOM     10  C   UNL     1      23.422  -8.510  24.428  1.00  0.00    -0.077 C 
ATOM     11  C   UNL     1      23.450  -9.991  24.148  1.00  0.00     0.039 C 
ATOM     12  C   UNL     1      24.604  -7.861  24.541  1.00  0.00    -0.028 CG0
ATOM     13  G   UNL     1      24.794  -6.370  24.717  1.00  0.00     0.000 G0
ENDBRANCH   9  10
ENDBRANCH   8   9
ENDBRANCH   2   8
BRANCH   1  14
ATOM     14  C   UNL     1      22.339  -6.006  27.797  1.00  0.00     0.192 C 
ATOM     15  C   UNL     1      23.609  -5.822  27.016  1.00  0.00     0.096 C 
ATOM     16  O   UNL     1      22.951  -4.744  27.643  1.00  0.00    -0.362 OA
ATOM     17  C   UNL     1      24.925  -6.118  27.748  1.00  0.00     0.045 C 
BRANCH  15  18
ATOM     18  C   UNL     1      23.660  -5.617  25.486  1.00  0.00     0.042 C 
BRANCH  18  19
ATOM     19  C   UNL     1      24.794  -6.367  24.748  1.00  0.00     0.030 CG0
ATOM     20  G   UNL     1      24.611  -7.857  24.553  1.00  0.00     0.000 G0
ENDBRANCH  18  19
ENDBRANCH  15  18
ENDBRANCH   1  14
TORSDOF 0
ENDMDL
MODEL 9
REMARK VINA RESULT:    -2.577      3.752      5.803
REMARK INTER + INTRA:          -2.340
REMARK INTER:                  -3.243
REMARK INTRA:                   0.902
REMARK UNBOUND:                 1.141
REMARK SMILES C=C1C(=O)O[C@H]2[C@@H]1CCC(C)=CCC[C@@]1(C)O[C@@H]21
REMARK SMILES IDX 6 1 7 2 2 3 1 4 3 5 4 6 5 7 8 8 9 9 10 10 11 11 12 12 18 14
REMARK SMILES IDX 15 15 17 16 16 17 14 18 13 19
REMARK H PARENT
REMARK Flexibility Score: 70.00
ROOT
ATOM      1  C   UNL     1      20.767  -8.617  23.752  1.00  0.00     0.216 C 
ATOM      2  C   UNL     1      21.201  -7.897  25.073  1.00  0.00     0.070 C 
ATOM      3  C   UNL     1      19.891  -7.601  25.742  1.00  0.00     0.037 C 
ATOM      4  C   UNL     1      19.716  -6.853  26.830  1.00  0.00     0.021 C 
ATOM      5  C   UNL     1      18.850  -8.259  24.986  1.00  0.00     0.334 C 
ATOM      6  O   UNL     1      17.628  -8.281  25.288  1.00  0.00    -0.247 OA
ATOM      7  O   UNL     1      19.374  -8.896  23.880  1.00  0.00    -0.455 OA
ENDROOT
BRANCH   2   8
ATOM      8  C   UNL     1      22.182  -8.677  25.985  1.00  0.00     0.017 C 
BRANCH   8   9
ATOM      9  C   UNL     1      21.535  -9.725  26.924  1.00  0.00     0.031 C 
BRANCH   9  10
ATOM     10  C   UNL     1      22.494 -10.856  27.224  1.00  0.00    -0.077 C 
ATOM     11  C   UNL     1      23.687 -10.572  28.101  1.00  0.00     0.039 C 
ATOM     12  C   UNL     1      22.352 -12.106  26.728  1.00  0.00    -0.028 CG0
ATOM     13  G   UNL     1      21.182 -12.621  25.918  1.00  0.00     0.000 G0
ENDBRANCH   9  10
ENDBRANCH   8   9
ENDBRANCH   2   8
BRANCH   1  14
ATOM     14  C   UNL     1      21.631  -9.814  23.281  1.00  0.00     0.192 C 
ATOM     15  C   UNL     1      21.527 -11.244  23.731  1.00  0.00     0.096 C 
ATOM     16  O   UNL     1      20.811 -10.752  22.620  1.00  0.00    -0.362 OA
ATOM     17  C   UNL     1      22.623 -12.204  23.253  1.00  0.00     0.045 C 
BRANCH  15  18
ATOM     18  C   UNL     1      20.560 -11.735  24.831  1.00  0.00     0.042 C 
BRANCH  18  19
ATOM     19  C   UNL     1      21.184 -12.654  25.907  1.00  0.00     0.030 CG0
ATOM     20  G   UNL     1      22.337 -12.085  26.705  1.00  0.00     0.000 G0
ENDBRANCH  18  19
ENDBRANCH  15  18
ENDBRANCH   1  14
TORSDOF 0
ENDMDL
