MODEL 1
REMARK VINA RESULT:    -4.354      0.000      0.000
REMARK INTER + INTRA:         -13.492
REMARK INTER:                  -9.444
REMARK INTRA:                  -4.048
REMARK UNBOUND:                -4.048
REMARK SMILES CCCCCCCCCCCCCCCCCCCCCC(=O)[O-]
REMARK SMILES IDX 12 1 11 2 10 3 9 4 8 5 7 6 6 7 5 8 4 9 3 10 2 11 1 12 13 13
REMARK SMILES IDX 14 14 15 15 16 16 17 17 18 18 19 19 20 20 21 21 22 22 23 23
REMARK SMILES IDX 24 24
REMARK H PARENT
REMARK Flexibility Score: inf
ROOT
ATOM      1  C   UNL     1       7.497  -4.880  28.607  1.00  0.00     0.000 C 
ENDROOT
BRANCH   1   2
ATOM      2  C   UNL     1       6.445  -4.686  27.506  1.00  0.00     0.000 C 
BRANCH   2   3
ATOM      3  C   UNL     1       5.306  -5.704  27.650  1.00  0.00     0.000 C 
BRANCH   3   4
ATOM      4  C   UNL     1       5.079  -6.474  26.339  1.00  0.00    -0.000 C 
BRANCH   4   5
ATOM      5  C   UNL     1       5.913  -5.923  25.174  1.00  0.00    -0.000 C 
BRANCH   5   6
ATOM      6  C   UNL     1       6.398  -7.023  24.217  1.00  0.00    -0.000 C 
BRANCH   6   7
ATOM      7  C   UNL     1       5.482  -8.251  24.281  1.00  0.00    -0.000 C 
BRANCH   7   8
ATOM      8  C   UNL     1       4.513  -8.278  23.089  1.00  0.00    -0.000 C 
BRANCH   8   9
ATOM      9  C   UNL     1       5.014  -7.433  21.906  1.00  0.00    -0.000 C 
BRANCH   9  10
ATOM     10  C   UNL     1       4.023  -6.322  21.519  1.00  0.00    -0.000 C 
BRANCH  10  11
ATOM     11  C   UNL     1       2.835  -6.232  22.490  1.00  0.00    -0.003 C 
ATOM     12  C   UNL     1       2.798  -4.909  23.250  1.00  0.00     0.004 C 
ENDBRANCH  10  11
ENDBRANCH   9  10
ENDBRANCH   8   9
ENDBRANCH   7   8
ENDBRANCH   6   7
ENDBRANCH   5   6
ENDBRANCH   4   5
ENDBRANCH   3   4
ENDBRANCH   2   3
ENDBRANCH   1   2
BRANCH   1  13
ATOM     13  C   UNL     1       8.702  -5.708  28.129  1.00  0.00     0.000 C 
BRANCH  13  14
ATOM     14  C   UNL     1       8.557  -7.196  28.489  1.00  0.00     0.000 C 
BRANCH  14  15
ATOM     15  C   UNL     1       8.308  -8.087  27.263  1.00  0.00     0.000 C 
BRANCH  15  16
ATOM     16  C   UNL     1       7.210  -9.140  27.503  1.00  0.00     0.000 C 
BRANCH  16  17
ATOM     17  C   UNL     1       6.750  -9.202  28.967  1.00  0.00     0.000 C 
BRANCH  17  18
ATOM     18  C   UNL     1       5.226  -9.065  29.119  1.00  0.00     0.000 C 
BRANCH  18  19
ATOM     19  C   UNL     1       4.842  -8.130  30.278  1.00  0.00     0.000 C 
BRANCH  19  20
ATOM     20  C   UNL     1       6.051  -7.763  31.156  1.00  0.00     0.006 C 
BRANCH  20  21
ATOM     21  C   UNL     1       5.919  -6.356  31.756  1.00  0.00     0.053 C 
BRANCH  21  22
ATOM     22  C   UNL     1       7.251  -5.812  32.173  1.00  0.00     0.041 C 
ATOM     23  O   UNL     1       7.315  -4.764  32.871  1.00  0.00    -0.550 OA
ATOM     24  O   UNL     1       8.420  -6.484  31.831  1.00  0.00    -0.550 OA
ENDBRANCH  21  22
ENDBRANCH  20  21
ENDBRANCH  19  20
ENDBRANCH  18  19
ENDBRANCH  17  18
ENDBRANCH  16  17
ENDBRANCH  15  16
ENDBRANCH  14  15
ENDBRANCH  13  14
ENDBRANCH   1  13
TORSDOF 20
ENDMDL
MODEL 2
REMARK VINA RESULT:    -4.234      3.452      7.207
REMARK INTER + INTRA:         -13.232
REMARK INTER:                 -10.240
REMARK INTRA:                  -2.992
REMARK UNBOUND:                -4.048
REMARK SMILES CCCCCCCCCCCCCCCCCCCCCC(=O)[O-]
REMARK SMILES IDX 12 1 11 2 10 3 9 4 8 5 7 6 6 7 5 8 4 9 3 10 2 11 1 12 13 13
REMARK SMILES IDX 14 14 15 15 16 16 17 17 18 18 19 19 20 20 21 21 22 22 23 23
REMARK SMILES IDX 24 24
REMARK H PARENT
REMARK Flexibility Score: inf
ROOT
ATOM      1  C   UNL     1       8.381  -6.293  30.039  1.00  0.00     0.000 C 
ENDROOT
BRANCH   1   2
ATOM      2  C   UNL     1       8.371  -6.363  31.573  1.00  0.00     0.000 C 
BRANCH   2   3
ATOM      3  C   UNL     1       7.573  -5.197  32.170  1.00  0.00     0.000 C 
BRANCH   3   4
ATOM      4  C   UNL     1       6.478  -5.702  33.123  1.00  0.00    -0.000 C 
BRANCH   4   5
ATOM      5  C   UNL     1       5.122  -5.889  32.425  1.00  0.00    -0.000 C 
BRANCH   5   6
ATOM      6  C   UNL     1       4.700  -7.363  32.330  1.00  0.00    -0.000 C 
BRANCH   6   7
ATOM      7  C   UNL     1       5.577  -8.124  31.328  1.00  0.00    -0.000 C 
BRANCH   7   8
ATOM      8  C   UNL     1       4.752  -8.593  30.120  1.00  0.00    -0.000 C 
BRANCH   8   9
ATOM      9  C   UNL     1       4.826  -7.610  28.941  1.00  0.00    -0.000 C 
BRANCH   9  10
ATOM     10  C   UNL     1       5.376  -8.267  27.664  1.00  0.00    -0.000 C 
BRANCH  10  11
ATOM     11  C   UNL     1       6.770  -8.878  27.873  1.00  0.00    -0.003 C 
ATOM     12  C   UNL     1       7.783  -8.399  26.835  1.00  0.00     0.004 C 
ENDBRANCH  10  11
ENDBRANCH   9  10
ENDBRANCH   8   9
ENDBRANCH   7   8
ENDBRANCH   6   7
ENDBRANCH   5   6
ENDBRANCH   4   5
ENDBRANCH   3   4
ENDBRANCH   2   3
ENDBRANCH   1   2
BRANCH   1  13
ATOM     13  C   UNL     1       7.391  -5.250  29.493  1.00  0.00     0.000 C 
BRANCH  13  14
ATOM     14  C   UNL     1       7.722  -4.847  28.046  1.00  0.00     0.000 C 
BRANCH  14  15
ATOM     15  C   UNL     1       6.487  -4.828  27.133  1.00  0.00     0.000 C 
BRANCH  15  16
ATOM     16  C   UNL     1       6.808  -4.356  25.702  1.00  0.00     0.000 C 
BRANCH  16  17
ATOM     17  C   UNL     1       6.085  -5.178  24.625  1.00  0.00     0.000 C 
BRANCH  17  18
ATOM     18  C   UNL     1       4.919  -6.006  25.189  1.00  0.00     0.000 C 
BRANCH  18  19
ATOM     19  C   UNL     1       4.010  -6.557  24.078  1.00  0.00     0.000 C 
BRANCH  19  20
ATOM     20  C   UNL     1       3.635  -5.481  23.045  1.00  0.00     0.006 C 
BRANCH  20  21
ATOM     21  C   UNL     1       3.649  -6.031  21.611  1.00  0.00     0.053 C 
BRANCH  21  22
ATOM     22  C   UNL     1       4.914  -6.781  21.327  1.00  0.00     0.041 C 
ATOM     23  O   UNL     1       6.020  -6.177  21.328  1.00  0.00    -0.550 OA
ATOM     24  O   UNL     1       4.881  -8.153  21.103  1.00  0.00    -0.550 OA
ENDBRANCH  21  22
ENDBRANCH  20  21
ENDBRANCH  19  20
ENDBRANCH  18  19
ENDBRANCH  17  18
ENDBRANCH  16  17
ENDBRANCH  15  16
ENDBRANCH  14  15
ENDBRANCH  13  14
ENDBRANCH   1  13
TORSDOF 20
ENDMDL
MODEL 3
REMARK VINA RESULT:    -4.153      1.106      2.095
REMARK INTER + INTRA:         -13.056
REMARK INTER:                  -9.668
REMARK INTRA:                  -3.387
REMARK UNBOUND:                -4.048
REMARK SMILES CCCCCCCCCCCCCCCCCCCCCC(=O)[O-]
REMARK SMILES IDX 12 1 11 2 10 3 9 4 8 5 7 6 6 7 5 8 4 9 3 10 2 11 1 12 13 13
REMARK SMILES IDX 14 14 15 15 16 16 17 17 18 18 19 19 20 20 21 21 22 22 23 23
REMARK SMILES IDX 24 24
REMARK H PARENT
REMARK Flexibility Score: inf
ROOT
ATOM      1  C   UNL     1       7.878  -5.671  28.340  1.00  0.00     0.000 C 
ENDROOT
BRANCH   1   2
ATOM      2  C   UNL     1       6.568  -5.754  27.544  1.00  0.00     0.000 C 
BRANCH   2   3
ATOM      3  C   UNL     1       6.517  -4.672  26.457  1.00  0.00     0.000 C 
BRANCH   3   4
ATOM      4  C   UNL     1       6.151  -5.274  25.090  1.00  0.00    -0.000 C 
BRANCH   4   5
ATOM      5  C   UNL     1       5.238  -6.503  25.207  1.00  0.00    -0.000 C 
BRANCH   5   6
ATOM      6  C   UNL     1       4.226  -6.604  24.055  1.00  0.00    -0.000 C 
BRANCH   6   7
ATOM      7  C   UNL     1       4.667  -5.753  22.858  1.00  0.00    -0.000 C 
BRANCH   7   8
ATOM      8  C   UNL     1       4.220  -6.391  21.534  1.00  0.00    -0.000 C 
BRANCH   8   9
ATOM      9  C   UNL     1       4.251  -7.927  21.583  1.00  0.00    -0.000 C 
BRANCH   9  10
ATOM     10  C   UNL     1       5.485  -8.511  20.874  1.00  0.00    -0.000 C 
BRANCH  10  11
ATOM     11  C   UNL     1       6.423  -9.245  21.842  1.00  0.00    -0.003 C 
ATOM     12  C   UNL     1       7.339  -8.293  22.608  1.00  0.00     0.004 C 
ENDBRANCH  10  11
ENDBRANCH   9  10
ENDBRANCH   8   9
ENDBRANCH   7   8
ENDBRANCH   6   7
ENDBRANCH   5   6
ENDBRANCH   4   5
ENDBRANCH   3   4
ENDBRANCH   2   3
ENDBRANCH   1   2
BRANCH   1  13
ATOM     13  C   UNL     1       8.606  -7.023  28.413  1.00  0.00     0.000 C 
BRANCH  13  14
ATOM     14  C   UNL     1       8.387  -7.864  27.143  1.00  0.00     0.000 C 
BRANCH  14  15
ATOM     15  C   UNL     1       7.861  -9.275  27.445  1.00  0.00     0.000 C 
BRANCH  15  16
ATOM     16  C   UNL     1       6.459  -9.529  26.859  1.00  0.00     0.000 C 
BRANCH  16  17
ATOM     17  C   UNL     1       5.404  -9.817  27.938  1.00  0.00     0.000 C 
BRANCH  17  18
ATOM     18  C   UNL     1       5.928  -9.578  29.363  1.00  0.00     0.000 C 
BRANCH  18  19
ATOM     19  C   UNL     1       5.371  -8.280  29.974  1.00  0.00     0.000 C 
BRANCH  19  20
ATOM     20  C   UNL     1       6.109  -7.880  31.263  1.00  0.00     0.006 C 
BRANCH  20  21
ATOM     21  C   UNL     1       5.957  -6.384  31.572  1.00  0.00     0.053 C 
BRANCH  21  22
ATOM     22  C   UNL     1       7.229  -5.804  32.108  1.00  0.00     0.041 C 
ATOM     23  O   UNL     1       7.198  -4.773  32.832  1.00  0.00    -0.550 OA
ATOM     24  O   UNL     1       8.446  -6.424  31.847  1.00  0.00    -0.550 OA
ENDBRANCH  21  22
ENDBRANCH  20  21
ENDBRANCH  19  20
ENDBRANCH  18  19
ENDBRANCH  17  18
ENDBRANCH  16  17
ENDBRANCH  15  16
ENDBRANCH  14  15
ENDBRANCH  13  14
ENDBRANCH   1  13
TORSDOF 20
ENDMDL
MODEL 4
REMARK VINA RESULT:    -4.062      1.236      2.495
REMARK INTER + INTRA:         -12.859
REMARK INTER:                  -9.130
REMARK INTRA:                  -3.729
REMARK UNBOUND:                -4.048
REMARK SMILES CCCCCCCCCCCCCCCCCCCCCC(=O)[O-]
REMARK SMILES IDX 12 1 11 2 10 3 9 4 8 5 7 6 6 7 5 8 4 9 3 10 2 11 1 12 13 13
REMARK SMILES IDX 14 14 15 15 16 16 17 17 18 18 19 19 20 20 21 21 22 22 23 23
REMARK SMILES IDX 24 24
REMARK H PARENT
REMARK Flexibility Score: inf
ROOT
ATOM      1  C   UNL     1       8.137  -5.435  28.952  1.00  0.00     0.000 C 
ENDROOT
BRANCH   1   2
ATOM      2  C   UNL     1       8.877  -6.768  28.769  1.00  0.00     0.000 C 
BRANCH   2   3
ATOM      3  C   UNL     1       8.581  -7.374  27.391  1.00  0.00     0.000 C 
BRANCH   3   4
ATOM      4  C   UNL     1       8.608  -8.911  27.442  1.00  0.00    -0.000 C 
BRANCH   4   5
ATOM      5  C   UNL     1       7.717  -9.556  26.370  1.00  0.00    -0.000 C 
BRANCH   5   6
ATOM      6  C   UNL     1       7.935  -8.954  24.974  1.00  0.00    -0.000 C 
BRANCH   6   7
ATOM      7  C   UNL     1       6.637  -8.973  24.157  1.00  0.00    -0.000 C 
BRANCH   7   8
ATOM      8  C   UNL     1       6.818  -8.242  22.818  1.00  0.00    -0.000 C 
BRANCH   8   9
ATOM      9  C   UNL     1       6.451  -6.752  22.907  1.00  0.00    -0.000 C 
BRANCH   9  10
ATOM     10  C   UNL     1       5.134  -6.429  22.181  1.00  0.00    -0.000 C 
BRANCH  10  11
ATOM     11  C   UNL     1       4.181  -5.588  23.042  1.00  0.00    -0.003 C 
ATOM     12  C   UNL     1       2.917  -6.350  23.435  1.00  0.00     0.004 C 
ENDBRANCH  10  11
ENDBRANCH   9  10
ENDBRANCH   8   9
ENDBRANCH   7   8
ENDBRANCH   6   7
ENDBRANCH   5   6
ENDBRANCH   4   5
ENDBRANCH   3   4
ENDBRANCH   2   3
ENDBRANCH   1   2
BRANCH   1  13
ATOM     13  C   UNL     1       7.658  -4.842  27.616  1.00  0.00     0.000 C 
BRANCH  13  14
ATOM     14  C   UNL     1       6.123  -4.846  27.503  1.00  0.00     0.000 C 
BRANCH  14  15
ATOM     15  C   UNL     1       5.615  -5.639  26.290  1.00  0.00     0.000 C 
BRANCH  15  16
ATOM     16  C   UNL     1       4.992  -6.992  26.680  1.00  0.00     0.000 C 
BRANCH  16  17
ATOM     17  C   UNL     1       4.828  -7.161  28.198  1.00  0.00     0.000 C 
BRANCH  17  18
ATOM     18  C   UNL     1       5.088  -8.601  28.669  1.00  0.00     0.000 C 
BRANCH  18  19
ATOM     19  C   UNL     1       5.752  -8.645  30.056  1.00  0.00     0.000 C 
BRANCH  19  20
ATOM     20  C   UNL     1       5.423  -7.401  30.899  1.00  0.00     0.006 C 
BRANCH  20  21
ATOM     21  C   UNL     1       6.635  -6.918  31.709  1.00  0.00     0.053 C 
BRANCH  21  22
ATOM     22  C   UNL     1       6.308  -5.689  32.500  1.00  0.00     0.041 C 
ATOM     23  O   UNL     1       5.129  -5.487  32.896  1.00  0.00    -0.550 OA
ATOM     24  O   UNL     1       7.311  -4.788  32.840  1.00  0.00    -0.550 OA
ENDBRANCH  21  22
ENDBRANCH  20  21
ENDBRANCH  19  20
ENDBRANCH  18  19
ENDBRANCH  17  18
ENDBRANCH  16  17
ENDBRANCH  15  16
ENDBRANCH  14  15
ENDBRANCH  13  14
ENDBRANCH   1  13
TORSDOF 20
ENDMDL
MODEL 5
REMARK VINA RESULT:    -4.061      3.180      6.645
REMARK INTER + INTRA:         -12.856
REMARK INTER:                  -8.730
REMARK INTRA:                  -4.125
REMARK UNBOUND:                -4.048
REMARK SMILES CCCCCCCCCCCCCCCCCCCCCC(=O)[O-]
REMARK SMILES IDX 12 1 11 2 10 3 9 4 8 5 7 6 6 7 5 8 4 9 3 10 2 11 1 12 13 13
REMARK SMILES IDX 14 14 15 15 16 16 17 17 18 18 19 19 20 20 21 21 22 22 23 23
REMARK SMILES IDX 24 24
REMARK H PARENT
REMARK Flexibility Score: inf
ROOT
ATOM      1  C   UNL     1       8.121  -5.679  27.697  1.00  0.00     0.000 C 
ENDROOT
BRANCH   1   2
ATOM      2  C   UNL     1       7.011  -4.968  28.484  1.00  0.00     0.000 C 
BRANCH   2   3
ATOM      3  C   UNL     1       5.630  -5.299  27.905  1.00  0.00     0.000 C 
BRANCH   3   4
ATOM      4  C   UNL     1       5.748  -5.911  26.500  1.00  0.00    -0.000 C 
BRANCH   4   5
ATOM      5  C   UNL     1       4.900  -7.181  26.331  1.00  0.00    -0.000 C 
BRANCH   5   6
ATOM      6  C   UNL     1       4.374  -7.727  27.668  1.00  0.00    -0.000 C 
BRANCH   6   7
ATOM      7  C   UNL     1       4.909  -9.139  27.934  1.00  0.00    -0.000 C 
BRANCH   7   8
ATOM      8  C   UNL     1       5.142  -9.366  29.436  1.00  0.00    -0.000 C 
BRANCH   8   9
ATOM      9  C   UNL     1       4.972  -8.077  30.257  1.00  0.00    -0.000 C 
BRANCH   9  10
ATOM     10  C   UNL     1       6.236  -7.724  31.060  1.00  0.00    -0.000 C 
BRANCH  10  11
ATOM     11  C   UNL     1       6.076  -6.423  31.861  1.00  0.00    -0.003 C 
ATOM     12  C   UNL     1       7.410  -5.731  32.128  1.00  0.00     0.004 C 
ENDBRANCH  10  11
ENDBRANCH   9  10
ENDBRANCH   8   9
ENDBRANCH   7   8
ENDBRANCH   6   7
ENDBRANCH   5   6
ENDBRANCH   4   5
ENDBRANCH   3   4
ENDBRANCH   2   3
ENDBRANCH   1   2
BRANCH   1  13
ATOM     13  C   UNL     1       8.855  -6.735  28.541  1.00  0.00     0.000 C 
BRANCH  13  14
ATOM     14  C   UNL     1       8.407  -8.164  28.190  1.00  0.00     0.000 C 
BRANCH  14  15
ATOM     15  C   UNL     1       8.733  -8.554  26.741  1.00  0.00     0.000 C 
BRANCH  15  16
ATOM     16  C   UNL     1       8.266  -9.978  26.386  1.00  0.00     0.000 C 
BRANCH  16  17
ATOM     17  C   UNL     1       7.368 -10.019  25.140  1.00  0.00     0.000 C 
BRANCH  17  18
ATOM     18  C   UNL     1       7.410  -8.712  24.332  1.00  0.00     0.000 C 
BRANCH  18  19
ATOM     19  C   UNL     1       7.813  -8.950  22.867  1.00  0.00     0.000 C 
BRANCH  19  20
ATOM     20  C   UNL     1       6.656  -8.669  21.891  1.00  0.00     0.006 C 
BRANCH  20  21
ATOM     21  C   UNL     1       5.473  -7.980  22.586  1.00  0.00     0.053 C 
BRANCH  21  22
ATOM     22  C   UNL     1       5.452  -6.510  22.298  1.00  0.00     0.041 C 
ATOM     23  O   UNL     1       4.615  -6.039  21.483  1.00  0.00    -0.550 OA
ATOM     24  O   UNL     1       6.324  -5.654  22.961  1.00  0.00    -0.550 OA
ENDBRANCH  21  22
ENDBRANCH  20  21
ENDBRANCH  19  20
ENDBRANCH  18  19
ENDBRANCH  17  18
ENDBRANCH  16  17
ENDBRANCH  15  16
ENDBRANCH  14  15
ENDBRANCH  13  14
ENDBRANCH   1  13
TORSDOF 20
ENDMDL
MODEL 6
REMARK VINA RESULT:    -4.058      3.157      7.531
REMARK INTER + INTRA:         -12.851
REMARK INTER:                  -9.774
REMARK INTRA:                  -3.077
REMARK UNBOUND:                -4.048
REMARK SMILES CCCCCCCCCCCCCCCCCCCCCC(=O)[O-]
REMARK SMILES IDX 12 1 11 2 10 3 9 4 8 5 7 6 6 7 5 8 4 9 3 10 2 11 1 12 13 13
REMARK SMILES IDX 14 14 15 15 16 16 17 17 18 18 19 19 20 20 21 21 22 22 23 23
REMARK SMILES IDX 24 24
REMARK H PARENT
REMARK Flexibility Score: inf
ROOT
ATOM      1  C   UNL     1       8.447  -5.937  28.071  1.00  0.00     0.000 C 
ENDROOT
BRANCH   1   2
ATOM      2  C   UNL     1       8.596  -7.451  28.281  1.00  0.00     0.000 C 
BRANCH   2   3
ATOM      3  C   UNL     1       7.859  -8.232  27.185  1.00  0.00     0.000 C 
BRANCH   3   4
ATOM      4  C   UNL     1       7.560  -9.671  27.634  1.00  0.00    -0.000 C 
BRANCH   4   5
ATOM      5  C   UNL     1       6.418  -9.750  28.658  1.00  0.00    -0.000 C 
BRANCH   5   6
ATOM      6  C   UNL     1       5.290  -8.747  28.369  1.00  0.00    -0.000 C 
BRANCH   6   7
ATOM      7  C   UNL     1       4.643  -8.257  29.670  1.00  0.00    -0.000 C 
BRANCH   7   8
ATOM      8  C   UNL     1       5.686  -8.134  30.792  1.00  0.00    -0.000 C 
BRANCH   8   9
ATOM      9  C   UNL     1       5.144  -7.381  32.018  1.00  0.00    -0.000 C 
BRANCH   9  10
ATOM     10  C   UNL     1       5.496  -5.884  31.989  1.00  0.00    -0.000 C 
BRANCH  10  11
ATOM     11  C   UNL     1       6.600  -5.523  32.994  1.00  0.00    -0.003 C 
ATOM     12  C   UNL     1       7.993  -5.539  32.366  1.00  0.00     0.004 C 
ENDBRANCH  10  11
ENDBRANCH   9  10
ENDBRANCH   8   9
ENDBRANCH   7   8
ENDBRANCH   6   7
ENDBRANCH   5   6
ENDBRANCH   4   5
ENDBRANCH   3   4
ENDBRANCH   2   3
ENDBRANCH   1   2
BRANCH   1  13
ATOM     13  C   UNL     1       7.240  -5.356  28.826  1.00  0.00     0.000 C 
BRANCH  13  14
ATOM     14  C   UNL     1       6.018  -5.181  27.907  1.00  0.00     0.000 C 
BRANCH  14  15
ATOM     15  C   UNL     1       6.399  -5.040  26.426  1.00  0.00     0.000 C 
BRANCH  15  16
ATOM     16  C   UNL     1       5.339  -5.630  25.478  1.00  0.00     0.000 C 
BRANCH  16  17
ATOM     17  C   UNL     1       5.935  -6.593  24.440  1.00  0.00     0.000 C 
BRANCH  17  18
ATOM     18  C   UNL     1       6.562  -5.863  23.241  1.00  0.00     0.000 C 
BRANCH  18  19
ATOM     19  C   UNL     1       5.976  -6.340  21.901  1.00  0.00     0.000 C 
BRANCH  19  20
ATOM     20  C   UNL     1       4.635  -7.073  22.080  1.00  0.00     0.006 C 
BRANCH  20  21
ATOM     21  C   UNL     1       3.446  -6.216  21.621  1.00  0.00     0.053 C 
BRANCH  21  22
ATOM     22  C   UNL     1       2.683  -5.669  22.789  1.00  0.00     0.041 C 
ATOM     23  O   UNL     1       2.324  -4.461  22.799  1.00  0.00    -0.550 OA
ATOM     24  O   UNL     1       2.331  -6.500  23.847  1.00  0.00    -0.550 OA
ENDBRANCH  21  22
ENDBRANCH  20  21
ENDBRANCH  19  20
ENDBRANCH  18  19
ENDBRANCH  17  18
ENDBRANCH  16  17
ENDBRANCH  15  16
ENDBRANCH  14  15
ENDBRANCH  13  14
ENDBRANCH   1  13
TORSDOF 20
ENDMDL
MODEL 7
REMARK VINA RESULT:    -3.969      1.447      2.204
REMARK INTER + INTRA:         -12.656
REMARK INTER:                  -9.060
REMARK INTRA:                  -3.597
REMARK UNBOUND:                -4.048
REMARK SMILES CCCCCCCCCCCCCCCCCCCCCC(=O)[O-]
REMARK SMILES IDX 12 1 11 2 10 3 9 4 8 5 7 6 6 7 5 8 4 9 3 10 2 11 1 12 13 13
REMARK SMILES IDX 14 14 15 15 16 16 17 17 18 18 19 19 20 20 21 21 22 22 23 23
REMARK SMILES IDX 24 24
REMARK H PARENT
REMARK Flexibility Score: inf
ROOT
ATOM      1  C   UNL     1       6.770  -4.451  26.543  1.00  0.00     0.000 C 
ENDROOT
BRANCH   1   2
ATOM      2  C   UNL     1       6.156  -5.254  25.388  1.00  0.00     0.000 C 
BRANCH   2   3
ATOM      3  C   UNL     1       5.242  -6.366  25.918  1.00  0.00     0.000 C 
BRANCH   3   4
ATOM      4  C   UNL     1       5.436  -7.670  25.127  1.00  0.00    -0.000 C 
BRANCH   4   5
ATOM      5  C   UNL     1       6.775  -7.716  24.376  1.00  0.00    -0.000 C 
BRANCH   5   6
ATOM      6  C   UNL     1       7.127  -9.124  23.873  1.00  0.00    -0.000 C 
BRANCH   6   7
ATOM      7  C   UNL     1       8.112  -9.059  22.699  1.00  0.00    -0.000 C 
BRANCH   7   8
ATOM      8  C   UNL     1       7.534  -9.751  21.455  1.00  0.00    -0.000 C 
BRANCH   8   9
ATOM      9  C   UNL     1       5.999  -9.829  21.488  1.00  0.00    -0.000 C 
BRANCH   9  10
ATOM     10  C   UNL     1       5.340  -8.784  20.572  1.00  0.00    -0.000 C 
BRANCH  10  11
ATOM     11  C   UNL     1       4.630  -7.675  21.363  1.00  0.00    -0.003 C 
ATOM     12  C   UNL     1       5.435  -6.379  21.408  1.00  0.00     0.004 C 
ENDBRANCH  10  11
ENDBRANCH   9  10
ENDBRANCH   8   9
ENDBRANCH   7   8
ENDBRANCH   6   7
ENDBRANCH   5   6
ENDBRANCH   4   5
ENDBRANCH   3   4
ENDBRANCH   2   3
ENDBRANCH   1   2
BRANCH   1  13
ATOM     13  C   UNL     1       6.808  -5.249  27.857  1.00  0.00     0.000 C 
BRANCH  13  14
ATOM     14  C   UNL     1       8.239  -5.389  28.404  1.00  0.00     0.000 C 
BRANCH  14  15
ATOM     15  C   UNL     1       8.627  -6.846  28.697  1.00  0.00     0.000 C 
BRANCH  15  16
ATOM     16  C   UNL     1       8.414  -7.776  27.487  1.00  0.00     0.000 C 
BRANCH  16  17
ATOM     17  C   UNL     1       7.411  -8.904  27.769  1.00  0.00     0.000 C 
BRANCH  17  18
ATOM     18  C   UNL     1       6.798  -8.818  29.177  1.00  0.00     0.000 C 
BRANCH  18  19
ATOM     19  C   UNL     1       5.339  -8.333  29.144  1.00  0.00     0.000 C 
BRANCH  19  20
ATOM     20  C   UNL     1       4.860  -7.832  30.518  1.00  0.00     0.006 C 
BRANCH  20  21
ATOM     21  C   UNL     1       6.014  -7.727  31.525  1.00  0.00     0.053 C 
BRANCH  21  22
ATOM     22  C   UNL     1       6.234  -6.310  31.958  1.00  0.00     0.041 C 
ATOM     23  O   UNL     1       5.289  -5.653  32.471  1.00  0.00    -0.550 OA
ATOM     24  O   UNL     1       7.491  -5.727  31.836  1.00  0.00    -0.550 OA
ENDBRANCH  21  22
ENDBRANCH  20  21
ENDBRANCH  19  20
ENDBRANCH  18  19
ENDBRANCH  17  18
ENDBRANCH  16  17
ENDBRANCH  15  16
ENDBRANCH  14  15
ENDBRANCH  13  14
ENDBRANCH   1  13
TORSDOF 20
ENDMDL
MODEL 8
REMARK VINA RESULT:    -3.935     10.931     13.012
REMARK INTER + INTRA:         -12.582
REMARK INTER:                  -9.615
REMARK INTRA:                  -2.968
REMARK UNBOUND:                -4.048
REMARK SMILES CCCCCCCCCCCCCCCCCCCCCC(=O)[O-]
REMARK SMILES IDX 12 1 11 2 10 3 9 4 8 5 7 6 6 7 5 8 4 9 3 10 2 11 1 12 13 13
REMARK SMILES IDX 14 14 15 15 16 16 17 17 18 18 19 19 20 20 21 21 22 22 23 23
REMARK SMILES IDX 24 24
REMARK H PARENT
REMARK Flexibility Score: inf
ROOT
ATOM      1  C   UNL     1      15.671  -8.031  18.624  1.00  0.00     0.000 C 
ENDROOT
BRANCH   1   2
ATOM      2  C   UNL     1      16.222  -9.138  17.712  1.00  0.00     0.000 C 
BRANCH   2   3
ATOM      3  C   UNL     1      15.097  -9.782  16.892  1.00  0.00     0.000 C 
BRANCH   3   4
ATOM      4  C   UNL     1      15.565 -10.107  15.464  1.00  0.00    -0.000 C 
BRANCH   4   5
ATOM      5  C   UNL     1      14.714  -9.417  14.388  1.00  0.00    -0.000 C 
BRANCH   5   6
ATOM      6  C   UNL     1      15.162  -7.974  14.110  1.00  0.00    -0.000 C 
BRANCH   6   7
ATOM      7  C   UNL     1      13.956  -7.065  13.842  1.00  0.00    -0.000 C 
BRANCH   7   8
ATOM      8  C   UNL     1      12.984  -7.076  15.032  1.00  0.00    -0.000 C 
BRANCH   8   9
ATOM      9  C   UNL     1      13.523  -6.289  16.237  1.00  0.00    -0.000 C 
BRANCH   9  10
ATOM     10  C   UNL     1      12.849  -6.703  17.557  1.00  0.00    -0.000 C 
BRANCH  10  11
ATOM     11  C   UNL     1      11.978  -7.959  17.400  1.00  0.00    -0.003 C 
ATOM     12  C   UNL     1      11.993  -8.842  18.646  1.00  0.00     0.004 C 
ENDBRANCH  10  11
ENDBRANCH   9  10
ENDBRANCH   8   9
ENDBRANCH   7   8
ENDBRANCH   6   7
ENDBRANCH   5   6
ENDBRANCH   4   5
ENDBRANCH   3   4
ENDBRANCH   2   3
ENDBRANCH   1   2
BRANCH   1  13
ATOM     13  C   UNL     1      15.756  -8.403  20.114  1.00  0.00     0.000 C 
BRANCH  13  14
ATOM     14  C   UNL     1      14.831  -7.527  20.978  1.00  0.00     0.000 C 
BRANCH  14  15
ATOM     15  C   UNL     1      14.384  -8.225  22.270  1.00  0.00     0.000 C 
BRANCH  15  16
ATOM     16  C   UNL     1      14.865  -7.497  23.540  1.00  0.00     0.000 C 
BRANCH  16  17
ATOM     17  C   UNL     1      15.708  -8.393  24.460  1.00  0.00     0.000 C 
BRANCH  17  18
ATOM     18  C   UNL     1      16.287  -9.617  23.732  1.00  0.00     0.000 C 
BRANCH  18  19
ATOM     19  C   UNL     1      17.824  -9.582  23.673  1.00  0.00     0.000 C 
BRANCH  19  20
ATOM     20  C   UNL     1      18.343  -9.000  22.347  1.00  0.00     0.006 C 
BRANCH  20  21
ATOM     21  C   UNL     1      18.621  -7.493  22.450  1.00  0.00     0.053 C 
BRANCH  21  22
ATOM     22  C   UNL     1      20.034  -7.226  22.870  1.00  0.00     0.041 C 
ATOM     23  O   UNL     1      20.992  -7.614  22.148  1.00  0.00    -0.550 OA
ATOM     24  O   UNL     1      20.296  -6.512  24.035  1.00  0.00    -0.550 OA
ENDBRANCH  21  22
ENDBRANCH  20  21
ENDBRANCH  19  20
ENDBRANCH  18  19
ENDBRANCH  17  18
ENDBRANCH  16  17
ENDBRANCH  15  16
ENDBRANCH  14  15
ENDBRANCH  13  14
ENDBRANCH   1  13
TORSDOF 20
ENDMDL
MODEL 9
REMARK VINA RESULT:    -3.888      3.122      7.240
REMARK INTER + INTRA:         -12.482
REMARK INTER:                  -9.425
REMARK INTRA:                  -3.057
REMARK UNBOUND:                -4.048
REMARK SMILES CCCCCCCCCCCCCCCCCCCCCC(=O)[O-]
REMARK SMILES IDX 12 1 11 2 10 3 9 4 8 5 7 6 6 7 5 8 4 9 3 10 2 11 1 12 13 13
REMARK SMILES IDX 14 14 15 15 16 16 17 17 18 18 19 19 20 20 21 21 22 22 23 23
REMARK SMILES IDX 24 24
REMARK H PARENT
REMARK Flexibility Score: inf
ROOT
ATOM      1  C   UNL     1       6.918 -10.042  27.070  1.00  0.00     0.000 C 
ENDROOT
BRANCH   1   2
ATOM      2  C   UNL     1       6.532  -9.917  28.551  1.00  0.00     0.000 C 
BRANCH   2   3
ATOM      3  C   UNL     1       5.032  -9.637  28.706  1.00  0.00     0.000 C 
BRANCH   3   4
ATOM      4  C   UNL     1       4.777  -8.524  29.735  1.00  0.00    -0.000 C 
BRANCH   4   5
ATOM      5  C   UNL     1       5.997  -8.250  30.628  1.00  0.00    -0.000 C 
BRANCH   5   6
ATOM      6  C   UNL     1       5.863  -6.950  31.436  1.00  0.00    -0.000 C 
BRANCH   6   7
ATOM      7  C   UNL     1       6.854  -5.889  30.942  1.00  0.00    -0.000 C 
BRANCH   7   8
ATOM      8  C   UNL     1       8.174  -6.536  30.494  1.00  0.00    -0.000 C 
BRANCH   8   9
ATOM      9  C   UNL     1       8.667  -5.988  29.145  1.00  0.00    -0.000 C 
BRANCH   9  10
ATOM     10  C   UNL     1       7.940  -6.630  27.951  1.00  0.00    -0.000 C 
BRANCH  10  11
ATOM     11  C   UNL     1       7.112  -5.612  27.153  1.00  0.00    -0.003 C 
ATOM     12  C   UNL     1       5.627  -5.658  27.505  1.00  0.00     0.004 C 
ENDBRANCH  10  11
ENDBRANCH   9  10
ENDBRANCH   8   9
ENDBRANCH   7   8
ENDBRANCH   6   7
ENDBRANCH   5   6
ENDBRANCH   4   5
ENDBRANCH   3   4
ENDBRANCH   2   3
ENDBRANCH   1   2
BRANCH   1  13
ATOM     13  C   UNL     1       5.982  -9.239  26.151  1.00  0.00     0.000 C 
BRANCH  13  14
ATOM     14  C   UNL     1       6.733  -8.643  24.947  1.00  0.00     0.000 C 
BRANCH  14  15
ATOM     15  C   UNL     1       6.947  -9.657  23.814  1.00  0.00     0.000 C 
BRANCH  15  16
ATOM     16  C   UNL     1       7.526  -9.016  22.539  1.00  0.00     0.000 C 
BRANCH  16  17
ATOM     17  C   UNL     1       6.989  -9.657  21.250  1.00  0.00     0.000 C 
BRANCH  17  18
ATOM     18  C   UNL     1       5.538  -9.253  20.943  1.00  0.00     0.000 C 
BRANCH  18  19
ATOM     19  C   UNL     1       5.310  -7.741  21.111  1.00  0.00     0.000 C 
BRANCH  19  20
ATOM     20  C   UNL     1       4.253  -7.427  22.184  1.00  0.00     0.006 C 
BRANCH  20  21
ATOM     21  C   UNL     1       3.550  -6.087  21.924  1.00  0.00     0.053 C 
BRANCH  21  22
ATOM     22  C   UNL     1       3.489  -5.253  23.167  1.00  0.00     0.041 C 
ATOM     23  O   UNL     1       2.497  -4.503  23.375  1.00  0.00    -0.550 OA
ATOM     24  O   UNL     1       4.502  -5.333  24.116  1.00  0.00    -0.550 OA
ENDBRANCH  21  22
ENDBRANCH  20  21
ENDBRANCH  19  20
ENDBRANCH  18  19
ENDBRANCH  17  18
ENDBRANCH  16  17
ENDBRANCH  15  16
ENDBRANCH  14  15
ENDBRANCH  13  14
ENDBRANCH   1  13
TORSDOF 20
ENDMDL
