MODEL 1
REMARK VINA RESULT:    -5.341      0.000      0.000
REMARK INTER + INTRA:         -11.031
REMARK INTER:                  -9.713
REMARK INTRA:                  -1.318
REMARK UNBOUND:                -1.318
REMARK SMILES CCCCCCCCCCCCCC[C@H](C)C(=O)[O-]
REMARK SMILES IDX 9 1 10 2 11 3 12 4 13 5 14 6 15 7 16 8 17 9 18 10 19 11 8 12
REMARK SMILES IDX 7 13 6 14 5 15 4 16 3 17 2 18 1 19
REMARK H PARENT
REMARK Flexibility Score: inf
ROOT
ATOM      1  C   UNL     1      26.260  11.163  13.844  1.00  0.00     0.000 C 
ENDROOT
BRANCH   1   2
ATOM      2  C   UNL     1      27.173  10.885  12.641  1.00  0.00     0.000 C 
BRANCH   2   3
ATOM      3  C   UNL     1      27.860  12.151  12.097  1.00  0.00     0.000 C 
BRANCH   3   4
ATOM      4  C   UNL     1      27.870  12.281  10.562  1.00  0.00     0.000 C 
BRANCH   4   5
ATOM      5  C   UNL     1      27.049  13.476  10.055  1.00  0.00     0.001 C 
BRANCH   5   6
ATOM      6  C   UNL     1      25.546  13.147  10.063  1.00  0.00     0.009 C 
BRANCH   6   7
ATOM      7  C   UNL     1      24.824  13.436   8.728  1.00  0.00     0.032 C 
ATOM      8  C   UNL     1      25.284  14.751   8.088  1.00  0.00     0.014 C 
BRANCH   7   9
ATOM      9  C   UNL     1      23.326  13.385   8.879  1.00  0.00     0.044 C 
ATOM     10  O   UNL     1      22.805  13.536  10.014  1.00  0.00    -0.550 OA
ATOM     11  O   UNL     1      22.505  13.236   7.768  1.00  0.00    -0.550 OA
ENDBRANCH   7   9
ENDBRANCH   6   7
ENDBRANCH   5   6
ENDBRANCH   4   5
ENDBRANCH   3   4
ENDBRANCH   2   3
ENDBRANCH   1   2
BRANCH   1  12
ATOM     12  C   UNL     1      25.006  11.941  13.417  1.00  0.00     0.000 C 
BRANCH  12  13
ATOM     13  C   UNL     1      24.026  11.081  12.603  1.00  0.00    -0.000 C 
BRANCH  13  14
ATOM     14  C   UNL     1      23.316  10.019  13.459  1.00  0.00    -0.000 C 
BRANCH  14  15
ATOM     15  C   UNL     1      22.890   8.792  12.639  1.00  0.00    -0.000 C 
BRANCH  15  16
ATOM     16  C   UNL     1      21.381   8.508  12.743  1.00  0.00    -0.000 C 
BRANCH  16  17
ATOM     17  C   UNL     1      20.533   9.792  12.780  1.00  0.00    -0.000 C 
BRANCH  17  18
ATOM     18  C   UNL     1      19.199   9.659  13.535  1.00  0.00    -0.003 C 
ATOM     19  C   UNL     1      19.211   8.541  14.577  1.00  0.00     0.004 C 
ENDBRANCH  17  18
ENDBRANCH  16  17
ENDBRANCH  15  16
ENDBRANCH  14  15
ENDBRANCH  13  14
ENDBRANCH  12  13
ENDBRANCH   1  12
TORSDOF 14
ENDMDL
MODEL 2
REMARK VINA RESULT:    -5.198      2.917      7.752
REMARK INTER + INTRA:         -10.769
REMARK INTER:                  -9.639
REMARK INTRA:                  -1.131
REMARK UNBOUND:                -1.318
REMARK SMILES CCCCCCCCCCCCCC[C@H](C)C(=O)[O-]
REMARK SMILES IDX 9 1 10 2 11 3 12 4 13 5 14 6 15 7 16 8 17 9 18 10 19 11 8 12
REMARK SMILES IDX 7 13 6 14 5 15 4 16 3 17 2 18 1 19
REMARK H PARENT
REMARK Flexibility Score: inf
ROOT
ATOM      1  C   UNL     1      23.960  13.097   9.789  1.00  0.00     0.000 C 
ENDROOT
BRANCH   1   2
ATOM      2  C   UNL     1      24.876  12.637  10.931  1.00  0.00     0.000 C 
BRANCH   2   3
ATOM      3  C   UNL     1      24.117  12.358  12.242  1.00  0.00     0.000 C 
BRANCH   3   4
ATOM      4  C   UNL     1      24.505  11.051  12.957  1.00  0.00     0.000 C 
BRANCH   4   5
ATOM      5  C   UNL     1      23.291  10.208  13.371  1.00  0.00     0.001 C 
BRANCH   5   6
ATOM      6  C   UNL     1      22.876   9.254  12.237  1.00  0.00     0.009 C 
BRANCH   6   7
ATOM      7  C   UNL     1      21.398   9.385  11.805  1.00  0.00     0.032 C 
ATOM      8  C   UNL     1      21.108  10.722  11.115  1.00  0.00     0.014 C 
BRANCH   7   9
ATOM      9  C   UNL     1      20.456   9.135  12.954  1.00  0.00     0.044 C 
ATOM     10  O   UNL     1      19.704  10.058  13.360  1.00  0.00    -0.550 OA
ATOM     11  O   UNL     1      20.360   7.875  13.533  1.00  0.00    -0.550 OA
ENDBRANCH   7   9
ENDBRANCH   6   7
ENDBRANCH   5   6
ENDBRANCH   4   5
ENDBRANCH   3   4
ENDBRANCH   2   3
ENDBRANCH   1   2
BRANCH   1  12
ATOM     12  C   UNL     1      24.776  13.700   8.634  1.00  0.00     0.000 C 
BRANCH  12  13
ATOM     13  C   UNL     1      26.291  13.553   8.843  1.00  0.00    -0.000 C 
BRANCH  13  14
ATOM     14  C   UNL     1      27.026  14.904   8.828  1.00  0.00    -0.000 C 
BRANCH  14  15
ATOM     15  C   UNL     1      26.333  15.940   7.929  1.00  0.00    -0.000 C 
BRANCH  15  16
ATOM     16  C   UNL     1      26.891  17.360   8.128  1.00  0.00    -0.000 C 
BRANCH  16  17
ATOM     17  C   UNL     1      25.857  18.458   7.815  1.00  0.00    -0.000 C 
BRANCH  17  18
ATOM     18  C   UNL     1      24.697  18.008   6.909  1.00  0.00    -0.003 C 
ATOM     19  C   UNL     1      23.572  19.037   6.823  1.00  0.00     0.004 C 
ENDBRANCH  17  18
ENDBRANCH  16  17
ENDBRANCH  15  16
ENDBRANCH  14  15
ENDBRANCH  13  14
ENDBRANCH  12  13
ENDBRANCH   1  12
TORSDOF 14
ENDMDL
MODEL 3
REMARK VINA RESULT:    -5.142      3.370      4.709
REMARK INTER + INTRA:         -10.667
REMARK INTER:                 -10.067
REMARK INTRA:                  -0.600
REMARK UNBOUND:                -1.318
REMARK SMILES CCCCCCCCCCCCCC[C@H](C)C(=O)[O-]
REMARK SMILES IDX 9 1 10 2 11 3 12 4 13 5 14 6 15 7 16 8 17 9 18 10 19 11 8 12
REMARK SMILES IDX 7 13 6 14 5 15 4 16 3 17 2 18 1 19
REMARK H PARENT
REMARK Flexibility Score: inf
ROOT
ATOM      1  C   UNL     1      24.530  13.510   8.821  1.00  0.00     0.000 C 
ENDROOT
BRANCH   1   2
ATOM      2  C   UNL     1      26.065  13.508   8.772  1.00  0.00     0.000 C 
BRANCH   2   3
ATOM      3  C   UNL     1      26.639  14.514   7.758  1.00  0.00     0.000 C 
BRANCH   3   4
ATOM      4  C   UNL     1      25.991  15.911   7.783  1.00  0.00     0.000 C 
BRANCH   4   5
ATOM      5  C   UNL     1      26.958  17.015   8.234  1.00  0.00     0.001 C 
BRANCH   5   6
ATOM      6  C   UNL     1      26.250  18.381   8.264  1.00  0.00     0.009 C 
BRANCH   6   7
ATOM      7  C   UNL     1      26.270  19.137   6.916  1.00  0.00     0.032 C 
ATOM      8  C   UNL     1      26.901  20.529   7.036  1.00  0.00     0.014 C 
BRANCH   7   9
ATOM      9  C   UNL     1      24.900  19.198   6.290  1.00  0.00     0.044 C 
ATOM     10  O   UNL     1      24.744  19.770   5.181  1.00  0.00    -0.550 OA
ATOM     11  O   UNL     1      23.815  18.575   6.894  1.00  0.00    -0.550 OA
ENDBRANCH   7   9
ENDBRANCH   6   7
ENDBRANCH   5   6
ENDBRANCH   4   5
ENDBRANCH   3   4
ENDBRANCH   2   3
ENDBRANCH   1   2
BRANCH   1  12
ATOM     12  C   UNL     1      24.022  13.174  10.232  1.00  0.00     0.000 C 
BRANCH  12  13
ATOM     13  C   UNL     1      22.514  12.878  10.261  1.00  0.00    -0.000 C 
BRANCH  13  14
ATOM     14  C   UNL     1      22.203  11.375  10.163  1.00  0.00    -0.000 C 
BRANCH  14  15
ATOM     15  C   UNL     1      21.249  10.899  11.270  1.00  0.00    -0.000 C 
BRANCH  15  16
ATOM     16  C   UNL     1      21.505   9.438  11.681  1.00  0.00    -0.000 C 
BRANCH  16  17
ATOM     17  C   UNL     1      21.186   9.170  13.164  1.00  0.00    -0.000 C 
BRANCH  17  18
ATOM     18  C   UNL     1      19.991   8.230  13.403  1.00  0.00    -0.003 C 
ATOM     19  C   UNL     1      19.134   8.646  14.598  1.00  0.00     0.004 C 
ENDBRANCH  17  18
ENDBRANCH  16  17
ENDBRANCH  15  16
ENDBRANCH  14  15
ENDBRANCH  13  14
ENDBRANCH  12  13
ENDBRANCH   1  12
TORSDOF 14
ENDMDL
MODEL 4
REMARK VINA RESULT:    -5.128      9.010     13.106
REMARK INTER + INTRA:         -10.643
REMARK INTER:                  -9.083
REMARK INTRA:                  -1.560
REMARK UNBOUND:                -1.318
REMARK SMILES CCCCCCCCCCCCCC[C@H](C)C(=O)[O-]
REMARK SMILES IDX 9 1 10 2 11 3 12 4 13 5 14 6 15 7 16 8 17 9 18 10 19 11 8 12
REMARK SMILES IDX 7 13 6 14 5 15 4 16 3 17 2 18 1 19
REMARK H PARENT
REMARK Flexibility Score: inf
ROOT
ATOM      1  C   UNL     1      26.166  21.762   6.621  1.00  0.00     0.000 C 
ENDROOT
BRANCH   1   2
ATOM      2  C   UNL     1      26.917  20.486   7.025  1.00  0.00     0.000 C 
BRANCH   2   3
ATOM      3  C   UNL     1      26.347  19.214   6.371  1.00  0.00     0.000 C 
BRANCH   3   4
ATOM      4  C   UNL     1      25.566  18.285   7.318  1.00  0.00     0.000 C 
BRANCH   4   5
ATOM      5  C   UNL     1      24.051  18.309   7.071  1.00  0.00     0.001 C 
BRANCH   5   6
ATOM      6  C   UNL     1      23.721  19.074   5.777  1.00  0.00     0.009 C 
BRANCH   6   7
ATOM      7  C   UNL     1      22.841  20.327   5.986  1.00  0.00     0.032 C 
ATOM      8  C   UNL     1      21.691  20.075   6.968  1.00  0.00     0.014 C 
BRANCH   7   9
ATOM      9  C   UNL     1      22.343  20.884   4.678  1.00  0.00     0.044 C 
ATOM     10  O   UNL     1      22.970  21.820   4.117  1.00  0.00    -0.550 OA
ATOM     11  O   UNL     1      21.234  20.335   4.047  1.00  0.00    -0.550 OA
ENDBRANCH   7   9
ENDBRANCH   6   7
ENDBRANCH   5   6
ENDBRANCH   4   5
ENDBRANCH   3   4
ENDBRANCH   2   3
ENDBRANCH   1   2
BRANCH   1  12
ATOM     12  C   UNL     1      26.309  22.034   5.115  1.00  0.00     0.000 C 
BRANCH  12  13
ATOM     13  C   UNL     1      27.480  22.975   4.793  1.00  0.00    -0.000 C 
BRANCH  13  14
ATOM     14  C   UNL     1      27.017  24.398   4.438  1.00  0.00    -0.000 C 
BRANCH  14  15
ATOM     15  C   UNL     1      26.440  25.148   5.649  1.00  0.00    -0.000 C 
BRANCH  15  16
ATOM     16  C   UNL     1      24.926  25.393   5.525  1.00  0.00    -0.000 C 
BRANCH  16  17
ATOM     17  C   UNL     1      24.305  25.964   6.813  1.00  0.00    -0.000 C 
BRANCH  17  18
ATOM     18  C   UNL     1      25.007  25.528   8.112  1.00  0.00    -0.003 C 
ATOM     19  C   UNL     1      25.472  26.707   8.965  1.00  0.00     0.004 C 
ENDBRANCH  17  18
ENDBRANCH  16  17
ENDBRANCH  15  16
ENDBRANCH  14  15
ENDBRANCH  13  14
ENDBRANCH  12  13
ENDBRANCH   1  12
TORSDOF 14
ENDMDL
MODEL 5
REMARK VINA RESULT:    -5.112     10.119     13.241
REMARK INTER + INTRA:         -10.613
REMARK INTER:                  -8.355
REMARK INTRA:                  -2.258
REMARK UNBOUND:                -1.318
REMARK SMILES CCCCCCCCCCCCCC[C@H](C)C(=O)[O-]
REMARK SMILES IDX 9 1 10 2 11 3 12 4 13 5 14 6 15 7 16 8 17 9 18 10 19 11 8 12
REMARK SMILES IDX 7 13 6 14 5 15 4 16 3 17 2 18 1 19
REMARK H PARENT
REMARK Flexibility Score: inf
ROOT
ATOM      1  C   UNL     1      22.665  19.259   5.476  1.00  0.00     0.000 C 
ENDROOT
BRANCH   1   2
ATOM      2  C   UNL     1      22.202  20.714   5.324  1.00  0.00     0.000 C 
BRANCH   2   3
ATOM      3  C   UNL     1      23.073  21.528   4.349  1.00  0.00     0.000 C 
BRANCH   3   4
ATOM      4  C   UNL     1      23.863  22.686   4.987  1.00  0.00     0.000 C 
BRANCH   4   5
ATOM      5  C   UNL     1      23.498  22.923   6.459  1.00  0.00     0.001 C 
BRANCH   5   6
ATOM      6  C   UNL     1      24.450  23.948   7.100  1.00  0.00     0.009 C 
BRANCH   6   7
ATOM      7  C   UNL     1      24.705  25.204   6.237  1.00  0.00     0.032 C 
ATOM      8  C   UNL     1      26.181  25.361   5.856  1.00  0.00     0.014 C 
BRANCH   7   9
ATOM      9  C   UNL     1      24.163  26.449   6.889  1.00  0.00     0.044 C 
ATOM     10  O   UNL     1      24.834  27.034   7.779  1.00  0.00    -0.550 OA
ATOM     11  O   UNL     1      22.956  27.000   6.476  1.00  0.00    -0.550 OA
ENDBRANCH   7   9
ENDBRANCH   6   7
ENDBRANCH   5   6
ENDBRANCH   4   5
ENDBRANCH   3   4
ENDBRANCH   2   3
ENDBRANCH   1   2
BRANCH   1  12
ATOM     12  C   UNL     1      23.658  19.113   6.640  1.00  0.00     0.000 C 
BRANCH  12  13
ATOM     13  C   UNL     1      25.114  18.994   6.162  1.00  0.00    -0.000 C 
BRANCH  13  14
ATOM     14  C   UNL     1      26.105  18.801   7.321  1.00  0.00    -0.000 C 
BRANCH  14  15
ATOM     15  C   UNL     1      27.151  19.924   7.393  1.00  0.00    -0.000 C 
BRANCH  15  16
ATOM     16  C   UNL     1      26.768  21.143   6.535  1.00  0.00    -0.000 C 
BRANCH  16  17
ATOM     17  C   UNL     1      27.992  21.861   5.937  1.00  0.00    -0.000 C 
BRANCH  17  18
ATOM     18  C   UNL     1      27.988  21.965   4.401  1.00  0.00    -0.003 C 
ATOM     19  C   UNL     1      26.870  21.152   3.750  1.00  0.00     0.004 C 
ENDBRANCH  17  18
ENDBRANCH  16  17
ENDBRANCH  15  16
ENDBRANCH  14  15
ENDBRANCH  13  14
ENDBRANCH  12  13
ENDBRANCH   1  12
TORSDOF 14
ENDMDL
MODEL 6
REMARK VINA RESULT:    -5.050      3.598      5.047
REMARK INTER + INTRA:         -10.502
REMARK INTER:                  -9.820
REMARK INTRA:                  -0.681
REMARK UNBOUND:                -1.318
REMARK SMILES CCCCCCCCCCCCCC[C@H](C)C(=O)[O-]
REMARK SMILES IDX 9 1 10 2 11 3 12 4 13 5 14 6 15 7 16 8 17 9 18 10 19 11 8 12
REMARK SMILES IDX 7 13 6 14 5 15 4 16 3 17 2 18 1 19
REMARK H PARENT
REMARK Flexibility Score: inf
ROOT
ATOM      1  C   UNL     1      24.980  13.235   9.348  1.00  0.00     0.000 C 
ENDROOT
BRANCH   1   2
ATOM      2  C   UNL     1      25.607  14.019   8.187  1.00  0.00     0.000 C 
BRANCH   2   3
ATOM      3  C   UNL     1      25.119  15.478   8.107  1.00  0.00     0.000 C 
BRANCH   3   4
ATOM      4  C   UNL     1      26.204  16.511   7.750  1.00  0.00     0.000 C 
BRANCH   4   5
ATOM      5  C   UNL     1      25.680  17.954   7.740  1.00  0.00     0.001 C 
BRANCH   5   6
ATOM      6  C   UNL     1      24.325  18.037   7.014  1.00  0.00     0.009 C 
BRANCH   6   7
ATOM      7  C   UNL     1      24.276  19.083   5.878  1.00  0.00     0.032 C 
ATOM      8  C   UNL     1      25.354  20.162   6.030  1.00  0.00     0.014 C 
BRANCH   7   9
ATOM      9  C   UNL     1      22.902  19.685   5.731  1.00  0.00     0.044 C 
ATOM     10  O   UNL     1      22.160  19.806   6.740  1.00  0.00    -0.550 OA
ATOM     11  O   UNL     1      22.466  20.169   4.504  1.00  0.00    -0.550 OA
ENDBRANCH   7   9
ENDBRANCH   6   7
ENDBRANCH   5   6
ENDBRANCH   4   5
ENDBRANCH   3   4
ENDBRANCH   2   3
ENDBRANCH   1   2
BRANCH   1  12
ATOM     12  C   UNL     1      23.455  13.133   9.187  1.00  0.00     0.000 C 
BRANCH  12  13
ATOM     13  C   UNL     1      22.776  12.479  10.401  1.00  0.00    -0.000 C 
BRANCH  13  14
ATOM     14  C   UNL     1      21.695  11.461   9.999  1.00  0.00    -0.000 C 
BRANCH  14  15
ATOM     15  C   UNL     1      21.315  10.521  11.153  1.00  0.00    -0.000 C 
BRANCH  15  16
ATOM     16  C   UNL     1      22.417  10.424  12.222  1.00  0.00    -0.000 C 
BRANCH  16  17
ATOM     17  C   UNL     1      22.113   9.368  13.301  1.00  0.00    -0.000 C 
BRANCH  17  18
ATOM     18  C   UNL     1      20.919   8.450  12.981  1.00  0.00    -0.003 C 
ATOM     19  C   UNL     1      19.689   8.750  13.836  1.00  0.00     0.004 C 
ENDBRANCH  17  18
ENDBRANCH  16  17
ENDBRANCH  15  16
ENDBRANCH  14  15
ENDBRANCH  13  14
ENDBRANCH  12  13
ENDBRANCH   1  12
TORSDOF 14
ENDMDL
MODEL 7
REMARK VINA RESULT:    -5.016      9.278     12.961
REMARK INTER + INTRA:         -10.440
REMARK INTER:                  -8.459
REMARK INTRA:                  -1.980
REMARK UNBOUND:                -1.318
REMARK SMILES CCCCCCCCCCCCCC[C@H](C)C(=O)[O-]
REMARK SMILES IDX 9 1 10 2 11 3 12 4 13 5 14 6 15 7 16 8 17 9 18 10 19 11 8 12
REMARK SMILES IDX 7 13 6 14 5 15 4 16 3 17 2 18 1 19
REMARK H PARENT
REMARK Flexibility Score: inf
ROOT
ATOM      1  C   UNL     1      23.037  20.894   5.609  1.00  0.00     0.000 C 
ENDROOT
BRANCH   1   2
ATOM      2  C   UNL     1      23.264  21.746   4.352  1.00  0.00     0.000 C 
BRANCH   2   3
ATOM      3  C   UNL     1      24.468  22.698   4.474  1.00  0.00     0.000 C 
BRANCH   3   4
ATOM      4  C   UNL     1      24.557  23.473   5.802  1.00  0.00     0.000 C 
BRANCH   4   5
ATOM      5  C   UNL     1      25.892  24.209   5.981  1.00  0.00     0.001 C 
BRANCH   5   6
ATOM      6  C   UNL     1      25.660  25.650   6.469  1.00  0.00     0.009 C 
BRANCH   6   7
ATOM      7  C   UNL     1      24.428  25.821   7.385  1.00  0.00     0.032 C 
ATOM      8  C   UNL     1      23.541  26.995   6.959  1.00  0.00     0.014 C 
BRANCH   7   9
ATOM      9  C   UNL     1      24.820  25.917   8.836  1.00  0.00     0.044 C 
ATOM     10  O   UNL     1      24.282  25.157   9.683  1.00  0.00    -0.550 OA
ATOM     11  O   UNL     1      25.817  26.794   9.246  1.00  0.00    -0.550 OA
ENDBRANCH   7   9
ENDBRANCH   6   7
ENDBRANCH   5   6
ENDBRANCH   4   5
ENDBRANCH   3   4
ENDBRANCH   2   3
ENDBRANCH   1   2
BRANCH   1  12
ATOM     12  C   UNL     1      23.847  19.590   5.546  1.00  0.00     0.000 C 
BRANCH  12  13
ATOM     13  C   UNL     1      23.777  18.788   6.855  1.00  0.00    -0.000 C 
BRANCH  13  14
ATOM     14  C   UNL     1      25.029  17.927   7.091  1.00  0.00    -0.000 C 
BRANCH  14  15
ATOM     15  C   UNL     1      25.974  18.539   8.137  1.00  0.00    -0.000 C 
BRANCH  15  16
ATOM     16  C   UNL     1      27.223  19.175   7.501  1.00  0.00    -0.000 C 
BRANCH  16  17
ATOM     17  C   UNL     1      26.992  20.631   7.058  1.00  0.00    -0.000 C 
BRANCH  17  18
ATOM     18  C   UNL     1      27.660  21.010   5.724  1.00  0.00    -0.003 C 
ATOM     19  C   UNL     1      27.308  20.052   4.587  1.00  0.00     0.004 C 
ENDBRANCH  17  18
ENDBRANCH  16  17
ENDBRANCH  15  16
ENDBRANCH  14  15
ENDBRANCH  13  14
ENDBRANCH  12  13
ENDBRANCH   1  12
TORSDOF 14
ENDMDL
MODEL 8
REMARK VINA RESULT:    -5.001      9.439     12.614
REMARK INTER + INTRA:         -10.411
REMARK INTER:                  -8.218
REMARK INTRA:                  -2.193
REMARK UNBOUND:                -1.318
REMARK SMILES CCCCCCCCCCCCCC[C@H](C)C(=O)[O-]
REMARK SMILES IDX 9 1 10 2 11 3 12 4 13 5 14 6 15 7 16 8 17 9 18 10 19 11 8 12
REMARK SMILES IDX 7 13 6 14 5 15 4 16 3 17 2 18 1 19
REMARK H PARENT
REMARK Flexibility Score: inf
ROOT
ATOM      1  C   UNL     1      27.226  21.079   6.569  1.00  0.00     0.000 C 
ENDROOT
BRANCH   1   2
ATOM      2  C   UNL     1      27.433  22.254   5.603  1.00  0.00     0.000 C 
BRANCH   2   3
ATOM      3  C   UNL     1      26.572  22.151   4.331  1.00  0.00     0.000 C 
BRANCH   3   4
ATOM      4  C   UNL     1      25.963  23.479   3.843  1.00  0.00     0.000 C 
BRANCH   4   5
ATOM      5  C   UNL     1      26.374  24.681   4.705  1.00  0.00     0.001 C 
BRANCH   5   6
ATOM      6  C   UNL     1      25.162  25.245   5.468  1.00  0.00     0.009 C 
BRANCH   6   7
ATOM      7  C   UNL     1      25.259  25.110   7.005  1.00  0.00     0.032 C 
ATOM      8  C   UNL     1      24.379  23.979   7.548  1.00  0.00     0.014 C 
BRANCH   7   9
ATOM      9  C   UNL     1      24.979  26.417   7.700  1.00  0.00     0.044 C 
ATOM     10  O   UNL     1      24.095  27.190   7.248  1.00  0.00    -0.550 OA
ATOM     11  O   UNL     1      25.641  26.753   8.874  1.00  0.00    -0.550 OA
ENDBRANCH   7   9
ENDBRANCH   6   7
ENDBRANCH   5   6
ENDBRANCH   4   5
ENDBRANCH   3   4
ENDBRANCH   2   3
ENDBRANCH   1   2
BRANCH   1  12
ATOM     12  C   UNL     1      27.883  19.798   6.030  1.00  0.00     0.000 C 
BRANCH  12  13
ATOM     13  C   UNL     1      27.475  18.547   6.823  1.00  0.00    -0.000 C 
BRANCH  13  14
ATOM     14  C   UNL     1      26.239  18.783   7.708  1.00  0.00    -0.000 C 
BRANCH  14  15
ATOM     15  C   UNL     1      25.078  17.838   7.360  1.00  0.00    -0.000 C 
BRANCH  15  16
ATOM     16  C   UNL     1      23.827  18.594   6.879  1.00  0.00    -0.000 C 
BRANCH  16  17
ATOM     17  C   UNL     1      24.090  19.448   5.625  1.00  0.00    -0.000 C 
BRANCH  17  18
ATOM     18  C   UNL     1      23.473  20.857   5.668  1.00  0.00    -0.003 C 
ATOM     19  C   UNL     1      22.896  21.298   4.323  1.00  0.00     0.004 C 
ENDBRANCH  17  18
ENDBRANCH  16  17
ENDBRANCH  15  16
ENDBRANCH  14  15
ENDBRANCH  13  14
ENDBRANCH  12  13
ENDBRANCH   1  12
TORSDOF 14
ENDMDL
MODEL 9
REMARK VINA RESULT:    -4.941      9.877     13.271
REMARK INTER + INTRA:         -10.302
REMARK INTER:                  -8.326
REMARK INTRA:                  -1.977
REMARK UNBOUND:                -1.318
REMARK SMILES CCCCCCCCCCCCCC[C@H](C)C(=O)[O-]
REMARK SMILES IDX 9 1 10 2 11 3 12 4 13 5 14 6 15 7 16 8 17 9 18 10 19 11 8 12
REMARK SMILES IDX 7 13 6 14 5 15 4 16 3 17 2 18 1 19
REMARK H PARENT
REMARK Flexibility Score: inf
ROOT
ATOM      1  C   UNL     1      27.703  20.615   4.613  1.00  0.00     0.000 C 
ENDROOT
BRANCH   1   2
ATOM      2  C   UNL     1      27.755  21.242   6.013  1.00  0.00     0.000 C 
BRANCH   2   3
ATOM      3  C   UNL     1      26.714  20.651   6.981  1.00  0.00     0.000 C 
BRANCH   3   4
ATOM      4  C   UNL     1      26.192  19.251   6.606  1.00  0.00     0.000 C 
BRANCH   4   5
ATOM      5  C   UNL     1      24.664  19.195   6.472  1.00  0.00     0.001 C 
BRANCH   5   6
ATOM      6  C   UNL     1      24.208  19.834   5.148  1.00  0.00     0.009 C 
BRANCH   6   7
ATOM      7  C   UNL     1      23.000  20.788   5.286  1.00  0.00     0.032 C 
ATOM      8  C   UNL     1      23.357  22.079   6.030  1.00  0.00     0.014 C 
BRANCH   7   9
ATOM      9  C   UNL     1      21.812  20.098   5.905  1.00  0.00     0.044 C 
ATOM     10  O   UNL     1      21.463  20.384   7.080  1.00  0.00    -0.550 OA
ATOM     11  O   UNL     1      21.053  19.194   5.172  1.00  0.00    -0.550 OA
ENDBRANCH   7   9
ENDBRANCH   6   7
ENDBRANCH   5   6
ENDBRANCH   4   5
ENDBRANCH   3   4
ENDBRANCH   2   3
ENDBRANCH   1   2
BRANCH   1  12
ATOM     12  C   UNL     1      27.444  21.682   3.538  1.00  0.00     0.000 C 
BRANCH  12  13
ATOM     13  C   UNL     1      26.350  22.680   3.950  1.00  0.00    -0.000 C 
BRANCH  13  14
ATOM     14  C   UNL     1      26.835  24.139   3.915  1.00  0.00    -0.000 C 
BRANCH  14  15
ATOM     15  C   UNL     1      26.661  24.849   5.267  1.00  0.00    -0.000 C 
BRANCH  15  16
ATOM     16  C   UNL     1      25.209  25.293   5.516  1.00  0.00    -0.000 C 
BRANCH  16  17
ATOM     17  C   UNL     1      24.830  25.289   7.008  1.00  0.00    -0.000 C 
BRANCH  17  18
ATOM     18  C   UNL     1      24.856  26.673   7.681  1.00  0.00    -0.003 C 
ATOM     19  C   UNL     1      25.650  26.687   8.987  1.00  0.00     0.004 C 
ENDBRANCH  17  18
ENDBRANCH  16  17
ENDBRANCH  15  16
ENDBRANCH  14  15
ENDBRANCH  13  14
ENDBRANCH  12  13
ENDBRANCH   1  12
TORSDOF 14
ENDMDL
