MODEL 1
REMARK VINA RESULT:    -5.880      0.000      0.000
REMARK INTER + INTRA:          -7.397
REMARK INTER:                  -7.083
REMARK INTRA:                  -0.314
REMARK UNBOUND:                -0.314
REMARK SMILES O=c1c(O)c(-c2ccc(O)c(O)c2)oc2cc(O)cc(O)c12
REMARK SMILES IDX 5 1 3 2 2 3 1 4 22 5 20 6 19 7 17 8 16 9 15 10 14 11 6 12
REMARK SMILES IDX 7 13 8 14 9 15 13 16 11 17 10 18 12 20 4 22 21 24 18 26
REMARK H PARENT 10 19 12 21 4 23 21 25 18 27
REMARK Flexibility Score: inf
ROOT
ATOM      1  C   UNL     1      12.713 -36.407 -19.132  1.00  0.00     0.180 A 
ATOM      2  C   UNL     1      14.050 -36.355 -18.705  1.00  0.00     0.208 A 
ATOM      3  C   UNL     1      15.045 -35.982 -19.624  1.00  0.00     0.238 A 
ATOM      4  O   UNL     1      16.229 -35.865 -19.216  1.00  0.00    -0.285 OA
ATOM      5  C   UNL     1      14.698 -35.722 -20.972  1.00  0.00     0.111 A 
ATOM      6  C   UNL     1      15.629 -35.380 -21.999  1.00  0.00     0.134 A 
ATOM      7  C   UNL     1      15.158 -35.040 -23.273  1.00  0.00     0.093 A 
ATOM      8  C   UNL     1      13.798 -35.090 -23.576  1.00  0.00     0.123 A 
ATOM      9  C   UNL     1      12.884 -35.477 -22.595  1.00  0.00     0.094 A 
ATOM     10  C   UNL     1      13.319 -35.784 -21.304  1.00  0.00     0.146 A 
ATOM     11  O   UNL     1      12.414 -36.125 -20.394  1.00  0.00    -0.452 OA
ENDROOT
BRANCH   1  12
ATOM     12  C   UNL     1      11.608 -36.777 -18.219  1.00  0.00     0.025 A 
ATOM     13  C   UNL     1      11.286 -38.122 -17.966  1.00  0.00     0.016 A 
ATOM     14  C   UNL     1      10.255 -38.448 -17.081  1.00  0.00     0.051 A 
ATOM     15  C   UNL     1       9.540 -37.436 -16.426  1.00  0.00     0.157 A 
ATOM     16  C   UNL     1      10.901 -35.768 -17.544  1.00  0.00     0.062 A 
ATOM     17  C   UNL     1       9.868 -36.091 -16.658  1.00  0.00     0.158 A 
BRANCH  15  18
ATOM     18  O   UNL     1       8.510 -37.764 -15.546  1.00  0.00    -0.504 OA
ATOM     19  H   UNL     1       8.326 -38.724 -15.279  1.00  0.00     0.293 HD
ENDBRANCH  15  18
BRANCH  17  20
ATOM     20  O   UNL     1       9.180 -35.060 -16.016  1.00  0.00    -0.504 OA
ATOM     21  H   UNL     1       8.775 -35.176 -15.094  1.00  0.00     0.293 HD
ENDBRANCH  17  20
ENDBRANCH   1  12
BRANCH   2  22
ATOM     22  O   UNL     1      14.383 -36.690 -17.389  1.00  0.00    -0.502 OA
ATOM     23  H   UNL     1      13.981 -36.216 -16.589  1.00  0.00     0.293 HD
ENDBRANCH   2  22
BRANCH   6  24
ATOM     24  O   UNL     1      17.017 -35.383 -21.831  1.00  0.00    -0.507 OA
ATOM     25  H   UNL     1      17.606 -34.564 -21.867  1.00  0.00     0.293 HD
ENDBRANCH   6  24
BRANCH   8  26
ATOM     26  O   UNL     1      13.366 -34.761 -24.859  1.00  0.00    -0.508 OA
ATOM     27  H   UNL     1      12.381 -34.730 -25.095  1.00  0.00     0.293 HD
ENDBRANCH   8  26
TORSDOF 6
ENDMDL
MODEL 2
REMARK VINA RESULT:    -5.831      3.791      9.177
REMARK INTER + INTRA:          -7.338
REMARK INTER:                  -7.024
REMARK INTRA:                  -0.314
REMARK UNBOUND:                -0.314
REMARK SMILES O=c1c(O)c(-c2ccc(O)c(O)c2)oc2cc(O)cc(O)c12
REMARK SMILES IDX 5 1 3 2 2 3 1 4 22 5 20 6 19 7 17 8 16 9 15 10 14 11 6 12
REMARK SMILES IDX 7 13 8 14 9 15 13 16 11 17 10 18 12 20 4 22 21 24 18 26
REMARK H PARENT 10 19 12 21 4 23 21 25 18 27
REMARK Flexibility Score: inf
ROOT
ATOM      1  C   UNL     1       8.184 -35.894 -15.883  1.00  0.00     0.180 A 
ATOM      2  C   UNL     1       6.873 -36.245 -16.246  1.00  0.00     0.208 A 
ATOM      3  C   UNL     1       5.795 -35.592 -15.624  1.00  0.00     0.238 A 
ATOM      4  O   UNL     1       4.627 -35.858 -16.008  1.00  0.00    -0.285 OA
ATOM      5  C   UNL     1       6.041 -34.639 -14.605  1.00  0.00     0.111 A 
ATOM      6  C   UNL     1       5.025 -33.950 -13.876  1.00  0.00     0.134 A 
ATOM      7  C   UNL     1       5.388 -32.950 -12.965  1.00  0.00     0.093 A 
ATOM      8  C   UNL     1       6.727 -32.658 -12.710  1.00  0.00     0.123 A 
ATOM      9  C   UNL     1       7.729 -33.364 -13.377  1.00  0.00     0.094 A 
ATOM     10  C   UNL     1       7.399 -34.340 -14.320  1.00  0.00     0.146 A 
ATOM     11  O   UNL     1       8.383 -34.973 -14.948  1.00  0.00    -0.452 OA
ENDROOT
BRANCH   1  12
ATOM     12  C   UNL     1       9.370 -36.526 -16.503  1.00  0.00     0.025 A 
ATOM     13  C   UNL     1       9.870 -37.756 -16.042  1.00  0.00     0.016 A 
ATOM     14  C   UNL     1      10.976 -38.346 -16.660  1.00  0.00     0.051 A 
ATOM     15  C   UNL     1      11.589 -37.723 -17.755  1.00  0.00     0.157 A 
ATOM     16  C   UNL     1       9.975 -35.917 -17.615  1.00  0.00     0.062 A 
ATOM     17  C   UNL     1      11.083 -36.504 -18.236  1.00  0.00     0.158 A 
BRANCH  15  18
ATOM     18  O   UNL     1      12.694 -38.313 -18.368  1.00  0.00    -0.504 OA
ATOM     19  H   UNL     1      12.635 -38.707 -19.299  1.00  0.00     0.293 HD
ENDBRANCH  15  18
BRANCH  17  20
ATOM     20  O   UNL     1      11.666 -35.863 -19.329  1.00  0.00    -0.504 OA
ATOM     21  H   UNL     1      11.942 -34.888 -19.296  1.00  0.00     0.293 HD
ENDBRANCH  17  20
ENDBRANCH   1  12
BRANCH   2  22
ATOM     22  O   UNL     1       6.650 -37.243 -17.199  1.00  0.00    -0.502 OA
ATOM     23  H   UNL     1       5.729 -37.624 -17.382  1.00  0.00     0.293 HD
ENDBRANCH   2  22
BRANCH   6  24
ATOM     24  O   UNL     1       3.658 -34.223 -13.987  1.00  0.00    -0.507 OA
ATOM     25  H   UNL     1       3.014 -33.718 -14.577  1.00  0.00     0.293 HD
ENDBRANCH   6  24
BRANCH   8  26
ATOM     26  O   UNL     1       7.050 -31.669 -11.784  1.00  0.00    -0.508 OA
ATOM     27  H   UNL     1       7.619 -31.871 -10.970  1.00  0.00     0.293 HD
ENDBRANCH   8  26
TORSDOF 6
ENDMDL
MODEL 3
REMARK VINA RESULT:    -5.786      1.755      6.653
REMARK INTER + INTRA:          -7.284
REMARK INTER:                  -7.251
REMARK INTRA:                  -0.033
REMARK UNBOUND:                -0.314
REMARK SMILES O=c1c(O)c(-c2ccc(O)c(O)c2)oc2cc(O)cc(O)c12
REMARK SMILES IDX 5 1 3 2 2 3 1 4 22 5 20 6 19 7 17 8 16 9 15 10 14 11 6 12
REMARK SMILES IDX 7 13 8 14 9 15 13 16 11 17 10 18 12 20 4 22 21 24 18 26
REMARK H PARENT 10 19 12 21 4 23 21 25 18 27
REMARK Flexibility Score: inf
ROOT
ATOM      1  C   UNL     1      12.381 -36.549 -19.107  1.00  0.00     0.180 A 
ATOM      2  C   UNL     1      12.264 -37.626 -18.211  1.00  0.00     0.208 A 
ATOM      3  C   UNL     1      11.016 -37.888 -17.621  1.00  0.00     0.238 A 
ATOM      4  O   UNL     1      10.901 -38.898 -16.878  1.00  0.00    -0.285 OA
ATOM      5  C   UNL     1       9.916 -37.037 -17.889  1.00  0.00     0.111 A 
ATOM      6  C   UNL     1       8.618 -37.183 -17.311  1.00  0.00     0.134 A 
ATOM      7  C   UNL     1       7.578 -36.345 -17.733  1.00  0.00     0.093 A 
ATOM      8  C   UNL     1       7.801 -35.329 -18.661  1.00  0.00     0.123 A 
ATOM      9  C   UNL     1       9.079 -35.143 -19.190  1.00  0.00     0.094 A 
ATOM     10  C   UNL     1      10.128 -35.987 -18.819  1.00  0.00     0.146 A 
ATOM     11  O   UNL     1      11.323 -35.789 -19.364  1.00  0.00    -0.452 OA
ENDROOT
BRANCH   1  12
ATOM     12  C   UNL     1      13.657 -36.218 -19.779  1.00  0.00     0.025 A 
ATOM     13  C   UNL     1      13.737 -36.087 -21.176  1.00  0.00     0.016 A 
ATOM     14  C   UNL     1      14.948 -35.749 -21.787  1.00  0.00     0.051 A 
ATOM     15  C   UNL     1      16.092 -35.524 -21.010  1.00  0.00     0.157 A 
ATOM     16  C   UNL     1      14.802 -35.971 -19.004  1.00  0.00     0.062 A 
ATOM     17  C   UNL     1      16.017 -35.633 -19.612  1.00  0.00     0.158 A 
BRANCH  15  18
ATOM     18  O   UNL     1      17.299 -35.190 -21.622  1.00  0.00    -0.504 OA
ATOM     19  H   UNL     1      17.736 -35.801 -22.303  1.00  0.00     0.293 HD
ENDBRANCH  15  18
BRANCH  17  20
ATOM     20  O   UNL     1      17.136 -35.408 -18.810  1.00  0.00    -0.504 OA
ATOM     21  H   UNL     1      17.382 -34.483 -18.477  1.00  0.00     0.293 HD
ENDBRANCH  17  20
ENDBRANCH   1  12
BRANCH   2  22
ATOM     22  O   UNL     1      13.380 -38.407 -17.900  1.00  0.00    -0.502 OA
ATOM     23  H   UNL     1      13.323 -39.410 -17.769  1.00  0.00     0.293 HD
ENDBRANCH   2  22
BRANCH   6  24
ATOM     24  O   UNL     1       8.304 -38.107 -16.311  1.00  0.00    -0.507 OA
ATOM     25  H   UNL     1       7.745 -37.907 -15.494  1.00  0.00     0.293 HD
ENDBRANCH   6  24
BRANCH   8  26
ATOM     26  O   UNL     1       6.746 -34.504 -19.044  1.00  0.00    -0.508 OA
ATOM     27  H   UNL     1       5.905 -34.880 -19.466  1.00  0.00     0.293 HD
ENDBRANCH   8  26
TORSDOF 6
ENDMDL
MODEL 4
REMARK VINA RESULT:    -5.778      1.009      1.629
REMARK INTER + INTRA:          -7.274
REMARK INTER:                  -6.946
REMARK INTRA:                  -0.328
REMARK UNBOUND:                -0.314
REMARK SMILES O=c1c(O)c(-c2ccc(O)c(O)c2)oc2cc(O)cc(O)c12
REMARK SMILES IDX 5 1 3 2 2 3 1 4 22 5 20 6 19 7 17 8 16 9 15 10 14 11 6 12
REMARK SMILES IDX 7 13 8 14 9 15 13 16 11 17 10 18 12 20 4 22 21 24 18 26
REMARK H PARENT 10 19 12 21 4 23 21 25 18 27
REMARK Flexibility Score: inf
ROOT
ATOM      1  C   UNL     1      12.047 -35.915 -18.769  1.00  0.00     0.180 A 
ATOM      2  C   UNL     1      13.371 -36.164 -18.371  1.00  0.00     0.208 A 
ATOM      3  C   UNL     1      14.396 -36.084 -19.329  1.00  0.00     0.238 A 
ATOM      4  O   UNL     1      15.587 -36.234 -18.950  1.00  0.00    -0.285 OA
ATOM      5  C   UNL     1      14.078 -35.814 -20.682  1.00  0.00     0.111 A 
ATOM      6  C   UNL     1      15.031 -35.755 -21.744  1.00  0.00     0.134 A 
ATOM      7  C   UNL     1      14.613 -35.374 -23.025  1.00  0.00     0.093 A 
ATOM      8  C   UNL     1      13.272 -35.112 -23.298  1.00  0.00     0.123 A 
ATOM      9  C   UNL     1      12.324 -35.221 -22.280  1.00  0.00     0.094 A 
ATOM     10  C   UNL     1      12.714 -35.561 -20.983  1.00  0.00     0.146 A 
ATOM     11  O   UNL     1      11.783 -35.632 -20.039  1.00  0.00    -0.452 OA
ENDROOT
BRANCH   1  12
ATOM     12  C   UNL     1      10.915 -35.966 -17.817  1.00  0.00     0.025 A 
ATOM     13  C   UNL     1      10.565 -34.851 -17.035  1.00  0.00     0.016 A 
ATOM     14  C   UNL     1       9.477 -34.914 -16.160  1.00  0.00     0.051 A 
ATOM     15  C   UNL     1       8.715 -36.086 -16.065  1.00  0.00     0.157 A 
ATOM     16  C   UNL     1      10.134 -37.130 -17.732  1.00  0.00     0.062 A 
ATOM     17  C   UNL     1       9.044 -37.197 -16.857  1.00  0.00     0.158 A 
BRANCH  15  18
ATOM     18  O   UNL     1       7.631 -36.147 -15.190  1.00  0.00    -0.504 OA
ATOM     19  H   UNL     1       6.676 -36.154 -15.529  1.00  0.00     0.293 HD
ENDBRANCH  15  18
BRANCH  17  20
ATOM     20  O   UNL     1       8.300 -38.376 -16.791  1.00  0.00    -0.504 OA
ATOM     21  H   UNL     1       8.280 -39.043 -17.554  1.00  0.00     0.293 HD
ENDBRANCH  17  20
ENDBRANCH   1  12
BRANCH   2  22
ATOM     22  O   UNL     1      13.656 -36.504 -17.046  1.00  0.00    -0.502 OA
ATOM     23  H   UNL     1      13.554 -35.848 -16.282  1.00  0.00     0.293 HD
ENDBRANCH   2  22
BRANCH   6  24
ATOM     24  O   UNL     1      16.383 -36.082 -21.603  1.00  0.00    -0.507 OA
ATOM     25  H   UNL     1      17.012 -35.662 -20.936  1.00  0.00     0.293 HD
ENDBRANCH   6  24
BRANCH   8  26
ATOM     26  O   UNL     1      12.890 -34.753 -24.589  1.00  0.00    -0.508 OA
ATOM     27  H   UNL     1      11.921 -34.576 -24.825  1.00  0.00     0.293 HD
ENDBRANCH   8  26
TORSDOF 6
ENDMDL
MODEL 5
REMARK VINA RESULT:    -5.745      3.428      8.872
REMARK INTER + INTRA:          -7.234
REMARK INTER:                  -6.903
REMARK INTRA:                  -0.331
REMARK UNBOUND:                -0.314
REMARK SMILES O=c1c(O)c(-c2ccc(O)c(O)c2)oc2cc(O)cc(O)c12
REMARK SMILES IDX 5 1 3 2 2 3 1 4 22 5 20 6 19 7 17 8 16 9 15 10 14 11 6 12
REMARK SMILES IDX 7 13 8 14 9 15 13 16 11 17 10 18 12 20 4 22 21 24 18 26
REMARK H PARENT 10 19 12 21 4 23 21 25 18 27
REMARK Flexibility Score: inf
ROOT
ATOM      1  C   UNL     1       8.685 -35.549 -16.555  1.00  0.00     0.180 A 
ATOM      2  C   UNL     1       7.405 -36.078 -16.791  1.00  0.00     0.208 A 
ATOM      3  C   UNL     1       6.334 -35.653 -15.988  1.00  0.00     0.238 A 
ATOM      4  O   UNL     1       5.178 -36.075 -16.253  1.00  0.00    -0.285 OA
ATOM      5  C   UNL     1       6.565 -34.749 -14.923  1.00  0.00     0.111 A 
ATOM      6  C   UNL     1       5.562 -34.286 -14.018  1.00  0.00     0.134 A 
ATOM      7  C   UNL     1       5.888 -33.309 -13.069  1.00  0.00     0.093 A 
ATOM      8  C   UNL     1       7.189 -32.825 -12.949  1.00  0.00     0.123 A 
ATOM      9  C   UNL     1       8.190 -33.312 -13.792  1.00  0.00     0.094 A 
ATOM     10  C   UNL     1       7.889 -34.258 -14.774  1.00  0.00     0.146 A 
ATOM     11  O   UNL     1       8.865 -34.677 -15.570  1.00  0.00    -0.452 OA
ENDROOT
BRANCH   1  12
ATOM     12  C   UNL     1       9.860 -35.936 -17.367  1.00  0.00     0.025 A 
ATOM     13  C   UNL     1      10.175 -35.270 -18.565  1.00  0.00     0.016 A 
ATOM     14  C   UNL     1      11.304 -35.637 -19.302  1.00  0.00     0.051 A 
ATOM     15  C   UNL     1      12.142 -36.664 -18.847  1.00  0.00     0.157 A 
ATOM     16  C   UNL     1      10.715 -36.950 -16.906  1.00  0.00     0.062 A 
ATOM     17  C   UNL     1      11.847 -37.321 -17.642  1.00  0.00     0.158 A 
BRANCH  15  18
ATOM     18  O   UNL     1      13.266 -37.029 -19.586  1.00  0.00    -0.504 OA
ATOM     19  H   UNL     1      14.176 -36.619 -19.406  1.00  0.00     0.293 HD
ENDBRANCH  15  18
BRANCH  17  20
ATOM     20  O   UNL     1      12.665 -38.342 -17.158  1.00  0.00    -0.504 OA
ATOM     21  H   UNL     1      12.339 -39.015 -16.474  1.00  0.00     0.293 HD
ENDBRANCH  17  20
ENDBRANCH   1  12
BRANCH   2  22
ATOM     22  O   UNL     1       7.211 -37.028 -17.798  1.00  0.00    -0.502 OA
ATOM     23  H   UNL     1       7.296 -36.803 -18.782  1.00  0.00     0.293 HD
ENDBRANCH   2  22
BRANCH   6  24
ATOM     24  O   UNL     1       4.249 -34.766 -13.991  1.00  0.00    -0.507 OA
ATOM     25  H   UNL     1       3.855 -35.409 -14.661  1.00  0.00     0.293 HD
ENDBRANCH   6  24
BRANCH   8  26
ATOM     26  O   UNL     1       7.480 -31.866 -11.981  1.00  0.00    -0.508 OA
ATOM     27  H   UNL     1       7.959 -31.005 -12.216  1.00  0.00     0.293 HD
ENDBRANCH   8  26
TORSDOF 6
ENDMDL
MODEL 6
REMARK VINA RESULT:    -5.725      1.759      2.404
REMARK INTER + INTRA:          -7.210
REMARK INTER:                  -6.945
REMARK INTRA:                  -0.265
REMARK UNBOUND:                -0.314
REMARK SMILES O=c1c(O)c(-c2ccc(O)c(O)c2)oc2cc(O)cc(O)c12
REMARK SMILES IDX 5 1 3 2 2 3 1 4 22 5 20 6 19 7 17 8 16 9 15 10 14 11 6 12
REMARK SMILES IDX 7 13 8 14 9 15 13 16 11 17 10 18 12 20 4 22 21 24 18 26
REMARK H PARENT 10 19 12 21 4 23 21 25 18 27
REMARK Flexibility Score: inf
ROOT
ATOM      1  C   UNL     1      12.637 -35.967 -17.688  1.00  0.00     0.180 A 
ATOM      2  C   UNL     1      13.350 -35.092 -16.851  1.00  0.00     0.208 A 
ATOM      3  C   UNL     1      14.555 -34.537 -17.313  1.00  0.00     0.238 A 
ATOM      4  O   UNL     1      15.149 -33.697 -16.587  1.00  0.00    -0.285 OA
ATOM      5  C   UNL     1      15.062 -34.909 -18.582  1.00  0.00     0.111 A 
ATOM      6  C   UNL     1      16.296 -34.444 -19.131  1.00  0.00     0.134 A 
ATOM      7  C   UNL     1      16.643 -34.796 -20.441  1.00  0.00     0.093 A 
ATOM      8  C   UNL     1      15.837 -35.645 -21.198  1.00  0.00     0.123 A 
ATOM      9  C   UNL     1      14.657 -36.150 -20.650  1.00  0.00     0.094 A 
ATOM     10  C   UNL     1      14.263 -35.786 -19.361  1.00  0.00     0.146 A 
ATOM     11  O   UNL     1      13.121 -36.271 -18.886  1.00  0.00    -0.452 OA
ENDROOT
BRANCH   1  12
ATOM     12  C   UNL     1      11.354 -36.579 -17.279  1.00  0.00     0.025 A 
ATOM     13  C   UNL     1      11.284 -37.915 -16.846  1.00  0.00     0.016 A 
ATOM     14  C   UNL     1      10.065 -38.465 -16.441  1.00  0.00     0.051 A 
ATOM     15  C   UNL     1       8.902 -37.685 -16.447  1.00  0.00     0.157 A 
ATOM     16  C   UNL     1      10.188 -35.796 -17.263  1.00  0.00     0.062 A 
ATOM     17  C   UNL     1       8.965 -36.343 -16.858  1.00  0.00     0.158 A 
BRANCH  15  18
ATOM     18  O   UNL     1       7.686 -38.236 -16.044  1.00  0.00    -0.504 OA
ATOM     19  H   UNL     1       7.406 -39.167 -16.329  1.00  0.00     0.293 HD
ENDBRANCH  15  18
BRANCH  17  20
ATOM     20  O   UNL     1       7.826 -35.537 -16.868  1.00  0.00    -0.504 OA
ATOM     21  H   UNL     1       7.158 -35.540 -16.106  1.00  0.00     0.293 HD
ENDBRANCH  17  20
ENDBRANCH   1  12
BRANCH   2  22
ATOM     22  O   UNL     1      12.872 -34.797 -15.571  1.00  0.00    -0.502 OA
ATOM     23  H   UNL     1      12.027 -35.212 -15.197  1.00  0.00     0.293 HD
ENDBRANCH   2  22
BRANCH   6  24
ATOM     24  O   UNL     1      17.220 -33.663 -18.432  1.00  0.00    -0.507 OA
ATOM     25  H   UNL     1      17.586 -33.881 -17.517  1.00  0.00     0.293 HD
ENDBRANCH   6  24
BRANCH   8  26
ATOM     26  O   UNL     1      16.223 -35.988 -22.492  1.00  0.00    -0.508 OA
ATOM     27  H   UNL     1      15.541 -36.193 -23.212  1.00  0.00     0.293 HD
ENDBRANCH   8  26
TORSDOF 6
ENDMDL
MODEL 7
REMARK VINA RESULT:    -5.667      3.858      6.174
REMARK INTER + INTRA:          -7.141
REMARK INTER:                  -6.947
REMARK INTRA:                  -0.194
REMARK UNBOUND:                -0.314
REMARK SMILES O=c1c(O)c(-c2ccc(O)c(O)c2)oc2cc(O)cc(O)c12
REMARK SMILES IDX 5 1 3 2 2 3 1 4 22 5 20 6 19 7 17 8 16 9 15 10 14 11 6 12
REMARK SMILES IDX 7 13 8 14 9 15 13 16 11 17 10 18 12 20 4 22 21 24 18 26
REMARK H PARENT 10 19 12 21 4 23 21 25 18 27
REMARK Flexibility Score: inf
ROOT
ATOM      1  C   UNL     1       8.148 -35.985 -16.150  1.00  0.00     0.180 A 
ATOM      2  C   UNL     1       8.569 -37.324 -16.210  1.00  0.00     0.208 A 
ATOM      3  C   UNL     1       9.912 -37.604 -16.512  1.00  0.00     0.238 A 
ATOM      4  O   UNL     1      10.298 -38.801 -16.490  1.00  0.00    -0.285 OA
ATOM      5  C   UNL     1      10.804 -36.544 -16.806  1.00  0.00     0.111 A 
ATOM      6  C   UNL     1      12.175 -36.714 -17.168  1.00  0.00     0.134 A 
ATOM      7  C   UNL     1      12.990 -35.586 -17.333  1.00  0.00     0.093 A 
ATOM      8  C   UNL     1      12.471 -34.298 -17.211  1.00  0.00     0.123 A 
ATOM      9  C   UNL     1      11.120 -34.121 -16.912  1.00  0.00     0.094 A 
ATOM     10  C   UNL     1      10.290 -35.225 -16.704  1.00  0.00     0.146 A 
ATOM     11  O   UNL     1       9.016 -35.011 -16.398  1.00  0.00    -0.452 OA
ENDROOT
BRANCH   1  12
ATOM     12  C   UNL     1       6.754 -35.611 -15.825  1.00  0.00     0.025 A 
ATOM     13  C   UNL     1       5.691 -35.917 -16.693  1.00  0.00     0.016 A 
ATOM     14  C   UNL     1       4.380 -35.576 -16.352  1.00  0.00     0.051 A 
ATOM     15  C   UNL     1       4.109 -34.936 -15.136  1.00  0.00     0.157 A 
ATOM     16  C   UNL     1       6.474 -34.989 -14.597  1.00  0.00     0.062 A 
ATOM     17  C   UNL     1       5.162 -34.645 -14.253  1.00  0.00     0.158 A 
BRANCH  15  18
ATOM     18  O   UNL     1       2.799 -34.595 -14.800  1.00  0.00    -0.504 OA
ATOM     19  H   UNL     1       2.581 -33.716 -14.346  1.00  0.00     0.293 HD
ENDBRANCH  15  18
BRANCH  17  20
ATOM     20  O   UNL     1       4.924 -34.016 -13.030  1.00  0.00    -0.504 OA
ATOM     21  H   UNL     1       4.049 -34.124 -12.531  1.00  0.00     0.293 HD
ENDBRANCH  17  20
ENDBRANCH   1  12
BRANCH   2  22
ATOM     22  O   UNL     1       7.655 -38.359 -15.992  1.00  0.00    -0.502 OA
ATOM     23  H   UNL     1       6.662 -38.195 -15.885  1.00  0.00     0.293 HD
ENDBRANCH   2  22
BRANCH   6  24
ATOM     24  O   UNL     1      12.776 -37.954 -17.403  1.00  0.00    -0.507 OA
ATOM     25  H   UNL     1      12.292 -38.780 -17.719  1.00  0.00     0.293 HD
ENDBRANCH   6  24
BRANCH   8  26
ATOM     26  O   UNL     1      13.307 -33.200 -17.399  1.00  0.00    -0.508 OA
ATOM     27  H   UNL     1      13.029 -32.268 -17.115  1.00  0.00     0.293 HD
ENDBRANCH   8  26
TORSDOF 6
ENDMDL
MODEL 8
REMARK VINA RESULT:    -5.662      3.695      8.551
REMARK INTER + INTRA:          -7.135
REMARK INTER:                  -6.868
REMARK INTRA:                  -0.268
REMARK UNBOUND:                -0.314
REMARK SMILES O=c1c(O)c(-c2ccc(O)c(O)c2)oc2cc(O)cc(O)c12
REMARK SMILES IDX 5 1 3 2 2 3 1 4 22 5 20 6 19 7 17 8 16 9 15 10 14 11 6 12
REMARK SMILES IDX 7 13 8 14 9 15 13 16 11 17 10 18 12 20 4 22 21 24 18 26
REMARK H PARENT 10 19 12 21 4 23 21 25 18 27
REMARK Flexibility Score: inf
ROOT
ATOM      1  C   UNL     1       8.304 -36.186 -17.445  1.00  0.00     0.180 A 
ATOM      2  C   UNL     1       7.513 -35.951 -18.583  1.00  0.00     0.208 A 
ATOM      3  C   UNL     1       6.233 -35.396 -18.420  1.00  0.00     0.238 A 
ATOM      4  O   UNL     1       5.561 -35.120 -19.447  1.00  0.00    -0.285 OA
ATOM      5  C   UNL     1       5.737 -35.135 -17.119  1.00  0.00     0.111 A 
ATOM      6  C   UNL     1       4.438 -34.615 -16.834  1.00  0.00     0.134 A 
ATOM      7  C   UNL     1       4.097 -34.297 -15.514  1.00  0.00     0.093 A 
ATOM      8  C   UNL     1       4.980 -34.538 -14.462  1.00  0.00     0.123 A 
ATOM      9  C   UNL     1       6.231 -35.098 -14.724  1.00  0.00     0.094 A 
ATOM     10  C   UNL     1       6.616 -35.390 -16.034  1.00  0.00     0.146 A 
ATOM     11  O   UNL     1       7.824 -35.900 -16.240  1.00  0.00    -0.452 OA
ENDROOT
BRANCH   1  12
ATOM     12  C   UNL     1       9.667 -36.755 -17.536  1.00  0.00     0.025 A 
ATOM     13  C   UNL     1       9.917 -38.108 -17.247  1.00  0.00     0.016 A 
ATOM     14  C   UNL     1      11.208 -38.629 -17.365  1.00  0.00     0.051 A 
ATOM     15  C   UNL     1      12.265 -37.811 -17.786  1.00  0.00     0.157 A 
ATOM     16  C   UNL     1      10.726 -35.945 -17.978  1.00  0.00     0.062 A 
ATOM     17  C   UNL     1      12.020 -36.463 -18.096  1.00  0.00     0.158 A 
BRANCH  15  18
ATOM     18  O   UNL     1      13.552 -38.333 -17.900  1.00  0.00    -0.504 OA
ATOM     19  H   UNL     1      13.731 -39.327 -17.817  1.00  0.00     0.293 HD
ENDBRANCH  15  18
BRANCH  17  20
ATOM     20  O   UNL     1      13.050 -35.624 -18.526  1.00  0.00    -0.504 OA
ATOM     21  H   UNL     1      13.151 -35.350 -19.496  1.00  0.00     0.293 HD
ENDBRANCH  17  20
ENDBRANCH   1  12
BRANCH   2  22
ATOM     22  O   UNL     1       7.990 -36.287 -19.853  1.00  0.00    -0.502 OA
ATOM     23  H   UNL     1       8.790 -35.829 -20.272  1.00  0.00     0.293 HD
ENDBRANCH   2  22
BRANCH   6  24
ATOM     24  O   UNL     1       3.445 -34.417 -17.797  1.00  0.00    -0.507 OA
ATOM     25  H   UNL     1       3.201 -33.526 -18.202  1.00  0.00     0.293 HD
ENDBRANCH   6  24
BRANCH   8  26
ATOM     26  O   UNL     1       4.599 -34.225 -13.159  1.00  0.00    -0.508 OA
ATOM     27  H   UNL     1       5.263 -34.249 -12.394  1.00  0.00     0.293 HD
ENDBRANCH   8  26
TORSDOF 6
ENDMDL
MODEL 9
REMARK VINA RESULT:    -5.591      2.133      7.076
REMARK INTER + INTRA:          -7.049
REMARK INTER:                  -6.857
REMARK INTRA:                  -0.192
REMARK UNBOUND:                -0.314
REMARK SMILES O=c1c(O)c(-c2ccc(O)c(O)c2)oc2cc(O)cc(O)c12
REMARK SMILES IDX 5 1 3 2 2 3 1 4 22 5 20 6 19 7 17 8 16 9 15 10 14 11 6 12
REMARK SMILES IDX 7 13 8 14 9 15 13 16 11 17 10 18 12 20 4 22 21 24 18 26
REMARK H PARENT 10 19 12 21 4 23 21 25 18 27
REMARK Flexibility Score: inf
ROOT
ATOM      1  C   UNL     1      15.243 -35.661 -19.207  1.00  0.00     0.180 A 
ATOM      2  C   UNL     1      15.087 -34.569 -18.336  1.00  0.00     0.208 A 
ATOM      3  C   UNL     1      13.951 -34.514 -17.511  1.00  0.00     0.238 A 
ATOM      4  O   UNL     1      13.854 -33.573 -16.682  1.00  0.00    -0.285 OA
ATOM      5  C   UNL     1      12.958 -35.520 -17.608  1.00  0.00     0.111 A 
ATOM      6  C   UNL     1      11.746 -35.540 -16.853  1.00  0.00     0.134 A 
ATOM      7  C   UNL     1      10.889 -36.642 -16.955  1.00  0.00     0.093 A 
ATOM      8  C   UNL     1      11.166 -37.693 -17.828  1.00  0.00     0.123 A 
ATOM      9  C   UNL     1      12.320 -37.657 -18.612  1.00  0.00     0.094 A 
ATOM     10  C   UNL     1      13.215 -36.590 -18.505  1.00  0.00     0.146 A 
ATOM     11  O   UNL     1      14.312 -36.606 -19.252  1.00  0.00    -0.452 OA
ENDROOT
BRANCH   1  12
ATOM     12  C   UNL     1      16.419 -35.798 -20.096  1.00  0.00     0.025 A 
ATOM     13  C   UNL     1      17.713 -35.979 -19.577  1.00  0.00     0.016 A 
ATOM     14  C   UNL     1      18.804 -36.130 -20.436  1.00  0.00     0.051 A 
ATOM     15  C   UNL     1      18.618 -36.118 -21.825  1.00  0.00     0.157 A 
ATOM     16  C   UNL     1      16.235 -35.807 -21.488  1.00  0.00     0.062 A 
ATOM     17  C   UNL     1      17.326 -35.958 -22.352  1.00  0.00     0.158 A 
BRANCH  15  18
ATOM     18  O   UNL     1      19.709 -36.267 -22.680  1.00  0.00    -0.504 OA
ATOM     19  H   UNL     1      19.942 -37.164 -23.090  1.00  0.00     0.293 HD
ENDBRANCH  15  18
BRANCH  17  20
ATOM     20  O   UNL     1      17.105 -35.949 -23.730  1.00  0.00    -0.504 OA
ATOM     21  H   UNL     1      17.372 -35.163 -24.312  1.00  0.00     0.293 HD
ENDBRANCH  17  20
ENDBRANCH   1  12
BRANCH   2  22
ATOM     22  O   UNL     1      16.039 -33.547 -18.310  1.00  0.00    -0.502 OA
ATOM     23  H   UNL     1      15.889 -32.676 -17.815  1.00  0.00     0.293 HD
ENDBRANCH   2  22
BRANCH   6  24
ATOM     24  O   UNL     1      11.327 -34.502 -16.016  1.00  0.00    -0.507 OA
ATOM     25  H   UNL     1      11.526 -33.524 -16.164  1.00  0.00     0.293 HD
ENDBRANCH   6  24
BRANCH   8  26
ATOM     26  O   UNL     1      10.281 -38.765 -17.916  1.00  0.00    -0.508 OA
ATOM     27  H   UNL     1      10.275 -39.383 -18.719  1.00  0.00     0.293 HD
ENDBRANCH   8  26
TORSDOF 6
ENDMDL
