MODEL 1
REMARK VINA RESULT:    -1.037      0.000      0.000
REMARK INTER + INTRA:          -3.181
REMARK INTER:                  -1.643
REMARK INTRA:                  -1.537
REMARK UNBOUND:                -1.537
REMARK SMILES CCCCCCCCCCCC(=O)[O-]
REMARK SMILES IDX 7 1 8 2 9 3 10 4 11 5 12 6 13 7 14 8 6 9 5 10 4 11 3 12 2 13
REMARK SMILES IDX 1 14
REMARK H PARENT
REMARK Flexibility Score: inf
ROOT
ATOM      1  C   UNL     1     -15.276 -25.719  83.764  1.00  0.00     0.000 C 
ENDROOT
BRANCH   1   2
ATOM      2  C   UNL     1     -14.354 -25.245  82.627  1.00  0.00     0.000 C 
BRANCH   2   3
ATOM      3  C   UNL     1     -14.867 -24.027  81.830  1.00  0.00     0.000 C 
BRANCH   3   4
ATOM      4  C   UNL     1     -16.393 -23.818  81.864  1.00  0.00     0.006 C 
BRANCH   4   5
ATOM      5  C   UNL     1     -16.841 -22.522  82.560  1.00  0.00     0.053 C 
BRANCH   5   6
ATOM      6  C   UNL     1     -18.038 -22.740  83.433  1.00  0.00     0.041 C 
ATOM      7  O   UNL     1     -18.812 -23.709  83.218  1.00  0.00    -0.550 OA
ATOM      8  O   UNL     1     -18.278 -21.892  84.508  1.00  0.00    -0.550 OA
ENDBRANCH   5   6
ENDBRANCH   4   5
ENDBRANCH   3   4
ENDBRANCH   2   3
ENDBRANCH   1   2
BRANCH   1   9
ATOM      9  C   UNL     1     -14.515 -25.996  85.072  1.00  0.00     0.000 C 
BRANCH   9  10
ATOM     10  C   UNL     1     -13.710 -24.779  85.554  1.00  0.00    -0.000 C 
BRANCH  10  11
ATOM     11  C   UNL     1     -14.610 -23.655  86.097  1.00  0.00    -0.000 C 
BRANCH  11  12
ATOM     12  C   UNL     1     -14.473 -22.343  85.303  1.00  0.00    -0.000 C 
BRANCH  12  13
ATOM     13  C   UNL     1     -13.104 -22.130  84.632  1.00  0.00    -0.003 C 
ATOM     14  C   UNL     1     -13.165 -21.180  83.436  1.00  0.00     0.004 C 
ENDBRANCH  12  13
ENDBRANCH  11  12
ENDBRANCH  10  11
ENDBRANCH   9  10
ENDBRANCH   1   9
TORSDOF 10
ENDMDL
MODEL 2
REMARK VINA RESULT:    -1.026      2.058      3.196
REMARK INTER + INTRA:          -3.162
REMARK INTER:                  -1.651
REMARK INTRA:                  -1.512
REMARK UNBOUND:                -1.537
REMARK SMILES CCCCCCCCCCCC(=O)[O-]
REMARK SMILES IDX 7 1 8 2 9 3 10 4 11 5 12 6 13 7 14 8 6 9 5 10 4 11 3 12 2 13
REMARK SMILES IDX 1 14
REMARK H PARENT
REMARK Flexibility Score: inf
ROOT
ATOM      1  C   UNL     1     -13.708 -23.490  82.450  1.00  0.00     0.000 C 
ENDROOT
BRANCH   1   2
ATOM      2  C   UNL     1     -14.964 -24.325  82.142  1.00  0.00     0.000 C 
BRANCH   2   3
ATOM      3  C   UNL     1     -16.002 -23.636  81.233  1.00  0.00     0.000 C 
BRANCH   3   4
ATOM      4  C   UNL     1     -17.378 -23.385  81.881  1.00  0.00     0.006 C 
BRANCH   4   5
ATOM      5  C   UNL     1     -17.676 -21.908  82.185  1.00  0.00     0.053 C 
BRANCH   5   6
ATOM      6  C   UNL     1     -17.462 -21.035  80.988  1.00  0.00     0.041 C 
ATOM      7  O   UNL     1     -16.547 -20.171  80.988  1.00  0.00    -0.550 OA
ATOM      8  O   UNL     1     -18.251 -21.201  79.856  1.00  0.00    -0.550 OA
ENDBRANCH   5   6
ENDBRANCH   4   5
ENDBRANCH   3   4
ENDBRANCH   2   3
ENDBRANCH   1   2
BRANCH   1   9
ATOM      9  C   UNL     1     -14.040 -22.062  82.917  1.00  0.00     0.000 C 
BRANCH   9  10
ATOM     10  C   UNL     1     -13.485 -21.756  84.317  1.00  0.00    -0.000 C 
BRANCH  10  11
ATOM     11  C   UNL     1     -13.993 -22.744  85.381  1.00  0.00    -0.000 C 
BRANCH  11  12
ATOM     12  C   UNL     1     -15.375 -22.359  85.943  1.00  0.00    -0.000 C 
BRANCH  12  13
ATOM     13  C   UNL     1     -16.534 -23.266  85.493  1.00  0.00    -0.003 C 
ATOM     14  C   UNL     1     -16.190 -24.754  85.562  1.00  0.00     0.004 C 
ENDBRANCH  12  13
ENDBRANCH  11  12
ENDBRANCH  10  11
ENDBRANCH   9  10
ENDBRANCH   1   9
TORSDOF 10
ENDMDL
MODEL 3
REMARK VINA RESULT:    -0.987      1.664      3.374
REMARK INTER + INTRA:          -3.101
REMARK INTER:                  -1.588
REMARK INTRA:                  -1.513
REMARK UNBOUND:                -1.537
REMARK SMILES CCCCCCCCCCCC(=O)[O-]
REMARK SMILES IDX 7 1 8 2 9 3 10 4 11 5 12 6 13 7 14 8 6 9 5 10 4 11 3 12 2 13
REMARK SMILES IDX 1 14
REMARK H PARENT
REMARK Flexibility Score: inf
ROOT
ATOM      1  C   UNL     1     -14.949 -21.863  82.086  1.00  0.00     0.000 C 
ENDROOT
BRANCH   1   2
ATOM      2  C   UNL     1     -15.994 -22.942  82.421  1.00  0.00     0.000 C 
BRANCH   2   3
ATOM      3  C   UNL     1     -15.581 -24.386  82.073  1.00  0.00     0.000 C 
BRANCH   3   4
ATOM      4  C   UNL     1     -15.538 -25.362  83.265  1.00  0.00     0.006 C 
BRANCH   4   5
ATOM      5  C   UNL     1     -16.549 -26.517  83.177  1.00  0.00     0.053 C 
BRANCH   5   6
ATOM      6  C   UNL     1     -17.932 -26.028  82.878  1.00  0.00     0.041 C 
ATOM      7  O   UNL     1     -18.549 -25.318  83.714  1.00  0.00    -0.550 OA
ATOM      8  O   UNL     1     -18.528 -26.329  81.659  1.00  0.00    -0.550 OA
ENDBRANCH   5   6
ENDBRANCH   4   5
ENDBRANCH   3   4
ENDBRANCH   2   3
ENDBRANCH   1   2
BRANCH   1   9
ATOM      9  C   UNL     1     -13.571 -22.154  82.707  1.00  0.00     0.000 C 
BRANCH   9  10
ATOM     10  C   UNL     1     -13.490 -21.735  84.183  1.00  0.00    -0.000 C 
BRANCH  10  11
ATOM     11  C   UNL     1     -13.071 -22.895  85.102  1.00  0.00    -0.000 C 
BRANCH  11  12
ATOM     12  C   UNL     1     -14.223 -23.400  85.992  1.00  0.00    -0.000 C 
BRANCH  12  13
ATOM     13  C   UNL     1     -15.413 -22.432  86.122  1.00  0.00    -0.003 C 
ATOM     14  C   UNL     1     -16.768 -23.140  86.074  1.00  0.00     0.004 C 
ENDBRANCH  12  13
ENDBRANCH  11  12
ENDBRANCH  10  11
ENDBRANCH   9  10
ENDBRANCH   1   9
TORSDOF 10
ENDMDL
MODEL 4
REMARK VINA RESULT:    -0.976      1.604      2.984
REMARK INTER + INTRA:          -3.084
REMARK INTER:                  -1.518
REMARK INTRA:                  -1.566
REMARK UNBOUND:                -1.537
REMARK SMILES CCCCCCCCCCCC(=O)[O-]
REMARK SMILES IDX 7 1 8 2 9 3 10 4 11 5 12 6 13 7 14 8 6 9 5 10 4 11 3 12 2 13
REMARK SMILES IDX 1 14
REMARK H PARENT
REMARK Flexibility Score: inf
ROOT
ATOM      1  C   UNL     1     -13.832 -23.266  82.000  1.00  0.00     0.000 C 
ENDROOT
BRANCH   1   2
ATOM      2  C   UNL     1     -14.736 -24.498  82.181  1.00  0.00     0.000 C 
BRANCH   2   3
ATOM      3  C   UNL     1     -16.200 -24.188  82.553  1.00  0.00     0.000 C 
BRANCH   3   4
ATOM      4  C   UNL     1     -16.757 -24.990  83.746  1.00  0.00     0.006 C 
BRANCH   4   5
ATOM      5  C   UNL     1     -17.332 -24.124  84.879  1.00  0.00     0.053 C 
BRANCH   5   6
ATOM      6  C   UNL     1     -18.769 -24.445  85.155  1.00  0.00     0.041 C 
ATOM      7  O   UNL     1     -19.124 -25.634  85.362  1.00  0.00    -0.550 OA
ATOM      8  O   UNL     1     -19.710 -23.425  85.219  1.00  0.00    -0.550 OA
ENDBRANCH   5   6
ENDBRANCH   4   5
ENDBRANCH   3   4
ENDBRANCH   2   3
ENDBRANCH   1   2
BRANCH   1   9
ATOM      9  C   UNL     1     -14.326 -22.042  82.791  1.00  0.00     0.000 C 
BRANCH   9  10
ATOM     10  C   UNL     1     -13.489 -21.780  84.053  1.00  0.00    -0.000 C 
BRANCH  10  11
ATOM     11  C   UNL     1     -14.039 -22.516  85.287  1.00  0.00    -0.000 C 
BRANCH  11  12
ATOM     12  C   UNL     1     -13.134 -23.675  85.746  1.00  0.00    -0.000 C 
BRANCH  12  13
ATOM     13  C   UNL     1     -13.878 -24.968  86.125  1.00  0.00    -0.003 C 
ATOM     14  C   UNL     1     -13.494 -26.159  85.246  1.00  0.00     0.004 C 
ENDBRANCH  12  13
ENDBRANCH  11  12
ENDBRANCH  10  11
ENDBRANCH   9  10
ENDBRANCH   1   9
TORSDOF 10
ENDMDL
MODEL 5
REMARK VINA RESULT:    -0.956      1.863      4.642
REMARK INTER + INTRA:          -3.052
REMARK INTER:                  -1.573
REMARK INTRA:                  -1.479
REMARK UNBOUND:                -1.537
REMARK SMILES CCCCCCCCCCCC(=O)[O-]
REMARK SMILES IDX 7 1 8 2 9 3 10 4 11 5 12 6 13 7 14 8 6 9 5 10 4 11 3 12 2 13
REMARK SMILES IDX 1 14
REMARK H PARENT
REMARK Flexibility Score: inf
ROOT
ATOM      1  C   UNL     1     -13.623 -20.490  81.748  1.00  0.00     0.000 C 
ENDROOT
BRANCH   1   2
ATOM      2  C   UNL     1     -13.438 -21.742  82.623  1.00  0.00     0.000 C 
BRANCH   2   3
ATOM      3  C   UNL     1     -13.251 -21.468  84.129  1.00  0.00     0.000 C 
BRANCH   3   4
ATOM      4  C   UNL     1     -14.036 -22.404  85.069  1.00  0.00     0.006 C 
BRANCH   4   5
ATOM      5  C   UNL     1     -14.641 -23.636  84.377  1.00  0.00     0.053 C 
BRANCH   5   6
ATOM      6  C   UNL     1     -16.122 -23.723  84.581  1.00  0.00     0.041 C 
ATOM      7  O   UNL     1     -16.813 -22.675  84.665  1.00  0.00    -0.550 OA
ATOM      8  O   UNL     1     -16.744 -24.964  84.645  1.00  0.00    -0.550 OA
ENDBRANCH   5   6
ENDBRANCH   4   5
ENDBRANCH   3   4
ENDBRANCH   2   3
ENDBRANCH   1   2
BRANCH   1   9
ATOM      9  C   UNL     1     -14.918 -20.529  80.916  1.00  0.00     0.000 C 
BRANCH   9  10
ATOM     10  C   UNL     1     -15.919 -21.573  81.436  1.00  0.00    -0.000 C 
BRANCH  10  11
ATOM     11  C   UNL     1     -16.249 -22.647  80.385  1.00  0.00    -0.000 C 
BRANCH  11  12
ATOM     12  C   UNL     1     -16.046 -24.080  80.912  1.00  0.00    -0.000 C 
BRANCH  12  13
ATOM     13  C   UNL     1     -14.632 -24.653  80.706  1.00  0.00    -0.003 C 
ATOM     14  C   UNL     1     -13.870 -23.970  79.570  1.00  0.00     0.004 C 
ENDBRANCH  12  13
ENDBRANCH  11  12
ENDBRANCH  10  11
ENDBRANCH   9  10
ENDBRANCH   1   9
TORSDOF 10
ENDMDL
MODEL 6
REMARK VINA RESULT:    -0.955      8.532     10.407
REMARK INTER + INTRA:          -3.050
REMARK INTER:                  -1.307
REMARK INTRA:                  -1.743
REMARK UNBOUND:                -1.537
REMARK SMILES CCCCCCCCCCCC(=O)[O-]
REMARK SMILES IDX 7 1 8 2 9 3 10 4 11 5 12 6 13 7 14 8 6 9 5 10 4 11 3 12 2 13
REMARK SMILES IDX 1 14
REMARK H PARENT
REMARK Flexibility Score: inf
ROOT
ATOM      1  C   UNL     1     -18.572 -15.307  85.457  1.00  0.00     0.000 C 
ENDROOT
BRANCH   1   2
ATOM      2  C   UNL     1     -17.144 -14.738  85.374  1.00  0.00     0.000 C 
BRANCH   2   3
ATOM      3  C   UNL     1     -17.054 -13.250  84.980  1.00  0.00     0.000 C 
BRANCH   3   4
ATOM      4  C   UNL     1     -16.143 -12.945  83.774  1.00  0.00     0.006 C 
BRANCH   4   5
ATOM      5  C   UNL     1     -15.540 -14.190  83.104  1.00  0.00     0.053 C 
BRANCH   5   6
ATOM      6  C   UNL     1     -14.061 -14.280  83.317  1.00  0.00     0.041 C 
ATOM      7  O   UNL     1     -13.266 -13.960  82.395  1.00  0.00    -0.550 OA
ATOM      8  O   UNL     1     -13.559 -14.686  84.548  1.00  0.00    -0.550 OA
ENDBRANCH   5   6
ENDBRANCH   4   5
ENDBRANCH   3   4
ENDBRANCH   2   3
ENDBRANCH   1   2
BRANCH   1   9
ATOM      9  C   UNL     1     -18.739 -16.617  84.667  1.00  0.00     0.000 C 
BRANCH   9  10
ATOM     10  C   UNL     1     -18.533 -16.424  83.156  1.00  0.00    -0.000 C 
BRANCH  10  11
ATOM     11  C   UNL     1     -19.588 -15.494  82.533  1.00  0.00    -0.000 C 
BRANCH  11  12
ATOM     12  C   UNL     1     -18.970 -14.393  81.651  1.00  0.00    -0.000 C 
BRANCH  12  13
ATOM     13  C   UNL     1     -19.402 -12.959  82.007  1.00  0.00    -0.003 C 
ATOM     14  C   UNL     1     -20.323 -12.896  83.226  1.00  0.00     0.004 C 
ENDBRANCH  12  13
ENDBRANCH  11  12
ENDBRANCH  10  11
ENDBRANCH   9  10
ENDBRANCH   1   9
TORSDOF 10
ENDMDL
MODEL 7
REMARK VINA RESULT:    -0.952      1.940      2.569
REMARK INTER + INTRA:          -3.046
REMARK INTER:                  -1.798
REMARK INTRA:                  -1.248
REMARK UNBOUND:                -1.537
REMARK SMILES CCCCCCCCCCCC(=O)[O-]
REMARK SMILES IDX 7 1 8 2 9 3 10 4 11 5 12 6 13 7 14 8 6 9 5 10 4 11 3 12 2 13
REMARK SMILES IDX 1 14
REMARK H PARENT
REMARK Flexibility Score: inf
ROOT
ATOM      1  C   UNL     1     -16.557 -22.971  85.230  1.00  0.00     0.000 C 
ENDROOT
BRANCH   1   2
ATOM      2  C   UNL     1     -16.421 -23.542  83.807  1.00  0.00     0.000 C 
BRANCH   2   3
ATOM      3  C   UNL     1     -16.653 -22.529  82.668  1.00  0.00     0.000 C 
BRANCH   3   4
ATOM      4  C   UNL     1     -18.004 -22.661  81.938  1.00  0.00     0.006 C 
BRANCH   4   5
ATOM      5  C   UNL     1     -19.226 -22.284  82.791  1.00  0.00     0.053 C 
BRANCH   5   6
ATOM      6  C   UNL     1     -19.246 -20.824  83.126  1.00  0.00     0.041 C 
ATOM      7  O   UNL     1     -19.038 -19.965  82.229  1.00  0.00    -0.550 OA
ATOM      8  O   UNL     1     -19.529 -20.411  84.422  1.00  0.00    -0.550 OA
ENDBRANCH   5   6
ENDBRANCH   4   5
ENDBRANCH   3   4
ENDBRANCH   2   3
ENDBRANCH   1   2
BRANCH   1   9
ATOM      9  C   UNL     1     -15.221 -22.463  85.799  1.00  0.00     0.000 C 
BRANCH   9  10
ATOM     10  C   UNL     1     -14.065 -23.446  85.554  1.00  0.00    -0.000 C 
BRANCH  10  11
ATOM     11  C   UNL     1     -12.875 -22.788  84.835  1.00  0.00    -0.000 C 
BRANCH  11  12
ATOM     12  C   UNL     1     -13.209 -21.390  84.282  1.00  0.00    -0.000 C 
BRANCH  12  13
ATOM     13  C   UNL     1     -13.226 -21.287  82.746  1.00  0.00    -0.003 C 
ATOM     14  C   UNL     1     -12.944 -22.621  82.054  1.00  0.00     0.004 C 
ENDBRANCH  12  13
ENDBRANCH  11  12
ENDBRANCH  10  11
ENDBRANCH   9  10
ENDBRANCH   1   9
TORSDOF 10
ENDMDL
MODEL 8
REMARK VINA RESULT:    -0.928      8.313      9.758
REMARK INTER + INTRA:          -3.008
REMARK INTER:                  -1.357
REMARK INTRA:                  -1.652
REMARK UNBOUND:                -1.537
REMARK SMILES CCCCCCCCCCCC(=O)[O-]
REMARK SMILES IDX 7 1 8 2 9 3 10 4 11 5 12 6 13 7 14 8 6 9 5 10 4 11 3 12 2 13
REMARK SMILES IDX 1 14
REMARK H PARENT
REMARK Flexibility Score: inf
ROOT
ATOM      1  C   UNL     1     -19.506 -16.060  81.968  1.00  0.00     0.000 C 
ENDROOT
BRANCH   1   2
ATOM      2  C   UNL     1     -18.648 -14.787  81.859  1.00  0.00     0.000 C 
BRANCH   2   3
ATOM      3  C   UNL     1     -17.153 -14.973  82.190  1.00  0.00     0.000 C 
BRANCH   3   4
ATOM      4  C   UNL     1     -16.524 -13.848  83.036  1.00  0.00     0.006 C 
BRANCH   4   5
ATOM      5  C   UNL     1     -15.772 -14.338  84.284  1.00  0.00     0.053 C 
BRANCH   5   6
ATOM      6  C   UNL     1     -14.288 -14.345  84.077  1.00  0.00     0.041 C 
ATOM      7  O   UNL     1     -13.511 -14.429  85.063  1.00  0.00    -0.550 OA
ATOM      8  O   UNL     1     -13.765 -14.292  82.790  1.00  0.00    -0.550 OA
ENDBRANCH   5   6
ENDBRANCH   4   5
ENDBRANCH   3   4
ENDBRANCH   2   3
ENDBRANCH   1   2
BRANCH   1   9
ATOM      9  C   UNL     1     -18.917 -17.094  82.944  1.00  0.00     0.000 C 
BRANCH   9  10
ATOM     10  C   UNL     1     -19.601 -17.060  84.320  1.00  0.00    -0.000 C 
BRANCH  10  11
ATOM     11  C   UNL     1     -18.619 -16.731  85.458  1.00  0.00    -0.000 C 
BRANCH  11  12
ATOM     12  C   UNL     1     -18.810 -15.310  86.021  1.00  0.00    -0.000 C 
BRANCH  12  13
ATOM     13  C   UNL     1     -19.977 -14.519  85.403  1.00  0.00    -0.003 C 
ATOM     14  C   UNL     1     -19.600 -13.083  85.039  1.00  0.00     0.004 C 
ENDBRANCH  12  13
ENDBRANCH  11  12
ENDBRANCH  10  11
ENDBRANCH   9  10
ENDBRANCH   1   9
TORSDOF 10
ENDMDL
