MODEL 1
REMARK VINA RESULT:     2.026      0.000      0.000
REMARK INTER + INTRA:           3.860
REMARK INTER:                   5.107
REMARK INTRA:                  -1.247
REMARK UNBOUND:                -1.247
REMARK SMILES CCCCCCCCCCCCCCCCCCCCCCCCCCCC(=O)[O-]
REMARK SMILES IDX 15 1 16 2 17 3 18 4 19 5 20 6 21 7 22 8 23 9 24 10 25 11
REMARK SMILES IDX 26 12 27 13 28 14 29 15 30 16 14 17 13 18 12 19 11 20 10 21
REMARK SMILES IDX 9 22 8 23 7 24 6 25 5 26 4 27 3 28 2 29 1 30
REMARK H PARENT
REMARK Flexibility Score: inf
ROOT
ATOM      1  C   UNL     1       1.456   3.376  -2.507  1.00  0.00     0.000 C 
ENDROOT
BRANCH   1   2
ATOM      2  C   UNL     1       1.617   4.891  -2.729  1.00  0.00     0.000 C 
BRANCH   2   3
ATOM      3  C   UNL     1       0.301   5.662  -2.967  1.00  0.00     0.000 C 
BRANCH   3   4
ATOM      4  C   UNL     1      -0.009   6.762  -1.931  1.00  0.00     0.000 C 
BRANCH   4   5
ATOM      5  C   UNL     1      -0.899   7.912  -2.443  1.00  0.00     0.000 C 
BRANCH   5   6
ATOM      6  C   UNL     1      -0.335   8.683  -3.651  1.00  0.00     0.000 C 
BRANCH   6   7
ATOM      7  C   UNL     1      -1.278   9.786  -4.154  1.00  0.00     0.000 C 
BRANCH   7   8
ATOM      8  C   UNL     1      -1.211   9.902  -5.683  1.00  0.00     0.000 C 
BRANCH   8   9
ATOM      9  C   UNL     1       0.224  10.104  -6.205  1.00  0.00     0.000 C 
BRANCH   9  10
ATOM     10  C   UNL     1       0.421   9.807  -7.707  1.00  0.00     0.000 C 
BRANCH  10  11
ATOM     11  C   UNL     1      -0.687   8.962  -8.359  1.00  0.00     0.000 C 
BRANCH  11  12
ATOM     12  C   UNL     1      -0.255   8.336  -9.697  1.00  0.00     0.006 C 
BRANCH  12  13
ATOM     13  C   UNL     1      -0.090   6.812  -9.600  1.00  0.00     0.053 C 
BRANCH  13  14
ATOM     14  C   UNL     1       1.039   6.427  -8.692  1.00  0.00     0.041 C 
ATOM     15  O   UNL     1       2.228   6.694  -9.008  1.00  0.00    -0.550 OA
ATOM     16  O   UNL     1       0.774   5.785  -7.488  1.00  0.00    -0.550 OA
ENDBRANCH  13  14
ENDBRANCH  12  13
ENDBRANCH  11  12
ENDBRANCH  10  11
ENDBRANCH   9  10
ENDBRANCH   8   9
ENDBRANCH   7   8
ENDBRANCH   6   7
ENDBRANCH   5   6
ENDBRANCH   4   5
ENDBRANCH   3   4
ENDBRANCH   2   3
ENDBRANCH   1   2
BRANCH   1  17
ATOM     17  C   UNL     1       2.442   2.819  -1.467  1.00  0.00     0.000 C 
BRANCH  17  18
ATOM     18  C   UNL     1       2.215   1.328  -1.168  1.00  0.00     0.000 C 
BRANCH  18  19
ATOM     19  C   UNL     1       3.121   0.803  -0.040  1.00  0.00     0.000 C 
BRANCH  19  20
ATOM     20  C   UNL     1       2.535   1.051   1.362  1.00  0.00     0.000 C 
BRANCH  20  21
ATOM     21  C   UNL     1       2.324  -0.212   2.225  1.00  0.00     0.000 C 
BRANCH  21  22
ATOM     22  C   UNL     1       1.408  -1.281   1.603  1.00  0.00    -0.000 C 
BRANCH  22  23
ATOM     23  C   UNL     1       0.761  -2.195   2.655  1.00  0.00    -0.000 C 
BRANCH  23  24
ATOM     24  C   UNL     1      -0.642  -1.695   3.029  1.00  0.00    -0.000 C 
BRANCH  24  25
ATOM     25  C   UNL     1      -0.615  -0.409   3.873  1.00  0.00    -0.000 C 
BRANCH  25  26
ATOM     26  C   UNL     1      -1.979  -0.052   4.502  1.00  0.00    -0.000 C 
BRANCH  26  27
ATOM     27  C   UNL     1      -1.950  -0.140   6.038  1.00  0.00    -0.000 C 
BRANCH  27  28
ATOM     28  C   UNL     1      -1.027  -1.270   6.544  1.00  0.00    -0.000 C 
BRANCH  28  29
ATOM     29  C   UNL     1      -1.598  -2.041   7.746  1.00  0.00    -0.003 C 
ATOM     30  C   UNL     1      -0.679  -2.012   8.965  1.00  0.00     0.004 C 
ENDBRANCH  28  29
ENDBRANCH  27  28
ENDBRANCH  26  27
ENDBRANCH  25  26
ENDBRANCH  24  25
ENDBRANCH  23  24
ENDBRANCH  22  23
ENDBRANCH  21  22
ENDBRANCH  20  21
ENDBRANCH  19  20
ENDBRANCH  18  19
ENDBRANCH  17  18
ENDBRANCH   1  17
TORSDOF 26
ENDMDL
MODEL 2
REMARK VINA RESULT:     2.405      5.081     14.010
REMARK INTER + INTRA:           4.814
REMARK INTER:                   6.575
REMARK INTRA:                  -1.761
REMARK UNBOUND:                -1.247
REMARK SMILES CCCCCCCCCCCCCCCCCCCCCCCCCCCC(=O)[O-]
REMARK SMILES IDX 15 1 16 2 17 3 18 4 19 5 20 6 21 7 22 8 23 9 24 10 25 11
REMARK SMILES IDX 26 12 27 13 28 14 29 15 30 16 14 17 13 18 12 19 11 20 10 21
REMARK SMILES IDX 9 22 8 23 7 24 6 25 5 26 4 27 3 28 2 29 1 30
REMARK H PARENT
REMARK Flexibility Score: inf
ROOT
ATOM      1  C   UNL     1       2.231   3.682  -2.050  1.00  0.00     0.000 C 
ENDROOT
BRANCH   1   2
ATOM      2  C   UNL     1       2.961   2.359  -2.342  1.00  0.00     0.000 C 
BRANCH   2   3
ATOM      3  C   UNL     1       2.854   1.293  -1.230  1.00  0.00     0.000 C 
BRANCH   3   4
ATOM      4  C   UNL     1       2.569   1.846   0.180  1.00  0.00     0.000 C 
BRANCH   4   5
ATOM      5  C   UNL     1       3.523   1.348   1.284  1.00  0.00     0.000 C 
BRANCH   5   6
ATOM      6  C   UNL     1       2.913   0.323   2.259  1.00  0.00     0.000 C 
BRANCH   6   7
ATOM      7  C   UNL     1       1.659  -0.365   1.700  1.00  0.00     0.000 C 
BRANCH   7   8
ATOM      8  C   UNL     1       1.134  -1.419   2.686  1.00  0.00     0.000 C 
BRANCH   8   9
ATOM      9  C   UNL     1      -0.352  -1.757   2.464  1.00  0.00     0.000 C 
BRANCH   9  10
ATOM     10  C   UNL     1      -1.209  -1.806   3.746  1.00  0.00     0.000 C 
BRANCH  10  11
ATOM     11  C   UNL     1      -1.280  -0.487   4.538  1.00  0.00     0.000 C 
BRANCH  11  12
ATOM     12  C   UNL     1      -1.695  -0.691   6.006  1.00  0.00     0.006 C 
BRANCH  12  13
ATOM     13  C   UNL     1      -0.751  -1.646   6.751  1.00  0.00     0.053 C 
BRANCH  13  14
ATOM     14  C   UNL     1      -1.252  -1.972   8.125  1.00  0.00     0.041 C 
ATOM     15  O   UNL     1      -2.349  -2.572   8.277  1.00  0.00    -0.550 OA
ATOM     16  O   UNL     1      -0.497  -1.626   9.240  1.00  0.00    -0.550 OA
ENDBRANCH  13  14
ENDBRANCH  12  13
ENDBRANCH  11  12
ENDBRANCH  10  11
ENDBRANCH   9  10
ENDBRANCH   8   9
ENDBRANCH   7   8
ENDBRANCH   6   7
ENDBRANCH   5   6
ENDBRANCH   4   5
ENDBRANCH   3   4
ENDBRANCH   2   3
ENDBRANCH   1   2
BRANCH   1  17
ATOM     17  C   UNL     1       1.883   4.464  -3.329  1.00  0.00     0.000 C 
BRANCH  17  18
ATOM     18  C   UNL     1       0.760   5.492  -3.113  1.00  0.00     0.000 C 
BRANCH  18  19
ATOM     19  C   UNL     1      -0.501   5.177  -3.937  1.00  0.00     0.000 C 
BRANCH  19  20
ATOM     20  C   UNL     1      -0.185   4.822  -5.402  1.00  0.00     0.000 C 
BRANCH  20  21
ATOM     21  C   UNL     1      -0.176   6.012  -6.385  1.00  0.00     0.000 C 
BRANCH  21  22
ATOM     22  C   UNL     1       0.969   6.000  -7.415  1.00  0.00    -0.000 C 
BRANCH  22  23
ATOM     23  C   UNL     1       0.562   6.613  -8.763  1.00  0.00    -0.000 C 
BRANCH  23  24
ATOM     24  C   UNL     1       1.641   7.576  -9.277  1.00  0.00    -0.000 C 
BRANCH  24  25
ATOM     25  C   UNL     1       1.064   8.733 -10.111  1.00  0.00    -0.000 C 
BRANCH  25  26
ATOM     26  C   UNL     1      -0.448   8.959  -9.895  1.00  0.00    -0.000 C 
BRANCH  26  27
ATOM     27  C   UNL     1      -0.731   9.875  -8.691  1.00  0.00    -0.000 C 
BRANCH  27  28
ATOM     28  C   UNL     1      -1.792   9.281  -7.738  1.00  0.00    -0.000 C 
BRANCH  28  29
ATOM     29  C   UNL     1      -1.830   9.960  -6.359  1.00  0.00    -0.003 C 
ATOM     30  C   UNL     1      -0.445  10.125  -5.737  1.00  0.00     0.004 C 
ENDBRANCH  28  29
ENDBRANCH  27  28
ENDBRANCH  26  27
ENDBRANCH  25  26
ENDBRANCH  24  25
ENDBRANCH  23  24
ENDBRANCH  22  23
ENDBRANCH  21  22
ENDBRANCH  20  21
ENDBRANCH  19  20
ENDBRANCH  18  19
ENDBRANCH  17  18
ENDBRANCH   1  17
TORSDOF 26
ENDMDL
MODEL 3
REMARK VINA RESULT:     2.655      1.129      2.408
REMARK INTER + INTRA:           5.444
REMARK INTER:                   7.350
REMARK INTRA:                  -1.905
REMARK UNBOUND:                -1.247
REMARK SMILES CCCCCCCCCCCCCCCCCCCCCCCCCCCC(=O)[O-]
REMARK SMILES IDX 15 1 16 2 17 3 18 4 19 5 20 6 21 7 22 8 23 9 24 10 25 11
REMARK SMILES IDX 26 12 27 13 28 14 29 15 30 16 14 17 13 18 12 19 11 20 10 21
REMARK SMILES IDX 9 22 8 23 7 24 6 25 5 26 4 27 3 28 2 29 1 30
REMARK H PARENT
REMARK Flexibility Score: inf
ROOT
ATOM      1  C   UNL     1       1.838   2.650  -2.032  1.00  0.00     0.000 C 
ENDROOT
BRANCH   1   2
ATOM      2  C   UNL     1       1.628   4.163  -1.846  1.00  0.00     0.000 C 
BRANCH   2   3
ATOM      3  C   UNL     1       1.266   4.938  -3.131  1.00  0.00     0.000 C 
BRANCH   3   4
ATOM      4  C   UNL     1      -0.022   5.782  -3.044  1.00  0.00     0.000 C 
BRANCH   4   5
ATOM      5  C   UNL     1      -0.075   6.775  -1.865  1.00  0.00     0.000 C 
BRANCH   5   6
ATOM      6  C   UNL     1      -0.742   8.127  -2.182  1.00  0.00     0.000 C 
BRANCH   6   7
ATOM      7  C   UNL     1      -0.328   8.697  -3.547  1.00  0.00     0.000 C 
BRANCH   7   8
ATOM      8  C   UNL     1      -1.378   9.691  -4.061  1.00  0.00     0.000 C 
BRANCH   8   9
ATOM      9  C   UNL     1      -1.309   9.898  -5.585  1.00  0.00     0.000 C 
BRANCH   9  10
ATOM     10  C   UNL     1       0.116  10.004  -6.167  1.00  0.00     0.000 C 
BRANCH  10  11
ATOM     11  C   UNL     1       0.268   9.525  -7.622  1.00  0.00     0.000 C 
BRANCH  11  12
ATOM     12  C   UNL     1      -0.592   8.289  -7.938  1.00  0.00     0.006 C 
BRANCH  12  13
ATOM     13  C   UNL     1      -0.040   7.484  -9.124  1.00  0.00     0.053 C 
BRANCH  13  14
ATOM     14  C   UNL     1       1.089   6.586  -8.717  1.00  0.00     0.041 C 
ATOM     15  O   UNL     1       0.908   5.691  -7.849  1.00  0.00    -0.550 OA
ATOM     16  O   UNL     1       2.338   6.729  -9.308  1.00  0.00    -0.550 OA
ENDBRANCH  13  14
ENDBRANCH  12  13
ENDBRANCH  11  12
ENDBRANCH  10  11
ENDBRANCH   9  10
ENDBRANCH   8   9
ENDBRANCH   7   8
ENDBRANCH   6   7
ENDBRANCH   5   6
ENDBRANCH   4   5
ENDBRANCH   3   4
ENDBRANCH   2   3
ENDBRANCH   1   2
BRANCH   1  17
ATOM     17  C   UNL     1       2.969   2.093  -1.151  1.00  0.00     0.000 C 
BRANCH  17  18
ATOM     18  C   UNL     1       2.450   1.247   0.023  1.00  0.00     0.000 C 
BRANCH  18  19
ATOM     19  C   UNL     1       1.947  -0.139  -0.418  1.00  0.00     0.000 C 
BRANCH  19  20
ATOM     20  C   UNL     1       0.994  -0.783   0.606  1.00  0.00     0.000 C 
BRANCH  20  21
ATOM     21  C   UNL     1       1.668  -1.338   1.880  1.00  0.00     0.000 C 
BRANCH  21  22
ATOM     22  C   UNL     1       0.853  -2.402   2.638  1.00  0.00    -0.000 C 
BRANCH  22  23
ATOM     23  C   UNL     1      -0.633  -2.034   2.765  1.00  0.00    -0.000 C 
BRANCH  23  24
ATOM     24  C   UNL     1      -1.201  -2.499   4.114  1.00  0.00    -0.000 C 
BRANCH  24  25
ATOM     25  C   UNL     1      -1.138  -1.409   5.199  1.00  0.00    -0.000 C 
BRANCH  25  26
ATOM     26  C   UNL     1      -1.908  -0.123   4.830  1.00  0.00    -0.000 C 
BRANCH  26  27
ATOM     27  C   UNL     1      -0.999   0.929   4.170  1.00  0.00    -0.000 C 
BRANCH  27  28
ATOM     28  C   UNL     1       0.495   0.690   4.478  1.00  0.00    -0.000 C 
BRANCH  28  29
ATOM     29  C   UNL     1       1.410   1.837   4.019  1.00  0.00    -0.003 C 
ATOM     30  C   UNL     1       0.692   2.856   3.136  1.00  0.00     0.004 C 
ENDBRANCH  28  29
ENDBRANCH  27  28
ENDBRANCH  26  27
ENDBRANCH  25  26
ENDBRANCH  24  25
ENDBRANCH  23  24
ENDBRANCH  22  23
ENDBRANCH  21  22
ENDBRANCH  20  21
ENDBRANCH  19  20
ENDBRANCH  18  19
ENDBRANCH  17  18
ENDBRANCH   1  17
TORSDOF 26
ENDMDL
MODEL 4
REMARK VINA RESULT:     2.707      1.544      1.980
REMARK INTER + INTRA:           5.575
REMARK INTER:                   6.901
REMARK INTRA:                  -1.326
REMARK UNBOUND:                -1.247
REMARK SMILES CCCCCCCCCCCCCCCCCCCCCCCCCCCC(=O)[O-]
REMARK SMILES IDX 15 1 16 2 17 3 18 4 19 5 20 6 21 7 22 8 23 9 24 10 25 11
REMARK SMILES IDX 26 12 27 13 28 14 29 15 30 16 14 17 13 18 12 19 11 20 10 21
REMARK SMILES IDX 9 22 8 23 7 24 6 25 5 26 4 27 3 28 2 29 1 30
REMARK H PARENT
REMARK Flexibility Score: inf
ROOT
ATOM      1  C   UNL     1       1.657   2.905  -1.744  1.00  0.00     0.000 C 
ENDROOT
BRANCH   1   2
ATOM      2  C   UNL     1       1.857   4.042  -2.763  1.00  0.00     0.000 C 
BRANCH   2   3
ATOM      3  C   UNL     1       0.849   5.205  -2.653  1.00  0.00     0.000 C 
BRANCH   3   4
ATOM      4  C   UNL     1      -0.143   5.323  -3.827  1.00  0.00     0.000 C 
BRANCH   4   5
ATOM      5  C   UNL     1       0.490   5.238  -5.231  1.00  0.00     0.000 C 
BRANCH   5   6
ATOM      6  C   UNL     1      -0.337   5.885  -6.358  1.00  0.00     0.000 C 
BRANCH   6   7
ATOM      7  C   UNL     1       0.371   7.081  -7.012  1.00  0.00     0.000 C 
BRANCH   7   8
ATOM      8  C   UNL     1      -0.314   8.397  -6.618  1.00  0.00     0.000 C 
BRANCH   8   9
ATOM      9  C   UNL     1      -1.335   8.877  -7.666  1.00  0.00     0.000 C 
BRANCH   9  10
ATOM     10  C   UNL     1      -0.882  10.082  -8.517  1.00  0.00     0.000 C 
BRANCH  10  11
ATOM     11  C   UNL     1       0.611  10.096  -8.891  1.00  0.00     0.000 C 
BRANCH  11  12
ATOM     12  C   UNL     1       0.950   9.133 -10.043  1.00  0.00     0.006 C 
BRANCH  12  13
ATOM     13  C   UNL     1       2.452   8.829 -10.124  1.00  0.00     0.053 C 
BRANCH  13  14
ATOM     14  C   UNL     1       2.734   7.360 -10.016  1.00  0.00     0.041 C 
ATOM     15  O   UNL     1       3.918   6.934 -10.076  1.00  0.00    -0.550 OA
ATOM     16  O   UNL     1       1.689   6.464  -9.832  1.00  0.00    -0.550 OA
ENDBRANCH  13  14
ENDBRANCH  12  13
ENDBRANCH  11  12
ENDBRANCH  10  11
ENDBRANCH   9  10
ENDBRANCH   8   9
ENDBRANCH   7   8
ENDBRANCH   6   7
ENDBRANCH   5   6
ENDBRANCH   4   5
ENDBRANCH   3   4
ENDBRANCH   2   3
ENDBRANCH   1   2
BRANCH   1  17
ATOM     17  C   UNL     1       2.976   2.446  -1.098  1.00  0.00     0.000 C 
BRANCH  17  18
ATOM     18  C   UNL     1       2.860   1.073  -0.416  1.00  0.00     0.000 C 
BRANCH  18  19
ATOM     19  C   UNL     1       3.433   1.068   1.013  1.00  0.00     0.000 C 
BRANCH  19  20
ATOM     20  C   UNL     1       2.458   0.473   2.045  1.00  0.00     0.000 C 
BRANCH  20  21
ATOM     21  C   UNL     1       1.434  -0.537   1.484  1.00  0.00     0.000 C 
BRANCH  21  22
ATOM     22  C   UNL     1       1.652  -1.998   1.919  1.00  0.00    -0.000 C 
BRANCH  22  23
ATOM     23  C   UNL     1       0.496  -2.543   2.771  1.00  0.00    -0.000 C 
BRANCH  23  24
ATOM     24  C   UNL     1      -0.432  -1.409   3.228  1.00  0.00    -0.000 C 
BRANCH  24  25
ATOM     25  C   UNL     1      -1.250  -1.771   4.479  1.00  0.00    -0.000 C 
BRANCH  25  26
ATOM     26  C   UNL     1      -1.890  -0.551   5.176  1.00  0.00    -0.000 C 
BRANCH  26  27
ATOM     27  C   UNL     1      -1.901  -0.696   6.708  1.00  0.00    -0.000 C 
BRANCH  27  28
ATOM     28  C   UNL     1      -0.914  -1.777   7.202  1.00  0.00    -0.000 C 
BRANCH  28  29
ATOM     29  C   UNL     1      -0.763  -1.820   8.731  1.00  0.00    -0.003 C 
ATOM     30  C   UNL     1      -1.130  -3.176   9.330  1.00  0.00     0.004 C 
ENDBRANCH  28  29
ENDBRANCH  27  28
ENDBRANCH  26  27
ENDBRANCH  25  26
ENDBRANCH  24  25
ENDBRANCH  23  24
ENDBRANCH  22  23
ENDBRANCH  21  22
ENDBRANCH  20  21
ENDBRANCH  19  20
ENDBRANCH  18  19
ENDBRANCH  17  18
ENDBRANCH   1  17
TORSDOF 26
ENDMDL
MODEL 5
REMARK VINA RESULT:     2.723      3.726     13.238
REMARK INTER + INTRA:           5.615
REMARK INTER:                   7.161
REMARK INTRA:                  -1.546
REMARK UNBOUND:                -1.247
REMARK SMILES CCCCCCCCCCCCCCCCCCCCCCCCCCCC(=O)[O-]
REMARK SMILES IDX 15 1 16 2 17 3 18 4 19 5 20 6 21 7 22 8 23 9 24 10 25 11
REMARK SMILES IDX 26 12 27 13 28 14 29 15 30 16 14 17 13 18 12 19 11 20 10 21
REMARK SMILES IDX 9 22 8 23 7 24 6 25 5 26 4 27 3 28 2 29 1 30
REMARK H PARENT
REMARK Flexibility Score: inf
ROOT
ATOM      1  C   UNL     1       0.305   4.546  -2.890  1.00  0.00     0.000 C 
ENDROOT
BRANCH   1   2
ATOM      2  C   UNL     1       1.691   3.893  -2.743  1.00  0.00     0.000 C 
BRANCH   2   3
ATOM      3  C   UNL     1       2.356   4.068  -1.361  1.00  0.00     0.000 C 
BRANCH   3   4
ATOM      4  C   UNL     1       2.568   2.763  -0.568  1.00  0.00     0.000 C 
BRANCH   4   5
ATOM      5  C   UNL     1       2.047   1.486  -1.257  1.00  0.00     0.000 C 
BRANCH   5   6
ATOM      6  C   UNL     1       2.061   0.220  -0.380  1.00  0.00     0.000 C 
BRANCH   6   7
ATOM      7  C   UNL     1       2.792   0.422   0.955  1.00  0.00     0.000 C 
BRANCH   7   8
ATOM      8  C   UNL     1       2.058  -0.305   2.091  1.00  0.00     0.000 C 
BRANCH   8   9
ATOM      9  C   UNL     1       1.125  -1.419   1.583  1.00  0.00     0.000 C 
BRANCH   9  10
ATOM     10  C   UNL     1       0.470  -2.278   2.685  1.00  0.00     0.000 C 
BRANCH  10  11
ATOM     11  C   UNL     1      -0.930  -1.818   3.129  1.00  0.00     0.000 C 
BRANCH  11  12
ATOM     12  C   UNL     1      -1.204  -2.084   4.620  1.00  0.00     0.006 C 
BRANCH  12  13
ATOM     13  C   UNL     1      -1.202  -0.793   5.451  1.00  0.00     0.053 C 
BRANCH  13  14
ATOM     14  C   UNL     1      -1.206   0.432   4.586  1.00  0.00     0.041 C 
ATOM     15  O   UNL     1      -0.123   0.996   4.278  1.00  0.00    -0.550 OA
ATOM     16  O   UNL     1      -2.407   0.940   4.107  1.00  0.00    -0.550 OA
ENDBRANCH  13  14
ENDBRANCH  12  13
ENDBRANCH  11  12
ENDBRANCH  10  11
ENDBRANCH   9  10
ENDBRANCH   8   9
ENDBRANCH   7   8
ENDBRANCH   6   7
ENDBRANCH   5   6
ENDBRANCH   4   5
ENDBRANCH   3   4
ENDBRANCH   2   3
ENDBRANCH   1   2
BRANCH   1  17
ATOM     17  C   UNL     1       0.367   6.083  -2.868  1.00  0.00     0.000 C 
BRANCH  17  18
ATOM     18  C   UNL     1      -0.674   6.709  -1.925  1.00  0.00     0.000 C 
BRANCH  18  19
ATOM     19  C   UNL     1      -0.442   8.213  -1.697  1.00  0.00     0.000 C 
BRANCH  19  20
ATOM     20  C   UNL     1      -1.552   9.089  -2.307  1.00  0.00     0.000 C 
BRANCH  20  21
ATOM     21  C   UNL     1      -1.123   9.959  -3.508  1.00  0.00     0.000 C 
BRANCH  21  22
ATOM     22  C   UNL     1      -1.480   9.384  -4.891  1.00  0.00    -0.000 C 
BRANCH  22  23
ATOM     23  C   UNL     1      -0.780  10.125  -6.041  1.00  0.00    -0.000 C 
BRANCH  23  24
ATOM     24  C   UNL     1      -0.949   9.368  -7.366  1.00  0.00    -0.000 C 
BRANCH  24  25
ATOM     25  C   UNL     1      -0.343  10.116  -8.566  1.00  0.00    -0.000 C 
BRANCH  25  26
ATOM     26  C   UNL     1       0.286   9.183  -9.624  1.00  0.00    -0.000 C 
BRANCH  26  27
ATOM     27  C   UNL     1      -0.515   7.881  -9.800  1.00  0.00    -0.000 C 
BRANCH  27  28
ATOM     28  C   UNL     1       0.392   6.631  -9.812  1.00  0.00    -0.000 C 
BRANCH  28  29
ATOM     29  C   UNL     1       1.245   6.478  -8.541  1.00  0.00    -0.003 C 
ATOM     30  C   UNL     1       0.406   6.384  -7.268  1.00  0.00     0.004 C 
ENDBRANCH  28  29
ENDBRANCH  27  28
ENDBRANCH  26  27
ENDBRANCH  25  26
ENDBRANCH  24  25
ENDBRANCH  23  24
ENDBRANCH  22  23
ENDBRANCH  21  22
ENDBRANCH  20  21
ENDBRANCH  19  20
ENDBRANCH  18  19
ENDBRANCH  17  18
ENDBRANCH   1  17
TORSDOF 26
ENDMDL
MODEL 6
REMARK VINA RESULT:     2.974      3.633     13.219
REMARK INTER + INTRA:           6.248
REMARK INTER:                   7.877
REMARK INTRA:                  -1.629
REMARK UNBOUND:                -1.247
REMARK SMILES CCCCCCCCCCCCCCCCCCCCCCCCCCCC(=O)[O-]
REMARK SMILES IDX 15 1 16 2 17 3 18 4 19 5 20 6 21 7 22 8 23 9 24 10 25 11
REMARK SMILES IDX 26 12 27 13 28 14 29 15 30 16 14 17 13 18 12 19 11 20 10 21
REMARK SMILES IDX 9 22 8 23 7 24 6 25 5 26 4 27 3 28 2 29 1 30
REMARK H PARENT
REMARK Flexibility Score: inf
ROOT
ATOM      1  C   UNL     1       2.248   2.215  -1.793  1.00  0.00     0.000 C 
ENDROOT
BRANCH   1   2
ATOM      2  C   UNL     1       3.049   1.529  -0.671  1.00  0.00     0.000 C 
BRANCH   2   3
ATOM      3  C   UNL     1       2.214   1.072   0.544  1.00  0.00     0.000 C 
BRANCH   3   4
ATOM      4  C   UNL     1       3.001   0.303   1.625  1.00  0.00     0.000 C 
BRANCH   4   5
ATOM      5  C   UNL     1       2.852   0.852   3.058  1.00  0.00     0.000 C 
BRANCH   5   6
ATOM      6  C   UNL     1       1.559   1.646   3.320  1.00  0.00     0.000 C 
BRANCH   6   7
ATOM      7  C   UNL     1       0.599   0.933   4.284  1.00  0.00     0.000 C 
BRANCH   7   8
ATOM      8  C   UNL     1      -0.858   1.130   3.844  1.00  0.00     0.000 C 
BRANCH   8   9
ATOM      9  C   UNL     1      -1.862   0.401   4.756  1.00  0.00     0.000 C 
BRANCH   9  10
ATOM     10  C   UNL     1      -1.231  -0.386   5.924  1.00  0.00     0.000 C 
BRANCH  10  11
ATOM     11  C   UNL     1      -1.482  -1.904   5.903  1.00  0.00     0.000 C 
BRANCH  11  12
ATOM     12  C   UNL     1      -1.536  -2.483   4.478  1.00  0.00     0.006 C 
BRANCH  12  13
ATOM     13  C   UNL     1      -0.137  -2.680   3.877  1.00  0.00     0.053 C 
BRANCH  13  14
ATOM     14  C   UNL     1      -0.050  -2.162   2.474  1.00  0.00     0.041 C 
ATOM     15  O   UNL     1      -1.084  -2.091   1.757  1.00  0.00    -0.550 OA
ATOM     16  O   UNL     1       1.171  -1.740   1.963  1.00  0.00    -0.550 OA
ENDBRANCH  13  14
ENDBRANCH  12  13
ENDBRANCH  11  12
ENDBRANCH  10  11
ENDBRANCH   9  10
ENDBRANCH   8   9
ENDBRANCH   7   8
ENDBRANCH   6   7
ENDBRANCH   5   6
ENDBRANCH   4   5
ENDBRANCH   3   4
ENDBRANCH   2   3
ENDBRANCH   1   2
BRANCH   1  17
ATOM     17  C   UNL     1       2.244   3.748  -1.668  1.00  0.00     0.000 C 
BRANCH  17  18
ATOM     18  C   UNL     1       1.753   4.450  -2.946  1.00  0.00     0.000 C 
BRANCH  18  19
ATOM     19  C   UNL     1       0.476   5.277  -2.717  1.00  0.00     0.000 C 
BRANCH  19  20
ATOM     20  C   UNL     1       0.044   6.067  -3.966  1.00  0.00     0.000 C 
BRANCH  20  21
ATOM     21  C   UNL     1       0.068   5.275  -5.291  1.00  0.00     0.000 C 
BRANCH  21  22
ATOM     22  C   UNL     1      -0.127   6.123  -6.562  1.00  0.00    -0.000 C 
BRANCH  22  23
ATOM     23  C   UNL     1       1.020   5.954  -7.571  1.00  0.00    -0.000 C 
BRANCH  23  24
ATOM     24  C   UNL     1       0.565   6.331  -8.988  1.00  0.00    -0.000 C 
BRANCH  24  25
ATOM     25  C   UNL     1       1.423   7.441  -9.619  1.00  0.00    -0.000 C 
BRANCH  25  26
ATOM     26  C   UNL     1       0.791   8.846  -9.517  1.00  0.00    -0.000 C 
BRANCH  26  27
ATOM     27  C   UNL     1      -0.709   8.785  -9.177  1.00  0.00    -0.000 C 
BRANCH  27  28
ATOM     28  C   UNL     1      -1.208  10.078  -8.495  1.00  0.00    -0.000 C 
BRANCH  28  29
ATOM     29  C   UNL     1      -1.700   9.863  -7.054  1.00  0.00    -0.003 C 
ATOM     30  C   UNL     1      -0.566   9.864  -6.030  1.00  0.00     0.004 C 
ENDBRANCH  28  29
ENDBRANCH  27  28
ENDBRANCH  26  27
ENDBRANCH  25  26
ENDBRANCH  24  25
ENDBRANCH  23  24
ENDBRANCH  22  23
ENDBRANCH  21  22
ENDBRANCH  20  21
ENDBRANCH  19  20
ENDBRANCH  18  19
ENDBRANCH  17  18
ENDBRANCH   1  17
TORSDOF 26
ENDMDL
MODEL 7
REMARK VINA RESULT:     3.091      2.233      3.368
REMARK INTER + INTRA:           6.543
REMARK INTER:                   7.735
REMARK INTRA:                  -1.192
REMARK UNBOUND:                -1.247
REMARK SMILES CCCCCCCCCCCCCCCCCCCCCCCCCCCC(=O)[O-]
REMARK SMILES IDX 15 1 16 2 17 3 18 4 19 5 20 6 21 7 22 8 23 9 24 10 25 11
REMARK SMILES IDX 26 12 27 13 28 14 29 15 30 16 14 17 13 18 12 19 11 20 10 21
REMARK SMILES IDX 9 22 8 23 7 24 6 25 5 26 4 27 3 28 2 29 1 30
REMARK H PARENT
REMARK Flexibility Score: inf
ROOT
ATOM      1  C   UNL     1       2.198   2.999  -1.184  1.00  0.00     0.000 C 
ENDROOT
BRANCH   1   2
ATOM      2  C   UNL     1       1.755   3.255  -2.636  1.00  0.00     0.000 C 
BRANCH   2   3
ATOM      3  C   UNL     1       1.470   4.732  -2.984  1.00  0.00     0.000 C 
BRANCH   3   4
ATOM      4  C   UNL     1       0.133   4.986  -3.708  1.00  0.00     0.000 C 
BRANCH   4   5
ATOM      5  C   UNL     1       0.245   5.208  -5.230  1.00  0.00     0.000 C 
BRANCH   5   6
ATOM      6  C   UNL     1      -0.043   6.645  -5.702  1.00  0.00     0.000 C 
BRANCH   6   7
ATOM      7  C   UNL     1      -0.059   6.784  -7.232  1.00  0.00     0.000 C 
BRANCH   7   8
ATOM      8  C   UNL     1       1.092   5.985  -7.861  1.00  0.00     0.000 C 
BRANCH   8   9
ATOM      9  C   UNL     1       1.207   6.201  -9.381  1.00  0.00     0.000 C 
BRANCH   9  10
ATOM     10  C   UNL     1       1.055   7.665  -9.847  1.00  0.00     0.000 C 
BRANCH  10  11
ATOM     11  C   UNL     1       1.354   8.728  -8.775  1.00  0.00     0.000 C 
BRANCH  11  12
ATOM     12  C   UNL     1       0.622  10.058  -9.029  1.00  0.00     0.006 C 
BRANCH  12  13
ATOM     13  C   UNL     1      -0.607   9.882  -9.933  1.00  0.00     0.053 C 
BRANCH  13  14
ATOM     14  C   UNL     1      -1.877   9.791  -9.142  1.00  0.00     0.041 C 
ATOM     15  O   UNL     1      -1.841   9.759  -7.883  1.00  0.00    -0.550 OA
ATOM     16  O   UNL     1      -3.102   9.758  -9.796  1.00  0.00    -0.550 OA
ENDBRANCH  13  14
ENDBRANCH  12  13
ENDBRANCH  11  12
ENDBRANCH  10  11
ENDBRANCH   9  10
ENDBRANCH   8   9
ENDBRANCH   7   8
ENDBRANCH   6   7
ENDBRANCH   5   6
ENDBRANCH   4   5
ENDBRANCH   3   4
ENDBRANCH   2   3
ENDBRANCH   1   2
BRANCH   1  17
ATOM     17  C   UNL     1       2.471   1.513  -0.899  1.00  0.00     0.000 C 
BRANCH  17  18
ATOM     18  C   UNL     1       3.418   1.298   0.294  1.00  0.00     0.000 C 
BRANCH  18  19
ATOM     19  C   UNL     1       2.832   0.350   1.355  1.00  0.00     0.000 C 
BRANCH  19  20
ATOM     20  C   UNL     1       1.549  -0.357   0.882  1.00  0.00     0.000 C 
BRANCH  20  21
ATOM     21  C   UNL     1       1.331  -1.779   1.443  1.00  0.00     0.000 C 
BRANCH  21  22
ATOM     22  C   UNL     1       0.776  -1.837   2.878  1.00  0.00    -0.000 C 
BRANCH  22  23
ATOM     23  C   UNL     1      -0.725  -2.164   2.922  1.00  0.00    -0.000 C 
BRANCH  23  24
ATOM     24  C   UNL     1      -1.171  -2.505   4.351  1.00  0.00    -0.000 C 
BRANCH  24  25
ATOM     25  C   UNL     1      -1.018  -1.324   5.324  1.00  0.00    -0.000 C 
BRANCH  25  26
ATOM     26  C   UNL     1      -2.208  -0.340   5.298  1.00  0.00    -0.000 C 
BRANCH  26  27
ATOM     27  C   UNL     1      -1.785   1.071   4.852  1.00  0.00    -0.000 C 
BRANCH  27  28
ATOM     28  C   UNL     1      -0.720   1.039   3.734  1.00  0.00    -0.000 C 
BRANCH  28  29
ATOM     29  C   UNL     1       0.394   2.083   3.914  1.00  0.00    -0.003 C 
ATOM     30  C   UNL     1       1.757   1.457   4.204  1.00  0.00     0.004 C 
ENDBRANCH  28  29
ENDBRANCH  27  28
ENDBRANCH  26  27
ENDBRANCH  25  26
ENDBRANCH  24  25
ENDBRANCH  23  24
ENDBRANCH  22  23
ENDBRANCH  21  22
ENDBRANCH  20  21
ENDBRANCH  19  20
ENDBRANCH  18  19
ENDBRANCH  17  18
ENDBRANCH   1  17
TORSDOF 26
ENDMDL
MODEL 8
REMARK VINA RESULT:     3.182      1.875      2.877
REMARK INTER + INTRA:           6.772
REMARK INTER:                   8.031
REMARK INTRA:                  -1.259
REMARK UNBOUND:                -1.247
REMARK SMILES CCCCCCCCCCCCCCCCCCCCCCCCCCCC(=O)[O-]
REMARK SMILES IDX 15 1 16 2 17 3 18 4 19 5 20 6 21 7 22 8 23 9 24 10 25 11
REMARK SMILES IDX 26 12 27 13 28 14 29 15 30 16 14 17 13 18 12 19 11 20 10 21
REMARK SMILES IDX 9 22 8 23 7 24 6 25 5 26 4 27 3 28 2 29 1 30
REMARK H PARENT
REMARK Flexibility Score: inf
ROOT
ATOM      1  C   UNL     1       2.138   2.063  -0.698  1.00  0.00     0.000 C 
ENDROOT
BRANCH   1   2
ATOM      2  C   UNL     1       1.809   1.880  -2.190  1.00  0.00     0.000 C 
BRANCH   2   3
ATOM      3  C   UNL     1       2.101   3.107  -3.081  1.00  0.00     0.000 C 
BRANCH   3   4
ATOM      4  C   UNL     1       1.817   4.473  -2.424  1.00  0.00     0.000 C 
BRANCH   4   5
ATOM      5  C   UNL     1       0.634   5.256  -3.027  1.00  0.00     0.000 C 
BRANCH   5   6
ATOM      6  C   UNL     1       0.011   4.626  -4.287  1.00  0.00     0.000 C 
BRANCH   6   7
ATOM      7  C   UNL     1      -0.284   5.654  -5.390  1.00  0.00     0.000 C 
BRANCH   7   8
ATOM      8  C   UNL     1       0.430   5.270  -6.694  1.00  0.00     0.000 C 
BRANCH   8   9
ATOM      9  C   UNL     1       0.457   6.418  -7.720  1.00  0.00     0.000 C 
BRANCH   9  10
ATOM     10  C   UNL     1       1.503   6.264  -8.845  1.00  0.00     0.000 C 
BRANCH  10  11
ATOM     11  C   UNL     1       1.927   7.576  -9.529  1.00  0.00     0.000 C 
BRANCH  11  12
ATOM     12  C   UNL     1       0.768   8.578  -9.675  1.00  0.00     0.006 C 
BRANCH  12  13
ATOM     13  C   UNL     1       0.935   9.798  -8.757  1.00  0.00     0.053 C 
BRANCH  13  14
ATOM     14  C   UNL     1      -0.082   9.816  -7.656  1.00  0.00     0.041 C 
ATOM     15  O   UNL     1       0.284   9.745  -6.452  1.00  0.00    -0.550 OA
ATOM     16  O   UNL     1      -1.433   9.926  -7.959  1.00  0.00    -0.550 OA
ENDBRANCH  13  14
ENDBRANCH  12  13
ENDBRANCH  11  12
ENDBRANCH  10  11
ENDBRANCH   9  10
ENDBRANCH   8   9
ENDBRANCH   7   8
ENDBRANCH   6   7
ENDBRANCH   5   6
ENDBRANCH   4   5
ENDBRANCH   3   4
ENDBRANCH   2   3
ENDBRANCH   1   2
BRANCH   1  17
ATOM     17  C   UNL     1       3.348   1.226  -0.248  1.00  0.00     0.000 C 
BRANCH  17  18
ATOM     18  C   UNL     1       3.967   1.730   1.066  1.00  0.00     0.000 C 
BRANCH  18  19
ATOM     19  C   UNL     1       3.991   0.653   2.165  1.00  0.00     0.000 C 
BRANCH  19  20
ATOM     20  C   UNL     1       2.606   0.410   2.793  1.00  0.00     0.000 C 
BRANCH  20  21
ATOM     21  C   UNL     1       1.625  -0.416   1.933  1.00  0.00     0.000 C 
BRANCH  21  22
ATOM     22  C   UNL     1       1.311  -1.824   2.472  1.00  0.00    -0.000 C 
BRANCH  22  23
ATOM     23  C   UNL     1      -0.176  -2.190   2.349  1.00  0.00    -0.000 C 
BRANCH  23  24
ATOM     24  C   UNL     1      -0.816  -2.361   3.734  1.00  0.00    -0.000 C 
BRANCH  24  25
ATOM     25  C   UNL     1      -1.695  -1.165   4.140  1.00  0.00    -0.000 C 
BRANCH  25  26
ATOM     26  C   UNL     1      -1.160  -0.390   5.363  1.00  0.00    -0.000 C 
BRANCH  26  27
ATOM     27  C   UNL     1      -1.662  -0.983   6.692  1.00  0.00    -0.000 C 
BRANCH  27  28
ATOM     28  C   UNL     1      -0.592  -1.853   7.388  1.00  0.00    -0.000 C 
BRANCH  28  29
ATOM     29  C   UNL     1      -0.720  -1.877   8.920  1.00  0.00    -0.003 C 
ATOM     30  C   UNL     1      -1.431  -3.124   9.440  1.00  0.00     0.004 C 
ENDBRANCH  28  29
ENDBRANCH  27  28
ENDBRANCH  26  27
ENDBRANCH  25  26
ENDBRANCH  24  25
ENDBRANCH  23  24
ENDBRANCH  22  23
ENDBRANCH  21  22
ENDBRANCH  20  21
ENDBRANCH  19  20
ENDBRANCH  18  19
ENDBRANCH  17  18
ENDBRANCH   1  17
TORSDOF 26
ENDMDL
MODEL 9
REMARK VINA RESULT:     3.258      2.104      4.027
REMARK INTER + INTRA:           6.963
REMARK INTER:                   8.787
REMARK INTRA:                  -1.824
REMARK UNBOUND:                -1.247
REMARK SMILES CCCCCCCCCCCCCCCCCCCCCCCCCCCC(=O)[O-]
REMARK SMILES IDX 15 1 16 2 17 3 18 4 19 5 20 6 21 7 22 8 23 9 24 10 25 11
REMARK SMILES IDX 26 12 27 13 28 14 29 15 30 16 14 17 13 18 12 19 11 20 10 21
REMARK SMILES IDX 9 22 8 23 7 24 6 25 5 26 4 27 3 28 2 29 1 30
REMARK H PARENT
REMARK Flexibility Score: inf
ROOT
ATOM      1  C   UNL     1       2.463   1.894  -1.703  1.00  0.00     0.000 C 
ENDROOT
BRANCH   1   2
ATOM      2  C   UNL     1       2.182   3.387  -1.456  1.00  0.00     0.000 C 
BRANCH   2   3
ATOM      3  C   UNL     1       1.945   4.229  -2.727  1.00  0.00     0.000 C 
BRANCH   3   4
ATOM      4  C   UNL     1       0.550   4.878  -2.831  1.00  0.00     0.000 C 
BRANCH   4   5
ATOM      5  C   UNL     1       0.385   5.895  -3.978  1.00  0.00     0.000 C 
BRANCH   5   6
ATOM      6  C   UNL     1      -0.014   5.287  -5.335  1.00  0.00     0.000 C 
BRANCH   6   7
ATOM      7  C   UNL     1      -0.062   6.323  -6.468  1.00  0.00     0.000 C 
BRANCH   7   8
ATOM      8  C   UNL     1       0.997   6.009  -7.535  1.00  0.00     0.000 C 
BRANCH   8   9
ATOM      9  C   UNL     1       0.515   6.320  -8.964  1.00  0.00     0.000 C 
BRANCH   9  10
ATOM     10  C   UNL     1       1.552   7.026  -9.864  1.00  0.00     0.000 C 
BRANCH  10  11
ATOM     11  C   UNL     1       1.894   8.471  -9.461  1.00  0.00     0.000 C 
BRANCH  11  12
ATOM     12  C   UNL     1       0.645   9.340  -9.227  1.00  0.00     0.006 C 
BRANCH  12  13
ATOM     13  C   UNL     1       0.699  10.088  -7.888  1.00  0.00     0.053 C 
BRANCH  13  14
ATOM     14  C   UNL     1      -0.519   9.834  -7.052  1.00  0.00     0.041 C 
ATOM     15  O   UNL     1      -0.522  10.125  -5.827  1.00  0.00    -0.550 OA
ATOM     16  O   UNL     1      -1.658   9.288  -7.633  1.00  0.00    -0.550 OA
ENDBRANCH  13  14
ENDBRANCH  12  13
ENDBRANCH  11  12
ENDBRANCH  10  11
ENDBRANCH   9  10
ENDBRANCH   8   9
ENDBRANCH   7   8
ENDBRANCH   6   7
ENDBRANCH   5   6
ENDBRANCH   4   5
ENDBRANCH   3   4
ENDBRANCH   2   3
ENDBRANCH   1   2
BRANCH   1  17
ATOM     17  C   UNL     1       1.373   0.978  -1.120  1.00  0.00     0.000 C 
BRANCH  17  18
ATOM     18  C   UNL     1       1.902  -0.416  -0.746  1.00  0.00     0.000 C 
BRANCH  18  19
ATOM     19  C   UNL     1       1.806  -0.705   0.762  1.00  0.00     0.000 C 
BRANCH  19  20
ATOM     20  C   UNL     1       0.538  -1.493   1.140  1.00  0.00     0.000 C 
BRANCH  20  21
ATOM     21  C   UNL     1       0.536  -2.105   2.557  1.00  0.00     0.000 C 
BRANCH  21  22
ATOM     22  C   UNL     1      -0.837  -2.134   3.254  1.00  0.00    -0.000 C 
BRANCH  22  23
ATOM     23  C   UNL     1      -0.823  -1.440   4.624  1.00  0.00    -0.000 C 
BRANCH  23  24
ATOM     24  C   UNL     1      -1.472  -0.051   4.543  1.00  0.00    -0.000 C 
BRANCH  24  25
ATOM     25  C   UNL     1      -0.557   1.000   3.891  1.00  0.00    -0.000 C 
BRANCH  25  26
ATOM     26  C   UNL     1       0.871   1.029   4.478  1.00  0.00    -0.000 C 
BRANCH  26  27
ATOM     27  C   UNL     1       1.925   1.404   3.422  1.00  0.00    -0.000 C 
BRANCH  27  28
ATOM     28  C   UNL     1       3.030   0.333   3.290  1.00  0.00    -0.000 C 
BRANCH  28  29
ATOM     29  C   UNL     1       4.366   0.888   2.769  1.00  0.00    -0.003 C 
ATOM     30  C   UNL     1       4.273   1.426   1.342  1.00  0.00     0.004 C 
ENDBRANCH  28  29
ENDBRANCH  27  28
ENDBRANCH  26  27
ENDBRANCH  25  26
ENDBRANCH  24  25
ENDBRANCH  23  24
ENDBRANCH  22  23
ENDBRANCH  21  22
ENDBRANCH  20  21
ENDBRANCH  19  20
ENDBRANCH  18  19
ENDBRANCH  17  18
ENDBRANCH   1  17
TORSDOF 26
ENDMDL
