MODEL 1
REMARK VINA RESULT:    -5.639      0.000      0.000
REMARK INTER + INTRA:          -6.383
REMARK INTER:                  -6.133
REMARK INTRA:                  -0.250
REMARK UNBOUND:                -0.250
REMARK SMILES O=C([O-])c1ccccc1O
REMARK SMILES IDX 4 1 9 2 5 3 8 4 6 5 7 6 2 7 1 8 3 9 10 10
REMARK H PARENT 10 11
REMARK Flexibility Score: inf
ROOT
ATOM      1  C   UNL     1     129.053 124.660 128.051  1.00  0.00     0.039 A 
ATOM      2  C   UNL     1     128.477 123.376 127.897  1.00  0.00     0.124 A 
ATOM      3  C   UNL     1     129.266 125.157 129.351  1.00  0.00     0.014 A 
ATOM      4  C   UNL     1     128.131 122.624 129.031  1.00  0.00     0.047 A 
ATOM      5  C   UNL     1     128.916 124.398 130.471  1.00  0.00     0.001 A 
ATOM      6  C   UNL     1     128.349 123.134 130.312  1.00  0.00     0.004 A 
ENDROOT
BRANCH   1   7
ATOM      7  C   UNL     1     129.437 125.493 126.883  1.00  0.00     0.075 C 
ATOM      8  O   UNL     1     128.623 125.719 125.950  1.00  0.00    -0.545 OA
ATOM      9  O   UNL     1     130.712 126.040 126.803  1.00  0.00    -0.545 OA
ENDBRANCH   1   7
BRANCH   2  10
ATOM     10  O   UNL     1     128.249 122.842 126.629  1.00  0.00    -0.507 OA
ATOM     11  H   UNL     1     128.500 121.888 126.398  1.00  0.00     0.293 HD
ENDBRANCH   2  10
TORSDOF 2
ENDMDL
MODEL 2
REMARK VINA RESULT:    -5.569      1.849      3.358
REMARK INTER + INTRA:          -6.307
REMARK INTER:                  -6.129
REMARK INTRA:                  -0.178
REMARK UNBOUND:                -0.250
REMARK SMILES O=C([O-])c1ccccc1O
REMARK SMILES IDX 4 1 9 2 5 3 8 4 6 5 7 6 2 7 1 8 3 9 10 10
REMARK H PARENT 10 11
REMARK Flexibility Score: inf
ROOT
ATOM      1  C   UNL     1     128.645 124.065 128.082  1.00  0.00     0.039 A 
ATOM      2  C   UNL     1     128.899 123.906 126.698  1.00  0.00     0.124 A 
ATOM      3  C   UNL     1     129.272 125.122 128.770  1.00  0.00     0.014 A 
ATOM      4  C   UNL     1     129.763 124.794 126.039  1.00  0.00     0.047 A 
ATOM      5  C   UNL     1     130.129 125.999 128.102  1.00  0.00     0.001 A 
ATOM      6  C   UNL     1     130.375 125.836 126.739  1.00  0.00     0.004 A 
ENDROOT
BRANCH   1   7
ATOM      7  C   UNL     1     127.739 123.151 128.824  1.00  0.00     0.075 C 
ATOM      8  O   UNL     1     126.492 123.191 128.653  1.00  0.00    -0.545 OA
ATOM      9  O   UNL     1     128.259 122.231 129.727  1.00  0.00    -0.545 OA
ENDBRANCH   1   7
BRANCH   2  10
ATOM     10  O   UNL     1     128.300 122.874 125.976  1.00  0.00    -0.507 OA
ATOM     11  H   UNL     1     127.622 122.251 126.398  1.00  0.00     0.293 HD
ENDBRANCH   2  10
TORSDOF 2
ENDMDL
MODEL 3
REMARK VINA RESULT:    -5.512      1.730      2.279
REMARK INTER + INTRA:          -6.245
REMARK INTER:                  -5.999
REMARK INTRA:                  -0.246
REMARK UNBOUND:                -0.250
REMARK SMILES O=C([O-])c1ccccc1O
REMARK SMILES IDX 4 1 9 2 5 3 8 4 6 5 7 6 2 7 1 8 3 9 10 10
REMARK H PARENT 10 11
REMARK Flexibility Score: inf
ROOT
ATOM      1  C   UNL     1     130.163 125.641 127.155  1.00  0.00     0.039 A 
ATOM      2  C   UNL     1     129.986 124.510 126.323  1.00  0.00     0.124 A 
ATOM      3  C   UNL     1     129.624 125.619 128.456  1.00  0.00     0.014 A 
ATOM      4  C   UNL     1     129.283 123.393 126.802  1.00  0.00     0.047 A 
ATOM      5  C   UNL     1     128.926 124.501 128.920  1.00  0.00     0.001 A 
ATOM      6  C   UNL     1     128.756 123.389 128.095  1.00  0.00     0.004 A 
ENDROOT
BRANCH   1   7
ATOM      7  C   UNL     1     130.899 126.847 126.695  1.00  0.00     0.075 C 
ATOM      8  O   UNL     1     130.516 128.003 127.012  1.00  0.00    -0.545 OA
ATOM      9  O   UNL     1     132.031 126.714 125.899  1.00  0.00    -0.545 OA
ENDBRANCH   1   7
BRANCH   2  10
ATOM     10  O   UNL     1     130.503 124.487 125.028  1.00  0.00    -0.507 OA
ATOM     11  H   UNL     1     131.103 123.736 124.706  1.00  0.00     0.293 HD
ENDBRANCH   2  10
TORSDOF 2
ENDMDL
MODEL 4
REMARK VINA RESULT:    -5.471      2.084      3.364
REMARK INTER + INTRA:          -6.201
REMARK INTER:                  -5.959
REMARK INTRA:                  -0.241
REMARK UNBOUND:                -0.250
REMARK SMILES O=C([O-])c1ccccc1O
REMARK SMILES IDX 4 1 9 2 5 3 8 4 6 5 7 6 2 7 1 8 3 9 10 10
REMARK H PARENT 10 11
REMARK Flexibility Score: inf
ROOT
ATOM      1  C   UNL     1     128.516 124.447 127.824  1.00  0.00     0.039 A 
ATOM      2  C   UNL     1     128.978 123.889 126.608  1.00  0.00     0.124 A 
ATOM      3  C   UNL     1     129.217 125.533 128.384  1.00  0.00     0.014 A 
ATOM      4  C   UNL     1     130.117 124.422 125.983  1.00  0.00     0.047 A 
ATOM      5  C   UNL     1     130.348 126.053 127.751  1.00  0.00     0.001 A 
ATOM      6  C   UNL     1     130.798 125.499 126.553  1.00  0.00     0.004 A 
ENDROOT
BRANCH   1   7
ATOM      7  C   UNL     1     127.316 123.918 128.524  1.00  0.00     0.075 C 
ATOM      8  O   UNL     1     127.247 122.712 128.874  1.00  0.00    -0.545 OA
ATOM      9  O   UNL     1     126.244 124.757 128.804  1.00  0.00    -0.545 OA
ENDBRANCH   1   7
BRANCH   2  10
ATOM     10  O   UNL     1     128.315 122.813 126.017  1.00  0.00    -0.507 OA
ATOM     11  H   UNL     1     127.304 122.766 125.978  1.00  0.00     0.293 HD
ENDBRANCH   2  10
TORSDOF 2
ENDMDL
MODEL 5
REMARK VINA RESULT:    -5.336      2.236      4.076
REMARK INTER + INTRA:          -6.054
REMARK INTER:                  -5.851
REMARK INTRA:                  -0.203
REMARK UNBOUND:                -0.250
REMARK SMILES O=C([O-])c1ccccc1O
REMARK SMILES IDX 4 1 9 2 5 3 8 4 6 5 7 6 2 7 1 8 3 9 10 10
REMARK H PARENT 10 11
REMARK Flexibility Score: inf
ROOT
ATOM      1  C   UNL     1     128.663 123.788 128.349  1.00  0.00     0.039 A 
ATOM      2  C   UNL     1     129.292 124.918 128.925  1.00  0.00     0.124 A 
ATOM      3  C   UNL     1     128.827 123.549 126.971  1.00  0.00     0.014 A 
ATOM      4  C   UNL     1     130.063 125.774 128.123  1.00  0.00     0.047 A 
ATOM      5  C   UNL     1     129.597 124.409 126.184  1.00  0.00     0.001 A 
ATOM      6  C   UNL     1     130.214 125.520 126.759  1.00  0.00     0.004 A 
ENDROOT
BRANCH   1   7
ATOM      7  C   UNL     1     127.837 122.853 129.156  1.00  0.00     0.075 C 
ATOM      8  O   UNL     1     128.358 122.118 130.034  1.00  0.00    -0.545 OA
ATOM      9  O   UNL     1     126.465 122.776 128.948  1.00  0.00    -0.545 OA
ENDBRANCH   1   7
BRANCH   2  10
ATOM     10  O   UNL     1     129.158 125.194 130.286  1.00  0.00    -0.507 OA
ATOM     11  H   UNL     1     129.821 124.847 130.969  1.00  0.00     0.293 HD
ENDBRANCH   2  10
TORSDOF 2
ENDMDL
MODEL 6
REMARK VINA RESULT:    -5.237      2.171      3.227
REMARK INTER + INTRA:          -5.946
REMARK INTER:                  -5.695
REMARK INTRA:                  -0.251
REMARK UNBOUND:                -0.250
REMARK SMILES O=C([O-])c1ccccc1O
REMARK SMILES IDX 4 1 9 2 5 3 8 4 6 5 7 6 2 7 1 8 3 9 10 10
REMARK H PARENT 10 11
REMARK Flexibility Score: inf
ROOT
ATOM      1  C   UNL     1     130.403 125.272 126.481  1.00  0.00     0.039 A 
ATOM      2  C   UNL     1     130.177 125.935 127.711  1.00  0.00     0.124 A 
ATOM      3  C   UNL     1     129.826 124.004 126.277  1.00  0.00     0.014 A 
ATOM      4  C   UNL     1     129.387 125.326 128.699  1.00  0.00     0.047 A 
ATOM      5  C   UNL     1     129.042 123.409 127.269  1.00  0.00     0.001 A 
ATOM      6  C   UNL     1     128.823 124.068 128.478  1.00  0.00     0.004 A 
ENDROOT
BRANCH   1   7
ATOM      7  C   UNL     1     131.231 125.875 125.405  1.00  0.00     0.075 C 
ATOM      8  O   UNL     1     132.356 126.381 125.657  1.00  0.00    -0.545 OA
ATOM      9  O   UNL     1     130.771 125.890 124.094  1.00  0.00    -0.545 OA
ENDBRANCH   1   7
BRANCH   2  10
ATOM     10  O   UNL     1     130.728 127.192 127.958  1.00  0.00    -0.507 OA
ATOM     11  H   UNL     1     131.361 127.635 127.302  1.00  0.00     0.293 HD
ENDBRANCH   2  10
TORSDOF 2
ENDMDL
MODEL 7
REMARK VINA RESULT:    -5.209      1.119      2.323
REMARK INTER + INTRA:          -5.915
REMARK INTER:                  -5.669
REMARK INTRA:                  -0.247
REMARK UNBOUND:                -0.250
REMARK SMILES O=C([O-])c1ccccc1O
REMARK SMILES IDX 4 1 9 2 5 3 8 4 6 5 7 6 2 7 1 8 3 9 10 10
REMARK H PARENT 10 11
REMARK Flexibility Score: inf
ROOT
ATOM      1  C   UNL     1     129.124 124.223 127.938  1.00  0.00     0.039 A 
ATOM      2  C   UNL     1     129.377 125.060 129.052  1.00  0.00     0.124 A 
ATOM      3  C   UNL     1     128.547 122.957 128.158  1.00  0.00     0.014 A 
ATOM      4  C   UNL     1     129.052 124.621 130.345  1.00  0.00     0.047 A 
ATOM      5  C   UNL     1     128.229 122.533 129.450  1.00  0.00     0.001 A 
ATOM      6  C   UNL     1     128.480 123.363 130.542  1.00  0.00     0.004 A 
ENDROOT
BRANCH   1   7
ATOM      7  C   UNL     1     129.450 124.642 126.551  1.00  0.00     0.075 C 
ATOM      8  O   UNL     1     130.186 123.934 125.814  1.00  0.00    -0.545 OA
ATOM      9  O   UNL     1     128.944 125.832 126.043  1.00  0.00    -0.545 OA
ENDBRANCH   1   7
BRANCH   2  10
ATOM     10  O   UNL     1     129.946 126.322 128.882  1.00  0.00    -0.507 OA
ATOM     11  H   UNL     1     130.331 126.618 127.993  1.00  0.00     0.293 HD
ENDBRANCH   2  10
TORSDOF 2
ENDMDL
MODEL 8
REMARK VINA RESULT:    -5.149      2.460      4.291
REMARK INTER + INTRA:          -5.850
REMARK INTER:                  -5.598
REMARK INTRA:                  -0.252
REMARK UNBOUND:                -0.250
REMARK SMILES O=C([O-])c1ccccc1O
REMARK SMILES IDX 4 1 9 2 5 3 8 4 6 5 7 6 2 7 1 8 3 9 10 10
REMARK H PARENT 10 11
REMARK Flexibility Score: inf
ROOT
ATOM      1  C   UNL     1     130.176 125.036 126.521  1.00  0.00     0.039 A 
ATOM      2  C   UNL     1     130.109 125.928 127.618  1.00  0.00     0.124 A 
ATOM      3  C   UNL     1     130.927 125.407 125.389  1.00  0.00     0.014 A 
ATOM      4  C   UNL     1     130.786 127.157 127.562  1.00  0.00     0.047 A 
ATOM      5  C   UNL     1     131.595 126.633 125.346  1.00  0.00     0.001 A 
ATOM      6  C   UNL     1     131.525 127.507 126.431  1.00  0.00     0.004 A 
ENDROOT
BRANCH   1   7
ATOM      7  C   UNL     1     129.477 123.725 126.532  1.00  0.00     0.075 C 
ATOM      8  O   UNL     1     130.036 122.687 126.090  1.00  0.00    -0.545 OA
ATOM      9  O   UNL     1     128.185 123.625 127.034  1.00  0.00    -0.545 OA
ENDBRANCH   1   7
BRANCH   2  10
ATOM     10  O   UNL     1     129.378 125.603 128.760  1.00  0.00    -0.507 OA
ATOM     11  H   UNL     1     128.483 125.130 128.704  1.00  0.00     0.293 HD
ENDBRANCH   2  10
TORSDOF 2
ENDMDL
MODEL 9
REMARK VINA RESULT:    -5.047      2.463      4.389
REMARK INTER + INTRA:          -5.739
REMARK INTER:                  -5.522
REMARK INTRA:                  -0.217
REMARK UNBOUND:                -0.250
REMARK SMILES O=C([O-])c1ccccc1O
REMARK SMILES IDX 4 1 9 2 5 3 8 4 6 5 7 6 2 7 1 8 3 9 10 10
REMARK H PARENT 10 11
REMARK Flexibility Score: inf
ROOT
ATOM      1  C   UNL     1     129.777 125.920 126.664  1.00  0.00     0.039 A 
ATOM      2  C   UNL     1     129.297 126.074 125.341  1.00  0.00     0.124 A 
ATOM      3  C   UNL     1     131.157 126.065 126.908  1.00  0.00     0.014 A 
ATOM      4  C   UNL     1     130.195 126.367 124.302  1.00  0.00     0.047 A 
ATOM      5  C   UNL     1     132.038 126.357 125.864  1.00  0.00     0.001 A 
ATOM      6  C   UNL     1     131.559 126.508 124.563  1.00  0.00     0.004 A 
ENDROOT
BRANCH   1   7
ATOM      7  C   UNL     1     128.868 125.609 127.797  1.00  0.00     0.075 C 
ATOM      8  O   UNL     1     129.288 125.012 128.822  1.00  0.00    -0.545 OA
ATOM      9  O   UNL     1     127.529 125.976 127.740  1.00  0.00    -0.545 OA
ENDBRANCH   1   7
BRANCH   2  10
ATOM     10  O   UNL     1     127.940 125.939 125.053  1.00  0.00    -0.507 OA
ATOM     11  H   UNL     1     127.319 125.400 125.646  1.00  0.00     0.293 HD
ENDBRANCH   2  10
TORSDOF 2
ENDMDL
