MODEL 1
REMARK VINA RESULT:    -5.958      0.000      0.000
REMARK INTER + INTRA:          -7.734
REMARK INTER:                  -7.351
REMARK INTRA:                  -0.383
REMARK UNBOUND:                -0.383
REMARK SMILES Oc1cc(O)c2cc(O)c(-c3cc(O)c(O)c(O)c3)[o+]c2c1
REMARK SMILES IDX 10 1 20 2 21 3 22 4 2 5 3 6 4 7 6 8 7 9 8 10 11 11 12 12
REMARK SMILES IDX 13 13 19 14 15 15 17 16 14 17 16 19 18 21 9 23 1 25 5 27
REMARK H PARENT 14 18 16 20 18 22 9 24 1 26 5 28
REMARK Flexibility Score: inf
ROOT
ATOM      1  C   UNL     1     174.503 171.733 175.731  1.00  0.00     0.402 A 
ATOM      2  O   UNL     1     174.773 172.168 176.958  1.00  0.00    -0.202 OA
ATOM      3  C   UNL     1     173.838 172.554 177.819  1.00  0.00     0.368 A 
ATOM      4  C   UNL     1     174.221 173.000 179.087  1.00  0.00     0.162 A 
ATOM      5  C   UNL     1     173.261 173.414 180.010  1.00  0.00     0.128 A 
ATOM      6  C   UNL     1     171.905 173.385 179.664  1.00  0.00     0.093 A 
ATOM      7  C   UNL     1     171.494 172.944 178.400  1.00  0.00     0.136 A 
ATOM      8  C   UNL     1     172.468 172.519 177.460  1.00  0.00     0.125 A 
ATOM      9  C   UNL     1     172.149 172.049 176.175  1.00  0.00     0.078 A 
ATOM     10  C   UNL     1     173.165 171.643 175.305  1.00  0.00     0.223 A 
ENDROOT
BRANCH   1  11
ATOM     11  C   UNL     1     175.635 171.340 174.861  1.00  0.00     0.091 A 
ATOM     12  C   UNL     1     176.278 172.272 174.032  1.00  0.00     0.068 A 
ATOM     13  C   UNL     1     177.361 171.884 173.233  1.00  0.00     0.162 A 
ATOM     14  C   UNL     1     176.113 170.023 174.905  1.00  0.00     0.068 A 
ATOM     15  C   UNL     1     177.823 170.561 173.261  1.00  0.00     0.200 A 
ATOM     16  C   UNL     1     177.194 169.622 174.112  1.00  0.00     0.162 A 
BRANCH  13  17
ATOM     17  O   UNL     1     177.990 172.815 172.408  1.00  0.00    -0.504 OA
ATOM     18  H   UNL     1     178.956 172.705 172.122  1.00  0.00     0.293 HD
ENDBRANCH  13  17
BRANCH  15  19
ATOM     19  O   UNL     1     178.902 170.226 172.439  1.00  0.00    -0.502 OA
ATOM     20  H   UNL     1     179.229 170.796 171.674  1.00  0.00     0.293 HD
ENDBRANCH  15  19
BRANCH  16  21
ATOM     21  O   UNL     1     177.606 168.289 174.201  1.00  0.00    -0.504 OA
ATOM     22  H   UNL     1     176.986 167.498 174.105  1.00  0.00     0.293 HD
ENDBRANCH  16  21
ENDBRANCH   1  11
BRANCH  10  23
ATOM     23  O   UNL     1     172.845 171.130 174.048  1.00  0.00    -0.500 OA
ATOM     24  H   UNL     1     173.357 171.401 173.215  1.00  0.00     0.294 HD
ENDBRANCH  10  23
BRANCH   5  25
ATOM     25  O   UNL     1     173.662 173.854 181.268  1.00  0.00    -0.507 OA
ATOM     26  H   UNL     1     173.586 173.262 182.087  1.00  0.00     0.293 HD
ENDBRANCH   5  25
BRANCH   7  27
ATOM     27  O   UNL     1     170.122 172.949 178.131  1.00  0.00    -0.507 OA
ATOM     28  H   UNL     1     169.581 173.780 177.945  1.00  0.00     0.293 HD
ENDBRANCH   7  27
TORSDOF 7
ENDMDL
MODEL 2
REMARK VINA RESULT:    -5.934      3.848      6.818
REMARK INTER + INTRA:          -7.704
REMARK INTER:                  -7.321
REMARK INTRA:                  -0.383
REMARK UNBOUND:                -0.383
REMARK SMILES Oc1cc(O)c2cc(O)c(-c3cc(O)c(O)c(O)c3)[o+]c2c1
REMARK SMILES IDX 10 1 20 2 21 3 22 4 2 5 3 6 4 7 6 8 7 9 8 10 11 11 12 12
REMARK SMILES IDX 13 13 19 14 15 15 17 16 14 17 16 19 18 21 9 23 1 25 5 27
REMARK H PARENT 14 18 16 20 18 22 9 24 1 26 5 28
REMARK Flexibility Score: inf
ROOT
ATOM      1  C   UNL     1     171.869 174.627 175.711  1.00  0.00     0.402 A 
ATOM      2  O   UNL     1     171.581 174.172 176.927  1.00  0.00    -0.202 OA
ATOM      3  C   UNL     1     172.504 173.780 177.798  1.00  0.00     0.368 A 
ATOM      4  C   UNL     1     172.102 173.313 179.052  1.00  0.00     0.162 A 
ATOM      5  C   UNL     1     173.050 172.892 179.986  1.00  0.00     0.128 A 
ATOM      6  C   UNL     1     174.411 172.936 179.664  1.00  0.00     0.093 A 
ATOM      7  C   UNL     1     174.841 173.399 178.414  1.00  0.00     0.136 A 
ATOM      8  C   UNL     1     173.879 173.830 177.463  1.00  0.00     0.125 A 
ATOM      9  C   UNL     1     174.217 174.322 176.191  1.00  0.00     0.078 A 
ATOM     10  C   UNL     1     173.213 174.733 175.309  1.00  0.00     0.223 A 
ENDROOT
BRANCH   1  11
ATOM     11  C   UNL     1     170.749 175.024 174.827  1.00  0.00     0.091 A 
ATOM     12  C   UNL     1     170.130 174.101 173.970  1.00  0.00     0.068 A 
ATOM     13  C   UNL     1     169.058 174.493 173.159  1.00  0.00     0.162 A 
ATOM     14  C   UNL     1     170.257 176.336 174.886  1.00  0.00     0.068 A 
ATOM     15  C   UNL     1     168.582 175.811 173.202  1.00  0.00     0.200 A 
ATOM     16  C   UNL     1     169.186 176.741 174.080  1.00  0.00     0.162 A 
BRANCH  13  17
ATOM     17  O   UNL     1     168.453 173.571 172.306  1.00  0.00    -0.504 OA
ATOM     18  H   UNL     1     167.445 173.503 172.225  1.00  0.00     0.293 HD
ENDBRANCH  13  17
BRANCH  15  19
ATOM     19  O   UNL     1     167.515 176.150 172.366  1.00  0.00    -0.502 OA
ATOM     20  H   UNL     1     167.399 175.801 171.426  1.00  0.00     0.293 HD
ENDBRANCH  15  19
BRANCH  16  21
ATOM     21  O   UNL     1     168.760 178.067 174.185  1.00  0.00    -0.504 OA
ATOM     22  H   UNL     1     168.278 178.566 173.451  1.00  0.00     0.293 HD
ENDBRANCH  16  21
ENDBRANCH   1  11
BRANCH  10  23
ATOM     23  O   UNL     1     173.551 175.267 174.066  1.00  0.00    -0.500 OA
ATOM     24  H   UNL     1     174.244 176.002 173.971  1.00  0.00     0.294 HD
ENDBRANCH  10  23
BRANCH   5  25
ATOM     25  O   UNL     1     172.630 172.431 181.230  1.00  0.00    -0.507 OA
ATOM     26  H   UNL     1     171.687 172.589 181.564  1.00  0.00     0.293 HD
ENDBRANCH   5  25
BRANCH   7  27
ATOM     27  O   UNL     1     176.217 173.408 178.168  1.00  0.00    -0.507 OA
ATOM     28  H   UNL     1     176.907 172.994 178.777  1.00  0.00     0.293 HD
ENDBRANCH   7  27
TORSDOF 7
ENDMDL
MODEL 3
REMARK VINA RESULT:    -5.796      4.938      7.501
REMARK INTER + INTRA:          -7.534
REMARK INTER:                  -7.401
REMARK INTRA:                  -0.132
REMARK UNBOUND:                -0.383
REMARK SMILES Oc1cc(O)c2cc(O)c(-c3cc(O)c(O)c(O)c3)[o+]c2c1
REMARK SMILES IDX 10 1 20 2 21 3 22 4 2 5 3 6 4 7 6 8 7 9 8 10 11 11 12 12
REMARK SMILES IDX 13 13 19 14 15 15 17 16 14 17 16 19 18 21 9 23 1 25 5 27
REMARK H PARENT 14 18 16 20 18 22 9 24 1 26 5 28
REMARK Flexibility Score: inf
ROOT
ATOM      1  C   UNL     1     172.414 176.048 174.963  1.00  0.00     0.402 A 
ATOM      2  O   UNL     1     172.292 175.130 175.916  1.00  0.00    -0.202 OA
ATOM      3  C   UNL     1     173.329 174.604 176.561  1.00  0.00     0.368 A 
ATOM      4  C   UNL     1     173.101 173.641 177.547  1.00  0.00     0.162 A 
ATOM      5  C   UNL     1     174.170 173.070 178.238  1.00  0.00     0.128 A 
ATOM      6  C   UNL     1     175.480 173.463 177.940  1.00  0.00     0.093 A 
ATOM      7  C   UNL     1     175.736 174.426 176.956  1.00  0.00     0.136 A 
ATOM      8  C   UNL     1     174.651 175.010 176.254  1.00  0.00     0.125 A 
ATOM      9  C   UNL     1     174.810 175.992 175.261  1.00  0.00     0.078 A 
ATOM     10  C   UNL     1     173.691 176.525 174.616  1.00  0.00     0.223 A 
ENDROOT
BRANCH   1  11
ATOM     11  C   UNL     1     171.182 176.549 174.311  1.00  0.00     0.091 A 
ATOM     12  C   UNL     1     171.035 176.535 172.915  1.00  0.00     0.068 A 
ATOM     13  C   UNL     1     169.853 176.993 172.321  1.00  0.00     0.162 A 
ATOM     14  C   UNL     1     170.115 176.996 175.104  1.00  0.00     0.068 A 
ATOM     15  C   UNL     1     168.796 177.461 173.115  1.00  0.00     0.200 A 
ATOM     16  C   UNL     1     168.929 177.457 174.523  1.00  0.00     0.162 A 
BRANCH  13  17
ATOM     17  O   UNL     1     169.718 176.982 170.934  1.00  0.00    -0.504 OA
ATOM     18  H   UNL     1     170.170 177.676 170.350  1.00  0.00     0.293 HD
ENDBRANCH  13  17
BRANCH  15  19
ATOM     19  O   UNL     1     167.642 177.914 172.470  1.00  0.00    -0.502 OA
ATOM     20  H   UNL     1     167.119 177.371 171.799  1.00  0.00     0.293 HD
ENDBRANCH  15  19
BRANCH  16  21
ATOM     21  O   UNL     1     167.915 177.898 175.378  1.00  0.00    -0.504 OA
ATOM     22  H   UNL     1     167.660 177.434 176.238  1.00  0.00     0.293 HD
ENDBRANCH  16  21
ENDBRANCH   1  11
BRANCH  10  23
ATOM     23  O   UNL     1     173.847 177.535 173.666  1.00  0.00    -0.500 OA
ATOM     24  H   UNL     1     174.370 178.380 173.867  1.00  0.00     0.294 HD
ENDBRANCH  10  23
BRANCH   5  25
ATOM     25  O   UNL     1     173.922 172.112 179.217  1.00  0.00    -0.507 OA
ATOM     26  H   UNL     1     174.540 171.321 179.355  1.00  0.00     0.293 HD
ENDBRANCH   5  25
BRANCH   7  27
ATOM     27  O   UNL     1     177.072 174.761 176.716  1.00  0.00    -0.507 OA
ATOM     28  H   UNL     1     177.576 174.527 175.872  1.00  0.00     0.293 HD
ENDBRANCH   7  27
TORSDOF 7
ENDMDL
MODEL 4
REMARK VINA RESULT:    -5.788      4.124      6.687
REMARK INTER + INTRA:          -7.524
REMARK INTER:                  -7.144
REMARK INTRA:                  -0.380
REMARK UNBOUND:                -0.383
REMARK SMILES Oc1cc(O)c2cc(O)c(-c3cc(O)c(O)c(O)c3)[o+]c2c1
REMARK SMILES IDX 10 1 20 2 21 3 22 4 2 5 3 6 4 7 6 8 7 9 8 10 11 11 12 12
REMARK SMILES IDX 13 13 19 14 15 15 17 16 14 17 16 19 18 21 9 23 1 25 5 27
REMARK H PARENT 14 18 16 20 18 22 9 24 1 26 5 28
REMARK Flexibility Score: inf
ROOT
ATOM      1  C   UNL     1     171.780 173.645 176.669  1.00  0.00     0.402 A 
ATOM      2  O   UNL     1     171.526 174.868 176.212  1.00  0.00    -0.202 OA
ATOM      3  C   UNL     1     170.860 175.104 175.087  1.00  0.00     0.368 A 
ATOM      4  C   UNL     1     170.645 176.425 174.687  1.00  0.00     0.162 A 
ATOM      5  C   UNL     1     169.951 176.702 173.508  1.00  0.00     0.128 A 
ATOM      6  C   UNL     1     169.469 175.650 172.721  1.00  0.00     0.093 A 
ATOM      7  C   UNL     1     169.672 174.317 173.099  1.00  0.00     0.136 A 
ATOM      8  C   UNL     1     170.375 174.032 174.298  1.00  0.00     0.125 A 
ATOM      9  C   UNL     1     170.613 172.728 174.763  1.00  0.00     0.078 A 
ATOM     10  C   UNL     1     171.310 172.526 175.958  1.00  0.00     0.223 A 
ENDROOT
BRANCH   1  11
ATOM     11  C   UNL     1     172.542 173.513 177.932  1.00  0.00     0.091 A 
ATOM     12  C   UNL     1     171.895 173.477 179.177  1.00  0.00     0.068 A 
ATOM     13  C   UNL     1     172.633 173.328 180.358  1.00  0.00     0.162 A 
ATOM     14  C   UNL     1     173.936 173.363 177.884  1.00  0.00     0.068 A 
ATOM     15  C   UNL     1     174.028 173.203 180.309  1.00  0.00     0.200 A 
ATOM     16  C   UNL     1     174.686 173.215 179.056  1.00  0.00     0.162 A 
BRANCH  13  17
ATOM     17  O   UNL     1     171.983 173.300 181.590  1.00  0.00    -0.504 OA
ATOM     18  H   UNL     1     171.058 173.698 181.713  1.00  0.00     0.293 HD
ENDBRANCH  13  17
BRANCH  15  19
ATOM     19  O   UNL     1     174.717 173.065 181.517  1.00  0.00    -0.502 OA
ATOM     20  H   UNL     1     175.620 173.475 181.704  1.00  0.00     0.293 HD
ENDBRANCH  15  19
BRANCH  16  21
ATOM     21  O   UNL     1     176.071 173.084 178.929  1.00  0.00    -0.504 OA
ATOM     22  H   UNL     1     176.563 173.118 178.048  1.00  0.00     0.293 HD
ENDBRANCH  16  21
ENDBRANCH   1  11
BRANCH  10  23
ATOM     23  O   UNL     1     171.504 171.233 176.444  1.00  0.00    -0.500 OA
ATOM     24  H   UNL     1     172.286 171.002 177.048  1.00  0.00     0.294 HD
ENDBRANCH  10  23
BRANCH   5  25
ATOM     25  O   UNL     1     169.747 178.025 173.127  1.00  0.00    -0.507 OA
ATOM     26  H   UNL     1     170.505 178.698 173.116  1.00  0.00     0.293 HD
ENDBRANCH   5  25
BRANCH   7  27
ATOM     27  O   UNL     1     169.163 173.324 172.256  1.00  0.00    -0.507 OA
ATOM     28  H   UNL     1     168.229 173.326 171.874  1.00  0.00     0.293 HD
ENDBRANCH   7  27
TORSDOF 7
ENDMDL
MODEL 5
REMARK VINA RESULT:    -5.777      4.137      6.627
REMARK INTER + INTRA:          -7.511
REMARK INTER:                  -7.129
REMARK INTRA:                  -0.383
REMARK UNBOUND:                -0.383
REMARK SMILES Oc1cc(O)c2cc(O)c(-c3cc(O)c(O)c(O)c3)[o+]c2c1
REMARK SMILES IDX 10 1 20 2 21 3 22 4 2 5 3 6 4 7 6 8 7 9 8 10 11 11 12 12
REMARK SMILES IDX 13 13 19 14 15 15 17 16 14 17 16 19 18 21 9 23 1 25 5 27
REMARK H PARENT 14 18 16 20 18 22 9 24 1 26 5 28
REMARK Flexibility Score: inf
ROOT
ATOM      1  C   UNL     1     171.781 173.583 176.655  1.00  0.00     0.402 A 
ATOM      2  O   UNL     1     171.498 174.816 176.247  1.00  0.00    -0.202 OA
ATOM      3  C   UNL     1     170.821 175.080 175.134  1.00  0.00     0.368 A 
ATOM      4  C   UNL     1     170.576 176.411 174.785  1.00  0.00     0.162 A 
ATOM      5  C   UNL     1     169.870 176.717 173.621  1.00  0.00     0.128 A 
ATOM      6  C   UNL     1     169.408 175.685 172.796  1.00  0.00     0.093 A 
ATOM      7  C   UNL     1     169.641 174.344 173.122  1.00  0.00     0.136 A 
ATOM      8  C   UNL     1     170.355 174.029 174.307  1.00  0.00     0.125 A 
ATOM      9  C   UNL     1     170.625 172.713 174.720  1.00  0.00     0.078 A 
ATOM     10  C   UNL     1     171.331 172.481 175.904  1.00  0.00     0.223 A 
ENDROOT
BRANCH   1  11
ATOM     11  C   UNL     1     172.551 173.419 177.909  1.00  0.00     0.091 A 
ATOM     12  C   UNL     1     173.949 173.289 177.898  1.00  0.00     0.068 A 
ATOM     13  C   UNL     1     174.660 173.157 179.097  1.00  0.00     0.162 A 
ATOM     14  C   UNL     1     171.880 173.450 179.140  1.00  0.00     0.068 A 
ATOM     15  C   UNL     1     173.984 173.165 180.325  1.00  0.00     0.200 A 
ATOM     16  C   UNL     1     172.578 173.319 180.346  1.00  0.00     0.162 A 
BRANCH  13  17
ATOM     17  O   UNL     1     176.047 173.022 179.076  1.00  0.00    -0.504 OA
ATOM     18  H   UNL     1     176.657 173.743 179.445  1.00  0.00     0.293 HD
ENDBRANCH  13  17
BRANCH  15  19
ATOM     19  O   UNL     1     174.741 173.023 181.491  1.00  0.00    -0.502 OA
ATOM     20  H   UNL     1     174.690 172.224 182.106  1.00  0.00     0.293 HD
ENDBRANCH  15  19
BRANCH  16  21
ATOM     21  O   UNL     1     171.838 173.347 181.531  1.00  0.00    -0.504 OA
ATOM     22  H   UNL     1     172.180 173.008 182.419  1.00  0.00     0.293 HD
ENDBRANCH  16  21
ENDBRANCH   1  11
BRANCH  10  23
ATOM     23  O   UNL     1     171.555 171.175 176.340  1.00  0.00    -0.500 OA
ATOM     24  H   UNL     1     170.804 170.598 176.701  1.00  0.00     0.294 HD
ENDBRANCH  10  23
BRANCH   5  25
ATOM     25  O   UNL     1     169.635 178.049 173.291  1.00  0.00    -0.507 OA
ATOM     26  H   UNL     1     169.700 178.378 172.336  1.00  0.00     0.293 HD
ENDBRANCH   5  25
BRANCH   7  27
ATOM     27  O   UNL     1     169.149 173.373 172.244  1.00  0.00    -0.507 OA
ATOM     28  H   UNL     1     168.227 172.966 172.303  1.00  0.00     0.293 HD
ENDBRANCH   7  27
TORSDOF 7
ENDMDL
MODEL 6
REMARK VINA RESULT:    -5.759      1.350      7.257
REMARK INTER + INTRA:          -7.489
REMARK INTER:                  -7.114
REMARK INTRA:                  -0.374
REMARK UNBOUND:                -0.383
REMARK SMILES Oc1cc(O)c2cc(O)c(-c3cc(O)c(O)c(O)c3)[o+]c2c1
REMARK SMILES IDX 10 1 20 2 21 3 22 4 2 5 3 6 4 7 6 8 7 9 8 10 11 11 12 12
REMARK SMILES IDX 13 13 19 14 15 15 17 16 14 17 16 19 18 21 9 23 1 25 5 27
REMARK H PARENT 14 18 16 20 18 22 9 24 1 26 5 28
REMARK Flexibility Score: inf
ROOT
ATOM      1  C   UNL     1     174.574 172.618 176.733  1.00  0.00     0.402 A 
ATOM      2  O   UNL     1     174.720 171.388 176.251  1.00  0.00    -0.202 OA
ATOM      3  C   UNL     1     175.396 171.114 175.140  1.00  0.00     0.368 A 
ATOM      4  C   UNL     1     175.491 169.787 174.710  1.00  0.00     0.162 A 
ATOM      5  C   UNL     1     176.192 169.471 173.546  1.00  0.00     0.128 A 
ATOM      6  C   UNL     1     176.802 170.488 172.803  1.00  0.00     0.093 A 
ATOM      7  C   UNL     1     176.720 171.825 173.210  1.00  0.00     0.136 A 
ATOM      8  C   UNL     1     176.011 172.150 174.396  1.00  0.00     0.125 A 
ATOM      9  C   UNL     1     175.887 173.460 174.889  1.00  0.00     0.078 A 
ATOM     10  C   UNL     1     175.176 173.701 176.067  1.00  0.00     0.223 A 
ENDROOT
BRANCH   1  11
ATOM     11  C   UNL     1     173.788 172.795 177.976  1.00  0.00     0.091 A 
ATOM     12  C   UNL     1     174.408 172.825 179.235  1.00  0.00     0.068 A 
ATOM     13  C   UNL     1     173.648 173.017 180.396  1.00  0.00     0.162 A 
ATOM     14  C   UNL     1     172.403 172.994 177.893  1.00  0.00     0.068 A 
ATOM     15  C   UNL     1     172.260 173.192 180.313  1.00  0.00     0.200 A 
ATOM     16  C   UNL     1     171.632 173.185 179.045  1.00  0.00     0.162 A 
BRANCH  13  17
ATOM     17  O   UNL     1     174.271 173.039 181.643  1.00  0.00    -0.504 OA
ATOM     18  H   UNL     1     175.267 172.884 181.743  1.00  0.00     0.293 HD
ENDBRANCH  13  17
BRANCH  15  19
ATOM     19  O   UNL     1     171.549 173.371 181.502  1.00  0.00    -0.502 OA
ATOM     20  H   UNL     1     171.737 174.105 182.169  1.00  0.00     0.293 HD
ENDBRANCH  15  19
BRANCH  16  21
ATOM     21  O   UNL     1     170.255 173.364 178.884  1.00  0.00    -0.504 OA
ATOM     22  H   UNL     1     169.842 174.010 178.227  1.00  0.00     0.293 HD
ENDBRANCH  16  21
ENDBRANCH   1  11
BRANCH  10  23
ATOM     23  O   UNL     1     175.096 174.995 176.583  1.00  0.00    -0.500 OA
ATOM     24  H   UNL     1     174.517 175.213 177.387  1.00  0.00     0.294 HD
ENDBRANCH  10  23
BRANCH   5  25
ATOM     25  O   UNL     1     176.277 168.144 173.135  1.00  0.00    -0.507 OA
ATOM     26  H   UNL     1     175.483 167.663 172.727  1.00  0.00     0.293 HD
ENDBRANCH   5  25
BRANCH   7  27
ATOM     27  O   UNL     1     177.353 172.782 172.411  1.00  0.00    -0.507 OA
ATOM     28  H   UNL     1     178.349 172.827 172.257  1.00  0.00     0.293 HD
ENDBRANCH   7  27
TORSDOF 7
ENDMDL
MODEL 7
REMARK VINA RESULT:    -5.748      3.547      4.785
REMARK INTER + INTRA:          -7.475
REMARK INTER:                  -7.100
REMARK INTRA:                  -0.375
REMARK UNBOUND:                -0.383
REMARK SMILES Oc1cc(O)c2cc(O)c(-c3cc(O)c(O)c(O)c3)[o+]c2c1
REMARK SMILES IDX 10 1 20 2 21 3 22 4 2 5 3 6 4 7 6 8 7 9 8 10 11 11 12 12
REMARK SMILES IDX 13 13 19 14 15 15 17 16 14 17 16 19 18 21 9 23 1 25 5 27
REMARK H PARENT 14 18 16 20 18 22 9 24 1 26 5 28
REMARK Flexibility Score: inf
ROOT
ATOM      1  C   UNL     1     173.967 174.315 176.408  1.00  0.00     0.402 A 
ATOM      2  O   UNL     1     172.957 174.254 177.271  1.00  0.00    -0.202 OA
ATOM      3  C   UNL     1     173.095 173.848 178.529  1.00  0.00     0.368 A 
ATOM      4  C   UNL     1     171.972 173.815 179.360  1.00  0.00     0.162 A 
ATOM      5  C   UNL     1     172.087 173.391 180.685  1.00  0.00     0.128 A 
ATOM      6  C   UNL     1     173.333 172.993 181.182  1.00  0.00     0.093 A 
ATOM      7  C   UNL     1     174.473 173.015 180.370  1.00  0.00     0.136 A 
ATOM      8  C   UNL     1     174.361 173.450 179.024  1.00  0.00     0.125 A 
ATOM      9  C   UNL     1     175.451 173.518 178.140  1.00  0.00     0.078 A 
ATOM     10  C   UNL     1     175.262 173.961 176.827  1.00  0.00     0.223 A 
ENDROOT
BRANCH   1  11
ATOM     11  C   UNL     1     173.684 174.775 175.029  1.00  0.00     0.091 A 
ATOM     12  C   UNL     1     173.835 176.121 174.661  1.00  0.00     0.068 A 
ATOM     13  C   UNL     1     173.583 176.531 173.346  1.00  0.00     0.162 A 
ATOM     14  C   UNL     1     173.311 173.840 174.053  1.00  0.00     0.068 A 
ATOM     15  C   UNL     1     173.188 175.598 172.377  1.00  0.00     0.200 A 
ATOM     16  C   UNL     1     173.055 174.235 172.735  1.00  0.00     0.162 A 
BRANCH  13  17
ATOM     17  O   UNL     1     173.729 177.871 172.991  1.00  0.00    -0.504 OA
ATOM     18  H   UNL     1     173.507 178.619 173.637  1.00  0.00     0.293 HD
ENDBRANCH  13  17
BRANCH  15  19
ATOM     19  O   UNL     1     172.942 176.061 171.082  1.00  0.00    -0.502 OA
ATOM     20  H   UNL     1     172.792 177.031 170.847  1.00  0.00     0.293 HD
ENDBRANCH  15  19
BRANCH  16  21
ATOM     21  O   UNL     1     172.676 173.248 171.822  1.00  0.00    -0.504 OA
ATOM     22  H   UNL     1     172.872 173.288 170.832  1.00  0.00     0.293 HD
ENDBRANCH  16  21
ENDBRANCH   1  11
BRANCH  10  23
ATOM     23  O   UNL     1     176.353 174.076 175.965  1.00  0.00    -0.500 OA
ATOM     24  H   UNL     1     176.237 174.339 174.992  1.00  0.00     0.294 HD
ENDBRANCH  10  23
BRANCH   5  25
ATOM     25  O   UNL     1     170.958 173.366 181.498  1.00  0.00    -0.507 OA
ATOM     26  H   UNL     1     170.932 172.824 182.354  1.00  0.00     0.293 HD
ENDBRANCH   5  25
BRANCH   7  27
ATOM     27  O   UNL     1     175.680 172.599 180.941  1.00  0.00    -0.507 OA
ATOM     28  H   UNL     1     175.839 171.682 181.332  1.00  0.00     0.293 HD
ENDBRANCH   7  27
TORSDOF 7
ENDMDL
MODEL 8
REMARK VINA RESULT:    -5.730      1.347      7.185
REMARK INTER + INTRA:          -7.454
REMARK INTER:                  -7.070
REMARK INTRA:                  -0.383
REMARK UNBOUND:                -0.383
REMARK SMILES Oc1cc(O)c2cc(O)c(-c3cc(O)c(O)c(O)c3)[o+]c2c1
REMARK SMILES IDX 10 1 20 2 21 3 22 4 2 5 3 6 4 7 6 8 7 9 8 10 11 11 12 12
REMARK SMILES IDX 13 13 19 14 15 15 17 16 14 17 16 19 18 21 9 23 1 25 5 27
REMARK H PARENT 14 18 16 20 18 22 9 24 1 26 5 28
REMARK Flexibility Score: inf
ROOT
ATOM      1  C   UNL     1     174.611 172.808 176.665  1.00  0.00     0.402 A 
ATOM      2  O   UNL     1     174.893 171.576 176.254  1.00  0.00    -0.202 OA
ATOM      3  C   UNL     1     175.566 171.314 175.138  1.00  0.00     0.368 A 
ATOM      4  C   UNL     1     175.811 169.983 174.787  1.00  0.00     0.162 A 
ATOM      5  C   UNL     1     176.512 169.679 173.620  1.00  0.00     0.128 A 
ATOM      6  C   UNL     1     176.971 170.711 172.795  1.00  0.00     0.093 A 
ATOM      7  C   UNL     1     176.738 172.053 173.123  1.00  0.00     0.136 A 
ATOM      8  C   UNL     1     176.028 172.366 174.311  1.00  0.00     0.125 A 
ATOM      9  C   UNL     1     175.760 173.681 174.727  1.00  0.00     0.078 A 
ATOM     10  C   UNL     1     175.057 173.911 175.913  1.00  0.00     0.223 A 
ENDROOT
BRANCH   1  11
ATOM     11  C   UNL     1     173.845 172.970 177.922  1.00  0.00     0.091 A 
ATOM     12  C   UNL     1     172.446 173.089 177.917  1.00  0.00     0.068 A 
ATOM     13  C   UNL     1     171.740 173.218 179.119  1.00  0.00     0.162 A 
ATOM     14  C   UNL     1     174.522 172.949 179.150  1.00  0.00     0.068 A 
ATOM     15  C   UNL     1     172.421 173.221 180.344  1.00  0.00     0.200 A 
ATOM     16  C   UNL     1     173.828 173.079 180.358  1.00  0.00     0.162 A 
BRANCH  13  17
ATOM     17  O   UNL     1     170.351 173.342 179.104  1.00  0.00    -0.504 OA
ATOM     18  H   UNL     1     169.784 172.878 178.404  1.00  0.00     0.293 HD
ENDBRANCH  13  17
BRANCH  15  19
ATOM     19  O   UNL     1     171.668 173.361 181.513  1.00  0.00    -0.502 OA
ATOM     20  H   UNL     1     170.831 173.920 181.583  1.00  0.00     0.293 HD
ENDBRANCH  15  19
BRANCH  16  21
ATOM     21  O   UNL     1     174.573 173.061 181.540  1.00  0.00    -0.504 OA
ATOM     22  H   UNL     1     175.100 173.849 181.888  1.00  0.00     0.293 HD
ENDBRANCH  16  21
ENDBRANCH   1  11
BRANCH  10  23
ATOM     23  O   UNL     1     174.834 175.216 176.352  1.00  0.00    -0.500 OA
ATOM     24  H   UNL     1     174.031 175.457 176.923  1.00  0.00     0.294 HD
ENDBRANCH  10  23
BRANCH   5  25
ATOM     25  O   UNL     1     176.746 168.348 173.288  1.00  0.00    -0.507 OA
ATOM     26  H   UNL     1     177.531 167.834 173.673  1.00  0.00     0.293 HD
ENDBRANCH   5  25
BRANCH   7  27
ATOM     27  O   UNL     1     177.227 173.025 172.245  1.00  0.00    -0.507 OA
ATOM     28  H   UNL     1     176.944 173.994 172.254  1.00  0.00     0.293 HD
ENDBRANCH   7  27
TORSDOF 7
ENDMDL
MODEL 9
REMARK VINA RESULT:    -5.606      7.062     10.137
REMARK INTER + INTRA:          -7.300
REMARK INTER:                  -6.932
REMARK INTRA:                  -0.368
REMARK UNBOUND:                -0.383
REMARK SMILES Oc1cc(O)c2cc(O)c(-c3cc(O)c(O)c(O)c3)[o+]c2c1
REMARK SMILES IDX 10 1 20 2 21 3 22 4 2 5 3 6 4 7 6 8 7 9 8 10 11 11 12 12
REMARK SMILES IDX 13 13 19 14 15 15 17 16 14 17 16 19 18 21 9 23 1 25 5 27
REMARK H PARENT 14 18 16 20 18 22 9 24 1 26 5 28
REMARK Flexibility Score: inf
ROOT
ATOM      1  C   UNL     1     168.612 176.804 173.386  1.00  0.00     0.402 A 
ATOM      2  O   UNL     1     169.187 176.008 174.281  1.00  0.00    -0.202 OA
ATOM      3  C   UNL     1     170.485 176.046 174.566  1.00  0.00     0.368 A 
ATOM      4  C   UNL     1     170.999 175.165 175.522  1.00  0.00     0.162 A 
ATOM      5  C   UNL     1     172.357 175.182 175.838  1.00  0.00     0.128 A 
ATOM      6  C   UNL     1     173.211 176.084 175.194  1.00  0.00     0.093 A 
ATOM      7  C   UNL     1     172.722 176.976 174.232  1.00  0.00     0.136 A 
ATOM      8  C   UNL     1     171.340 176.964 173.910  1.00  0.00     0.125 A 
ATOM      9  C   UNL     1     170.758 177.831 172.969  1.00  0.00     0.078 A 
ATOM     10  C   UNL     1     169.387 177.763 172.708  1.00  0.00     0.223 A 
ENDROOT
BRANCH   1  11
ATOM     11  C   UNL     1     167.157 176.657 173.150  1.00  0.00     0.091 A 
ATOM     12  C   UNL     1     166.652 175.683 172.275  1.00  0.00     0.068 A 
ATOM     13  C   UNL     1     165.271 175.547 172.084  1.00  0.00     0.162 A 
ATOM     14  C   UNL     1     166.259 177.470 173.856  1.00  0.00     0.068 A 
ATOM     15  C   UNL     1     164.376 176.377 172.773  1.00  0.00     0.200 A 
ATOM     16  C   UNL     1     164.877 177.346 173.674  1.00  0.00     0.162 A 
BRANCH  13  17
ATOM     17  O   UNL     1     164.779 174.581 171.208  1.00  0.00    -0.504 OA
ATOM     18  H   UNL     1     163.794 174.529 170.973  1.00  0.00     0.293 HD
ENDBRANCH  13  17
BRANCH  15  19
ATOM     19  O   UNL     1     163.009 176.204 172.539  1.00  0.00    -0.502 OA
ATOM     20  H   UNL     1     162.611 175.398 172.081  1.00  0.00     0.293 HD
ENDBRANCH  15  19
BRANCH  16  21
ATOM     21  O   UNL     1     164.045 178.200 174.403  1.00  0.00    -0.504 OA
ATOM     22  H   UNL     1     163.785 179.128 174.102  1.00  0.00     0.293 HD
ENDBRANCH  16  21
ENDBRANCH   1  11
BRANCH  10  23
ATOM     23  O   UNL     1     168.801 178.656 171.811  1.00  0.00    -0.500 OA
ATOM     24  H   UNL     1     169.337 179.392 171.364  1.00  0.00     0.294 HD
ENDBRANCH  10  23
BRANCH   5  25
ATOM     25  O   UNL     1     172.850 174.297 176.793  1.00  0.00    -0.507 OA
ATOM     26  H   UNL     1     173.465 173.532 176.541  1.00  0.00     0.293 HD
ENDBRANCH   5  25
BRANCH   7  27
ATOM     27  O   UNL     1     173.640 177.843 173.632  1.00  0.00    -0.507 OA
ATOM     28  H   UNL     1     174.523 177.554 173.237  1.00  0.00     0.293 HD
ENDBRANCH   7  27
TORSDOF 7
ENDMDL
