MODEL 1
REMARK VINA RESULT:    -3.429      0.000      0.000
REMARK INTER + INTRA:          -4.598
REMARK INTER:                  -4.431
REMARK INTRA:                  -0.167
REMARK UNBOUND:                -0.167
REMARK SMILES CCCCCCC(=O)[O-]
REMARK SMILES IDX 5 1 6 2 7 3 8 4 9 5 4 6 3 7 2 8 1 9
REMARK H PARENT
REMARK Flexibility Score: inf
ROOT
ATOM      1  C   UNL     1      32.515 144.833 107.917  1.00  0.00     0.006 C 
ENDROOT
BRANCH   1   2
ATOM      2  C   UNL     1      32.850 144.939 109.410  1.00  0.00     0.053 C 
BRANCH   2   3
ATOM      3  C   UNL     1      34.330 144.877 109.618  1.00  0.00     0.041 C 
ATOM      4  O   UNL     1      34.887 145.646 110.447  1.00  0.00    -0.550 OA
ATOM      5  O   UNL     1      35.090 143.937 108.935  1.00  0.00    -0.550 OA
ENDBRANCH   2   3
ENDBRANCH   1   2
BRANCH   1   6
ATOM      6  C   UNL     1      32.036 143.429 107.515  1.00  0.00     0.000 C 
BRANCH   6   7
ATOM      7  C   UNL     1      32.901 142.802 106.412  1.00  0.00    -0.000 C 
BRANCH   7   8
ATOM      8  C   UNL     1      32.030 142.270 105.268  1.00  0.00    -0.003 C 
ATOM      9  C   UNL     1      30.643 141.875 105.767  1.00  0.00     0.004 C 
ENDBRANCH   7   8
ENDBRANCH   6   7
ENDBRANCH   1   6
TORSDOF 5
ENDMDL
MODEL 2
REMARK VINA RESULT:    -3.341      3.076      5.131
REMARK INTER + INTRA:          -4.485
REMARK INTER:                  -4.313
REMARK INTRA:                  -0.172
REMARK UNBOUND:                -0.167
REMARK SMILES CCCCCCC(=O)[O-]
REMARK SMILES IDX 5 1 6 2 7 3 8 4 9 5 4 6 3 7 2 8 1 9
REMARK H PARENT
REMARK Flexibility Score: inf
ROOT
ATOM      1  C   UNL     1      32.776 143.536 107.124  1.00  0.00     0.006 C 
ENDROOT
BRANCH   1   2
ATOM      2  C   UNL     1      31.641 142.504 107.103  1.00  0.00     0.053 C 
BRANCH   2   3
ATOM      3  C   UNL     1      31.290 142.144 105.694  1.00  0.00     0.041 C 
ATOM      4  O   UNL     1      32.199 141.875 104.863  1.00  0.00    -0.550 OA
ATOM      5  O   UNL     1      29.958 142.055 105.309  1.00  0.00    -0.550 OA
ENDBRANCH   2   3
ENDBRANCH   1   2
BRANCH   1   6
ATOM      6  C   UNL     1      32.340 144.883 107.722  1.00  0.00     0.000 C 
BRANCH   6   7
ATOM      7  C   UNL     1      32.778 145.051 109.185  1.00  0.00    -0.000 C 
BRANCH   7   8
ATOM      8  C   UNL     1      34.216 144.558 109.386  1.00  0.00    -0.003 C 
ATOM      9  C   UNL     1      35.081 145.630 110.042  1.00  0.00     0.004 C 
ENDBRANCH   7   8
ENDBRANCH   6   7
ENDBRANCH   1   6
TORSDOF 5
ENDMDL
MODEL 3
REMARK VINA RESULT:    -3.106     18.256     18.992
REMARK INTER + INTRA:          -4.181
REMARK INTER:                  -3.976
REMARK INTRA:                  -0.204
REMARK UNBOUND:                -0.167
REMARK SMILES CCCCCCC(=O)[O-]
REMARK SMILES IDX 5 1 6 2 7 3 8 4 9 5 4 6 3 7 2 8 1 9
REMARK H PARENT
REMARK Flexibility Score: inf
ROOT
ATOM      1  C   UNL     1      25.600 157.347 117.823  1.00  0.00     0.006 C 
ENDROOT
BRANCH   1   2
ATOM      2  C   UNL     1      25.505 157.289 119.354  1.00  0.00     0.053 C 
BRANCH   2   3
ATOM      3  C   UNL     1      26.325 156.157 119.885  1.00  0.00     0.041 C 
ATOM      4  O   UNL     1      27.147 156.353 120.820  1.00  0.00    -0.550 OA
ATOM      5  O   UNL     1      26.147 154.874 119.384  1.00  0.00    -0.550 OA
ENDBRANCH   2   3
ENDBRANCH   1   2
BRANCH   1   6
ATOM      6  C   UNL     1      25.973 158.745 117.306  1.00  0.00     0.000 C 
BRANCH   6   7
ATOM      7  C   UNL     1      27.051 159.425 118.164  1.00  0.00    -0.000 C 
BRANCH   7   8
ATOM      8  C   UNL     1      28.013 160.240 117.291  1.00  0.00    -0.003 C 
ATOM      9  C   UNL     1      27.522 160.316 115.849  1.00  0.00     0.004 C 
ENDBRANCH   7   8
ENDBRANCH   6   7
ENDBRANCH   1   6
TORSDOF 5
ENDMDL
MODEL 4
REMARK VINA RESULT:    -3.035     18.176     19.244
REMARK INTER + INTRA:          -4.089
REMARK INTER:                  -3.904
REMARK INTRA:                  -0.186
REMARK UNBOUND:                -0.167
REMARK SMILES CCCCCCC(=O)[O-]
REMARK SMILES IDX 5 1 6 2 7 3 8 4 9 5 4 6 3 7 2 8 1 9
REMARK H PARENT
REMARK Flexibility Score: inf
ROOT
ATOM      1  C   UNL     1      26.634 159.146 118.556  1.00  0.00     0.006 C 
ENDROOT
BRANCH   1   2
ATOM      2  C   UNL     1      25.976 159.042 117.174  1.00  0.00     0.053 C 
BRANCH   2   3
ATOM      3  C   UNL     1      26.725 159.866 116.176  1.00  0.00     0.041 C 
ATOM      4  O   UNL     1      27.001 159.391 115.042  1.00  0.00    -0.550 OA
ATOM      5  O   UNL     1      27.077 161.175 116.477  1.00  0.00    -0.550 OA
ENDBRANCH   2   3
ENDBRANCH   1   2
BRANCH   1   6
ATOM      6  C   UNL     1      26.138 158.067 119.531  1.00  0.00     0.000 C 
BRANCH   6   7
ATOM      7  C   UNL     1      25.653 156.799 118.813  1.00  0.00    -0.000 C 
BRANCH   7   8
ATOM      8  C   UNL     1      26.074 155.539 119.579  1.00  0.00    -0.003 C 
ATOM      9  C   UNL     1      26.462 155.871 121.017  1.00  0.00     0.004 C 
ENDBRANCH   7   8
ENDBRANCH   6   7
ENDBRANCH   1   6
TORSDOF 5
ENDMDL
MODEL 5
REMARK VINA RESULT:    -2.861     17.755     19.267
REMARK INTER + INTRA:          -3.864
REMARK INTER:                  -3.693
REMARK INTRA:                  -0.171
REMARK UNBOUND:                -0.167
REMARK SMILES CCCCCCC(=O)[O-]
REMARK SMILES IDX 5 1 6 2 7 3 8 4 9 5 4 6 3 7 2 8 1 9
REMARK H PARENT
REMARK Flexibility Score: inf
ROOT
ATOM      1  C   UNL     1      28.195 157.579 121.688  1.00  0.00     0.006 C 
ENDROOT
BRANCH   1   2
ATOM      2  C   UNL     1      29.504 156.818 121.935  1.00  0.00     0.053 C 
BRANCH   2   3
ATOM      3  C   UNL     1      30.679 157.662 121.553  1.00  0.00     0.041 C 
ATOM      4  O   UNL     1      31.618 157.170 120.873  1.00  0.00    -0.550 OA
ATOM      5  O   UNL     1      30.714 159.006 121.905  1.00  0.00    -0.550 OA
ENDBRANCH   2   3
ENDBRANCH   1   2
BRANCH   1   6
ATOM      6  C   UNL     1      26.997 156.642 121.468  1.00  0.00     0.000 C 
BRANCH   6   7
ATOM      7  C   UNL     1      25.902 157.275 120.597  1.00  0.00    -0.000 C 
BRANCH   7   8
ATOM      8  C   UNL     1      25.661 156.444 119.331  1.00  0.00    -0.003 C 
ATOM      9  C   UNL     1      26.140 155.008 119.512  1.00  0.00     0.004 C 
ENDBRANCH   7   8
ENDBRANCH   6   7
ENDBRANCH   1   6
TORSDOF 5
ENDMDL
MODEL 6
REMARK VINA RESULT:    -2.852     20.425     21.414
REMARK INTER + INTRA:          -3.853
REMARK INTER:                  -3.521
REMARK INTRA:                  -0.331
REMARK UNBOUND:                -0.167
REMARK SMILES CCCCCCC(=O)[O-]
REMARK SMILES IDX 5 1 6 2 7 3 8 4 9 5 4 6 3 7 2 8 1 9
REMARK H PARENT
REMARK Flexibility Score: inf
ROOT
ATOM      1  C   UNL     1      44.213 158.819 116.023  1.00  0.00     0.006 C 
ENDROOT
BRANCH   1   2
ATOM      2  C   UNL     1      45.018 159.626 117.050  1.00  0.00     0.053 C 
BRANCH   2   3
ATOM      3  C   UNL     1      44.802 159.083 118.427  1.00  0.00     0.041 C 
ATOM      4  O   UNL     1      45.125 157.896 118.698  1.00  0.00    -0.550 OA
ATOM      5  O   UNL     1      44.289 159.902 119.425  1.00  0.00    -0.550 OA
ENDBRANCH   2   3
ENDBRANCH   1   2
BRANCH   1   6
ATOM      6  C   UNL     1      42.875 159.484 115.665  1.00  0.00     0.000 C 
BRANCH   6   7
ATOM      7  C   UNL     1      42.929 161.016 115.770  1.00  0.00    -0.000 C 
BRANCH   7   8
ATOM      8  C   UNL     1      41.593 161.579 116.267  1.00  0.00    -0.003 C 
ATOM      9  C   UNL     1      41.022 160.729 117.398  1.00  0.00     0.004 C 
ENDBRANCH   7   8
ENDBRANCH   6   7
ENDBRANCH   1   6
TORSDOF 5
ENDMDL
MODEL 7
REMARK VINA RESULT:    -2.833     20.581     21.239
REMARK INTER + INTRA:          -3.827
REMARK INTER:                  -3.693
REMARK INTRA:                  -0.134
REMARK UNBOUND:                -0.167
REMARK SMILES CCCCCCC(=O)[O-]
REMARK SMILES IDX 5 1 6 2 7 3 8 4 9 5 4 6 3 7 2 8 1 9
REMARK H PARENT
REMARK Flexibility Score: inf
ROOT
ATOM      1  C   UNL     1      42.652 159.939 115.750  1.00  0.00     0.006 C 
ENDROOT
BRANCH   1   2
ATOM      2  C   UNL     1      41.793 161.151 116.131  1.00  0.00     0.053 C 
BRANCH   2   3
ATOM      3  C   UNL     1      41.523 161.157 117.603  1.00  0.00     0.041 C 
ATOM      4  O   UNL     1      40.339 161.090 118.030  1.00  0.00    -0.550 OA
ATOM      5  O   UNL     1      42.579 161.187 118.504  1.00  0.00    -0.550 OA
ENDBRANCH   2   3
ENDBRANCH   1   2
BRANCH   1   6
ATOM      6  C   UNL     1      43.947 160.336 115.025  1.00  0.00     0.000 C 
BRANCH   6   7
ATOM      7  C   UNL     1      45.071 159.306 115.215  1.00  0.00    -0.000 C 
BRANCH   7   8
ATOM      8  C   UNL     1      44.609 158.148 116.107  1.00  0.00    -0.003 C 
ATOM      9  C   UNL     1      45.125 158.309 117.534  1.00  0.00     0.004 C 
ENDBRANCH   7   8
ENDBRANCH   6   7
ENDBRANCH   1   6
TORSDOF 5
ENDMDL
MODEL 8
REMARK VINA RESULT:    -2.788     19.198     19.927
REMARK INTER + INTRA:          -3.769
REMARK INTER:                  -3.642
REMARK INTRA:                  -0.128
REMARK UNBOUND:                -0.167
REMARK SMILES CCCCCCC(=O)[O-]
REMARK SMILES IDX 5 1 6 2 7 3 8 4 9 5 4 6 3 7 2 8 1 9
REMARK H PARENT
REMARK Flexibility Score: inf
ROOT
ATOM      1  C   UNL     1      28.197 160.584 117.795  1.00  0.00     0.006 C 
ENDROOT
BRANCH   1   2
ATOM      2  C   UNL     1      27.355 160.148 116.589  1.00  0.00     0.053 C 
BRANCH   2   3
ATOM      3  C   UNL     1      26.041 159.594 117.043  1.00  0.00     0.041 C 
ATOM      4  O   UNL     1      25.887 158.349 117.166  1.00  0.00    -0.550 OA
ATOM      5  O   UNL     1      25.002 160.453 117.378  1.00  0.00    -0.550 OA
ENDBRANCH   2   3
ENDBRANCH   1   2
BRANCH   1   6
ATOM      6  C   UNL     1      29.673 160.174 117.665  1.00  0.00     0.000 C 
BRANCH   6   7
ATOM      7  C   UNL     1      30.377 160.062 119.025  1.00  0.00    -0.000 C 
BRANCH   7   8
ATOM      8  C   UNL     1      31.885 159.845 118.846  1.00  0.00    -0.003 C 
ATOM      9  C   UNL     1      32.339 160.252 117.448  1.00  0.00     0.004 C 
ENDBRANCH   7   8
ENDBRANCH   6   7
ENDBRANCH   1   6
TORSDOF 5
ENDMDL
MODEL 9
REMARK VINA RESULT:    -2.777     19.103     19.358
REMARK INTER + INTRA:          -3.756
REMARK INTER:                  -3.572
REMARK INTRA:                  -0.184
REMARK UNBOUND:                -0.167
REMARK SMILES CCCCCCC(=O)[O-]
REMARK SMILES IDX 5 1 6 2 7 3 8 4 9 5 4 6 3 7 2 8 1 9
REMARK H PARENT
REMARK Flexibility Score: inf
ROOT
ATOM      1  C   UNL     1      29.852 160.206 117.647  1.00  0.00     0.006 C 
ENDROOT
BRANCH   1   2
ATOM      2  C   UNL     1      30.527 160.076 119.019  1.00  0.00     0.053 C 
BRANCH   2   3
ATOM      3  C   UNL     1      31.990 159.809 118.858  1.00  0.00     0.041 C 
ATOM      4  O   UNL     1      32.688 159.483 119.854  1.00  0.00    -0.550 OA
ATOM      5  O   UNL     1      32.574 159.872 117.599  1.00  0.00    -0.550 OA
ENDBRANCH   2   3
ENDBRANCH   1   2
BRANCH   1   6
ATOM      6  C   UNL     1      28.375 160.616 117.750  1.00  0.00     0.000 C 
BRANCH   6   7
ATOM      7  C   UNL     1      27.556 160.191 116.522  1.00  0.00    -0.000 C 
BRANCH   7   8
ATOM      8  C   UNL     1      26.268 159.475 116.944  1.00  0.00    -0.003 C 
ATOM      9  C   UNL     1      26.428 158.805 118.305  1.00  0.00     0.004 C 
ENDBRANCH   7   8
ENDBRANCH   6   7
ENDBRANCH   1   6
TORSDOF 5
ENDMDL
