MODEL 1
REMARK VINA RESULT:    -3.964      0.000      0.000
REMARK INTER + INTRA:          -4.637
REMARK INTER:                  -4.544
REMARK INTRA:                  -0.093
REMARK UNBOUND:                -0.093
REMARK SMILES C=Cc1ccc(O)c(OC)c1
REMARK SMILES IDX 8 1 6 2 5 3 4 4 3 5 11 6 9 7 10 8 7 9 2 11 1 12
REMARK H PARENT 7 10
REMARK Flexibility Score: inf
ROOT
ATOM      1  C   UNL     1      27.973  35.490  21.297  1.00  0.00     0.161 A 
ATOM      2  C   UNL     1      27.370  36.241  22.323  1.00  0.00     0.157 A 
ATOM      3  C   UNL     1      27.261  35.707  23.608  1.00  0.00     0.051 A 
ATOM      4  C   UNL     1      27.753  34.432  23.889  1.00  0.00     0.012 A 
ATOM      5  C   UNL     1      28.373  33.670  22.889  1.00  0.00    -0.022 A 
ATOM      6  C   UNL     1      28.470  34.202  21.587  1.00  0.00     0.058 A 
ENDROOT
BRANCH   1   7
ATOM      7  O   UNL     1      28.059  36.050  20.012  1.00  0.00    -0.493 OA
ATOM      8  C   UNL     1      29.125  36.880  19.560  1.00  0.00     0.278 C 
ENDBRANCH   1   7
BRANCH   2   9
ATOM      9  O   UNL     1      26.870  37.521  22.080  1.00  0.00    -0.504 OA
ATOM     10  H   UNL     1      26.928  37.960  21.170  1.00  0.00     0.293 HD
ENDBRANCH   2   9
BRANCH   5  11
ATOM     11  C   UNL     1      28.873  32.317  23.238  1.00  0.00     0.000 C 
ATOM     12  C   UNL     1      28.405  31.581  24.247  1.00  0.00     0.009 C 
ENDBRANCH   5  11
TORSDOF 3
ENDMDL
MODEL 2
REMARK VINA RESULT:    -3.924      4.464      6.995
REMARK INTER + INTRA:          -4.591
REMARK INTER:                  -4.512
REMARK INTRA:                  -0.079
REMARK UNBOUND:                -0.093
REMARK SMILES C=Cc1ccc(O)c(OC)c1
REMARK SMILES IDX 8 1 6 2 5 3 4 4 3 5 11 6 9 7 10 8 7 9 2 11 1 12
REMARK H PARENT 7 10
REMARK Flexibility Score: inf
ROOT
ATOM      1  C   UNL     1      26.485  39.087  19.821  1.00  0.00     0.161 A 
ATOM      2  C   UNL     1      27.228  39.639  18.762  1.00  0.00     0.157 A 
ATOM      3  C   UNL     1      27.617  40.980  18.806  1.00  0.00     0.051 A 
ATOM      4  C   UNL     1      27.279  41.780  19.898  1.00  0.00     0.012 A 
ATOM      5  C   UNL     1      26.553  41.249  20.974  1.00  0.00    -0.022 A 
ATOM      6  C   UNL     1      26.146  39.899  20.923  1.00  0.00     0.058 A 
ENDROOT
BRANCH   1   7
ATOM      7  O   UNL     1      26.099  37.739  19.744  1.00  0.00    -0.493 OA
ATOM      8  C   UNL     1      25.301  37.068  20.714  1.00  0.00     0.278 C 
ENDBRANCH   1   7
BRANCH   2   9
ATOM      9  O   UNL     1      27.587  38.870  17.655  1.00  0.00    -0.504 OA
ATOM     10  H   UNL     1      28.231  38.091  17.725  1.00  0.00     0.293 HD
ENDBRANCH   2   9
BRANCH   5  11
ATOM     11  C   UNL     1      26.213  42.143  22.109  1.00  0.00     0.000 C 
ATOM     12  C   UNL     1      27.082  42.536  23.041  1.00  0.00     0.009 C 
ENDBRANCH   5  11
TORSDOF 3
ENDMDL
MODEL 3
REMARK VINA RESULT:    -3.894      2.653      4.306
REMARK INTER + INTRA:          -4.557
REMARK INTER:                  -4.444
REMARK INTRA:                  -0.113
REMARK UNBOUND:                -0.093
REMARK SMILES C=Cc1ccc(O)c(OC)c1
REMARK SMILES IDX 8 1 6 2 5 3 4 4 3 5 11 6 9 7 10 8 7 9 2 11 1 12
REMARK H PARENT 7 10
REMARK Flexibility Score: inf
ROOT
ATOM      1  C   UNL     1      27.119  38.271  19.728  1.00  0.00     0.161 A 
ATOM      2  C   UNL     1      28.032  38.476  18.677  1.00  0.00     0.157 A 
ATOM      3  C   UNL     1      29.028  37.531  18.423  1.00  0.00     0.051 A 
ATOM      4  C   UNL     1      29.125  36.377  19.200  1.00  0.00     0.012 A 
ATOM      5  C   UNL     1      28.217  36.141  20.243  1.00  0.00    -0.022 A 
ATOM      6  C   UNL     1      27.220  37.102  20.511  1.00  0.00     0.058 A 
ENDROOT
BRANCH   1   7
ATOM      7  O   UNL     1      26.135  39.244  19.966  1.00  0.00    -0.493 OA
ATOM      8  C   UNL     1      26.241  40.282  20.935  1.00  0.00     0.278 C 
ENDBRANCH   1   7
BRANCH   2   9
ATOM      9  O   UNL     1      27.965  39.616  17.876  1.00  0.00    -0.504 OA
ATOM     10  H   UNL     1      28.177  39.594  16.886  1.00  0.00     0.293 HD
ENDBRANCH   2   9
BRANCH   5  11
ATOM     11  C   UNL     1      28.367  34.901  21.045  1.00  0.00     0.000 C 
ATOM     12  C   UNL     1      28.698  33.713  20.536  1.00  0.00     0.009 C 
ENDBRANCH   5  11
TORSDOF 3
ENDMDL
MODEL 4
REMARK VINA RESULT:    -3.863      2.955      3.822
REMARK INTER + INTRA:          -4.521
REMARK INTER:                  -4.415
REMARK INTRA:                  -0.106
REMARK UNBOUND:                -0.093
REMARK SMILES C=Cc1ccc(O)c(OC)c1
REMARK SMILES IDX 8 1 6 2 5 3 4 4 3 5 11 6 9 7 10 8 7 9 2 11 1 12
REMARK H PARENT 7 10
REMARK Flexibility Score: inf
ROOT
ATOM      1  C   UNL     1      26.998  38.526  19.585  1.00  0.00     0.161 A 
ATOM      2  C   UNL     1      25.988  38.287  20.535  1.00  0.00     0.157 A 
ATOM      3  C   UNL     1      26.003  37.113  21.290  1.00  0.00     0.051 A 
ATOM      4  C   UNL     1      27.018  36.171  21.115  1.00  0.00     0.012 A 
ATOM      5  C   UNL     1      28.045  36.393  20.187  1.00  0.00    -0.022 A 
ATOM      6  C   UNL     1      28.023  37.572  19.413  1.00  0.00     0.058 A 
ENDROOT
BRANCH   1   7
ATOM      7  O   UNL     1      26.951  39.711  18.833  1.00  0.00    -0.493 OA
ATOM      8  C   UNL     1      27.611  40.922  19.190  1.00  0.00     0.278 C 
ENDBRANCH   1   7
BRANCH   2   9
ATOM      9  O   UNL     1      24.959  39.207  20.740  1.00  0.00    -0.504 OA
ATOM     10  H   UNL     1      25.124  40.119  21.147  1.00  0.00     0.293 HD
ENDBRANCH   2   9
BRANCH   5  11
ATOM     11  C   UNL     1      29.097  35.357  20.034  1.00  0.00     0.000 C 
ATOM     12  C   UNL     1      28.859  34.046  19.997  1.00  0.00     0.009 C 
ENDBRANCH   5  11
TORSDOF 3
ENDMDL
MODEL 5
REMARK VINA RESULT:    -3.733      2.238      4.708
REMARK INTER + INTRA:          -4.372
REMARK INTER:                  -4.270
REMARK INTRA:                  -0.102
REMARK UNBOUND:                -0.093
REMARK SMILES C=Cc1ccc(O)c(OC)c1
REMARK SMILES IDX 8 1 6 2 5 3 4 4 3 5 11 6 9 7 10 8 7 9 2 11 1 12
REMARK H PARENT 7 10
REMARK Flexibility Score: inf
ROOT
ATOM      1  C   UNL     1      28.222  34.181  22.382  1.00  0.00     0.161 A 
ATOM      2  C   UNL     1      28.701  33.711  21.146  1.00  0.00     0.157 A 
ATOM      3  C   UNL     1      28.755  34.568  20.045  1.00  0.00     0.051 A 
ATOM      4  C   UNL     1      28.342  35.896  20.161  1.00  0.00     0.012 A 
ATOM      5  C   UNL     1      27.876  36.394  21.387  1.00  0.00    -0.022 A 
ATOM      6  C   UNL     1      27.807  35.525  22.494  1.00  0.00     0.058 A 
ENDROOT
BRANCH   1   7
ATOM      7  O   UNL     1      28.169  33.293  23.468  1.00  0.00    -0.493 OA
ATOM      8  C   UNL     1      29.062  33.318  24.578  1.00  0.00     0.278 C 
ENDBRANCH   1   7
BRANCH   2   9
ATOM      9  O   UNL     1      29.125  32.391  20.992  1.00  0.00    -0.504 OA
ATOM     10  H   UNL     1      29.984  32.152  20.512  1.00  0.00     0.293 HD
ENDBRANCH   2   9
BRANCH   5  11
ATOM     11  C   UNL     1      27.443  37.812  21.455  1.00  0.00     0.000 C 
ATOM     12  C   UNL     1      26.313  38.278  20.922  1.00  0.00     0.009 C 
ENDBRANCH   5  11
TORSDOF 3
ENDMDL
MODEL 6
REMARK VINA RESULT:    -3.728      4.871      6.239
REMARK INTER + INTRA:          -4.367
REMARK INTER:                  -4.277
REMARK INTRA:                  -0.089
REMARK UNBOUND:                -0.093
REMARK SMILES C=Cc1ccc(O)c(OC)c1
REMARK SMILES IDX 8 1 6 2 5 3 4 4 3 5 11 6 9 7 10 8 7 9 2 11 1 12
REMARK H PARENT 7 10
REMARK Flexibility Score: inf
ROOT
ATOM      1  C   UNL     1      26.480  40.847  20.584  1.00  0.00     0.161 A 
ATOM      2  C   UNL     1      27.330  40.918  19.464  1.00  0.00     0.157 A 
ATOM      3  C   UNL     1      27.587  39.773  18.709  1.00  0.00     0.051 A 
ATOM      4  C   UNL     1      27.004  38.552  19.050  1.00  0.00     0.012 A 
ATOM      5  C   UNL     1      26.140  38.458  20.152  1.00  0.00    -0.022 A 
ATOM      6  C   UNL     1      25.892  39.611  20.925  1.00  0.00     0.058 A 
ENDROOT
BRANCH   1   7
ATOM      7  O   UNL     1      26.248  42.013  21.330  1.00  0.00    -0.493 OA
ATOM      8  C   UNL     1      26.787  42.266  22.625  1.00  0.00     0.278 C 
ENDBRANCH   1   7
BRANCH   2   9
ATOM      9  O   UNL     1      27.929  42.121  19.090  1.00  0.00    -0.504 OA
ATOM     10  H   UNL     1      27.506  42.749  18.418  1.00  0.00     0.293 HD
ENDBRANCH   2   9
BRANCH   5  11
ATOM     11  C   UNL     1      25.550  37.135  20.477  1.00  0.00     0.000 C 
ATOM     12  C   UNL     1      24.348  36.965  21.030  1.00  0.00     0.009 C 
ENDBRANCH   5  11
TORSDOF 3
ENDMDL
MODEL 7
REMARK VINA RESULT:    -3.725      9.705     10.282
REMARK INTER + INTRA:          -4.363
REMARK INTER:                  -4.273
REMARK INTRA:                  -0.090
REMARK UNBOUND:                -0.093
REMARK SMILES C=Cc1ccc(O)c(OC)c1
REMARK SMILES IDX 8 1 6 2 5 3 4 4 3 5 11 6 9 7 10 8 7 9 2 11 1 12
REMARK H PARENT 7 10
REMARK Flexibility Score: inf
ROOT
ATOM      1  C   UNL     1      24.414  28.260  28.662  1.00  0.00     0.161 A 
ATOM      2  C   UNL     1      24.841  28.874  29.854  1.00  0.00     0.157 A 
ATOM      3  C   UNL     1      26.177  28.779  30.248  1.00  0.00     0.051 A 
ATOM      4  C   UNL     1      27.099  28.083  29.465  1.00  0.00     0.012 A 
ATOM      5  C   UNL     1      26.702  27.477  28.265  1.00  0.00    -0.022 A 
ATOM      6  C   UNL     1      25.350  27.559  27.873  1.00  0.00     0.058 A 
ENDROOT
BRANCH   1   7
ATOM      7  O   UNL     1      23.062  28.364  28.296  1.00  0.00    -0.493 OA
ATOM      8  C   UNL     1      22.108  27.313  28.418  1.00  0.00     0.278 C 
ENDBRANCH   1   7
BRANCH   2   9
ATOM      9  O   UNL     1      23.949  29.580  30.661  1.00  0.00    -0.504 OA
ATOM     10  H   UNL     1      23.762  29.314  31.620  1.00  0.00     0.293 HD
ENDBRANCH   2   9
BRANCH   5  11
ATOM     11  C   UNL     1      27.720  26.743  27.472  1.00  0.00     0.000 C 
ATOM     12  C   UNL     1      27.605  26.470  26.171  1.00  0.00     0.009 C 
ENDBRANCH   5  11
TORSDOF 3
ENDMDL
MODEL 8
REMARK VINA RESULT:    -3.707      2.119      3.719
REMARK INTER + INTRA:          -4.342
REMARK INTER:                  -4.266
REMARK INTRA:                  -0.076
REMARK UNBOUND:                -0.093
REMARK SMILES C=Cc1ccc(O)c(OC)c1
REMARK SMILES IDX 8 1 6 2 5 3 4 4 3 5 11 6 9 7 10 8 7 9 2 11 1 12
REMARK H PARENT 7 10
REMARK Flexibility Score: inf
ROOT
ATOM      1  C   UNL     1      26.193  37.470  20.701  1.00  0.00     0.161 A 
ATOM      2  C   UNL     1      26.933  37.917  19.590  1.00  0.00     0.157 A 
ATOM      3  C   UNL     1      28.251  37.494  19.414  1.00  0.00     0.051 A 
ATOM      4  C   UNL     1      28.846  36.625  20.329  1.00  0.00     0.012 A 
ATOM      5  C   UNL     1      28.125  36.152  21.436  1.00  0.00    -0.022 A 
ATOM      6  C   UNL     1      26.798  36.590  21.623  1.00  0.00     0.058 A 
ENDROOT
BRANCH   1   7
ATOM      7  O   UNL     1      24.873  37.920  20.858  1.00  0.00    -0.493 OA
ATOM      8  C   UNL     1      23.773  37.092  21.224  1.00  0.00     0.278 C 
ENDBRANCH   1   7
BRANCH   2   9
ATOM      9  O   UNL     1      26.372  38.784  18.653  1.00  0.00    -0.504 OA
ATOM     10  H   UNL     1      26.751  39.706  18.476  1.00  0.00     0.293 HD
ENDBRANCH   2   9
BRANCH   5  11
ATOM     11  C   UNL     1      28.805  35.234  22.383  1.00  0.00     0.000 C 
ATOM     12  C   UNL     1      28.333  34.038  22.739  1.00  0.00     0.009 C 
ENDBRANCH   5  11
TORSDOF 3
ENDMDL
MODEL 9
REMARK VINA RESULT:    -3.629      7.515      9.699
REMARK INTER + INTRA:          -4.252
REMARK INTER:                  -4.156
REMARK INTRA:                  -0.096
REMARK UNBOUND:                -0.093
REMARK SMILES C=Cc1ccc(O)c(OC)c1
REMARK SMILES IDX 8 1 6 2 5 3 4 4 3 5 11 6 9 7 10 8 7 9 2 11 1 12
REMARK H PARENT 7 10
REMARK Flexibility Score: inf
ROOT
ATOM      1  C   UNL     1      25.683  27.755  28.379  1.00  0.00     0.161 A 
ATOM      2  C   UNL     1      26.376  28.140  29.542  1.00  0.00     0.157 A 
ATOM      3  C   UNL     1      27.660  28.680  29.444  1.00  0.00     0.051 A 
ATOM      4  C   UNL     1      28.263  28.850  28.197  1.00  0.00     0.012 A 
ATOM      5  C   UNL     1      27.587  28.490  27.022  1.00  0.00    -0.022 A 
ATOM      6  C   UNL     1      26.297  27.929  27.121  1.00  0.00     0.058 A 
ENDROOT
BRANCH   1   7
ATOM      7  O   UNL     1      24.398  27.205  28.511  1.00  0.00    -0.493 OA
ATOM      8  C   UNL     1      23.185  27.931  28.335  1.00  0.00     0.278 C 
ENDBRANCH   1   7
BRANCH   2   9
ATOM      9  O   UNL     1      25.804  27.989  30.805  1.00  0.00    -0.504 OA
ATOM     10  H   UNL     1      25.269  27.168  31.061  1.00  0.00     0.293 HD
ENDBRANCH   2   9
BRANCH   5  11
ATOM     11  C   UNL     1      28.276  28.684  25.722  1.00  0.00     0.000 C 
ATOM     12  C   UNL     1      28.077  29.727  24.915  1.00  0.00     0.009 C 
ENDBRANCH   5  11
TORSDOF 3
ENDMDL
