MODEL 1
REMARK VINA RESULT:    -7.709      0.000      0.000
REMARK INTER + INTRA:         -11.540
REMARK INTER:                 -10.413
REMARK INTRA:                  -1.127
REMARK UNBOUND:                -1.127
REMARK SMILES CC[C@H](CC[C@H](C)[C@@H]1CC[C@@H]2[C@H]3CC(=O)C4=CC(=O)CC[C@]4(C)[C@@H]3CC[C@@]21C)C(C)C
REMARK SMILES IDX 4 1 3 2 2 3 1 4 29 5 30 6 31 7 5 8 6 9 7 10 8 11 9 12 27 13
REMARK SMILES IDX 10 14 11 15 26 16 28 17 12 18 25 19 24 20 13 21 22 22 14 23
REMARK SMILES IDX 16 24 21 25 23 26 15 27 17 28 20 29 18 30 19 31
REMARK H PARENT
REMARK Flexibility Score: inf
ROOT
ATOM      1  C   UNL     1       9.755  15.427  22.610  1.00  0.00     0.004 C 
ENDROOT
BRANCH   1   2
ATOM      2  C   UNL     1      10.283  14.095  23.217  1.00  0.00    -0.009 C 
BRANCH   2   3
ATOM      3  C   UNL     1      10.082  13.973  24.756  1.00  0.00     0.000 C 
ATOM      4  C   UNL     1      11.340  14.166  25.604  1.00  0.00     0.004 C 
ENDBRANCH   2   3
BRANCH   2   5
ATOM      5  C   UNL     1       9.784  12.824  22.441  1.00  0.00    -0.014 C 
ATOM      6  C   UNL     1       8.742  13.200  21.373  1.00  0.00     0.007 C 
ATOM      7  C   UNL     1       9.212  11.712  23.343  1.00  0.00     0.007 C 
ENDBRANCH   2   5
ENDBRANCH   1   2
BRANCH   1   8
ATOM      8  C   UNL     1      10.798  16.231  21.807  1.00  0.00     0.004 C 
BRANCH   8   9
ATOM      9  C   UNL     1      10.795  17.763  22.138  1.00  0.00    -0.011 C 
ATOM     10  C   UNL     1       9.773  18.452  21.210  1.00  0.00     0.008 C 
BRANCH   9  11
ATOM     11  C   UNL     1      12.234  18.377  22.010  1.00  0.00    -0.002 C 
ATOM     12  C   UNL     1      13.010  17.813  20.818  1.00  0.00     0.005 C 
ATOM     13  C   UNL     1      13.241  18.220  23.204  1.00  0.00    -0.026 C 
ATOM     14  C   UNL     1      14.430  18.299  21.017  1.00  0.00     0.005 C 
ATOM     15  C   UNL     1      14.644  18.417  22.540  1.00  0.00    -0.001 C 
ATOM     16  C   UNL     1      13.181  16.811  23.858  1.00  0.00     0.007 C 
ATOM     17  C   UNL     1      13.011  19.333  24.267  1.00  0.00     0.012 C 
ATOM     18  C   UNL     1      15.790  17.453  23.018  1.00  0.00     0.004 C 
ATOM     19  C   UNL     1      14.232  16.649  24.959  1.00  0.00     0.005 C 
ATOM     20  C   UNL     1      15.683  16.987  24.499  1.00  0.00     0.003 C 
ATOM     21  C   UNL     1      17.150  18.164  22.807  1.00  0.00     0.085 C 
ATOM     22  C   UNL     1      16.757  15.866  24.841  1.00  0.00    -0.000 C 
ATOM     23  C   UNL     1      18.303  17.436  23.426  1.00  0.00     0.159 C 
ATOM     24  C   UNL     1      18.092  16.162  24.143  1.00  0.00     0.005 C 
ATOM     25  C   UNL     1      16.327  14.428  24.391  1.00  0.00     0.020 C 
ATOM     26  C   UNL     1      16.993  15.892  26.373  1.00  0.00     0.017 C 
ATOM     27  O   UNL     1      19.463  17.914  23.295  1.00  0.00    -0.295 OA
ATOM     28  C   UNL     1      19.057  15.224  24.078  1.00  0.00     0.055 C 
ATOM     29  C   UNL     1      17.385  13.354  24.721  1.00  0.00     0.081 C 
ATOM     30  C   UNL     1      18.786  13.828  24.448  1.00  0.00     0.156 C 
ATOM     31  O   UNL     1      19.743  13.009  24.517  1.00  0.00    -0.295 OA
ENDBRANCH   9  11
ENDBRANCH   8   9
ENDBRANCH   1   8
TORSDOF 6
ENDMDL
MODEL 2
REMARK VINA RESULT:    -7.512      1.954      3.362
REMARK INTER + INTRA:         -11.273
REMARK INTER:                 -10.367
REMARK INTRA:                  -0.906
REMARK UNBOUND:                -1.127
REMARK SMILES CC[C@H](CC[C@H](C)[C@@H]1CC[C@@H]2[C@H]3CC(=O)C4=CC(=O)CC[C@]4(C)[C@@H]3CC[C@@]21C)C(C)C
REMARK SMILES IDX 4 1 3 2 2 3 1 4 29 5 30 6 31 7 5 8 6 9 7 10 8 11 9 12 27 13
REMARK SMILES IDX 10 14 11 15 26 16 28 17 12 18 25 19 24 20 13 21 22 22 14 23
REMARK SMILES IDX 16 24 21 25 23 26 15 27 17 28 20 29 18 30 19 31
REMARK H PARENT
REMARK Flexibility Score: inf
ROOT
ATOM      1  C   UNL     1      10.521  13.954  25.016  1.00  0.00     0.004 C 
ENDROOT
BRANCH   1   2
ATOM      2  C   UNL     1       9.418  13.676  23.955  1.00  0.00    -0.009 C 
BRANCH   2   3
ATOM      3  C   UNL     1       9.321  14.758  22.839  1.00  0.00     0.000 C 
ATOM      4  C   UNL     1       7.933  15.365  22.626  1.00  0.00     0.004 C 
ENDBRANCH   2   3
BRANCH   2   5
ATOM      5  C   UNL     1       9.472  12.218  23.376  1.00  0.00    -0.014 C 
ATOM      6  C   UNL     1       9.906  12.222  21.900  1.00  0.00     0.007 C 
ATOM      7  C   UNL     1       8.155  11.428  23.519  1.00  0.00     0.007 C 
ENDBRANCH   2   5
ENDBRANCH   1   2
BRANCH   1   8
ATOM      8  C   UNL     1      11.730  14.759  24.497  1.00  0.00     0.004 C 
BRANCH   8   9
ATOM      9  C   UNL     1      12.889  14.890  25.544  1.00  0.00    -0.011 C 
ATOM     10  C   UNL     1      12.257  15.061  26.941  1.00  0.00     0.008 C 
BRANCH   9  11
ATOM     11  C   UNL     1      13.861  16.066  25.175  1.00  0.00    -0.002 C 
ATOM     12  C   UNL     1      13.989  16.271  23.665  1.00  0.00     0.005 C 
ATOM     13  C   UNL     1      15.353  16.006  25.661  1.00  0.00    -0.026 C 
ATOM     14  C   UNL     1      15.148  17.233  23.503  1.00  0.00     0.005 C 
ATOM     15  C   UNL     1      16.103  16.971  24.685  1.00  0.00    -0.001 C 
ATOM     16  C   UNL     1      15.965  14.583  25.541  1.00  0.00     0.007 C 
ATOM     17  C   UNL     1      15.479  16.542  27.116  1.00  0.00     0.012 C 
ATOM     18  C   UNL     1      17.510  16.494  24.169  1.00  0.00     0.004 C 
ATOM     19  C   UNL     1      17.445  14.565  25.933  1.00  0.00     0.005 C 
ATOM     20  C   UNL     1      18.311  15.610  25.167  1.00  0.00     0.003 C 
ATOM     21  C   UNL     1      18.351  17.745  23.809  1.00  0.00     0.085 C 
ATOM     22  C   UNL     1      19.622  15.009  24.497  1.00  0.00    -0.000 C 
ATOM     23  C   UNL     1      19.785  17.431  23.514  1.00  0.00     0.159 C 
ATOM     24  C   UNL     1      20.278  16.039  23.566  1.00  0.00     0.005 C 
ATOM     25  C   UNL     1      19.353  13.731  23.630  1.00  0.00     0.020 C 
ATOM     26  C   UNL     1      20.622  14.676  25.634  1.00  0.00     0.017 C 
ATOM     27  O   UNL     1      20.557  18.373  23.187  1.00  0.00    -0.295 OA
ATOM     28  C   UNL     1      21.242  15.669  22.701  1.00  0.00     0.055 C 
ATOM     29  C   UNL     1      20.634  13.168  22.979  1.00  0.00     0.081 C 
ATOM     30  C   UNL     1      21.530  14.251  22.444  1.00  0.00     0.156 C 
ATOM     31  O   UNL     1      22.532  13.940  21.744  1.00  0.00    -0.295 OA
ENDBRANCH   9  11
ENDBRANCH   8   9
ENDBRANCH   1   8
TORSDOF 6
ENDMDL
MODEL 3
REMARK VINA RESULT:    -7.268      5.678      8.841
REMARK INTER + INTRA:         -10.944
REMARK INTER:                  -9.735
REMARK INTRA:                  -1.209
REMARK UNBOUND:                -1.127
REMARK SMILES CC[C@H](CC[C@H](C)[C@@H]1CC[C@@H]2[C@H]3CC(=O)C4=CC(=O)CC[C@]4(C)[C@@H]3CC[C@@]21C)C(C)C
REMARK SMILES IDX 4 1 3 2 2 3 1 4 29 5 30 6 31 7 5 8 6 9 7 10 8 11 9 12 27 13
REMARK SMILES IDX 10 14 11 15 26 16 28 17 12 18 25 19 24 20 13 21 22 22 14 23
REMARK SMILES IDX 16 24 21 25 23 26 15 27 17 28 20 29 18 30 19 31
REMARK H PARENT
REMARK Flexibility Score: inf
ROOT
ATOM      1  C   UNL     1      19.016  17.395  16.601  1.00  0.00     0.004 C 
ENDROOT
BRANCH   1   2
ATOM      2  C   UNL     1      18.177  17.156  15.313  1.00  0.00    -0.009 C 
BRANCH   2   3
ATOM      3  C   UNL     1      18.652  15.944  14.459  1.00  0.00     0.000 C 
ATOM      4  C   UNL     1      18.994  16.256  13.002  1.00  0.00     0.004 C 
ENDBRANCH   2   3
BRANCH   2   5
ATOM      5  C   UNL     1      16.630  17.134  15.582  1.00  0.00    -0.014 C 
ATOM      6  C   UNL     1      16.317  17.461  17.053  1.00  0.00     0.007 C 
ATOM      7  C   UNL     1      15.935  15.813  15.193  1.00  0.00     0.007 C 
ENDBRANCH   2   5
ENDBRANCH   1   2
BRANCH   1   8
ATOM      8  C   UNL     1      20.189  16.415  16.800  1.00  0.00     0.004 C 
BRANCH   8   9
ATOM      9  C   UNL     1      21.547  17.125  17.133  1.00  0.00    -0.011 C 
ATOM     10  C   UNL     1      22.366  17.229  15.829  1.00  0.00     0.008 C 
BRANCH   9  11
ATOM     11  C   UNL     1      22.321  16.370  18.271  1.00  0.00    -0.002 C 
ATOM     12  C   UNL     1      21.817  14.940  18.477  1.00  0.00     0.005 C 
ATOM     13  C   UNL     1      22.318  16.967  19.723  1.00  0.00    -0.026 C 
ATOM     14  C   UNL     1      22.472  14.481  19.763  1.00  0.00     0.005 C 
ATOM     15  C   UNL     1      22.659  15.741  20.633  1.00  0.00    -0.001 C 
ATOM     16  C   UNL     1      20.933  17.537  20.135  1.00  0.00     0.007 C 
ATOM     17  C   UNL     1      23.427  18.048  19.875  1.00  0.00     0.012 C 
ATOM     18  C   UNL     1      21.850  15.615  21.976  1.00  0.00     0.004 C 
ATOM     19  C   UNL     1      20.927  18.030  21.584  1.00  0.00     0.005 C 
ATOM     20  C   UNL     1      21.419  16.968  22.612  1.00  0.00     0.003 C 
ATOM     21  C   UNL     1      22.709  14.825  22.995  1.00  0.00     0.085 C 
ATOM     22  C   UNL     1      20.442  16.751  23.848  1.00  0.00    -0.000 C 
ATOM     23  C   UNL     1      22.140  14.829  24.379  1.00  0.00     0.159 C 
ATOM     24  C   UNL     1      20.871  15.528  24.671  1.00  0.00     0.005 C 
ATOM     25  C   UNL     1      18.950  16.507  23.432  1.00  0.00     0.020 C 
ATOM     26  C   UNL     1      20.541  18.005  24.753  1.00  0.00     0.017 C 
ATOM     27  O   UNL     1      22.746  14.195  25.286  1.00  0.00    -0.295 OA
ATOM     28  C   UNL     1      20.051  15.003  25.602  1.00  0.00     0.055 C 
ATOM     29  C   UNL     1      18.019  16.287  24.642  1.00  0.00     0.081 C 
ATOM     30  C   UNL     1      18.644  15.417  25.697  1.00  0.00     0.156 C 
ATOM     31  O   UNL     1      17.946  15.018  26.668  1.00  0.00    -0.295 OA
ENDBRANCH   9  11
ENDBRANCH   8   9
ENDBRANCH   1   8
TORSDOF 6
ENDMDL
MODEL 4
REMARK VINA RESULT:    -7.213      4.078      9.449
REMARK INTER + INTRA:         -10.870
REMARK INTER:                  -9.756
REMARK INTRA:                  -1.115
REMARK UNBOUND:                -1.127
REMARK SMILES CC[C@H](CC[C@H](C)[C@@H]1CC[C@@H]2[C@H]3CC(=O)C4=CC(=O)CC[C@]4(C)[C@@H]3CC[C@@]21C)C(C)C
REMARK SMILES IDX 4 1 3 2 2 3 1 4 29 5 30 6 31 7 5 8 6 9 7 10 8 11 9 12 27 13
REMARK SMILES IDX 10 14 11 15 26 16 28 17 12 18 25 19 24 20 13 21 22 22 14 23
REMARK SMILES IDX 16 24 21 25 23 26 15 27 17 28 20 29 18 30 19 31
REMARK H PARENT
REMARK Flexibility Score: inf
ROOT
ATOM      1  C   UNL     1      23.076  13.309  22.056  1.00  0.00     0.004 C 
ENDROOT
BRANCH   1   2
ATOM      2  C   UNL     1      23.547  12.662  20.722  1.00  0.00    -0.009 C 
BRANCH   2   3
ATOM      3  C   UNL     1      23.918  13.690  19.612  1.00  0.00     0.000 C 
ATOM      4  C   UNL     1      24.435  15.041  20.109  1.00  0.00     0.004 C 
ENDBRANCH   2   3
BRANCH   2   5
ATOM      5  C   UNL     1      24.655  11.568  20.925  1.00  0.00    -0.014 C 
ATOM      6  C   UNL     1      25.361  11.739  22.281  1.00  0.00     0.007 C 
ATOM      7  C   UNL     1      25.711  11.516  19.803  1.00  0.00     0.007 C 
ENDBRANCH   2   5
ENDBRANCH   1   2
BRANCH   1   8
ATOM      8  C   UNL     1      21.568  13.621  22.128  1.00  0.00     0.004 C 
BRANCH   8   9
ATOM      9  C   UNL     1      21.232  14.887  22.988  1.00  0.00    -0.011 C 
ATOM     10  C   UNL     1      22.538  15.383  23.644  1.00  0.00     0.008 C 
BRANCH   9  11
ATOM     11  C   UNL     1      20.108  14.581  24.040  1.00  0.00    -0.002 C 
ATOM     12  C   UNL     1      19.263  13.364  23.660  1.00  0.00     0.005 C 
ATOM     13  C   UNL     1      19.034  15.682  24.355  1.00  0.00    -0.026 C 
ATOM     14  C   UNL     1      18.091  13.392  24.619  1.00  0.00     0.005 C 
ATOM     15  C   UNL     1      17.835  14.876  24.952  1.00  0.00    -0.001 C 
ATOM     16  C   UNL     1      18.558  16.436  23.083  1.00  0.00     0.007 C 
ATOM     17  C   UNL     1      19.569  16.681  25.422  1.00  0.00     0.012 C 
ATOM     18  C   UNL     1      16.396  15.310  24.489  1.00  0.00     0.004 C 
ATOM     19  C   UNL     1      17.447  17.441  23.398  1.00  0.00     0.005 C 
ATOM     20  C   UNL     1      16.239  16.824  24.164  1.00  0.00     0.003 C 
ATOM     21  C   UNL     1      15.385  14.921  25.597  1.00  0.00     0.085 C 
ATOM     22  C   UNL     1      14.821  17.141  23.516  1.00  0.00    -0.000 C 
ATOM     23  C   UNL     1      14.014  15.478  25.371  1.00  0.00     0.159 C 
ATOM     24  C   UNL     1      13.721  16.300  24.179  1.00  0.00     0.005 C 
ATOM     25  C   UNL     1      14.752  16.835  21.980  1.00  0.00     0.020 C 
ATOM     26  C   UNL     1      14.511  18.637  23.773  1.00  0.00     0.017 C 
ATOM     27  O   UNL     1      13.104  15.204  26.201  1.00  0.00    -0.295 OA
ATOM     28  C   UNL     1      12.496  16.210  23.625  1.00  0.00     0.055 C 
ATOM     29  C   UNL     1      13.367  17.138  21.371  1.00  0.00     0.081 C 
ATOM     30  C   UNL     1      12.239  16.702  22.264  1.00  0.00     0.156 C 
ATOM     31  O   UNL     1      11.055  16.736  21.833  1.00  0.00    -0.295 OA
ENDBRANCH   9  11
ENDBRANCH   8   9
ENDBRANCH   1   8
TORSDOF 6
ENDMDL
MODEL 5
REMARK VINA RESULT:    -7.109      3.751      6.566
REMARK INTER + INTRA:         -10.729
REMARK INTER:                  -9.448
REMARK INTRA:                  -1.281
REMARK UNBOUND:                -1.127
REMARK SMILES CC[C@H](CC[C@H](C)[C@@H]1CC[C@@H]2[C@H]3CC(=O)C4=CC(=O)CC[C@]4(C)[C@@H]3CC[C@@]21C)C(C)C
REMARK SMILES IDX 4 1 3 2 2 3 1 4 29 5 30 6 31 7 5 8 6 9 7 10 8 11 9 12 27 13
REMARK SMILES IDX 10 14 11 15 26 16 28 17 12 18 25 19 24 20 13 21 22 22 14 23
REMARK SMILES IDX 16 24 21 25 23 26 15 27 17 28 20 29 18 30 19 31
REMARK H PARENT
REMARK Flexibility Score: inf
ROOT
ATOM      1  C   UNL     1      14.981  15.140  25.928  1.00  0.00     0.004 C 
ENDROOT
BRANCH   1   2
ATOM      2  C   UNL     1      13.674  15.741  25.337  1.00  0.00    -0.009 C 
BRANCH   2   3
ATOM      3  C   UNL     1      13.872  16.495  23.989  1.00  0.00     0.000 C 
ATOM      4  C   UNL     1      14.055  18.009  24.099  1.00  0.00     0.004 C 
ENDBRANCH   2   3
BRANCH   2   5
ATOM      5  C   UNL     1      12.491  14.710  25.282  1.00  0.00    -0.014 C 
ATOM      6  C   UNL     1      11.467  15.098  24.200  1.00  0.00     0.007 C 
ATOM      7  C   UNL     1      11.761  14.506  26.625  1.00  0.00     0.007 C 
ENDBRANCH   2   5
ENDBRANCH   1   2
BRANCH   1   8
ATOM      8  C   UNL     1      16.088  14.856  24.893  1.00  0.00     0.004 C 
BRANCH   8   9
ATOM      9  C   UNL     1      17.537  15.000  25.473  1.00  0.00    -0.011 C 
ATOM     10  C   UNL     1      17.436  15.050  27.012  1.00  0.00     0.008 C 
BRANCH   9  11
ATOM     11  C   UNL     1      18.268  16.254  24.877  1.00  0.00    -0.002 C 
ATOM     12  C   UNL     1      17.607  16.767  23.597  1.00  0.00     0.005 C 
ATOM     13  C   UNL     1      19.783  16.140  24.481  1.00  0.00    -0.026 C 
ATOM     14  C   UNL     1      18.586  17.775  23.033  1.00  0.00     0.005 C 
ATOM     15  C   UNL     1      19.992  17.305  23.459  1.00  0.00    -0.001 C 
ATOM     16  C   UNL     1      20.122  14.790  23.791  1.00  0.00     0.007 C 
ATOM     17  C   UNL     1      20.694  16.370  25.721  1.00  0.00     0.012 C 
ATOM     18  C   UNL     1      20.878  16.985  22.199  1.00  0.00     0.004 C 
ATOM     19  C   UNL     1      21.581  14.735  23.332  1.00  0.00     0.005 C 
ATOM     20  C   UNL     1      22.005  15.939  22.437  1.00  0.00     0.003 C 
ATOM     21  C   UNL     1      21.510  18.307  21.694  1.00  0.00     0.085 C 
ATOM     22  C   UNL     1      22.719  15.525  21.078  1.00  0.00    -0.000 C 
ATOM     23  C   UNL     1      22.547  18.101  20.634  1.00  0.00     0.159 C 
ATOM     24  C   UNL     1      22.877  16.743  20.155  1.00  0.00     0.005 C 
ATOM     25  C   UNL     1      21.931  14.445  20.260  1.00  0.00     0.020 C 
ATOM     26  C   UNL     1      24.133  14.997  21.430  1.00  0.00     0.017 C 
ATOM     27  O   UNL     1      23.111  19.112  20.133  1.00  0.00    -0.295 OA
ATOM     28  C   UNL     1      23.213  16.586  18.860  1.00  0.00     0.055 C 
ATOM     29  C   UNL     1      22.632  14.064  18.939  1.00  0.00     0.081 C 
ATOM     30  C   UNL     1      23.204  15.259  18.228  1.00  0.00     0.156 C 
ATOM     31  O   UNL     1      23.664  15.127  17.061  1.00  0.00    -0.295 OA
ENDBRANCH   9  11
ENDBRANCH   8   9
ENDBRANCH   1   8
TORSDOF 6
ENDMDL
MODEL 6
REMARK VINA RESULT:    -6.970      3.948      7.041
REMARK INTER + INTRA:         -10.542
REMARK INTER:                  -9.304
REMARK INTRA:                  -1.238
REMARK UNBOUND:                -1.127
REMARK SMILES CC[C@H](CC[C@H](C)[C@@H]1CC[C@@H]2[C@H]3CC(=O)C4=CC(=O)CC[C@]4(C)[C@@H]3CC[C@@]21C)C(C)C
REMARK SMILES IDX 4 1 3 2 2 3 1 4 29 5 30 6 31 7 5 8 6 9 7 10 8 11 9 12 27 13
REMARK SMILES IDX 10 14 11 15 26 16 28 17 12 18 25 19 24 20 13 21 22 22 14 23
REMARK SMILES IDX 16 24 21 25 23 26 15 27 17 28 20 29 18 30 19 31
REMARK H PARENT
REMARK Flexibility Score: inf
ROOT
ATOM      1  C   UNL     1      15.029  16.286  24.454  1.00  0.00     0.004 C 
ENDROOT
BRANCH   1   2
ATOM      2  C   UNL     1      14.235  17.016  23.333  1.00  0.00    -0.009 C 
BRANCH   2   3
ATOM      3  C   UNL     1      12.688  16.922  23.485  1.00  0.00     0.000 C 
ATOM      4  C   UNL     1      11.920  16.553  22.215  1.00  0.00     0.004 C 
ENDBRANCH   2   3
BRANCH   2   5
ATOM      5  C   UNL     1      14.728  18.485  23.084  1.00  0.00    -0.014 C 
ATOM      6  C   UNL     1      13.726  19.509  23.647  1.00  0.00     0.007 C 
ATOM      7  C   UNL     1      15.022  18.817  21.608  1.00  0.00     0.007 C 
ENDBRANCH   2   5
ENDBRANCH   1   2
BRANCH   1   8
ATOM      8  C   UNL     1      16.269  15.508  23.968  1.00  0.00     0.004 C 
BRANCH   8   9
ATOM      9  C   UNL     1      17.440  15.484  25.010  1.00  0.00    -0.011 C 
ATOM     10  C   UNL     1      16.840  15.723  26.411  1.00  0.00     0.008 C 
BRANCH   9  11
ATOM     11  C   UNL     1      18.551  16.531  24.644  1.00  0.00    -0.002 C 
ATOM     12  C   UNL     1      18.209  17.335  23.388  1.00  0.00     0.005 C 
ATOM     13  C   UNL     1      20.012  16.029  24.366  1.00  0.00    -0.026 C 
ATOM     14  C   UNL     1      19.486  18.073  23.043  1.00  0.00     0.005 C 
ATOM     15  C   UNL     1      20.650  17.182  23.523  1.00  0.00    -0.001 C 
ATOM     16  C   UNL     1      20.048  14.714  23.539  1.00  0.00     0.007 C 
ATOM     17  C   UNL     1      20.799  15.866  25.698  1.00  0.00     0.012 C 
ATOM     18  C   UNL     1      21.555  16.749  22.312  1.00  0.00     0.004 C 
ATOM     19  C   UNL     1      21.479  14.291  23.201  1.00  0.00     0.005 C 
ATOM     20  C   UNL     1      22.318  15.407  22.508  1.00  0.00     0.003 C 
ATOM     21  C   UNL     1      22.579  17.880  22.036  1.00  0.00     0.085 C 
ATOM     22  C   UNL     1      23.045  14.945  21.171  1.00  0.00    -0.000 C 
ATOM     23  C   UNL     1      23.637  17.493  21.050  1.00  0.00     0.159 C 
ATOM     24  C   UNL     1      23.637  16.152  20.429  1.00  0.00     0.005 C 
ATOM     25  C   UNL     1      22.094  14.221  20.158  1.00  0.00     0.020 C 
ATOM     26  C   UNL     1      24.210  14.002  21.571  1.00  0.00     0.017 C 
ATOM     27  O   UNL     1      24.511  18.346  20.732  1.00  0.00    -0.295 OA
ATOM     28  C   UNL     1      24.067  16.035  19.158  1.00  0.00     0.055 C 
ATOM     29  C   UNL     1      22.814  13.789  18.863  1.00  0.00     0.081 C 
ATOM     30  C   UNL     1      23.770  14.836  18.362  1.00  0.00     0.156 C 
ATOM     31  O   UNL     1      24.310  14.695  17.232  1.00  0.00    -0.295 OA
ENDBRANCH   9  11
ENDBRANCH   8   9
ENDBRANCH   1   8
TORSDOF 6
ENDMDL
MODEL 7
REMARK VINA RESULT:    -6.840      9.114     11.326
REMARK INTER + INTRA:         -10.367
REMARK INTER:                  -8.987
REMARK INTRA:                  -1.379
REMARK UNBOUND:                -1.127
REMARK SMILES CC[C@H](CC[C@H](C)[C@@H]1CC[C@@H]2[C@H]3CC(=O)C4=CC(=O)CC[C@]4(C)[C@@H]3CC[C@@]21C)C(C)C
REMARK SMILES IDX 4 1 3 2 2 3 1 4 29 5 30 6 31 7 5 8 6 9 7 10 8 11 9 12 27 13
REMARK SMILES IDX 10 14 11 15 26 16 28 17 12 18 25 19 24 20 13 21 22 22 14 23
REMARK SMILES IDX 16 24 21 25 23 26 15 27 17 28 20 29 18 30 19 31
REMARK H PARENT
REMARK Flexibility Score: inf
ROOT
ATOM      1  C   UNL     1      17.405  16.985  13.273  1.00  0.00     0.004 C 
ENDROOT
BRANCH   1   2
ATOM      2  C   UNL     1      17.047  16.452  14.690  1.00  0.00    -0.009 C 
BRANCH   2   3
ATOM      3  C   UNL     1      17.027  17.548  15.796  1.00  0.00     0.000 C 
ATOM      4  C   UNL     1      18.324  17.710  16.590  1.00  0.00     0.004 C 
ENDBRANCH   2   3
BRANCH   2   5
ATOM      5  C   UNL     1      15.757  15.558  14.705  1.00  0.00    -0.014 C 
ATOM      6  C   UNL     1      14.755  16.011  13.628  1.00  0.00     0.007 C 
ATOM      7  C   UNL     1      15.044  15.492  16.070  1.00  0.00     0.007 C 
ENDBRANCH   2   5
ENDBRANCH   1   2
BRANCH   1   8
ATOM      8  C   UNL     1      18.277  16.036  12.426  1.00  0.00     0.004 C 
BRANCH   8   9
ATOM      9  C   UNL     1      19.492  16.751  11.739  1.00  0.00    -0.011 C 
ATOM     10  C   UNL     1      19.117  17.025  10.267  1.00  0.00     0.008 C 
BRANCH   9  11
ATOM     11  C   UNL     1      20.805  15.902  11.877  1.00  0.00    -0.002 C 
ATOM     12  C   UNL     1      20.524  14.418  12.115  1.00  0.00     0.005 C 
ATOM     13  C   UNL     1      21.832  16.262  13.009  1.00  0.00    -0.026 C 
ATOM     14  C   UNL     1      21.866  13.826  12.492  1.00  0.00     0.005 C 
ATOM     15  C   UNL     1      22.655  14.946  13.200  1.00  0.00    -0.001 C 
ATOM     16  C   UNL     1      21.140  16.629  14.352  1.00  0.00     0.007 C 
ATOM     17  C   UNL     1      22.782  17.404  12.547  1.00  0.00     0.012 C 
ATOM     18  C   UNL     1      22.994  14.537  14.681  1.00  0.00     0.004 C 
ATOM     19  C   UNL     1      22.158  16.887  15.465  1.00  0.00     0.005 C 
ATOM     20  C   UNL     1      23.179  15.728  15.665  1.00  0.00     0.003 C 
ATOM     21  C   UNL     1      24.285  13.680  14.670  1.00  0.00     0.085 C 
ATOM     22  C   UNL     1      23.319  15.230  17.169  1.00  0.00    -0.000 C 
ATOM     23  C   UNL     1      24.831  13.415  16.039  1.00  0.00     0.159 C 
ATOM     24  C   UNL     1      24.147  13.938  17.239  1.00  0.00     0.005 C 
ATOM     25  C   UNL     1      21.945  14.917  17.856  1.00  0.00     0.020 C 
ATOM     26  C   UNL     1      24.069  16.331  17.962  1.00  0.00     0.017 C 
ATOM     27  O   UNL     1      25.869  12.706  16.150  1.00  0.00    -0.295 OA
ATOM     28  C   UNL     1      24.177  13.200  18.366  1.00  0.00     0.055 C 
ATOM     29  C   UNL     1      22.100  14.425  19.310  1.00  0.00     0.081 C 
ATOM     30  C   UNL     1      23.245  13.463  19.471  1.00  0.00     0.156 C 
ATOM     31  O   UNL     1      23.395  12.854  20.565  1.00  0.00    -0.295 OA
ENDBRANCH   9  11
ENDBRANCH   8   9
ENDBRANCH   1   8
TORSDOF 6
ENDMDL
MODEL 8
REMARK VINA RESULT:    -6.729      2.206      3.826
REMARK INTER + INTRA:         -10.216
REMARK INTER:                  -9.513
REMARK INTRA:                  -0.703
REMARK UNBOUND:                -1.127
REMARK SMILES CC[C@H](CC[C@H](C)[C@@H]1CC[C@@H]2[C@H]3CC(=O)C4=CC(=O)CC[C@]4(C)[C@@H]3CC[C@@]21C)C(C)C
REMARK SMILES IDX 4 1 3 2 2 3 1 4 29 5 30 6 31 7 5 8 6 9 7 10 8 11 9 12 27 13
REMARK SMILES IDX 10 14 11 15 26 16 28 17 12 18 25 19 24 20 13 21 22 22 14 23
REMARK SMILES IDX 16 24 21 25 23 26 15 27 17 28 20 29 18 30 19 31
REMARK H PARENT
REMARK Flexibility Score: inf
ROOT
ATOM      1  C   UNL     1       9.805  19.234  20.018  1.00  0.00     0.004 C 
ENDROOT
BRANCH   1   2
ATOM      2  C   UNL     1       8.311  19.339  19.597  1.00  0.00    -0.009 C 
BRANCH   2   3
ATOM      3  C   UNL     1       7.425  20.149  20.589  1.00  0.00     0.000 C 
ATOM      4  C   UNL     1       6.965  19.389  21.834  1.00  0.00     0.004 C 
ENDBRANCH   2   3
BRANCH   2   5
ATOM      5  C   UNL     1       8.122  19.800  18.108  1.00  0.00    -0.014 C 
ATOM      6  C   UNL     1       9.478  19.927  17.390  1.00  0.00     0.007 C 
ATOM      7  C   UNL     1       7.333  21.114  17.943  1.00  0.00     0.007 C 
ENDBRANCH   2   5
ENDBRANCH   1   2
BRANCH   1   8
ATOM      8  C   UNL     1      10.342  17.794  20.144  1.00  0.00     0.004 C 
BRANCH   8   9
ATOM      9  C   UNL     1      11.051  17.508  21.512  1.00  0.00    -0.011 C 
ATOM     10  C   UNL     1      10.125  18.002  22.644  1.00  0.00     0.008 C 
BRANCH   9  11
ATOM     11  C   UNL     1      12.474  18.168  21.567  1.00  0.00    -0.002 C 
ATOM     12  C   UNL     1      13.425  17.603  20.511  1.00  0.00     0.005 C 
ATOM     13  C   UNL     1      13.309  18.076  22.893  1.00  0.00    -0.026 C 
ATOM     14  C   UNL     1      14.788  18.142  20.890  1.00  0.00     0.005 C 
ATOM     15  C   UNL     1      14.783  18.306  22.424  1.00  0.00    -0.001 C 
ATOM     16  C   UNL     1      13.202  16.683  23.573  1.00  0.00     0.007 C 
ATOM     17  C   UNL     1      12.898  19.206  23.881  1.00  0.00     0.012 C 
ATOM     18  C   UNL     1      15.881  17.393  23.085  1.00  0.00     0.004 C 
ATOM     19  C   UNL     1      14.094  16.584  24.813  1.00  0.00     0.005 C 
ATOM     20  C   UNL     1      15.582  16.961  24.549  1.00  0.00     0.003 C 
ATOM     21  C   UNL     1      17.235  18.146  23.043  1.00  0.00     0.085 C 
ATOM     22  C   UNL     1      16.633  15.887  25.070  1.00  0.00    -0.000 C 
ATOM     23  C   UNL     1      18.312  17.474  23.837  1.00  0.00     0.159 C 
ATOM     24  C   UNL     1      18.043  16.211  24.556  1.00  0.00     0.005 C 
ATOM     25  C   UNL     1      16.314  14.424  24.606  1.00  0.00     0.020 C 
ATOM     26  C   UNL     1      16.652  15.959  26.618  1.00  0.00     0.017 C 
ATOM     27  O   UNL     1      19.464  17.989  23.854  1.00  0.00    -0.295 OA
ATOM     28  C   UNL     1      19.036  15.306  24.652  1.00  0.00     0.055 C 
ATOM     29  C   UNL     1      17.349  13.396  25.111  1.00  0.00     0.081 C 
ATOM     30  C   UNL     1      18.759  13.911  25.022  1.00  0.00     0.156 C 
ATOM     31  O   UNL     1      19.722  13.128  25.246  1.00  0.00    -0.295 OA
ENDBRANCH   9  11
ENDBRANCH   8   9
ENDBRANCH   1   8
TORSDOF 6
ENDMDL
MODEL 9
REMARK VINA RESULT:    -6.629      6.543      9.609
REMARK INTER + INTRA:         -10.081
REMARK INTER:                  -8.913
REMARK INTRA:                  -1.168
REMARK UNBOUND:                -1.127
REMARK SMILES CC[C@H](CC[C@H](C)[C@@H]1CC[C@@H]2[C@H]3CC(=O)C4=CC(=O)CC[C@]4(C)[C@@H]3CC[C@@]21C)C(C)C
REMARK SMILES IDX 4 1 3 2 2 3 1 4 29 5 30 6 31 7 5 8 6 9 7 10 8 11 9 12 27 13
REMARK SMILES IDX 10 14 11 15 26 16 28 17 12 18 25 19 24 20 13 21 22 22 14 23
REMARK SMILES IDX 16 24 21 25 23 26 15 27 17 28 20 29 18 30 19 31
REMARK H PARENT
REMARK Flexibility Score: inf
ROOT
ATOM      1  C   UNL     1      18.568  16.892  15.269  1.00  0.00     0.004 C 
ENDROOT
BRANCH   1   2
ATOM      2  C   UNL     1      17.465  16.500  14.244  1.00  0.00    -0.009 C 
BRANCH   2   3
ATOM      3  C   UNL     1      16.020  16.520  14.824  1.00  0.00     0.000 C 
ATOM      4  C   UNL     1      15.344  15.155  14.961  1.00  0.00     0.004 C 
ENDBRANCH   2   3
BRANCH   2   5
ATOM      5  C   UNL     1      17.580  17.281  12.887  1.00  0.00    -0.014 C 
ATOM      6  C   UNL     1      16.196  17.732  12.387  1.00  0.00     0.007 C 
ATOM      7  C   UNL     1      18.300  16.506  11.765  1.00  0.00     0.007 C 
ENDBRANCH   2   5
ENDBRANCH   1   2
BRANCH   1   8
ATOM      8  C   UNL     1      19.740  15.895  15.372  1.00  0.00     0.004 C 
BRANCH   8   9
ATOM      9  C   UNL     1      21.149  16.580  15.323  1.00  0.00    -0.011 C 
ATOM     10  C   UNL     1      21.696  16.449  13.886  1.00  0.00     0.008 C 
BRANCH   9  11
ATOM     11  C   UNL     1      22.119  15.968  16.394  1.00  0.00    -0.002 C 
ATOM     12  C   UNL     1      21.602  14.647  16.968  1.00  0.00     0.005 C 
ATOM     13  C   UNL     1      22.471  16.806  17.675  1.00  0.00    -0.026 C 
ATOM     14  C   UNL     1      22.504  14.362  18.151  1.00  0.00     0.005 C 
ATOM     15  C   UNL     1      22.944  15.731  18.708  1.00  0.00    -0.001 C 
ATOM     16  C   UNL     1      21.242  17.562  18.253  1.00  0.00     0.007 C 
ATOM     17  C   UNL     1      23.638  17.792  17.382  1.00  0.00     0.012 C 
ATOM     18  C   UNL     1      22.450  15.915  20.189  1.00  0.00     0.004 C 
ATOM     19  C   UNL     1      21.585  18.299  19.550  1.00  0.00     0.005 C 
ATOM     20  C   UNL     1      22.241  17.391  20.634  1.00  0.00     0.003 C 
ATOM     21  C   UNL     1      23.474  15.239  21.136  1.00  0.00     0.085 C 
ATOM     22  C   UNL     1      21.554  17.482  22.066  1.00  0.00    -0.000 C 
ATOM     23  C   UNL     1      23.229  15.536  22.583  1.00  0.00     0.159 C 
ATOM     24  C   UNL     1      22.095  16.387  22.997  1.00  0.00     0.005 C 
ATOM     25  C   UNL     1      19.997  17.305  22.027  1.00  0.00     0.020 C 
ATOM     26  C   UNL     1      21.916  18.860  22.675  1.00  0.00     0.017 C 
ATOM     27  O   UNL     1      23.990  15.017  23.445  1.00  0.00    -0.295 OA
ATOM     28  C   UNL     1      21.478  16.108  24.162  1.00  0.00     0.055 C 
ATOM     29  C   UNL     1      19.350  17.385  23.425  1.00  0.00     0.081 C 
ATOM     30  C   UNL     1      20.151  16.659  24.470  1.00  0.00     0.156 C 
ATOM     31  O   UNL     1      19.668  16.500  25.624  1.00  0.00    -0.295 OA
ENDBRANCH   9  11
ENDBRANCH   8   9
ENDBRANCH   1   8
TORSDOF 6
ENDMDL
