MODEL 1
REMARK VINA RESULT:    -4.037      0.000      0.000
REMARK INTER + INTRA:          -7.672
REMARK INTER:                  -6.396
REMARK INTRA:                  -1.276
REMARK UNBOUND:                -1.276
REMARK SMILES CCCCCCCCCCCC(=O)[O-]
REMARK SMILES IDX 7 1 8 2 9 3 10 4 11 5 12 6 13 7 14 8 6 9 5 10 4 11 3 12 2 13
REMARK SMILES IDX 1 14
REMARK H PARENT
REMARK Flexibility Score: inf
ROOT
ATOM      1  C   UNL     1       7.585   5.598  19.278  1.00  0.00     0.000 C 
ENDROOT
BRANCH   1   2
ATOM      2  C   UNL     1       7.344   4.095  19.093  1.00  0.00     0.000 C 
BRANCH   2   3
ATOM      3  C   UNL     1       5.869   3.741  19.320  1.00  0.00     0.000 C 
BRANCH   3   4
ATOM      4  C   UNL     1       5.723   2.635  20.375  1.00  0.00     0.006 C 
BRANCH   4   5
ATOM      5  C   UNL     1       4.871   3.080  21.570  1.00  0.00     0.053 C 
BRANCH   5   6
ATOM      6  C   UNL     1       5.079   4.530  21.889  1.00  0.00     0.041 C 
ATOM      7  O   UNL     1       6.103   4.900  22.519  1.00  0.00    -0.550 OA
ATOM      8  O   UNL     1       4.155   5.474  21.462  1.00  0.00    -0.550 OA
ENDBRANCH   5   6
ENDBRANCH   4   5
ENDBRANCH   3   4
ENDBRANCH   2   3
ENDBRANCH   1   2
BRANCH   1   9
ATOM      9  C   UNL     1       6.375   6.411  18.794  1.00  0.00     0.000 C 
BRANCH   9  10
ATOM     10  C   UNL     1       6.541   6.915  17.350  1.00  0.00    -0.000 C 
BRANCH  10  11
ATOM     11  C   UNL     1       5.797   6.035  16.330  1.00  0.00    -0.000 C 
BRANCH  11  12
ATOM     12  C   UNL     1       6.742   5.101  15.557  1.00  0.00    -0.000 C 
BRANCH  12  13
ATOM     13  C   UNL     1       8.179   5.639  15.492  1.00  0.00    -0.003 C 
ATOM     14  C   UNL     1       9.190   4.547  15.830  1.00  0.00     0.004 C 
ENDBRANCH  12  13
ENDBRANCH  11  12
ENDBRANCH  10  11
ENDBRANCH   9  10
ENDBRANCH   1   9
TORSDOF 10
ENDMDL
MODEL 2
REMARK VINA RESULT:    -4.027      2.720      4.525
REMARK INTER + INTRA:          -7.658
REMARK INTER:                  -6.407
REMARK INTRA:                  -1.251
REMARK UNBOUND:                -1.276
REMARK SMILES CCCCCCCCCCCC(=O)[O-]
REMARK SMILES IDX 7 1 8 2 9 3 10 4 11 5 12 6 13 7 14 8 6 9 5 10 4 11 3 12 2 13
REMARK SMILES IDX 1 14
REMARK H PARENT
REMARK Flexibility Score: inf
ROOT
ATOM      1  C   UNL     1       9.885   5.589  16.108  1.00  0.00     0.000 C 
ENDROOT
BRANCH   1   2
ATOM      2  C   UNL     1       8.542   4.876  16.305  1.00  0.00     0.000 C 
BRANCH   2   3
ATOM      3  C   UNL     1       7.441   5.530  15.461  1.00  0.00     0.000 C 
BRANCH   3   4
ATOM      4  C   UNL     1       6.200   5.834  16.314  1.00  0.00     0.006 C 
BRANCH   4   5
ATOM      5  C   UNL     1       6.416   7.031  17.246  1.00  0.00     0.053 C 
BRANCH   5   6
ATOM      6  C   UNL     1       6.370   6.627  18.689  1.00  0.00     0.041 C 
ATOM      7  O   UNL     1       6.297   5.411  19.004  1.00  0.00    -0.550 OA
ATOM      8  O   UNL     1       6.443   7.593  19.684  1.00  0.00    -0.550 OA
ENDBRANCH   5   6
ENDBRANCH   4   5
ENDBRANCH   3   4
ENDBRANCH   2   3
ENDBRANCH   1   2
BRANCH   1   9
ATOM      9  C   UNL     1       9.742   6.770  15.136  1.00  0.00     0.000 C 
BRANCH   9  10
ATOM     10  C   UNL     1      10.812   6.759  14.032  1.00  0.00    -0.000 C 
BRANCH  10  11
ATOM     11  C   UNL     1      10.204   6.648  12.622  1.00  0.00    -0.000 C 
BRANCH  11  12
ATOM     12  C   UNL     1      10.114   5.194  12.132  1.00  0.00    -0.000 C 
BRANCH  12  13
ATOM     13  C   UNL     1       8.666   4.696  12.026  1.00  0.00    -0.003 C 
ATOM     14  C   UNL     1       8.495   3.350  12.723  1.00  0.00     0.004 C 
ENDBRANCH  12  13
ENDBRANCH  11  12
ENDBRANCH  10  11
ENDBRANCH   9  10
ENDBRANCH   1   9
TORSDOF 10
ENDMDL
MODEL 3
REMARK VINA RESULT:    -4.021      4.779      7.409
REMARK INTER + INTRA:          -7.648
REMARK INTER:                  -6.278
REMARK INTRA:                  -1.370
REMARK UNBOUND:                -1.276
REMARK SMILES CCCCCCCCCCCC(=O)[O-]
REMARK SMILES IDX 7 1 8 2 9 3 10 4 11 5 12 6 13 7 14 8 6 9 5 10 4 11 3 12 2 13
REMARK SMILES IDX 1 14
REMARK H PARENT
REMARK Flexibility Score: inf
ROOT
ATOM      1  C   UNL     1       9.669   6.755  15.532  1.00  0.00     0.000 C 
ENDROOT
BRANCH   1   2
ATOM      2  C   UNL     1      10.554   7.138  14.341  1.00  0.00     0.000 C 
BRANCH   2   3
ATOM      3  C   UNL     1      10.863   5.915  13.468  1.00  0.00     0.000 C 
BRANCH   3   4
ATOM      4  C   UNL     1      10.157   6.016  12.108  1.00  0.00     0.006 C 
BRANCH   4   5
ATOM      5  C   UNL     1       8.988   5.030  11.986  1.00  0.00     0.053 C 
BRANCH   5   6
ATOM      6  C   UNL     1       9.443   3.609  12.130  1.00  0.00     0.041 C 
ATOM      7  O   UNL     1       8.926   2.864  13.002  1.00  0.00    -0.550 OA
ATOM      8  O   UNL     1      10.414   3.101  11.276  1.00  0.00    -0.550 OA
ENDBRANCH   5   6
ENDBRANCH   4   5
ENDBRANCH   3   4
ENDBRANCH   2   3
ENDBRANCH   1   2
BRANCH   1   9
ATOM      9  C   UNL     1       9.830   5.268  15.881  1.00  0.00     0.000 C 
BRANCH   9  10
ATOM     10  C   UNL     1       8.484   4.575  16.152  1.00  0.00    -0.000 C 
BRANCH  10  11
ATOM     11  C   UNL     1       7.349   5.123  15.269  1.00  0.00    -0.000 C 
BRANCH  11  12
ATOM     12  C   UNL     1       6.072   5.422  16.069  1.00  0.00    -0.000 C 
BRANCH  12  13
ATOM     13  C   UNL     1       6.332   6.336  17.276  1.00  0.00    -0.003 C 
ATOM     14  C   UNL     1       6.351   7.803  16.860  1.00  0.00     0.004 C 
ENDBRANCH  12  13
ENDBRANCH  11  12
ENDBRANCH  10  11
ENDBRANCH   9  10
ENDBRANCH   1   9
TORSDOF 10
ENDMDL
MODEL 4
REMARK VINA RESULT:    -3.984      2.672      5.640
REMARK INTER + INTRA:          -7.589
REMARK INTER:                  -6.250
REMARK INTRA:                  -1.340
REMARK UNBOUND:                -1.276
REMARK SMILES CCCCCCCCCCCC(=O)[O-]
REMARK SMILES IDX 7 1 8 2 9 3 10 4 11 5 12 6 13 7 14 8 6 9 5 10 4 11 3 12 2 13
REMARK SMILES IDX 1 14
REMARK H PARENT
REMARK Flexibility Score: inf
ROOT
ATOM      1  C   UNL     1       5.906   3.889  19.298  1.00  0.00     0.000 C 
ENDROOT
BRANCH   1   2
ATOM      2  C   UNL     1       7.406   4.196  19.230  1.00  0.00     0.000 C 
BRANCH   2   3
ATOM      3  C   UNL     1       7.654   5.630  18.748  1.00  0.00     0.000 C 
BRANCH   3   4
ATOM      4  C   UNL     1       6.350   6.284  18.268  1.00  0.00     0.006 C 
BRANCH   4   5
ATOM      5  C   UNL     1       6.396   6.648  16.779  1.00  0.00     0.053 C 
BRANCH   5   6
ATOM      6  C   UNL     1       6.280   5.435  15.907  1.00  0.00     0.041 C 
ATOM      7  O   UNL     1       5.170   4.860  15.765  1.00  0.00    -0.550 OA
ATOM      8  O   UNL     1       7.394   4.961  15.226  1.00  0.00    -0.550 OA
ENDBRANCH   5   6
ENDBRANCH   4   5
ENDBRANCH   3   4
ENDBRANCH   2   3
ENDBRANCH   1   2
BRANCH   1   9
ATOM      9  C   UNL     1       5.636   2.660  20.178  1.00  0.00     0.000 C 
BRANCH   9  10
ATOM     10  C   UNL     1       4.968   3.024  21.514  1.00  0.00    -0.000 C 
BRANCH  10  11
ATOM     11  C   UNL     1       4.627   4.521  21.615  1.00  0.00    -0.000 C 
BRANCH  11  12
ATOM     12  C   UNL     1       5.374   5.220  22.763  1.00  0.00    -0.000 C 
BRANCH  12  13
ATOM     13  C   UNL     1       6.171   6.444  22.289  1.00  0.00    -0.003 C 
ATOM     14  C   UNL     1       5.308   7.362  21.429  1.00  0.00     0.004 C 
ENDBRANCH  12  13
ENDBRANCH  11  12
ENDBRANCH  10  11
ENDBRANCH   9  10
ENDBRANCH   1   9
TORSDOF 10
ENDMDL
MODEL 5
REMARK VINA RESULT:    -3.976      1.660      2.649
REMARK INTER + INTRA:          -7.576
REMARK INTER:                  -6.572
REMARK INTRA:                  -1.004
REMARK UNBOUND:                -1.276
REMARK SMILES CCCCCCCCCCCC(=O)[O-]
REMARK SMILES IDX 7 1 8 2 9 3 10 4 11 5 12 6 13 7 14 8 6 9 5 10 4 11 3 12 2 13
REMARK SMILES IDX 1 14
REMARK H PARENT
REMARK Flexibility Score: inf
ROOT
ATOM      1  C   UNL     1       6.587   6.864  17.278  1.00  0.00     0.000 C 
ENDROOT
BRANCH   1   2
ATOM      2  C   UNL     1       6.362   6.376  18.714  1.00  0.00     0.000 C 
BRANCH   2   3
ATOM      3  C   UNL     1       7.590   5.622  19.239  1.00  0.00     0.000 C 
BRANCH   3   4
ATOM      4  C   UNL     1       7.346   4.105  19.243  1.00  0.00     0.006 C 
BRANCH   4   5
ATOM      5  C   UNL     1       5.856   3.756  19.150  1.00  0.00     0.053 C 
BRANCH   5   6
ATOM      6  C   UNL     1       5.330   3.218  20.447  1.00  0.00     0.041 C 
ATOM      7  O   UNL     1       5.721   2.101  20.874  1.00  0.00    -0.550 OA
ATOM      8  O   UNL     1       4.434   3.968  21.197  1.00  0.00    -0.550 OA
ENDBRANCH   5   6
ENDBRANCH   4   5
ENDBRANCH   3   4
ENDBRANCH   2   3
ENDBRANCH   1   2
BRANCH   1   9
ATOM      9  C   UNL     1       5.764   6.036  16.281  1.00  0.00     0.000 C 
BRANCH   9  10
ATOM     10  C   UNL     1       6.609   4.978  15.551  1.00  0.00    -0.000 C 
BRANCH  10  11
ATOM     11  C   UNL     1       8.099   5.357  15.481  1.00  0.00    -0.000 C 
BRANCH  11  12
ATOM     12  C   UNL     1       8.746   4.958  14.146  1.00  0.00    -0.000 C 
BRANCH  12  13
ATOM     13  C   UNL     1       7.970   3.848  13.423  1.00  0.00    -0.003 C 
ATOM     14  C   UNL     1       8.758   3.315  12.229  1.00  0.00     0.004 C 
ENDBRANCH  12  13
ENDBRANCH  11  12
ENDBRANCH  10  11
ENDBRANCH   9  10
ENDBRANCH   1   9
TORSDOF 10
ENDMDL
MODEL 6
REMARK VINA RESULT:    -3.974      2.968      5.749
REMARK INTER + INTRA:          -7.573
REMARK INTER:                  -6.177
REMARK INTRA:                  -1.396
REMARK UNBOUND:                -1.276
REMARK SMILES CCCCCCCCCCCC(=O)[O-]
REMARK SMILES IDX 7 1 8 2 9 3 10 4 11 5 12 6 13 7 14 8 6 9 5 10 4 11 3 12 2 13
REMARK SMILES IDX 1 14
REMARK H PARENT
REMARK Flexibility Score: inf
ROOT
ATOM      1  C   UNL     1       7.726   5.193  19.518  1.00  0.00     0.000 C 
ENDROOT
BRANCH   1   2
ATOM      2  C   UNL     1       6.499   5.883  18.910  1.00  0.00     0.000 C 
BRANCH   2   3
ATOM      3  C   UNL     1       5.970   5.102  17.701  1.00  0.00     0.000 C 
BRANCH   3   4
ATOM      4  C   UNL     1       5.933   5.986  16.446  1.00  0.00     0.006 C 
BRANCH   4   5
ATOM      5  C   UNL     1       7.233   6.776  16.253  1.00  0.00     0.053 C 
BRANCH   5   6
ATOM      6  C   UNL     1       8.345   5.902  15.755  1.00  0.00     0.041 C 
ATOM      7  O   UNL     1       9.468   5.921  16.322  1.00  0.00    -0.550 OA
ATOM      8  O   UNL     1       8.127   5.043  14.686  1.00  0.00    -0.550 OA
ENDBRANCH   5   6
ENDBRANCH   4   5
ENDBRANCH   3   4
ENDBRANCH   2   3
ENDBRANCH   1   2
BRANCH   1   9
ATOM      9  C   UNL     1       7.835   3.740  19.034  1.00  0.00     0.000 C 
BRANCH   9  10
ATOM     10  C   UNL     1       7.535   2.721  20.146  1.00  0.00    -0.000 C 
BRANCH  10  11
ATOM     11  C   UNL     1       6.070   2.249  20.135  1.00  0.00    -0.000 C 
BRANCH  11  12
ATOM     12  C   UNL     1       5.318   2.634  21.419  1.00  0.00    -0.000 C 
BRANCH  12  13
ATOM     13  C   UNL     1       4.516   3.934  21.266  1.00  0.00    -0.003 C 
ATOM     14  C   UNL     1       4.936   4.964  22.311  1.00  0.00     0.004 C 
ENDBRANCH  12  13
ENDBRANCH  11  12
ENDBRANCH  10  11
ENDBRANCH   9  10
ENDBRANCH   1   9
TORSDOF 10
ENDMDL
MODEL 7
REMARK VINA RESULT:    -3.950      1.175      2.174
REMARK INTER + INTRA:          -7.536
REMARK INTER:                  -6.356
REMARK INTRA:                  -1.180
REMARK UNBOUND:                -1.276
REMARK SMILES CCCCCCCCCCCC(=O)[O-]
REMARK SMILES IDX 7 1 8 2 9 3 10 4 11 5 12 6 13 7 14 8 6 9 5 10 4 11 3 12 2 13
REMARK SMILES IDX 1 14
REMARK H PARENT
REMARK Flexibility Score: inf
ROOT
ATOM      1  C   UNL     1       5.925   3.837  19.281  1.00  0.00     0.000 C 
ENDROOT
BRANCH   1   2
ATOM      2  C   UNL     1       5.977   2.491  20.014  1.00  0.00     0.000 C 
BRANCH   2   3
ATOM      3  C   UNL     1       5.259   2.572  21.367  1.00  0.00     0.000 C 
BRANCH   3   4
ATOM      4  C   UNL     1       4.502   3.900  21.511  1.00  0.00     0.006 C 
BRANCH   4   5
ATOM      5  C   UNL     1       4.900   4.660  22.782  1.00  0.00     0.053 C 
BRANCH   5   6
ATOM      6  C   UNL     1       5.940   5.703  22.504  1.00  0.00     0.041 C 
ATOM      7  O   UNL     1       7.159   5.444  22.679  1.00  0.00    -0.550 OA
ATOM      8  O   UNL     1       5.562   6.948  22.019  1.00  0.00    -0.550 OA
ENDBRANCH   5   6
ENDBRANCH   4   5
ENDBRANCH   3   4
ENDBRANCH   2   3
ENDBRANCH   1   2
BRANCH   1   9
ATOM      9  C   UNL     1       7.326   4.452  19.162  1.00  0.00     0.000 C 
BRANCH   9  10
ATOM     10  C   UNL     1       7.291   5.985  19.044  1.00  0.00    -0.000 C 
BRANCH  10  11
ATOM     11  C   UNL     1       6.404   6.468  17.883  1.00  0.00    -0.000 C 
BRANCH  11  12
ATOM     12  C   UNL     1       7.160   6.516  16.545  1.00  0.00    -0.000 C 
BRANCH  12  13
ATOM     13  C   UNL     1       6.801   5.341  15.623  1.00  0.00    -0.003 C 
ATOM     14  C   UNL     1       5.331   4.960  15.765  1.00  0.00     0.004 C 
ENDBRANCH  12  13
ENDBRANCH  11  12
ENDBRANCH  10  11
ENDBRANCH   9  10
ENDBRANCH   1   9
TORSDOF 10
ENDMDL
MODEL 8
REMARK VINA RESULT:    -3.931      4.617      7.160
REMARK INTER + INTRA:          -7.506
REMARK INTER:                  -6.486
REMARK INTRA:                  -1.019
REMARK UNBOUND:                -1.276
REMARK SMILES CCCCCCCCCCCC(=O)[O-]
REMARK SMILES IDX 7 1 8 2 9 3 10 4 11 5 12 6 13 7 14 8 6 9 5 10 4 11 3 12 2 13
REMARK SMILES IDX 1 14
REMARK H PARENT
REMARK Flexibility Score: inf
ROOT
ATOM      1  C   UNL     1       8.660   4.662  16.207  1.00  0.00     0.000 C 
ENDROOT
BRANCH   1   2
ATOM      2  C   UNL     1       9.945   5.498  16.159  1.00  0.00     0.000 C 
BRANCH   2   3
ATOM      3  C   UNL     1       9.770   6.726  15.256  1.00  0.00     0.000 C 
BRANCH   3   4
ATOM      4  C   UNL     1      10.858   6.773  14.174  1.00  0.00     0.006 C 
BRANCH   4   5
ATOM      5  C   UNL     1      10.269   6.799  12.758  1.00  0.00     0.053 C 
BRANCH   5   6
ATOM      6  C   UNL     1      10.098   5.417  12.203  1.00  0.00     0.041 C 
ATOM      7  O   UNL     1      11.106   4.713  11.932  1.00  0.00    -0.550 OA
ATOM      8  O   UNL     1       8.825   4.896  12.018  1.00  0.00    -0.550 OA
ENDBRANCH   5   6
ENDBRANCH   4   5
ENDBRANCH   3   4
ENDBRANCH   2   3
ENDBRANCH   1   2
BRANCH   1   9
ATOM      9  C   UNL     1       7.561   5.294  15.342  1.00  0.00     0.000 C 
BRANCH   9  10
ATOM     10  C   UNL     1       6.261   5.543  16.124  1.00  0.00    -0.000 C 
BRANCH  10  11
ATOM     11  C   UNL     1       6.242   6.917  16.817  1.00  0.00    -0.000 C 
BRANCH  11  12
ATOM     12  C   UNL     1       6.622   6.832  18.304  1.00  0.00    -0.000 C 
BRANCH  12  13
ATOM     13  C   UNL     1       6.365   5.441  18.900  1.00  0.00    -0.003 C 
ATOM     14  C   UNL     1       5.744   5.544  20.290  1.00  0.00     0.004 C 
ENDBRANCH  12  13
ENDBRANCH  11  12
ENDBRANCH  10  11
ENDBRANCH   9  10
ENDBRANCH   1   9
TORSDOF 10
ENDMDL
MODEL 9
REMARK VINA RESULT:    -3.909      1.034      2.223
REMARK INTER + INTRA:          -7.471
REMARK INTER:                  -6.172
REMARK INTRA:                  -1.299
REMARK UNBOUND:                -1.276
REMARK SMILES CCCCCCCCCCCC(=O)[O-]
REMARK SMILES IDX 7 1 8 2 9 3 10 4 11 5 12 6 13 7 14 8 6 9 5 10 4 11 3 12 2 13
REMARK SMILES IDX 1 14
REMARK H PARENT
REMARK Flexibility Score: inf
ROOT
ATOM      1  C   UNL     1       8.841   5.262  18.833  1.00  0.00     0.000 C 
ENDROOT
BRANCH   1   2
ATOM      2  C   UNL     1       7.710   4.886  19.796  1.00  0.00     0.000 C 
BRANCH   2   3
ATOM      3  C   UNL     1       7.099   3.529  19.426  1.00  0.00     0.000 C 
BRANCH   3   4
ATOM      4  C   UNL     1       5.585   3.516  19.688  1.00  0.00     0.006 C 
BRANCH   4   5
ATOM      5  C   UNL     1       5.239   2.961  21.074  1.00  0.00     0.053 C 
BRANCH   5   6
ATOM      6  C   UNL     1       4.545   3.982  21.924  1.00  0.00     0.041 C 
ATOM      7  O   UNL     1       4.188   3.695  23.096  1.00  0.00    -0.550 OA
ATOM      8  O   UNL     1       4.325   5.262  21.431  1.00  0.00    -0.550 OA
ENDBRANCH   5   6
ENDBRANCH   4   5
ENDBRANCH   3   4
ENDBRANCH   2   3
ENDBRANCH   1   2
BRANCH   1   9
ATOM      9  C   UNL     1       8.991   4.210  17.724  1.00  0.00     0.000 C 
BRANCH   9  10
ATOM     10  C   UNL     1       9.419   4.824  16.381  1.00  0.00    -0.000 C 
BRANCH  10  11
ATOM     11  C   UNL     1       8.401   5.849  15.849  1.00  0.00    -0.000 C 
BRANCH  11  12
ATOM     12  C   UNL     1       7.017   5.230  15.598  1.00  0.00    -0.000 C 
BRANCH  12  13
ATOM     13  C   UNL     1       5.918   5.878  16.453  1.00  0.00    -0.003 C 
ATOM     14  C   UNL     1       6.292   7.305  16.839  1.00  0.00     0.004 C 
ENDBRANCH  12  13
ENDBRANCH  11  12
ENDBRANCH  10  11
ENDBRANCH   9  10
ENDBRANCH   1   9
TORSDOF 10
ENDMDL
