MODEL 1
REMARK VINA RESULT:     4.138      0.000      0.000
REMARK INTER + INTRA:           5.229
REMARK INTER:                   5.589
REMARK INTRA:                  -0.359
REMARK UNBOUND:                -0.359
REMARK SMILES CC(=O)CCC=C(C)CCC=C(C)C
REMARK SMILES IDX 7 1 6 2 8 3 9 4 10 5 11 6 13 7 12 8 14 9 5 10 4 11 2 12 3 13
REMARK SMILES IDX 1 14
REMARK H PARENT
REMARK Flexibility Score: inf
ROOT
ATOM      1  C   UNL     1      22.231  22.387  45.836  1.00  0.00    -0.077 C 
ATOM      2  C   UNL     1      21.342  21.704  46.589  1.00  0.00    -0.028 C 
ATOM      3  C   UNL     1      21.780  23.338  44.753  1.00  0.00     0.039 C 
ENDROOT
BRANCH   1   4
ATOM      4  C   UNL     1      23.711  22.198  46.086  1.00  0.00     0.034 C 
BRANCH   4   5
ATOM      5  C   UNL     1      24.493  23.464  45.716  1.00  0.00     0.032 C 
BRANCH   5   6
ATOM      6  C   UNL     1      25.840  23.478  46.393  1.00  0.00    -0.028 C 
ATOM      7  C   UNL     1      27.062  24.120  44.304  1.00  0.00     0.039 C 
ATOM      8  C   UNL     1      27.001  23.795  45.778  1.00  0.00    -0.080 C 
ATOM      9  C   UNL     1      28.268  23.804  46.593  1.00  0.00     0.039 C 
ENDBRANCH   5   6
ENDBRANCH   4   5
ENDBRANCH   1   4
BRANCH   2  10
ATOM     10  C   UNL     1      19.845  21.826  46.414  1.00  0.00     0.035 C 
BRANCH  10  11
ATOM     11  C   UNL     1      19.293  23.105  47.055  1.00  0.00     0.079 C 
BRANCH  11  12
ATOM     12  C   UNL     1      18.163  23.691  46.247  1.00  0.00     0.130 C 
ATOM     13  O   UNL     1      17.116  23.987  46.803  1.00  0.00    -0.300 OA
ATOM     14  C   UNL     1      18.298  23.929  44.772  1.00  0.00     0.087 C 
ENDBRANCH  11  12
ENDBRANCH  10  11
ENDBRANCH   2  10
TORSDOF 6
ENDMDL
