MODEL 1
REMARK VINA RESULT:    -4.256      0.000      0.000
REMARK INTER + INTRA:          -7.023
REMARK INTER:                  -5.749
REMARK INTRA:                  -1.274
REMARK UNBOUND:                -1.274
REMARK SMILES CC(=O)CCC=C(C)CCC=C(C)C
REMARK SMILES IDX 7 1 6 2 8 3 9 4 10 5 11 6 13 7 12 8 14 9 5 10 4 11 2 12 3 13
REMARK SMILES IDX 1 14
REMARK H PARENT
REMARK Flexibility Score: inf
ROOT
ATOM      1  C   UNL     1       3.853   7.686  12.367  1.00  0.00    -0.077 C 
ATOM      2  C   UNL     1       4.918   7.018  12.867  1.00  0.00    -0.028 C 
ATOM      3  C   UNL     1       4.000   8.720  11.276  1.00  0.00     0.039 C 
ENDROOT
BRANCH   1   4
ATOM      4  C   UNL     1       2.475   7.376  12.910  1.00  0.00     0.034 C 
BRANCH   4   5
ATOM      5  C   UNL     1       1.966   8.521  13.794  1.00  0.00     0.032 C 
BRANCH   5   6
ATOM      6  C   UNL     1       2.470   8.371  15.206  1.00  0.00    -0.028 C 
ATOM      7  C   UNL     1       4.125  10.238  14.984  1.00  0.00     0.039 C 
ATOM      8  C   UNL     1       3.458   9.118  15.748  1.00  0.00    -0.080 C 
ATOM      9  C   UNL     1       3.883   8.829  17.165  1.00  0.00     0.039 C 
ENDBRANCH   5   6
ENDBRANCH   4   5
ENDBRANCH   1   4
BRANCH   2  10
ATOM     10  C   UNL     1       6.342   7.182  12.390  1.00  0.00     0.035 C 
BRANCH  10  11
ATOM     11  C   UNL     1       7.161   8.045  13.358  1.00  0.00     0.079 C 
BRANCH  11  12
ATOM     12  C   UNL     1       7.750   9.249  12.670  1.00  0.00     0.130 C 
ATOM     13  O   UNL     1       8.815   9.145  12.080  1.00  0.00    -0.300 OA
ATOM     14  C   UNL     1       7.051  10.575  12.692  1.00  0.00     0.087 C 
ENDBRANCH  11  12
ENDBRANCH  10  11
ENDBRANCH   2  10
TORSDOF 6
ENDMDL
MODEL 2
REMARK VINA RESULT:    -4.216     17.839     20.211
REMARK INTER + INTRA:          -6.969
REMARK INTER:                  -6.032
REMARK INTRA:                  -0.937
REMARK UNBOUND:                -1.274
REMARK SMILES CC(=O)CCC=C(C)CCC=C(C)C
REMARK SMILES IDX 7 1 6 2 8 3 9 4 10 5 11 6 13 7 12 8 14 9 5 10 4 11 2 12 3 13
REMARK SMILES IDX 1 14
REMARK H PARENT
REMARK Flexibility Score: inf
ROOT
ATOM      1  C   UNL     1      20.346  20.589   8.357  1.00  0.00    -0.077 C 
ATOM      2  C   UNL     1      19.280  20.371   9.162  1.00  0.00    -0.028 C 
ATOM      3  C   UNL     1      21.081  19.457   7.680  1.00  0.00     0.039 C 
ENDROOT
BRANCH   1   4
ATOM      4  C   UNL     1      20.805  22.012   8.122  1.00  0.00     0.034 C 
BRANCH   4   5
ATOM      5  C   UNL     1      20.353  22.928   9.265  1.00  0.00     0.032 C 
BRANCH   5   6
ATOM      6  C   UNL     1      19.718  24.184   8.725  1.00  0.00    -0.028 C 
ATOM      7  C   UNL     1      17.421  23.540   9.489  1.00  0.00     0.039 C 
ATOM      8  C   UNL     1      18.397  24.462   8.795  1.00  0.00    -0.080 C 
ATOM      9  C   UNL     1      17.898  25.743   8.177  1.00  0.00     0.039 C 
ENDBRANCH   5   6
ENDBRANCH   4   5
ENDBRANCH   1   4
BRANCH   2  10
ATOM     10  C   UNL     1      18.677  19.015   9.448  1.00  0.00     0.035 C 
BRANCH  10  11
ATOM     11  C   UNL     1      19.029  18.534  10.861  1.00  0.00     0.079 C 
BRANCH  11  12
ATOM     12  C   UNL     1      20.386  17.880  10.906  1.00  0.00     0.130 C 
ATOM     13  O   UNL     1      21.355  18.529  11.270  1.00  0.00    -0.300 OA
ATOM     14  C   UNL     1      20.570  16.445  10.516  1.00  0.00     0.087 C 
ENDBRANCH  11  12
ENDBRANCH  10  11
ENDBRANCH   2  10
TORSDOF 6
ENDMDL
MODEL 3
REMARK VINA RESULT:    -4.191     17.317     19.643
REMARK INTER + INTRA:          -6.936
REMARK INTER:                  -6.031
REMARK INTRA:                  -0.904
REMARK UNBOUND:                -1.274
REMARK SMILES CC(=O)CCC=C(C)CCC=C(C)C
REMARK SMILES IDX 7 1 6 2 8 3 9 4 10 5 11 6 13 7 12 8 14 9 5 10 4 11 2 12 3 13
REMARK SMILES IDX 1 14
REMARK H PARENT
REMARK Flexibility Score: inf
ROOT
ATOM      1  C   UNL     1      17.745  20.721   9.407  1.00  0.00    -0.077 C 
ATOM      2  C   UNL     1      19.020  20.475   9.025  1.00  0.00    -0.028 C 
ATOM      3  C   UNL     1      16.566  20.078   8.718  1.00  0.00     0.039 C 
ENDROOT
BRANCH   1   4
ATOM      4  C   UNL     1      17.500  21.660  10.569  1.00  0.00     0.034 C 
BRANCH   4   5
ATOM      5  C   UNL     1      18.454  22.859  10.514  1.00  0.00     0.032 C 
BRANCH   5   6
ATOM      6  C   UNL     1      17.830  24.006   9.762  1.00  0.00    -0.028 C 
ATOM      7  C   UNL     1      19.809  24.305   8.256  1.00  0.00     0.039 C 
ATOM      8  C   UNL     1      18.436  24.683   8.761  1.00  0.00    -0.080 C 
ATOM      9  C   UNL     1      17.702  25.835   8.125  1.00  0.00     0.039 C 
ENDBRANCH   5   6
ENDBRANCH   4   5
ENDBRANCH   1   4
BRANCH   2  10
ATOM     10  C   UNL     1      19.422  19.525   7.921  1.00  0.00     0.035 C 
BRANCH  10  11
ATOM     11  C   UNL     1      20.708  18.769   8.273  1.00  0.00     0.079 C 
BRANCH  11  12
ATOM     12  C   UNL     1      20.461  17.699   9.306  1.00  0.00     0.130 C 
ATOM     13  O   UNL     1      21.133  17.680  10.326  1.00  0.00    -0.300 OA
ATOM     14  C   UNL     1      19.402  16.657   9.107  1.00  0.00     0.087 C 
ENDBRANCH  11  12
ENDBRANCH  10  11
ENDBRANCH   2  10
TORSDOF 6
ENDMDL
MODEL 4
REMARK VINA RESULT:    -4.155     17.784     20.069
REMARK INTER + INTRA:          -6.887
REMARK INTER:                  -5.748
REMARK INTRA:                  -1.139
REMARK UNBOUND:                -1.274
REMARK SMILES CC(=O)CCC=C(C)CCC=C(C)C
REMARK SMILES IDX 7 1 6 2 8 3 9 4 10 5 11 6 13 7 12 8 14 9 5 10 4 11 2 12 3 13
REMARK SMILES IDX 1 14
REMARK H PARENT
REMARK Flexibility Score: inf
ROOT
ATOM      1  C   UNL     1      17.799  23.469   9.526  1.00  0.00    -0.077 C 
ATOM      2  C   UNL     1      18.856  22.989  10.221  1.00  0.00    -0.028 C 
ATOM      3  C   UNL     1      17.870  24.769   8.760  1.00  0.00     0.039 C 
ENDROOT
BRANCH   1   4
ATOM      4  C   UNL     1      16.513  22.671   9.508  1.00  0.00     0.034 C 
BRANCH   4   5
ATOM      5  C   UNL     1      16.723  21.282  10.122  1.00  0.00     0.032 C 
BRANCH   5   6
ATOM      6  C   UNL     1      16.943  20.249   9.046  1.00  0.00    -0.028 C 
ATOM      7  C   UNL     1      19.029  19.356  10.108  1.00  0.00     0.039 C 
ATOM      8  C   UNL     1      17.989  19.393   9.012  1.00  0.00    -0.080 C 
ATOM      9  C   UNL     1      18.098  18.437   7.852  1.00  0.00     0.039 C 
ENDBRANCH   5   6
ENDBRANCH   4   5
ENDBRANCH   1   4
BRANCH   2  10
ATOM     10  C   UNL     1      20.215  23.646  10.289  1.00  0.00     0.035 C 
BRANCH  10  11
ATOM     11  C   UNL     1      21.305  22.738   9.708  1.00  0.00     0.079 C 
BRANCH  11  12
ATOM     12  C   UNL     1      21.083  22.468   8.242  1.00  0.00     0.130 C 
ATOM     13  O   UNL     1      20.882  21.323   7.864  1.00  0.00    -0.300 OA
ATOM     14  C   UNL     1      21.100  23.578   7.235  1.00  0.00     0.087 C 
ENDBRANCH  11  12
ENDBRANCH  10  11
ENDBRANCH   2  10
TORSDOF 6
ENDMDL
MODEL 5
REMARK VINA RESULT:    -4.132     17.423     19.534
REMARK INTER + INTRA:          -6.856
REMARK INTER:                  -5.379
REMARK INTRA:                  -1.477
REMARK UNBOUND:                -1.274
REMARK SMILES CC(=O)CCC=C(C)CCC=C(C)C
REMARK SMILES IDX 7 1 6 2 8 3 9 4 10 5 11 6 13 7 12 8 14 9 5 10 4 11 2 12 3 13
REMARK SMILES IDX 1 14
REMARK H PARENT
REMARK Flexibility Score: inf
ROOT
ATOM      1  C   UNL     1      17.317  20.757   9.600  1.00  0.00    -0.077 C 
ATOM      2  C   UNL     1      18.026  20.227  10.622  1.00  0.00    -0.028 C 
ATOM      3  C   UNL     1      16.903  19.935   8.403  1.00  0.00     0.039 C 
ENDROOT
BRANCH   1   4
ATOM      4  C   UNL     1      16.917  22.215   9.666  1.00  0.00     0.034 C 
BRANCH   4   5
ATOM      5  C   UNL     1      18.122  23.096  10.018  1.00  0.00     0.032 C 
BRANCH   5   6
ATOM      6  C   UNL     1      19.038  23.249   8.831  1.00  0.00    -0.028 C 
ATOM      7  C   UNL     1      21.000  22.238  10.015  1.00  0.00     0.039 C 
ATOM      8  C   UNL     1      20.342  22.891   8.822  1.00  0.00    -0.080 C 
ATOM      9  C   UNL     1      21.146  23.138   7.572  1.00  0.00     0.039 C 
ENDBRANCH   5   6
ENDBRANCH   4   5
ENDBRANCH   1   4
BRANCH   2  10
ATOM     10  C   UNL     1      18.450  18.780  10.720  1.00  0.00     0.035 C 
BRANCH  10  11
ATOM     11  C   UNL     1      19.943  18.613  10.415  1.00  0.00     0.079 C 
BRANCH  11  12
ATOM     12  C   UNL     1      20.178  18.197   8.986  1.00  0.00     0.130 C 
ATOM     13  O   UNL     1      19.964  17.041   8.652  1.00  0.00    -0.300 OA
ATOM     14  C   UNL     1      20.666  19.176   7.961  1.00  0.00     0.087 C 
ENDBRANCH  11  12
ENDBRANCH  10  11
ENDBRANCH   2  10
TORSDOF 6
ENDMDL
MODEL 6
REMARK VINA RESULT:    -4.109     15.649     18.686
REMARK INTER + INTRA:          -6.824
REMARK INTER:                  -5.527
REMARK INTRA:                  -1.297
REMARK UNBOUND:                -1.274
REMARK SMILES CC(=O)CCC=C(C)CCC=C(C)C
REMARK SMILES IDX 7 1 6 2 8 3 9 4 10 5 11 6 13 7 12 8 14 9 5 10 4 11 2 12 3 13
REMARK SMILES IDX 1 14
REMARK H PARENT
REMARK Flexibility Score: inf
ROOT
ATOM      1  C   UNL     1      20.920  19.736   9.208  1.00  0.00    -0.077 C 
ATOM      2  C   UNL     1      20.957  18.988  10.335  1.00  0.00    -0.028 C 
ATOM      3  C   UNL     1      20.781  19.113   7.840  1.00  0.00     0.039 C 
ENDROOT
BRANCH   1   4
ATOM      4  C   UNL     1      21.008  21.242   9.327  1.00  0.00     0.034 C 
BRANCH   4   5
ATOM      5  C   UNL     1      19.692  21.903   8.901  1.00  0.00     0.032 C 
BRANCH   5   6
ATOM      6  C   UNL     1      18.680  21.846  10.016  1.00  0.00    -0.028 C 
ATOM      7  C   UNL     1      17.267  20.130   8.862  1.00  0.00     0.039 C 
ATOM      8  C   UNL     1      17.570  21.074  10.003  1.00  0.00    -0.080 C 
ATOM      9  C   UNL     1      16.627  21.150  11.175  1.00  0.00     0.039 C 
ENDBRANCH   5   6
ENDBRANCH   4   5
ENDBRANCH   1   4
BRANCH   2  10
ATOM     10  C   UNL     1      20.827  17.483  10.378  1.00  0.00     0.035 C 
BRANCH  10  11
ATOM     11  C   UNL     1      19.377  17.053  10.621  1.00  0.00     0.079 C 
BRANCH  11  12
ATOM     12  C   UNL     1      18.787  16.370   9.414  1.00  0.00     0.130 C 
ATOM     13  O   UNL     1      19.526  15.808   8.619  1.00  0.00    -0.300 OA
ATOM     14  C   UNL     1      17.308  16.361   9.171  1.00  0.00     0.087 C 
ENDBRANCH  11  12
ENDBRANCH  10  11
ENDBRANCH   2  10
TORSDOF 6
ENDMDL
MODEL 7
REMARK VINA RESULT:    -4.096     16.596     19.901
REMARK INTER + INTRA:          -6.807
REMARK INTER:                  -6.029
REMARK INTRA:                  -0.779
REMARK UNBOUND:                -1.274
REMARK SMILES CC(=O)CCC=C(C)CCC=C(C)C
REMARK SMILES IDX 7 1 6 2 8 3 9 4 10 5 11 6 13 7 12 8 14 9 5 10 4 11 2 12 3 13
REMARK SMILES IDX 1 14
REMARK H PARENT
REMARK Flexibility Score: inf
ROOT
ATOM      1  C   UNL     1      20.783  20.755   8.593  1.00  0.00    -0.077 C 
ATOM      2  C   UNL     1      20.346  19.760   7.788  1.00  0.00    -0.028 C 
ATOM      3  C   UNL     1      21.059  20.531  10.061  1.00  0.00     0.039 C 
ENDROOT
BRANCH   1   4
ATOM      4  C   UNL     1      21.011  22.128   8.001  1.00  0.00     0.034 C 
BRANCH   4   5
ATOM      5  C   UNL     1      20.816  23.220   9.059  1.00  0.00     0.032 C 
BRANCH   5   6
ATOM      6  C   UNL     1      19.600  24.055   8.749  1.00  0.00    -0.028 C 
ATOM      7  C   UNL     1      18.145  22.824  10.374  1.00  0.00     0.039 C 
ATOM      8  C   UNL     1      18.385  23.872   9.314  1.00  0.00    -0.080 C 
ATOM      9  C   UNL     1      17.249  24.762   8.877  1.00  0.00     0.039 C 
ENDBRANCH   5   6
ENDBRANCH   4   5
ENDBRANCH   1   4
BRANCH   2  10
ATOM     10  C   UNL     1      20.123  18.330   8.224  1.00  0.00     0.035 C 
BRANCH  10  11
ATOM     11  C   UNL     1      18.643  18.059   8.514  1.00  0.00     0.079 C 
BRANCH  11  12
ATOM     12  C   UNL     1      18.389  16.601   8.802  1.00  0.00     0.130 C 
ATOM     13  O   UNL     1      17.240  16.194   8.882  1.00  0.00    -0.300 OA
ATOM     14  C   UNL     1      19.522  15.638   8.990  1.00  0.00     0.087 C 
ENDBRANCH  11  12
ENDBRANCH  10  11
ENDBRANCH   2  10
TORSDOF 6
ENDMDL
MODEL 8
REMARK VINA RESULT:    -4.080     16.776     20.115
REMARK INTER + INTRA:          -6.785
REMARK INTER:                  -5.862
REMARK INTRA:                  -0.924
REMARK UNBOUND:                -1.274
REMARK SMILES CC(=O)CCC=C(C)CCC=C(C)C
REMARK SMILES IDX 7 1 6 2 8 3 9 4 10 5 11 6 13 7 12 8 14 9 5 10 4 11 2 12 3 13
REMARK SMILES IDX 1 14
REMARK H PARENT
REMARK Flexibility Score: inf
ROOT
ATOM      1  C   UNL     1      20.337  20.611   8.322  1.00  0.00    -0.077 C 
ATOM      2  C   UNL     1      19.109  20.564   8.889  1.00  0.00    -0.028 C 
ATOM      3  C   UNL     1      21.003  19.379   7.756  1.00  0.00     0.039 C 
ENDROOT
BRANCH   1   4
ATOM      4  C   UNL     1      21.056  21.940   8.245  1.00  0.00     0.034 C 
BRANCH   4   5
ATOM      5  C   UNL     1      20.501  22.923   9.282  1.00  0.00     0.032 C 
BRANCH   5   6
ATOM      6  C   UNL     1      20.030  24.192   8.618  1.00  0.00    -0.028 C 
ATOM      7  C   UNL     1      17.648  23.864   9.320  1.00  0.00     0.039 C 
ATOM      8  C   UNL     1      18.746  24.615   8.605  1.00  0.00    -0.080 C 
ATOM      9  C   UNL     1      18.417  25.888   7.867  1.00  0.00     0.039 C 
ENDBRANCH   5   6
ENDBRANCH   4   5
ENDBRANCH   1   4
BRANCH   2  10
ATOM     10  C   UNL     1      18.251  19.324   8.991  1.00  0.00     0.035 C 
BRANCH  10  11
ATOM     11  C   UNL     1      17.444  19.308  10.294  1.00  0.00     0.079 C 
BRANCH  11  12
ATOM     12  C   UNL     1      16.368  20.363  10.297  1.00  0.00     0.130 C 
ATOM     13  O   UNL     1      16.278  21.129  11.245  1.00  0.00    -0.300 OA
ATOM     14  C   UNL     1      15.406  20.494   9.155  1.00  0.00     0.087 C 
ENDBRANCH  11  12
ENDBRANCH  10  11
ENDBRANCH   2  10
TORSDOF 6
ENDMDL
MODEL 9
REMARK VINA RESULT:    -4.076     16.591     19.722
REMARK INTER + INTRA:          -6.780
REMARK INTER:                  -5.518
REMARK INTRA:                  -1.261
REMARK UNBOUND:                -1.274
REMARK SMILES CC(=O)CCC=C(C)CCC=C(C)C
REMARK SMILES IDX 7 1 6 2 8 3 9 4 10 5 11 6 13 7 12 8 14 9 5 10 4 11 2 12 3 13
REMARK SMILES IDX 1 14
REMARK H PARENT
REMARK Flexibility Score: inf
ROOT
ATOM      1  C   UNL     1      20.619  19.767   8.808  1.00  0.00    -0.077 C 
ATOM      2  C   UNL     1      20.831  20.909   8.115  1.00  0.00    -0.028 C 
ATOM      3  C   UNL     1      20.967  19.644  10.272  1.00  0.00     0.039 C 
ENDROOT
BRANCH   1   4
ATOM      4  C   UNL     1      20.003  18.583   8.095  1.00  0.00     0.034 C 
BRANCH   4   5
ATOM      5  C   UNL     1      18.550  18.876   7.703  1.00  0.00     0.032 C 
BRANCH   5   6
ATOM      6  C   UNL     1      17.618  18.590   8.853  1.00  0.00    -0.028 C 
ATOM      7  C   UNL     1      17.073  21.006   9.221  1.00  0.00     0.039 C 
ATOM      8  C   UNL     1      16.966  19.538   9.562  1.00  0.00    -0.080 C 
ATOM      9  C   UNL     1      16.094  19.104  10.712  1.00  0.00     0.039 C 
ENDBRANCH   5   6
ENDBRANCH   4   5
ENDBRANCH   1   4
BRANCH   2  10
ATOM     10  C   UNL     1      21.388  22.185   8.702  1.00  0.00     0.035 C 
BRANCH  10  11
ATOM     11  C   UNL     1      20.640  23.416   8.178  1.00  0.00     0.079 C 
BRANCH  11  12
ATOM     12  C   UNL     1      19.487  23.791   9.072  1.00  0.00     0.130 C 
ATOM     13  O   UNL     1      18.491  24.306   8.587  1.00  0.00    -0.300 OA
ATOM     14  C   UNL     1      19.536  23.542  10.550  1.00  0.00     0.087 C 
ENDBRANCH  11  12
ENDBRANCH  10  11
ENDBRANCH   2  10
TORSDOF 6
ENDMDL
