MODEL 1
REMARK VINA RESULT:    -4.701      0.000      0.000
REMARK INTER + INTRA:          -6.429
REMARK INTER:                  -6.075
REMARK INTRA:                  -0.354
REMARK UNBOUND:                -0.354
REMARK SMILES CCO[C@H]1O[C@H](CO)[C@H](O)[C@@H](O)[C@H]1O
REMARK SMILES IDX 4 1 13 2 11 3 9 4 6 5 5 6 3 7 2 8 1 9 14 10 12 12 7 14 8 15
REMARK SMILES IDX 10 17
REMARK H PARENT 14 11 12 13 8 16 10 18
REMARK Flexibility Score: inf
ROOT
ATOM      1  C   UNL     1      -5.520  42.478  30.691  1.00  0.00     0.281 C 
ATOM      2  C   UNL     1      -4.847  41.092  30.757  1.00  0.00     0.202 C 
ATOM      3  C   UNL     1      -4.712  40.417  29.367  1.00  0.00     0.179 C 
ATOM      4  C   UNL     1      -5.462  41.210  28.275  1.00  0.00     0.177 C 
ATOM      5  C   UNL     1      -6.823  41.781  28.792  1.00  0.00     0.178 C 
ATOM      6  O   UNL     1      -6.798  42.390  30.085  1.00  0.00    -0.341 OA
ENDROOT
BRANCH   1   7
ATOM      7  O   UNL     1      -4.702  43.413  30.007  1.00  0.00    -0.350 OA
BRANCH   7   8
ATOM      8  C   UNL     1      -5.015  44.728  30.387  1.00  0.00     0.160 C 
ATOM      9  C   UNL     1      -3.735  45.542  30.437  1.00  0.00     0.035 C 
ENDBRANCH   7   8
ENDBRANCH   1   7
BRANCH   2  10
ATOM     10  O   UNL     1      -3.620  41.154  31.443  1.00  0.00    -0.385 OA
ATOM     11  H   UNL     1      -3.527  40.323  31.980  1.00  0.00     0.211 HD
ENDBRANCH   2  10
BRANCH   3  12
ATOM     12  O   UNL     1      -3.358  40.297  29.004  1.00  0.00    -0.387 OA
ATOM     13  H   UNL     1      -2.824  40.346  29.838  1.00  0.00     0.211 HD
ENDBRANCH   3  12
BRANCH   5  14
ATOM     14  C   UNL     1      -7.941  40.722  28.794  1.00  0.00     0.191 C 
BRANCH  14  15
ATOM     15  O   UNL     1      -8.345  40.419  27.484  1.00  0.00    -0.394 OA
ATOM     16  H   UNL     1      -9.316  40.608  27.431  1.00  0.00     0.210 HD
ENDBRANCH  14  15
ENDBRANCH   5  14
BRANCH   4  17
ATOM     17  O   UNL     1      -5.663  40.401  27.144  1.00  0.00    -0.387 OA
ATOM     18  H   UNL     1      -5.687  41.005  26.357  1.00  0.00     0.211 HD
ENDBRANCH   4  17
TORSDOF 7
ENDMDL
MODEL 2
REMARK VINA RESULT:    -4.664     10.542     12.234
REMARK INTER + INTRA:          -6.382
REMARK INTER:                  -6.020
REMARK INTRA:                  -0.361
REMARK UNBOUND:                -0.354
REMARK SMILES CCO[C@H]1O[C@H](CO)[C@H](O)[C@@H](O)[C@H]1O
REMARK SMILES IDX 4 1 13 2 11 3 9 4 6 5 5 6 3 7 2 8 1 9 14 10 12 12 7 14 8 15
REMARK SMILES IDX 10 17
REMARK H PARENT 14 11 12 13 8 16 10 18
REMARK Flexibility Score: inf
ROOT
ATOM      1  C   UNL     1     -14.067  43.759  35.273  1.00  0.00     0.281 C 
ATOM      2  C   UNL     1     -14.804  42.668  36.076  1.00  0.00     0.202 C 
ATOM      3  C   UNL     1     -14.995  43.041  37.569  1.00  0.00     0.179 C 
ATOM      4  C   UNL     1     -14.227  44.328  37.937  1.00  0.00     0.177 C 
ATOM      5  C   UNL     1     -12.832  44.401  37.235  1.00  0.00     0.178 C 
ATOM      6  O   UNL     1     -12.804  44.045  35.851  1.00  0.00    -0.341 OA
ENDROOT
BRANCH   1   7
ATOM      7  O   UNL     1     -14.851  44.936  35.168  1.00  0.00    -0.350 OA
BRANCH   7   8
ATOM      8  C   UNL     1     -14.604  45.597  33.953  1.00  0.00     0.160 C 
ATOM      9  C   UNL     1     -15.862  46.337  33.533  1.00  0.00     0.035 C 
ENDBRANCH   7   8
ENDBRANCH   1   7
BRANCH   2  10
ATOM     10  O   UNL     1     -16.015  42.310  35.455  1.00  0.00    -0.385 OA
ATOM     11  H   UNL     1     -16.595  43.117  35.429  1.00  0.00     0.211 HD
ENDBRANCH   2  10
BRANCH   3  12
ATOM     12  O   UNL     1     -16.359  43.215  37.866  1.00  0.00    -0.387 OA
ATOM     13  H   UNL     1     -16.845  42.436  37.490  1.00  0.00     0.211 HD
ENDBRANCH   3  12
BRANCH   5  14
ATOM     14  C   UNL     1     -11.765  43.557  37.958  1.00  0.00     0.191 C 
BRANCH  14  15
ATOM     15  O   UNL     1     -11.379  44.163  39.163  1.00  0.00    -0.394 OA
ATOM     16  H   UNL     1     -10.447  44.476  39.043  1.00  0.00     0.210 HD
ENDBRANCH  14  15
ENDBRANCH   5  14
BRANCH   4  17
ATOM     17  O   UNL     1     -14.084  44.423  39.331  1.00  0.00    -0.387 OA
ATOM     18  H   UNL     1     -14.055  45.390  39.554  1.00  0.00     0.211 HD
ENDBRANCH   4  17
TORSDOF 7
ENDMDL
MODEL 3
REMARK VINA RESULT:    -4.625     10.682     12.184
REMARK INTER + INTRA:          -6.331
REMARK INTER:                  -5.947
REMARK INTRA:                  -0.384
REMARK UNBOUND:                -0.354
REMARK SMILES CCO[C@H]1O[C@H](CO)[C@H](O)[C@@H](O)[C@H]1O
REMARK SMILES IDX 4 1 13 2 11 3 9 4 6 5 5 6 3 7 2 8 1 9 14 10 12 12 7 14 8 15
REMARK SMILES IDX 10 17
REMARK H PARENT 14 11 12 13 8 16 10 18
REMARK Flexibility Score: inf
ROOT
ATOM      1  C   UNL     1     -13.963  44.054  38.578  1.00  0.00     0.281 C 
ATOM      2  C   UNL     1     -14.873  44.293  37.356  1.00  0.00     0.202 C 
ATOM      3  C   UNL     1     -14.610  43.291  36.201  1.00  0.00     0.179 C 
ATOM      4  C   UNL     1     -13.367  42.419  36.476  1.00  0.00     0.177 C 
ATOM      5  C   UNL     1     -12.213  43.235  37.145  1.00  0.00     0.178 C 
ATOM      6  O   UNL     1     -12.595  44.110  38.208  1.00  0.00    -0.341 OA
ENDROOT
BRANCH   1   7
ATOM      7  O   UNL     1     -14.264  42.819  39.208  1.00  0.00    -0.350 OA
BRANCH   7   8
ATOM      8  C   UNL     1     -13.747  42.782  40.514  1.00  0.00     0.160 C 
ATOM      9  C   UNL     1     -14.585  41.826  41.345  1.00  0.00     0.035 C 
ENDBRANCH   7   8
ENDBRANCH   1   7
BRANCH   2  10
ATOM     10  O   UNL     1     -16.228  44.334  37.731  1.00  0.00    -0.385 OA
ATOM     11  H   UNL     1     -16.642  43.467  37.476  1.00  0.00     0.211 HD
ENDBRANCH   2  10
BRANCH   3  12
ATOM     12  O   UNL     1     -15.727  42.457  36.007  1.00  0.00    -0.387 OA
ATOM     13  H   UNL     1     -16.375  42.957  35.448  1.00  0.00     0.211 HD
ENDBRANCH   3  12
BRANCH   5  14
ATOM     14  C   UNL     1     -11.409  44.062  36.124  1.00  0.00     0.191 C 
BRANCH  14  15
ATOM     15  O   UNL     1     -10.384  43.293  35.552  1.00  0.00    -0.394 OA
ATOM     16  H   UNL     1      -9.944  43.859  34.869  1.00  0.00     0.210 HD
ENDBRANCH  14  15
ENDBRANCH   5  14
BRANCH   4  17
ATOM     17  O   UNL     1     -12.923  41.823  35.284  1.00  0.00    -0.387 OA
ATOM     18  H   UNL     1     -12.408  42.513  34.789  1.00  0.00     0.211 HD
ENDBRANCH   4  17
TORSDOF 7
ENDMDL
MODEL 4
REMARK VINA RESULT:    -4.476      1.958      4.131
REMARK INTER + INTRA:          -6.138
REMARK INTER:                  -5.748
REMARK INTRA:                  -0.390
REMARK UNBOUND:                -0.354
REMARK SMILES CCO[C@H]1O[C@H](CO)[C@H](O)[C@@H](O)[C@H]1O
REMARK SMILES IDX 4 1 13 2 11 3 9 4 6 5 5 6 3 7 2 8 1 9 14 10 12 12 7 14 8 15
REMARK SMILES IDX 10 17
REMARK H PARENT 14 11 12 13 8 16 10 18
REMARK Flexibility Score: inf
ROOT
ATOM      1  C   UNL     1      -5.864  40.776  27.911  1.00  0.00     0.281 C 
ATOM      2  C   UNL     1      -4.876  41.650  28.710  1.00  0.00     0.202 C 
ATOM      3  C   UNL     1      -5.091  41.560  30.243  1.00  0.00     0.179 C 
ATOM      4  C   UNL     1      -6.369  40.769  30.593  1.00  0.00     0.177 C 
ATOM      5  C   UNL     1      -7.542  41.082  29.607  1.00  0.00     0.178 C 
ATOM      6  O   UNL     1      -7.205  41.119  28.219  1.00  0.00    -0.341 OA
ENDROOT
BRANCH   1   7
ATOM      7  O   UNL     1      -5.631  39.396  28.143  1.00  0.00    -0.350 OA
BRANCH   7   8
ATOM      8  C   UNL     1      -5.956  38.634  27.008  1.00  0.00     0.160 C 
ATOM      9  C   UNL     1      -5.051  37.416  26.962  1.00  0.00     0.035 C 
ENDBRANCH   7   8
ENDBRANCH   1   7
BRANCH   2  10
ATOM     10  O   UNL     1      -3.545  41.382  28.339  1.00  0.00    -0.385 OA
ATOM     11  H   UNL     1      -3.193  40.684  28.952  1.00  0.00     0.211 HD
ENDBRANCH   2  10
BRANCH   3  12
ATOM     12  O   UNL     1      -3.985  40.949  30.863  1.00  0.00    -0.387 OA
ATOM     13  H   UNL     1      -3.229  41.589  30.814  1.00  0.00     0.211 HD
ENDBRANCH   3  12
BRANCH   5  14
ATOM     14  C   UNL     1      -8.262  42.400  29.951  1.00  0.00     0.191 C 
BRANCH  14  15
ATOM     15  O   UNL     1      -9.259  42.189  30.915  1.00  0.00    -0.394 OA
ATOM     16  H   UNL     1      -8.816  41.793  31.707  1.00  0.00     0.210 HD
ENDBRANCH  14  15
ENDBRANCH   5  14
BRANCH   4  17
ATOM     17  O   UNL     1      -6.753  41.034  31.918  1.00  0.00    -0.387 OA
ATOM     18  H   UNL     1      -7.705  41.314  31.893  1.00  0.00     0.211 HD
ENDBRANCH   4  17
TORSDOF 7
ENDMDL
MODEL 5
REMARK VINA RESULT:    -4.465      1.773      2.208
REMARK INTER + INTRA:          -6.124
REMARK INTER:                  -5.888
REMARK INTRA:                  -0.236
REMARK UNBOUND:                -0.354
REMARK SMILES CCO[C@H]1O[C@H](CO)[C@H](O)[C@@H](O)[C@H]1O
REMARK SMILES IDX 4 1 13 2 11 3 9 4 6 5 5 6 3 7 2 8 1 9 14 10 12 12 7 14 8 15
REMARK SMILES IDX 10 17
REMARK H PARENT 14 11 12 13 8 16 10 18
REMARK Flexibility Score: inf
ROOT
ATOM      1  C   UNL     1      -7.298  41.915  30.206  1.00  0.00     0.281 C 
ATOM      2  C   UNL     1      -6.374  40.901  30.911  1.00  0.00     0.202 C 
ATOM      3  C   UNL     1      -4.945  40.866  30.308  1.00  0.00     0.179 C 
ATOM      4  C   UNL     1      -4.849  41.711  29.021  1.00  0.00     0.177 C 
ATOM      5  C   UNL     1      -6.128  41.577  28.132  1.00  0.00     0.178 C 
ATOM      6  O   UNL     1      -7.380  41.643  28.817  1.00  0.00    -0.341 OA
ENDROOT
BRANCH   1   7
ATOM      7  O   UNL     1      -6.867  43.247  30.434  1.00  0.00    -0.350 OA
BRANCH   7   8
ATOM      8  C   UNL     1      -7.863  44.167  30.066  1.00  0.00     0.160 C 
ATOM      9  C   UNL     1      -7.269  45.170  29.093  1.00  0.00     0.035 C 
ENDBRANCH   7   8
ENDBRANCH   1   7
BRANCH   2  10
ATOM     10  O   UNL     1      -6.363  41.105  32.303  1.00  0.00    -0.385 OA
ATOM     11  H   UNL     1      -6.818  41.969  32.488  1.00  0.00     0.211 HD
ENDBRANCH   2  10
BRANCH   3  12
ATOM     12  O   UNL     1      -4.002  41.335  31.242  1.00  0.00    -0.387 OA
ATOM     13  H   UNL     1      -4.006  40.704  32.007  1.00  0.00     0.211 HD
ENDBRANCH   3  12
BRANCH   5  14
ATOM     14  C   UNL     1      -6.123  40.288  27.288  1.00  0.00     0.191 C 
BRANCH  14  15
ATOM     15  O   UNL     1      -7.336  40.137  26.597  1.00  0.00    -0.394 OA
ATOM     16  H   UNL     1      -7.660  41.048  26.381  1.00  0.00     0.210 HD
ENDBRANCH  14  15
ENDBRANCH   5  14
BRANCH   4  17
ATOM     17  O   UNL     1      -3.702  41.353  28.293  1.00  0.00    -0.387 OA
ATOM     18  H   UNL     1      -4.006  41.085  27.387  1.00  0.00     0.211 HD
ENDBRANCH   4  17
TORSDOF 7
ENDMDL
MODEL 6
REMARK VINA RESULT:    -4.436     10.542     12.381
REMARK INTER + INTRA:          -6.087
REMARK INTER:                  -5.649
REMARK INTRA:                  -0.438
REMARK UNBOUND:                -0.354
REMARK SMILES CCO[C@H]1O[C@H](CO)[C@H](O)[C@@H](O)[C@H]1O
REMARK SMILES IDX 4 1 13 2 11 3 9 4 6 5 5 6 3 7 2 8 1 9 14 10 12 12 7 14 8 15
REMARK SMILES IDX 10 17
REMARK H PARENT 14 11 12 13 8 16 10 18
REMARK Flexibility Score: inf
ROOT
ATOM      1  C   UNL     1     -15.144  43.174  37.253  1.00  0.00     0.281 C 
ATOM      2  C   UNL     1     -14.547  44.404  36.541  1.00  0.00     0.202 C 
ATOM      3  C   UNL     1     -12.997  44.433  36.581  1.00  0.00     0.179 C 
ATOM      4  C   UNL     1     -12.431  43.325  37.494  1.00  0.00     0.177 C 
ATOM      5  C   UNL     1     -13.291  43.131  38.785  1.00  0.00     0.178 C 
ATOM      6  O   UNL     1     -14.707  43.108  38.600  1.00  0.00    -0.341 OA
ENDROOT
BRANCH   1   7
ATOM      7  O   UNL     1     -14.826  41.976  36.561  1.00  0.00    -0.350 OA
BRANCH   7   8
ATOM      8  C   UNL     1     -15.969  41.179  36.385  1.00  0.00     0.160 C 
ATOM      9  C   UNL     1     -16.285  41.097  34.902  1.00  0.00     0.035 C 
ENDBRANCH   7   8
ENDBRANCH   1   7
BRANCH   2  10
ATOM     10  O   UNL     1     -15.051  44.530  35.233  1.00  0.00    -0.385 OA
ATOM     11  H   UNL     1     -14.394  44.118  34.612  1.00  0.00     0.211 HD
ENDBRANCH   2  10
BRANCH   3  12
ATOM     12  O   UNL     1     -12.465  44.283  35.286  1.00  0.00    -0.387 OA
ATOM     13  H   UNL     1     -12.208  43.331  35.182  1.00  0.00     0.211 HD
ENDBRANCH   3  12
BRANCH   5  14
ATOM     14  C   UNL     1     -12.976  44.184  39.865  1.00  0.00     0.191 C 
BRANCH  14  15
ATOM     15  O   UNL     1     -11.828  43.829  40.591  1.00  0.00    -0.394 OA
ATOM     16  H   UNL     1     -11.595  42.904  40.328  1.00  0.00     0.210 HD
ENDBRANCH  14  15
ENDBRANCH   5  14
BRANCH   4  17
ATOM     17  O   UNL     1     -11.096  43.611  37.828  1.00  0.00    -0.387 OA
ATOM     18  H   UNL     1     -10.655  43.940  37.000  1.00  0.00     0.211 HD
ENDBRANCH   4  17
TORSDOF 7
ENDMDL
MODEL 7
REMARK VINA RESULT:    -4.354      9.969     11.475
REMARK INTER + INTRA:          -5.980
REMARK INTER:                  -5.753
REMARK INTRA:                  -0.228
REMARK UNBOUND:                -0.354
REMARK SMILES CCO[C@H]1O[C@H](CO)[C@H](O)[C@@H](O)[C@H]1O
REMARK SMILES IDX 4 1 13 2 11 3 9 4 6 5 5 6 3 7 2 8 1 9 14 10 12 12 7 14 8 15
REMARK SMILES IDX 10 17
REMARK H PARENT 14 11 12 13 8 16 10 18
REMARK Flexibility Score: inf
ROOT
ATOM      1  C   UNL     1     -12.328  43.473  36.036  1.00  0.00     0.281 C 
ATOM      2  C   UNL     1     -13.293  42.273  36.122  1.00  0.00     0.202 C 
ATOM      3  C   UNL     1     -14.736  42.685  36.513  1.00  0.00     0.179 C 
ATOM      4  C   UNL     1     -14.815  44.173  36.914  1.00  0.00     0.177 C 
ATOM      5  C   UNL     1     -13.569  44.625  37.744  1.00  0.00     0.178 C 
ATOM      6  O   UNL     1     -12.298  44.187  37.260  1.00  0.00    -0.341 OA
ENDROOT
BRANCH   1   7
ATOM      7  O   UNL     1     -12.673  44.333  34.961  1.00  0.00    -0.350 OA
BRANCH   7   8
ATOM      8  C   UNL     1     -11.656  45.271  34.721  1.00  0.00     0.160 C 
ATOM      9  C   UNL     1     -12.242  46.668  34.830  1.00  0.00     0.035 C 
ENDBRANCH   7   8
ENDBRANCH   1   7
BRANCH   2  10
ATOM     10  O   UNL     1     -13.256  41.505  34.944  1.00  0.00    -0.385 OA
ATOM     11  H   UNL     1     -13.909  40.763  35.043  1.00  0.00     0.211 HD
ENDBRANCH   2  10
BRANCH   3  12
ATOM     12  O   UNL     1     -15.625  42.444  35.449  1.00  0.00    -0.387 OA
ATOM     13  H   UNL     1     -15.094  42.461  34.612  1.00  0.00     0.211 HD
ENDBRANCH   3  12
BRANCH   5  14
ATOM     14  C   UNL     1     -13.672  44.219  39.227  1.00  0.00     0.191 C 
BRANCH  14  15
ATOM     15  O   UNL     1     -12.437  44.371  39.875  1.00  0.00    -0.394 OA
ATOM     16  H   UNL     1     -11.738  44.089  39.234  1.00  0.00     0.210 HD
ENDBRANCH  14  15
ENDBRANCH   5  14
BRANCH   4  17
ATOM     17  O   UNL     1     -16.000  44.418  37.628  1.00  0.00    -0.387 OA
ATOM     18  H   UNL     1     -16.681  44.710  36.967  1.00  0.00     0.211 HD
ENDBRANCH   4  17
TORSDOF 7
ENDMDL
MODEL 8
REMARK VINA RESULT:    -4.105     10.663     11.846
REMARK INTER + INTRA:          -5.659
REMARK INTER:                  -5.324
REMARK INTRA:                  -0.334
REMARK UNBOUND:                -0.354
REMARK SMILES CCO[C@H]1O[C@H](CO)[C@H](O)[C@@H](O)[C@H]1O
REMARK SMILES IDX 4 1 13 2 11 3 9 4 6 5 5 6 3 7 2 8 1 9 14 10 12 12 7 14 8 15
REMARK SMILES IDX 10 17
REMARK H PARENT 14 11 12 13 8 16 10 18
REMARK Flexibility Score: inf
ROOT
ATOM      1  C   UNL     1     -14.119  43.978  37.416  1.00  0.00     0.281 C 
ATOM      2  C   UNL     1     -15.476  43.249  37.491  1.00  0.00     0.202 C 
ATOM      3  C   UNL     1     -15.624  42.135  36.422  1.00  0.00     0.179 C 
ATOM      4  C   UNL     1     -14.456  42.155  35.414  1.00  0.00     0.177 C 
ATOM      5  C   UNL     1     -14.027  43.612  35.040  1.00  0.00     0.178 C 
ATOM      6  O   UNL     1     -13.914  44.533  36.128  1.00  0.00    -0.341 OA
ENDROOT
BRANCH   1   7
ATOM      7  O   UNL     1     -13.052  43.113  37.767  1.00  0.00    -0.350 OA
BRANCH   7   8
ATOM      8  C   UNL     1     -12.081  43.792  38.522  1.00  0.00     0.160 C 
ATOM      9  C   UNL     1     -12.568  43.909  39.955  1.00  0.00     0.035 C 
ENDBRANCH   7   8
ENDBRANCH   1   7
BRANCH   2  10
ATOM     10  O   UNL     1     -15.730  42.779  38.793  1.00  0.00    -0.385 OA
ATOM     11  H   UNL     1     -15.921  43.566  39.370  1.00  0.00     0.211 HD
ENDBRANCH   2  10
BRANCH   3  12
ATOM     12  O   UNL     1     -15.687  40.869  37.032  1.00  0.00    -0.387 OA
ATOM     13  H   UNL     1     -14.842  40.396  36.818  1.00  0.00     0.211 HD
ENDBRANCH   3  12
BRANCH   5  14
ATOM     14  C   UNL     1     -14.952  44.245  33.984  1.00  0.00     0.191 C 
BRANCH  14  15
ATOM     15  O   UNL     1     -15.679  45.314  34.531  1.00  0.00    -0.394 OA
ATOM     16  H   UNL     1     -15.584  45.254  35.514  1.00  0.00     0.210 HD
ENDBRANCH  14  15
ENDBRANCH   5  14
BRANCH   4  17
ATOM     17  O   UNL     1     -14.803  41.432  34.260  1.00  0.00    -0.387 OA
ATOM     18  H   UNL     1     -14.173  41.710  33.544  1.00  0.00     0.211 HD
ENDBRANCH   4  17
TORSDOF 7
ENDMDL
MODEL 9
REMARK VINA RESULT:    -4.052      1.867      3.281
REMARK INTER + INTRA:          -5.590
REMARK INTER:                  -5.166
REMARK INTRA:                  -0.424
REMARK UNBOUND:                -0.354
REMARK SMILES CCO[C@H]1O[C@H](CO)[C@H](O)[C@@H](O)[C@H]1O
REMARK SMILES IDX 4 1 13 2 11 3 9 4 6 5 5 6 3 7 2 8 1 9 14 10 12 12 7 14 8 15
REMARK SMILES IDX 10 17
REMARK H PARENT 14 11 12 13 8 16 10 18
REMARK Flexibility Score: inf
ROOT
ATOM      1  C   UNL     1      -5.396  41.937  29.947  1.00  0.00     0.281 C 
ATOM      2  C   UNL     1      -6.339  43.093  29.556  1.00  0.00     0.202 C 
ATOM      3  C   UNL     1      -7.769  42.610  29.195  1.00  0.00     0.179 C 
ATOM      4  C   UNL     1      -7.849  41.071  29.125  1.00  0.00     0.177 C 
ATOM      5  C   UNL     1      -6.572  40.445  28.473  1.00  0.00     0.178 C 
ATOM      6  O   UNL     1      -5.319  40.974  28.910  1.00  0.00    -0.341 OA
ENDROOT
BRANCH   1   7
ATOM      7  O   UNL     1      -5.801  41.334  31.166  1.00  0.00    -0.350 OA
BRANCH   7   8
ATOM      8  C   UNL     1      -4.689  41.007  31.960  1.00  0.00     0.160 C 
ATOM      9  C   UNL     1      -4.160  42.275  32.606  1.00  0.00     0.035 C 
ENDBRANCH   7   8
ENDBRANCH   1   7
BRANCH   2  10
ATOM     10  O   UNL     1      -6.347  44.099  30.540  1.00  0.00    -0.385 OA
ATOM     11  H   UNL     1      -5.861  44.886  30.175  1.00  0.00     0.211 HD
ENDBRANCH   2  10
BRANCH   3  12
ATOM     12  O   UNL     1      -8.702  43.079  30.138  1.00  0.00    -0.387 OA
ATOM     13  H   UNL     1      -8.983  42.303  30.687  1.00  0.00     0.211 HD
ENDBRANCH   3  12
BRANCH   5  14
ATOM     14  C   UNL     1      -6.602  40.519  26.935  1.00  0.00     0.191 C 
BRANCH  14  15
ATOM     15  O   UNL     1      -7.542  39.619  26.408  1.00  0.00    -0.394 OA
ATOM     16  H   UNL     1      -8.427  40.057  26.470  1.00  0.00     0.210 HD
ENDBRANCH  14  15
ENDBRANCH   5  14
BRANCH   4  17
ATOM     17  O   UNL     1      -9.003  40.679  28.425  1.00  0.00    -0.387 OA
ATOM     18  H   UNL     1      -9.574  41.487  28.335  1.00  0.00     0.211 HD
ENDBRANCH   4  17
TORSDOF 7
ENDMDL
