MODEL 1
REMARK VINA RESULT:    -4.742      0.000      0.000
REMARK INTER + INTRA:          -5.623
REMARK INTER:                  -5.435
REMARK INTRA:                  -0.188
REMARK UNBOUND:                -0.188
REMARK SMILES O=C([O-])C=Cc1ccc(O)cc1
REMARK SMILES IDX 6 1 7 2 12 3 8 4 11 5 9 6 5 7 4 8 2 9 1 10 3 11 10 12
REMARK H PARENT 10 13
REMARK Flexibility Score: inf
ROOT
ATOM      1  C   UNL     1      17.266 -45.174  32.136  1.00  0.00    -0.025 A 
ATOM      2  C   UNL     1      17.294 -44.928  30.755  1.00  0.00     0.012 A 
ATOM      3  C   UNL     1      18.441 -45.001  32.888  1.00  0.00     0.012 A 
ATOM      4  C   UNL     1      18.489 -44.567  30.126  1.00  0.00     0.047 A 
ATOM      5  C   UNL     1      19.635 -44.639  32.258  1.00  0.00     0.047 A 
ATOM      6  C   UNL     1      19.664 -44.424  30.876  1.00  0.00     0.115 A 
ENDROOT
BRANCH   1   7
ATOM      7  C   UNL     1      15.981 -45.502  32.786  1.00  0.00     0.010 C 
ATOM      8  C   UNL     1      15.012 -44.623  33.080  1.00  0.00     0.025 C 
BRANCH   8   9
ATOM      9  C   UNL     1      15.130 -43.155  32.984  1.00  0.00     0.064 C 
ATOM     10  O   UNL     1      14.292 -42.514  32.300  1.00  0.00    -0.545 OA
ATOM     11  O   UNL     1      16.103 -42.458  33.690  1.00  0.00    -0.545 OA
ENDBRANCH   8   9
ENDBRANCH   1   7
BRANCH   6  12
ATOM     12  O   UNL     1      20.861 -44.066  30.260  1.00  0.00    -0.508 OA
ATOM     13  H   UNL     1      20.891 -43.771  29.292  1.00  0.00     0.293 HD
ENDBRANCH   6  12
TORSDOF 3
ENDMDL
MODEL 2
REMARK VINA RESULT:    -4.665      5.505      6.999
REMARK INTER + INTRA:          -5.534
REMARK INTER:                  -5.276
REMARK INTRA:                  -0.258
REMARK UNBOUND:                -0.188
REMARK SMILES O=C([O-])C=Cc1ccc(O)cc1
REMARK SMILES IDX 6 1 7 2 12 3 8 4 11 5 9 6 5 7 4 8 2 9 1 10 3 11 10 12
REMARK H PARENT 10 13
REMARK Flexibility Score: inf
ROOT
ATOM      1  C   UNL     1      18.117 -42.858  25.912  1.00  0.00    -0.025 A 
ATOM      2  C   UNL     1      17.830 -44.164  25.488  1.00  0.00     0.012 A 
ATOM      3  C   UNL     1      18.000 -42.536  27.276  1.00  0.00     0.012 A 
ATOM      4  C   UNL     1      17.382 -45.121  26.404  1.00  0.00     0.047 A 
ATOM      5  C   UNL     1      17.553 -43.495  28.190  1.00  0.00     0.047 A 
ATOM      6  C   UNL     1      17.239 -44.788  27.758  1.00  0.00     0.115 A 
ENDROOT
BRANCH   1   7
ATOM      7  C   UNL     1      18.638 -41.879  24.936  1.00  0.00     0.010 C 
ATOM      8  C   UNL     1      17.965 -40.821  24.462  1.00  0.00     0.025 C 
BRANCH   8   9
ATOM      9  C   UNL     1      16.530 -40.552  24.678  1.00  0.00     0.064 C 
ATOM     10  O   UNL     1      15.681 -41.113  23.938  1.00  0.00    -0.545 OA
ATOM     11  O   UNL     1      16.092 -39.751  25.725  1.00  0.00    -0.545 OA
ENDBRANCH   8   9
ENDBRANCH   1   7
BRANCH   6  12
ATOM     12  O   UNL     1      16.793 -45.732  28.679  1.00  0.00    -0.508 OA
ATOM     13  H   UNL     1      17.372 -46.030  29.455  1.00  0.00     0.293 HD
ENDBRANCH   6  12
TORSDOF 3
ENDMDL
MODEL 3
REMARK VINA RESULT:    -4.638      2.004      2.810
REMARK INTER + INTRA:          -5.503
REMARK INTER:                  -5.246
REMARK INTRA:                  -0.258
REMARK UNBOUND:                -0.188
REMARK SMILES O=C([O-])C=Cc1ccc(O)cc1
REMARK SMILES IDX 6 1 7 2 12 3 8 4 11 5 9 6 5 7 4 8 2 9 1 10 3 11 10 12
REMARK H PARENT 10 13
REMARK Flexibility Score: inf
ROOT
ATOM      1  C   UNL     1      15.855 -45.125  30.964  1.00  0.00    -0.025 A 
ATOM      2  C   UNL     1      17.253 -45.104  30.841  1.00  0.00     0.012 A 
ATOM      3  C   UNL     1      15.064 -45.213  29.804  1.00  0.00     0.012 A 
ATOM      4  C   UNL     1      17.850 -45.118  29.578  1.00  0.00     0.047 A 
ATOM      5  C   UNL     1      15.664 -45.227  28.542  1.00  0.00     0.047 A 
ATOM      6  C   UNL     1      17.057 -45.176  28.424  1.00  0.00     0.115 A 
ENDROOT
BRANCH   1   7
ATOM      7  C   UNL     1      15.248 -45.164  32.310  1.00  0.00     0.010 C 
ATOM      8  C   UNL     1      14.616 -44.142  32.907  1.00  0.00     0.025 C 
BRANCH   8   9
ATOM      9  C   UNL     1      14.581 -42.751  32.413  1.00  0.00     0.064 C 
ATOM     10  O   UNL     1      13.493 -42.271  32.003  1.00  0.00    -0.545 OA
ATOM     11  O   UNL     1      15.707 -41.938  32.457  1.00  0.00    -0.545 OA
ENDBRANCH   8   9
ENDBRANCH   1   7
BRANCH   6  12
ATOM     12  O   UNL     1      17.641 -45.188  27.159  1.00  0.00    -0.508 OA
ATOM     13  H   UNL     1      18.554 -45.599  27.002  1.00  0.00     0.293 HD
ENDBRANCH   6  12
TORSDOF 3
ENDMDL
MODEL 4
REMARK VINA RESULT:    -4.623      1.720      2.342
REMARK INTER + INTRA:          -5.486
REMARK INTER:                  -5.212
REMARK INTRA:                  -0.275
REMARK UNBOUND:                -0.188
REMARK SMILES O=C([O-])C=Cc1ccc(O)cc1
REMARK SMILES IDX 6 1 7 2 12 3 8 4 11 5 9 6 5 7 4 8 2 9 1 10 3 11 10 12
REMARK H PARENT 10 13
REMARK Flexibility Score: inf
ROOT
ATOM      1  C   UNL     1      17.526 -43.183  32.311  1.00  0.00    -0.025 A 
ATOM      2  C   UNL     1      18.485 -44.007  32.920  1.00  0.00     0.012 A 
ATOM      3  C   UNL     1      17.705 -42.791  30.973  1.00  0.00     0.012 A 
ATOM      4  C   UNL     1      19.633 -44.389  32.219  1.00  0.00     0.047 A 
ATOM      5  C   UNL     1      18.854 -43.175  30.274  1.00  0.00     0.047 A 
ATOM      6  C   UNL     1      19.822 -43.972  30.895  1.00  0.00     0.115 A 
ENDROOT
BRANCH   1   7
ATOM      7  C   UNL     1      16.296 -42.835  33.052  1.00  0.00     0.010 C 
ATOM      8  C   UNL     1      15.235 -43.639  33.218  1.00  0.00     0.025 C 
BRANCH   8   9
ATOM      9  C   UNL     1      15.025 -44.931  32.535  1.00  0.00     0.064 C 
ATOM     10  O   UNL     1      14.620 -44.939  31.344  1.00  0.00    -0.545 OA
ATOM     11  O   UNL     1      15.333 -46.136  33.154  1.00  0.00    -0.545 OA
ENDBRANCH   8   9
ENDBRANCH   1   7
BRANCH   6  12
ATOM     12  O   UNL     1      20.962 -44.345  30.188  1.00  0.00    -0.508 OA
ATOM     13  H   UNL     1      20.910 -44.660  29.226  1.00  0.00     0.293 HD
ENDBRANCH   6  12
TORSDOF 3
ENDMDL
MODEL 5
REMARK VINA RESULT:    -4.535      5.122      6.646
REMARK INTER + INTRA:          -5.386
REMARK INTER:                  -5.100
REMARK INTRA:                  -0.285
REMARK UNBOUND:                -0.188
REMARK SMILES O=C([O-])C=Cc1ccc(O)cc1
REMARK SMILES IDX 6 1 7 2 12 3 8 4 11 5 9 6 5 7 4 8 2 9 1 10 3 11 10 12
REMARK H PARENT 10 13
REMARK Flexibility Score: inf
ROOT
ATOM      1  C   UNL     1      17.430 -43.438  25.763  1.00  0.00    -0.025 A 
ATOM      2  C   UNL     1      18.649 -42.762  25.607  1.00  0.00     0.012 A 
ATOM      3  C   UNL     1      16.230 -42.772  25.455  1.00  0.00     0.012 A 
ATOM      4  C   UNL     1      18.667 -41.424  25.201  1.00  0.00     0.047 A 
ATOM      5  C   UNL     1      16.250 -41.435  25.049  1.00  0.00     0.047 A 
ATOM      6  C   UNL     1      17.467 -40.756  24.923  1.00  0.00     0.115 A 
ENDROOT
BRANCH   1   7
ATOM      7  C   UNL     1      17.438 -44.865  26.142  1.00  0.00     0.010 C 
ATOM      8  C   UNL     1      17.183 -45.345  27.369  1.00  0.00     0.025 C 
BRANCH   8   9
ATOM      9  C   UNL     1      17.039 -44.533  28.593  1.00  0.00     0.064 C 
ATOM     10  O   UNL     1      18.040 -44.351  29.332  1.00  0.00    -0.545 OA
ATOM     11  O   UNL     1      15.841 -43.904  28.909  1.00  0.00    -0.545 OA
ENDBRANCH   8   9
ENDBRANCH   1   7
BRANCH   6  12
ATOM     12  O   UNL     1      17.473 -39.423  24.519  1.00  0.00    -0.508 OA
ATOM     13  H   UNL     1      16.884 -38.731  24.968  1.00  0.00     0.293 HD
ENDBRANCH   6  12
TORSDOF 3
ENDMDL
MODEL 6
REMARK VINA RESULT:    -4.409      2.771      3.429
REMARK INTER + INTRA:          -5.241
REMARK INTER:                  -4.946
REMARK INTRA:                  -0.295
REMARK UNBOUND:                -0.188
REMARK SMILES O=C([O-])C=Cc1ccc(O)cc1
REMARK SMILES IDX 6 1 7 2 12 3 8 4 11 5 9 6 5 7 4 8 2 9 1 10 3 11 10 12
REMARK H PARENT 10 13
REMARK Flexibility Score: inf
ROOT
ATOM      1  C   UNL     1      17.682 -44.197  32.347  1.00  0.00    -0.025 A 
ATOM      2  C   UNL     1      18.574 -43.161  32.665  1.00  0.00     0.012 A 
ATOM      3  C   UNL     1      17.989 -45.512  32.737  1.00  0.00     0.012 A 
ATOM      4  C   UNL     1      19.778 -43.443  33.316  1.00  0.00     0.047 A 
ATOM      5  C   UNL     1      19.194 -45.791  33.388  1.00  0.00     0.047 A 
ATOM      6  C   UNL     1      20.093 -44.760  33.677  1.00  0.00     0.115 A 
ENDROOT
BRANCH   1   7
ATOM      7  C   UNL     1      16.392 -43.869  31.707  1.00  0.00     0.010 C 
ATOM      8  C   UNL     1      16.120 -43.990  30.399  1.00  0.00     0.025 C 
BRANCH   8   9
ATOM      9  C   UNL     1      17.109 -44.286  29.344  1.00  0.00     0.064 C 
ATOM     10  O   UNL     1      17.678 -43.334  28.750  1.00  0.00    -0.545 OA
ATOM     11  O   UNL     1      17.477 -45.590  29.041  1.00  0.00    -0.545 OA
ENDBRANCH   8   9
ENDBRANCH   1   7
BRANCH   6  12
ATOM     12  O   UNL     1      21.292 -45.052  34.324  1.00  0.00    -0.508 OA
ATOM     13  H   UNL     1      21.314 -45.325  35.299  1.00  0.00     0.293 HD
ENDBRANCH   6  12
TORSDOF 3
ENDMDL
MODEL 7
REMARK VINA RESULT:    -4.386      5.713      6.721
REMARK INTER + INTRA:          -5.214
REMARK INTER:                  -4.978
REMARK INTRA:                  -0.236
REMARK UNBOUND:                -0.188
REMARK SMILES O=C([O-])C=Cc1ccc(O)cc1
REMARK SMILES IDX 6 1 7 2 12 3 8 4 11 5 9 6 5 7 4 8 2 9 1 10 3 11 10 12
REMARK H PARENT 10 13
REMARK Flexibility Score: inf
ROOT
ATOM      1  C   UNL     1      18.433 -41.879  26.315  1.00  0.00    -0.025 A 
ATOM      2  C   UNL     1      18.399 -40.754  25.477  1.00  0.00     0.012 A 
ATOM      3  C   UNL     1      18.536 -41.697  27.706  1.00  0.00     0.012 A 
ATOM      4  C   UNL     1      18.521 -39.470  26.014  1.00  0.00     0.047 A 
ATOM      5  C   UNL     1      18.657 -40.411  28.241  1.00  0.00     0.047 A 
ATOM      6  C   UNL     1      18.653 -39.295  27.398  1.00  0.00     0.115 A 
ENDROOT
BRANCH   1   7
ATOM      7  C   UNL     1      18.249 -43.223  25.731  1.00  0.00     0.010 C 
ATOM      8  C   UNL     1      17.088 -43.892  25.670  1.00  0.00     0.025 C 
BRANCH   8   9
ATOM      9  C   UNL     1      15.835 -43.494  26.340  1.00  0.00     0.064 C 
ATOM     10  O   UNL     1      15.019 -42.756  25.731  1.00  0.00    -0.545 OA
ATOM     11  O   UNL     1      15.503 -43.975  27.601  1.00  0.00    -0.545 OA
ENDBRANCH   8   9
ENDBRANCH   1   7
BRANCH   6  12
ATOM     12  O   UNL     1      18.777 -38.019  27.945  1.00  0.00    -0.508 OA
ATOM     13  H   UNL     1      17.992 -37.554  28.386  1.00  0.00     0.293 HD
ENDBRANCH   6  12
TORSDOF 3
ENDMDL
MODEL 8
REMARK VINA RESULT:    -4.322      3.337      5.347
REMARK INTER + INTRA:          -5.142
REMARK INTER:                  -4.857
REMARK INTRA:                  -0.284
REMARK UNBOUND:                -0.188
REMARK SMILES O=C([O-])C=Cc1ccc(O)cc1
REMARK SMILES IDX 6 1 7 2 12 3 8 4 11 5 9 6 5 7 4 8 2 9 1 10 3 11 10 12
REMARK H PARENT 10 13
REMARK Flexibility Score: inf
ROOT
ATOM      1  C   UNL     1      16.697 -45.208  28.320  1.00  0.00    -0.025 A 
ATOM      2  C   UNL     1      17.640 -45.165  29.358  1.00  0.00     0.012 A 
ATOM      3  C   UNL     1      15.328 -45.140  28.632  1.00  0.00     0.012 A 
ATOM      4  C   UNL     1      17.221 -45.109  30.691  1.00  0.00     0.047 A 
ATOM      5  C   UNL     1      14.911 -45.083  29.965  1.00  0.00     0.047 A 
ATOM      6  C   UNL     1      15.854 -45.070  30.998  1.00  0.00     0.115 A 
ENDROOT
BRANCH   1   7
ATOM      7  C   UNL     1      17.164 -45.215  26.919  1.00  0.00     0.010 C 
ATOM      8  C   UNL     1      17.571 -44.137  26.230  1.00  0.00     0.025 C 
BRANCH   8   9
ATOM      9  C   UNL     1      17.445 -42.737  26.679  1.00  0.00     0.064 C 
ATOM     10  O   UNL     1      16.381 -42.109  26.445  1.00  0.00    -0.545 OA
ATOM     11  O   UNL     1      18.447 -42.120  27.418  1.00  0.00    -0.545 OA
ENDBRANCH   8   9
ENDBRANCH   1   7
BRANCH   6  12
ATOM     12  O   UNL     1      15.424 -45.015  32.322  1.00  0.00    -0.508 OA
ATOM     13  H   UNL     1      15.104 -44.150  32.739  1.00  0.00     0.293 HD
ENDBRANCH   6  12
TORSDOF 3
ENDMDL
MODEL 9
REMARK VINA RESULT:    -4.298      2.518      4.354
REMARK INTER + INTRA:          -5.114
REMARK INTER:                  -4.823
REMARK INTRA:                  -0.290
REMARK UNBOUND:                -0.188
REMARK SMILES O=C([O-])C=Cc1ccc(O)cc1
REMARK SMILES IDX 6 1 7 2 12 3 8 4 11 5 9 6 5 7 4 8 2 9 1 10 3 11 10 12
REMARK H PARENT 10 13
REMARK Flexibility Score: inf
ROOT
ATOM      1  C   UNL     1      17.041 -44.790  30.688  1.00  0.00    -0.025 A 
ATOM      2  C   UNL     1      17.934 -43.818  31.165  1.00  0.00     0.012 A 
ATOM      3  C   UNL     1      15.797 -44.951  31.323  1.00  0.00     0.012 A 
ATOM      4  C   UNL     1      17.612 -43.056  32.291  1.00  0.00     0.047 A 
ATOM      5  C   UNL     1      15.477 -44.188  32.450  1.00  0.00     0.047 A 
ATOM      6  C   UNL     1      16.383 -43.241  32.939  1.00  0.00     0.115 A 
ENDROOT
BRANCH   1   7
ATOM      7  C   UNL     1      17.380 -45.546  29.465  1.00  0.00     0.010 C 
ATOM      8  C   UNL     1      17.188 -45.118  28.208  1.00  0.00     0.025 C 
BRANCH   8   9
ATOM      9  C   UNL     1      16.435 -43.909  27.822  1.00  0.00     0.064 C 
ATOM     10  O   UNL     1      15.180 -43.964  27.745  1.00  0.00    -0.545 OA
ATOM     11  O   UNL     1      17.073 -42.693  27.612  1.00  0.00    -0.545 OA
ENDBRANCH   8   9
ENDBRANCH   1   7
BRANCH   6  12
ATOM     12  O   UNL     1      16.052 -42.489  34.064  1.00  0.00    -0.508 OA
ATOM     13  H   UNL     1      15.926 -42.921  34.971  1.00  0.00     0.293 HD
ENDBRANCH   6  12
TORSDOF 3
ENDMDL
