MODEL 1
REMARK VINA RESULT:     5.930      0.000      0.000
REMARK INTER + INTRA:           8.172
REMARK INTER:                   6.796
REMARK INTRA:                   1.376
REMARK UNBOUND:                 1.376
REMARK SMILES C=C(C)[C@H]1CC[C@@]2(C(=O)[O-])CC[C@]3(C)[C@@H](CC[C@@H]4[C@@]5(C)CC[C@@H](O)C(C)(C)[C@@H]5CC[C@@]43C)[C@H]12
REMARK SMILES IDX 7 1 6 2 33 3 11 4 5 5 15 6 4 7 12 8 16 9 13 10 17 11 31 12
REMARK SMILES IDX 14 13 18 14 30 15 32 16 19 17 29 18 21 19 20 20 28 21 22 22
REMARK SMILES IDX 25 23 23 24 26 25 27 26 8 27 9 28 10 29 2 30 3 31 1 32 24 33
REMARK H PARENT 24 34
REMARK Flexibility Score: inf
ROOT
ATOM      1  C   UNL     1     -19.804  11.773 -29.803  1.00  0.00     0.014 C 
ATOM      2  C   UNL     1     -21.138  12.045 -30.510  1.00  0.00     0.014 C 
ATOM      3  C   UNL     1     -19.219  13.188 -29.704  1.00  0.00     0.012 C 
ATOM      4  C   UNL     1     -18.823  10.886 -30.622  1.00  0.00     0.014 C 
ATOM      5  C   UNL     1     -21.665  13.324 -29.852  1.00  0.00     0.009 C 
ATOM      6  C   UNL     1     -17.895  13.235 -28.857  1.00  0.00     0.000 C 
ATOM      7  C   UNL     1     -20.427  14.089 -29.331  1.00  0.00     0.018 C 
ATOM      8  C   UNL     1     -17.340  11.369 -30.586  1.00  0.00     0.008 C 
ATOM      9  C   UNL     1     -17.288  14.642 -28.940  1.00  0.00     0.005 C 
ATOM     10  C   UNL     1     -16.846  12.076 -29.259  1.00  0.00    -0.024 C 
ATOM     11  C   UNL     1     -16.457  14.809 -30.205  1.00  0.00     0.005 C 
ATOM     12  C   UNL     1     -15.282  12.610 -29.386  1.00  0.00    -0.024 C 
ATOM     13  C   UNL     1     -16.902  10.953 -28.167  1.00  0.00     0.012 C 
ATOM     14  C   UNL     1     -15.111  14.098 -29.996  1.00  0.00     0.002 C 
ATOM     15  C   UNL     1     -14.421  11.587 -30.224  1.00  0.00     0.008 C 
ATOM     16  C   UNL     1     -14.643  12.644 -27.952  1.00  0.00     0.012 C 
ATOM     17  C   UNL     1     -14.056  14.257 -31.181  1.00  0.00    -0.026 C 
ATOM     18  C   UNL     1     -12.960  11.985 -30.506  1.00  0.00     0.005 C 
ATOM     19  C   UNL     1     -13.688  15.770 -31.452  1.00  0.00     0.010 C 
ATOM     20  C   UNL     1     -14.628  13.658 -32.512  1.00  0.00     0.012 C 
ATOM     21  C   UNL     1     -12.755  13.508 -30.690  1.00  0.00     0.003 C 
ATOM     22  C   UNL     1     -12.456  16.257 -30.688  1.00  0.00     0.033 C 
ATOM     23  C   UNL     1     -11.405  13.955 -31.375  1.00  0.00    -0.006 C 
ATOM     24  C   UNL     1     -11.181  15.510 -31.140  1.00  0.00     0.120 C 
ATOM     25  C   UNL     1     -11.402  13.667 -32.899  1.00  0.00     0.014 C 
ATOM     26  C   UNL     1     -10.222  13.145 -30.774  1.00  0.00     0.014 C 
ENDROOT
BRANCH   1  27
ATOM     27  C   UNL     1     -20.153  11.121 -28.460  1.00  0.00     0.048 C 
ATOM     28  O   UNL     1     -21.356  10.876 -28.178  1.00  0.00    -0.550 OA
ATOM     29  O   UNL     1     -19.186  10.875 -27.493  1.00  0.00    -0.550 OA
ENDBRANCH   1  27
BRANCH   7  30
ATOM     30  C   UNL     1     -20.379  15.494 -29.930  1.00  0.00    -0.077 C 
ATOM     31  C   UNL     1     -20.757  15.752 -31.369  1.00  0.00     0.039 C 
ATOM     32  C   UNL     1     -20.051  16.541 -29.158  1.00  0.00     0.008 C 
ENDBRANCH   7  30
BRANCH  24  33
ATOM     33  O   UNL     1     -10.191  15.760 -30.170  1.00  0.00    -0.393 OA
ATOM     34  H   UNL     1      -9.325  15.858 -30.647  1.00  0.00     0.210 HD
ENDBRANCH  24  33
TORSDOF 3
ENDMDL
