MODEL 1
REMARK VINA RESULT:    -4.785      0.000      0.000
REMARK INTER + INTRA:         -10.621
REMARK INTER:                  -8.421
REMARK INTRA:                  -2.200
REMARK UNBOUND:                -2.200
REMARK SMILES CCCCCCCCCCCCCCC(=O)[O-]
REMARK SMILES IDX 9 1 10 2 11 3 12 4 13 5 14 6 15 7 16 8 17 9 8 10 7 11 6 12
REMARK SMILES IDX 5 13 4 14 3 15 2 16 1 17
REMARK H PARENT
REMARK Flexibility Score: inf
ROOT
ATOM      1  C   UNL     1      13.991  43.474   3.221  1.00  0.00     0.000 C 
ENDROOT
BRANCH   1   2
ATOM      2  C   UNL     1      14.492  44.855   3.668  1.00  0.00     0.000 C 
BRANCH   2   3
ATOM      3  C   UNL     1      15.947  44.828   4.170  1.00  0.00     0.000 C 
BRANCH   3   4
ATOM      4  C   UNL     1      16.571  43.423   4.269  1.00  0.00     0.000 C 
BRANCH   4   5
ATOM      5  C   UNL     1      16.769  42.928   5.719  1.00  0.00     0.006 C 
BRANCH   5   6
ATOM      6  C   UNL     1      17.610  43.880   6.586  1.00  0.00     0.053 C 
BRANCH   6   7
ATOM      7  C   UNL     1      17.318  43.710   8.046  1.00  0.00     0.041 C 
ATOM      8  O   UNL     1      17.165  44.719   8.784  1.00  0.00    -0.550 OA
ATOM      9  O   UNL     1      17.235  42.436   8.596  1.00  0.00    -0.550 OA
ENDBRANCH   6   7
ENDBRANCH   5   6
ENDBRANCH   4   5
ENDBRANCH   3   4
ENDBRANCH   2   3
ENDBRANCH   1   2
BRANCH   1  10
ATOM     10  C   UNL     1      12.729  43.070   3.998  1.00  0.00     0.000 C 
BRANCH  10  11
ATOM     11  C   UNL     1      13.042  42.591   5.424  1.00  0.00    -0.000 C 
BRANCH  11  12
ATOM     12  C   UNL     1      12.553  43.577   6.500  1.00  0.00    -0.000 C 
BRANCH  12  13
ATOM     13  C   UNL     1      13.684  44.036   7.435  1.00  0.00    -0.000 C 
BRANCH  13  14
ATOM     14  C   UNL     1      14.004  45.533   7.280  1.00  0.00    -0.000 C 
BRANCH  14  15
ATOM     15  C   UNL     1      12.751  46.417   7.378  1.00  0.00    -0.000 C 
BRANCH  15  16
ATOM     16  C   UNL     1      12.451  47.163   6.069  1.00  0.00    -0.003 C 
ATOM     17  C   UNL     1      10.953  47.180   5.778  1.00  0.00     0.004 C 
ENDBRANCH  15  16
ENDBRANCH  14  15
ENDBRANCH  13  14
ENDBRANCH  12  13
ENDBRANCH  11  12
ENDBRANCH  10  11
ENDBRANCH   1  10
TORSDOF 13
ENDMDL
MODEL 2
REMARK VINA RESULT:    -4.757      1.310      1.917
REMARK INTER + INTRA:         -10.572
REMARK INTER:                  -8.661
REMARK INTRA:                  -1.911
REMARK UNBOUND:                -2.200
REMARK SMILES CCCCCCCCCCCCCCC(=O)[O-]
REMARK SMILES IDX 9 1 10 2 11 3 12 4 13 5 14 6 15 7 16 8 17 9 8 10 7 11 6 12
REMARK SMILES IDX 5 13 4 14 3 15 2 16 1 17
REMARK H PARENT
REMARK Flexibility Score: inf
ROOT
ATOM      1  C   UNL     1      13.737  43.386   3.725  1.00  0.00     0.000 C 
ENDROOT
BRANCH   1   2
ATOM      2  C   UNL     1      15.090  44.016   3.363  1.00  0.00     0.000 C 
BRANCH   2   3
ATOM      3  C   UNL     1      16.272  43.355   4.093  1.00  0.00     0.000 C 
BRANCH   3   4
ATOM      4  C   UNL     1      16.393  43.716   5.586  1.00  0.00     0.000 C 
BRANCH   4   5
ATOM      5  C   UNL     1      15.985  42.573   6.541  1.00  0.00     0.006 C 
BRANCH   5   6
ATOM      6  C   UNL     1      15.498  43.061   7.915  1.00  0.00     0.053 C 
BRANCH   6   7
ATOM      7  C   UNL     1      16.502  43.957   8.576  1.00  0.00     0.041 C 
ATOM      8  O   UNL     1      16.264  45.186   8.709  1.00  0.00    -0.550 OA
ATOM      9  O   UNL     1      17.708  43.437   9.028  1.00  0.00    -0.550 OA
ENDBRANCH   6   7
ENDBRANCH   5   6
ENDBRANCH   4   5
ENDBRANCH   3   4
ENDBRANCH   2   3
ENDBRANCH   1   2
BRANCH   1  10
ATOM     10  C   UNL     1      12.817  44.413   4.401  1.00  0.00     0.000 C 
BRANCH  10  11
ATOM     11  C   UNL     1      13.200  45.862   4.061  1.00  0.00    -0.000 C 
BRANCH  11  12
ATOM     12  C   UNL     1      13.640  46.664   5.299  1.00  0.00    -0.000 C 
BRANCH  12  13
ATOM     13  C   UNL     1      13.522  45.852   6.599  1.00  0.00    -0.000 C 
BRANCH  13  14
ATOM     14  C   UNL     1      12.633  46.546   7.647  1.00  0.00    -0.000 C 
BRANCH  14  15
ATOM     15  C   UNL     1      11.390  45.717   8.007  1.00  0.00    -0.000 C 
BRANCH  15  16
ATOM     16  C   UNL     1      10.236  45.922   7.015  1.00  0.00    -0.003 C 
ATOM     17  C   UNL     1      10.165  47.373   6.547  1.00  0.00     0.004 C 
ENDBRANCH  15  16
ENDBRANCH  14  15
ENDBRANCH  13  14
ENDBRANCH  12  13
ENDBRANCH  11  12
ENDBRANCH  10  11
ENDBRANCH   1  10
TORSDOF 13
ENDMDL
MODEL 3
REMARK VINA RESULT:    -4.730      1.257      2.626
REMARK INTER + INTRA:         -10.525
REMARK INTER:                  -8.546
REMARK INTRA:                  -1.979
REMARK UNBOUND:                -2.200
REMARK SMILES CCCCCCCCCCCCCCC(=O)[O-]
REMARK SMILES IDX 9 1 10 2 11 3 12 4 13 5 14 6 15 7 16 8 17 9 8 10 7 11 6 12
REMARK SMILES IDX 5 13 4 14 3 15 2 16 1 17
REMARK H PARENT
REMARK Flexibility Score: inf
ROOT
ATOM      1  C   UNL     1      12.747  43.212   3.685  1.00  0.00     0.000 C 
ENDROOT
BRANCH   1   2
ATOM      2  C   UNL     1      12.631  42.301   4.916  1.00  0.00     0.000 C 
BRANCH   2   3
ATOM      3  C   UNL     1      12.970  43.026   6.229  1.00  0.00     0.000 C 
BRANCH   3   4
ATOM      4  C   UNL     1      14.298  42.595   6.882  1.00  0.00     0.000 C 
BRANCH   4   5
ATOM      5  C   UNL     1      14.767  43.528   8.021  1.00  0.00     0.006 C 
BRANCH   5   6
ATOM      6  C   UNL     1      15.901  44.480   7.610  1.00  0.00     0.053 C 
BRANCH   6   7
ATOM      7  C   UNL     1      17.237  43.802   7.637  1.00  0.00     0.041 C 
ATOM      8  O   UNL     1      17.710  43.375   8.724  1.00  0.00    -0.550 OA
ATOM      9  O   UNL     1      17.970  43.659   6.465  1.00  0.00    -0.550 OA
ENDBRANCH   6   7
ENDBRANCH   5   6
ENDBRANCH   4   5
ENDBRANCH   3   4
ENDBRANCH   2   3
ENDBRANCH   1   2
BRANCH   1  10
ATOM     10  C   UNL     1      14.216  43.387   3.270  1.00  0.00     0.000 C 
BRANCH  10  11
ATOM     11  C   UNL     1      14.753  44.793   3.579  1.00  0.00    -0.000 C 
BRANCH  11  12
ATOM     12  C   UNL     1      13.636  45.783   3.954  1.00  0.00    -0.000 C 
BRANCH  12  13
ATOM     13  C   UNL     1      13.938  46.547   5.254  1.00  0.00    -0.000 C 
BRANCH  13  14
ATOM     14  C   UNL     1      12.660  46.980   5.993  1.00  0.00    -0.000 C 
BRANCH  14  15
ATOM     15  C   UNL     1      12.640  46.517   7.458  1.00  0.00    -0.000 C 
BRANCH  15  16
ATOM     16  C   UNL     1      11.263  45.994   7.894  1.00  0.00    -0.003 C 
ATOM     17  C   UNL     1      10.146  46.652   7.089  1.00  0.00     0.004 C 
ENDBRANCH  15  16
ENDBRANCH  14  15
ENDBRANCH  13  14
ENDBRANCH  12  13
ENDBRANCH  11  12
ENDBRANCH  10  11
ENDBRANCH   1  10
TORSDOF 13
ENDMDL
MODEL 4
REMARK VINA RESULT:    -4.709      1.420      3.004
REMARK INTER + INTRA:         -10.488
REMARK INTER:                  -8.216
REMARK INTRA:                  -2.271
REMARK UNBOUND:                -2.200
REMARK SMILES CCCCCCCCCCCCCCC(=O)[O-]
REMARK SMILES IDX 9 1 10 2 11 3 12 4 13 5 14 6 15 7 16 8 17 9 8 10 7 11 6 12
REMARK SMILES IDX 5 13 4 14 3 15 2 16 1 17
REMARK H PARENT
REMARK Flexibility Score: inf
ROOT
ATOM      1  C   UNL     1      15.240  45.221   3.503  1.00  0.00     0.000 C 
ENDROOT
BRANCH   1   2
ATOM      2  C   UNL     1      15.568  43.791   3.958  1.00  0.00     0.000 C 
BRANCH   2   3
ATOM      3  C   UNL     1      17.062  43.591   4.265  1.00  0.00     0.000 C 
BRANCH   3   4
ATOM      4  C   UNL     1      17.394  43.392   5.757  1.00  0.00     0.000 C 
BRANCH   4   5
ATOM      5  C   UNL     1      16.321  42.600   6.537  1.00  0.00     0.006 C 
BRANCH   5   6
ATOM      6  C   UNL     1      16.559  42.570   8.055  1.00  0.00     0.053 C 
BRANCH   6   7
ATOM      7  C   UNL     1      15.843  43.686   8.754  1.00  0.00     0.041 C 
ATOM      8  O   UNL     1      14.725  43.481   9.297  1.00  0.00    -0.550 OA
ATOM      9  O   UNL     1      16.400  44.959   8.787  1.00  0.00    -0.550 OA
ENDBRANCH   6   7
ENDBRANCH   5   6
ENDBRANCH   4   5
ENDBRANCH   3   4
ENDBRANCH   2   3
ENDBRANCH   1   2
BRANCH   1  10
ATOM     10  C   UNL     1      14.147  45.841   4.387  1.00  0.00     0.000 C 
BRANCH  10  11
ATOM     11  C   UNL     1      14.549  45.899   5.869  1.00  0.00    -0.000 C 
BRANCH  11  12
ATOM     12  C   UNL     1      13.360  45.653   6.814  1.00  0.00    -0.000 C 
BRANCH  12  13
ATOM     13  C   UNL     1      12.344  44.656   6.236  1.00  0.00    -0.000 C 
BRANCH  13  14
ATOM     14  C   UNL     1      12.663  43.200   6.621  1.00  0.00    -0.000 C 
BRANCH  14  15
ATOM     15  C   UNL     1      12.844  42.293   5.394  1.00  0.00    -0.000 C 
BRANCH  15  16
ATOM     16  C   UNL     1      11.835  42.601   4.277  1.00  0.00    -0.003 C 
ATOM     17  C   UNL     1      12.499  42.537   2.905  1.00  0.00     0.004 C 
ENDBRANCH  15  16
ENDBRANCH  14  15
ENDBRANCH  13  14
ENDBRANCH  12  13
ENDBRANCH  11  12
ENDBRANCH  10  11
ENDBRANCH   1  10
TORSDOF 13
ENDMDL
MODEL 5
REMARK VINA RESULT:    -4.701      1.347      4.102
REMARK INTER + INTRA:         -10.473
REMARK INTER:                  -8.158
REMARK INTRA:                  -2.315
REMARK UNBOUND:                -2.200
REMARK SMILES CCCCCCCCCCCCCCC(=O)[O-]
REMARK SMILES IDX 9 1 10 2 11 3 12 4 13 5 14 6 15 7 16 8 17 9 8 10 7 11 6 12
REMARK SMILES IDX 5 13 4 14 3 15 2 16 1 17
REMARK H PARENT
REMARK Flexibility Score: inf
ROOT
ATOM      1  C   UNL     1      11.069  45.002   6.911  1.00  0.00     0.000 C 
ENDROOT
BRANCH   1   2
ATOM      2  C   UNL     1      11.576  45.395   8.306  1.00  0.00     0.000 C 
BRANCH   2   3
ATOM      3  C   UNL     1      12.633  44.420   8.854  1.00  0.00     0.000 C 
BRANCH   3   4
ATOM      4  C   UNL     1      13.533  43.775   7.783  1.00  0.00     0.000 C 
BRANCH   4   5
ATOM      5  C   UNL     1      14.983  44.308   7.781  1.00  0.00     0.006 C 
BRANCH   5   6
ATOM      6  C   UNL     1      15.984  43.370   7.089  1.00  0.00     0.053 C 
BRANCH   6   7
ATOM      7  C   UNL     1      16.657  42.452   8.065  1.00  0.00     0.041 C 
ATOM      8  O   UNL     1      16.074  41.407   8.457  1.00  0.00    -0.550 OA
ATOM      9  O   UNL     1      17.919  42.762   8.556  1.00  0.00    -0.550 OA
ENDBRANCH   6   7
ENDBRANCH   5   6
ENDBRANCH   4   5
ENDBRANCH   3   4
ENDBRANCH   2   3
ENDBRANCH   1   2
BRANCH   1  10
ATOM     10  C   UNL     1      11.314  46.132   5.900  1.00  0.00     0.000 C 
BRANCH  10  11
ATOM     11  C   UNL     1      12.498  47.029   6.293  1.00  0.00    -0.000 C 
BRANCH  11  12
ATOM     12  C   UNL     1      13.736  46.795   5.410  1.00  0.00    -0.000 C 
BRANCH  12  13
ATOM     13  C   UNL     1      13.453  45.838   4.241  1.00  0.00    -0.000 C 
BRANCH  13  14
ATOM     14  C   UNL     1      14.628  44.885   3.963  1.00  0.00    -0.000 C 
BRANCH  14  15
ATOM     15  C   UNL     1      14.163  43.503   3.478  1.00  0.00    -0.000 C 
BRANCH  15  16
ATOM     16  C   UNL     1      12.651  43.296   3.646  1.00  0.00    -0.003 C 
ATOM     17  C   UNL     1      12.358  42.157   4.619  1.00  0.00     0.004 C 
ENDBRANCH  15  16
ENDBRANCH  14  15
ENDBRANCH  13  14
ENDBRANCH  12  13
ENDBRANCH  11  12
ENDBRANCH  10  11
ENDBRANCH   1  10
TORSDOF 13
ENDMDL
MODEL 6
REMARK VINA RESULT:    -4.685      1.615      2.854
REMARK INTER + INTRA:         -10.446
REMARK INTER:                  -8.668
REMARK INTRA:                  -1.778
REMARK UNBOUND:                -2.200
REMARK SMILES CCCCCCCCCCCCCCC(=O)[O-]
REMARK SMILES IDX 9 1 10 2 11 3 12 4 13 5 14 6 15 7 16 8 17 9 8 10 7 11 6 12
REMARK SMILES IDX 5 13 4 14 3 15 2 16 1 17
REMARK H PARENT
REMARK Flexibility Score: inf
ROOT
ATOM      1  C   UNL     1      15.913  44.418   4.686  1.00  0.00     0.000 C 
ENDROOT
BRANCH   1   2
ATOM      2  C   UNL     1      16.999  43.386   5.026  1.00  0.00     0.000 C 
BRANCH   2   3
ATOM      3  C   UNL     1      17.797  43.754   6.289  1.00  0.00     0.000 C 
BRANCH   3   4
ATOM      4  C   UNL     1      17.173  44.872   7.145  1.00  0.00     0.000 C 
BRANCH   4   5
ATOM      5  C   UNL     1      16.591  44.380   8.489  1.00  0.00     0.006 C 
BRANCH   5   6
ATOM      6  C   UNL     1      15.086  44.071   8.432  1.00  0.00     0.053 C 
BRANCH   6   7
ATOM      7  C   UNL     1      14.823  42.626   8.131  1.00  0.00     0.041 C 
ATOM      8  O   UNL     1      14.253  42.296   7.058  1.00  0.00    -0.550 OA
ATOM      9  O   UNL     1      15.190  41.646   9.045  1.00  0.00    -0.550 OA
ENDBRANCH   6   7
ENDBRANCH   5   6
ENDBRANCH   4   5
ENDBRANCH   3   4
ENDBRANCH   2   3
ENDBRANCH   1   2
BRANCH   1  10
ATOM     10  C   UNL     1      15.173  44.030   3.397  1.00  0.00     0.000 C 
BRANCH  10  11
ATOM     11  C   UNL     1      13.820  43.357   3.674  1.00  0.00    -0.000 C 
BRANCH  11  12
ATOM     12  C   UNL     1      12.883  44.237   4.520  1.00  0.00    -0.000 C 
BRANCH  12  13
ATOM     13  C   UNL     1      12.591  45.593   3.857  1.00  0.00    -0.000 C 
BRANCH  13  14
ATOM     14  C   UNL     1      12.873  46.779   4.795  1.00  0.00    -0.000 C 
BRANCH  14  15
ATOM     15  C   UNL     1      13.421  46.334   6.160  1.00  0.00    -0.000 C 
BRANCH  15  16
ATOM     16  C   UNL     1      12.548  46.808   7.331  1.00  0.00    -0.003 C 
ATOM     17  C   UNL     1      11.699  45.665   7.880  1.00  0.00     0.004 C 
ENDBRANCH  15  16
ENDBRANCH  14  15
ENDBRANCH  13  14
ENDBRANCH  12  13
ENDBRANCH  11  12
ENDBRANCH  10  11
ENDBRANCH   1  10
TORSDOF 13
ENDMDL
MODEL 7
REMARK VINA RESULT:    -4.677      1.334      2.206
REMARK INTER + INTRA:         -10.432
REMARK INTER:                  -8.837
REMARK INTRA:                  -1.595
REMARK UNBOUND:                -2.200
REMARK SMILES CCCCCCCCCCCCCCC(=O)[O-]
REMARK SMILES IDX 9 1 10 2 11 3 12 4 13 5 14 6 15 7 16 8 17 9 8 10 7 11 6 12
REMARK SMILES IDX 5 13 4 14 3 15 2 16 1 17
REMARK H PARENT
REMARK Flexibility Score: inf
ROOT
ATOM      1  C   UNL     1      13.492  45.497   3.998  1.00  0.00     0.000 C 
ENDROOT
BRANCH   1   2
ATOM      2  C   UNL     1      14.874  45.102   3.457  1.00  0.00     0.000 C 
BRANCH   2   3
ATOM      3  C   UNL     1      15.197  43.614   3.672  1.00  0.00     0.000 C 
BRANCH   3   4
ATOM      4  C   UNL     1      16.585  43.334   4.279  1.00  0.00     0.000 C 
BRANCH   4   5
ATOM      5  C   UNL     1      16.553  43.006   5.789  1.00  0.00     0.006 C 
BRANCH   5   6
ATOM      6  C   UNL     1      17.635  43.735   6.601  1.00  0.00     0.053 C 
BRANCH   6   7
ATOM      7  C   UNL     1      17.388  43.634   8.076  1.00  0.00     0.041 C 
ATOM      8  O   UNL     1      17.790  42.628   8.718  1.00  0.00    -0.550 OA
ATOM      9  O   UNL     1      16.696  44.640   8.738  1.00  0.00    -0.550 OA
ENDBRANCH   6   7
ENDBRANCH   5   6
ENDBRANCH   4   5
ENDBRANCH   3   4
ENDBRANCH   2   3
ENDBRANCH   1   2
BRANCH   1  10
ATOM     10  C   UNL     1      13.619  46.532   5.126  1.00  0.00     0.000 C 
BRANCH  10  11
ATOM     11  C   UNL     1      14.412  45.998   6.329  1.00  0.00    -0.000 C 
BRANCH  11  12
ATOM     12  C   UNL     1      13.576  45.063   7.221  1.00  0.00    -0.000 C 
BRANCH  12  13
ATOM     13  C   UNL     1      12.701  45.833   8.223  1.00  0.00    -0.000 C 
BRANCH  13  14
ATOM     14  C   UNL     1      11.262  45.291   8.286  1.00  0.00    -0.000 C 
BRANCH  14  15
ATOM     15  C   UNL     1      10.517  45.441   6.951  1.00  0.00    -0.000 C 
BRANCH  15  16
ATOM     16  C   UNL     1      10.075  46.887   6.680  1.00  0.00    -0.003 C 
ATOM     17  C   UNL     1       8.943  47.300   7.616  1.00  0.00     0.004 C 
ENDBRANCH  15  16
ENDBRANCH  14  15
ENDBRANCH  13  14
ENDBRANCH  12  13
ENDBRANCH  11  12
ENDBRANCH  10  11
ENDBRANCH   1  10
TORSDOF 13
ENDMDL
MODEL 8
REMARK VINA RESULT:    -4.614      2.605      4.830
REMARK INTER + INTRA:         -10.321
REMARK INTER:                  -8.142
REMARK INTRA:                  -2.179
REMARK UNBOUND:                -2.200
REMARK SMILES CCCCCCCCCCCCCCC(=O)[O-]
REMARK SMILES IDX 9 1 10 2 11 3 12 4 13 5 14 6 15 7 16 8 17 9 8 10 7 11 6 12
REMARK SMILES IDX 5 13 4 14 3 15 2 16 1 17
REMARK H PARENT
REMARK Flexibility Score: inf
ROOT
ATOM      1  C   UNL     1      12.636  44.024   4.521  1.00  0.00     0.000 C 
ENDROOT
BRANCH   1   2
ATOM      2  C   UNL     1      12.780  45.457   3.988  1.00  0.00     0.000 C 
BRANCH   2   3
ATOM      3  C   UNL     1      12.614  46.522   5.085  1.00  0.00     0.000 C 
BRANCH   3   4
ATOM      4  C   UNL     1      13.607  46.403   6.257  1.00  0.00     0.000 C 
BRANCH   4   5
ATOM      5  C   UNL     1      12.929  46.263   7.639  1.00  0.00     0.006 C 
BRANCH   5   6
ATOM      6  C   UNL     1      11.398  46.159   7.566  1.00  0.00     0.053 C 
BRANCH   6   7
ATOM      7  C   UNL     1      10.886  44.948   8.287  1.00  0.00     0.041 C 
ATOM      8  O   UNL     1       9.905  44.305   7.828  1.00  0.00    -0.550 OA
ATOM      9  O   UNL     1      11.479  44.543   9.476  1.00  0.00    -0.550 OA
ENDBRANCH   6   7
ENDBRANCH   5   6
ENDBRANCH   4   5
ENDBRANCH   3   4
ENDBRANCH   2   3
ENDBRANCH   1   2
BRANCH   1  10
ATOM     10  C   UNL     1      13.585  43.066   3.785  1.00  0.00     0.000 C 
BRANCH  10  11
ATOM     11  C   UNL     1      14.851  43.769   3.271  1.00  0.00    -0.000 C 
BRANCH  11  12
ATOM     12  C   UNL     1      16.106  43.394   4.080  1.00  0.00    -0.000 C 
BRANCH  12  13
ATOM     13  C   UNL     1      16.393  44.389   5.216  1.00  0.00    -0.000 C 
BRANCH  13  14
ATOM     14  C   UNL     1      16.768  43.686   6.533  1.00  0.00    -0.000 C 
BRANCH  14  15
ATOM     15  C   UNL     1      15.915  42.435   6.797  1.00  0.00    -0.000 C 
BRANCH  15  16
ATOM     16  C   UNL     1      14.564  42.768   7.447  1.00  0.00    -0.003 C 
ATOM     17  C   UNL     1      14.752  43.287   8.870  1.00  0.00     0.004 C 
ENDBRANCH  15  16
ENDBRANCH  14  15
ENDBRANCH  13  14
ENDBRANCH  12  13
ENDBRANCH  11  12
ENDBRANCH  10  11
ENDBRANCH   1  10
TORSDOF 13
ENDMDL
MODEL 9
REMARK VINA RESULT:    -4.611      3.257      5.702
REMARK INTER + INTRA:         -10.316
REMARK INTER:                  -8.176
REMARK INTRA:                  -2.140
REMARK UNBOUND:                -2.200
REMARK SMILES CCCCCCCCCCCCCCC(=O)[O-]
REMARK SMILES IDX 9 1 10 2 11 3 12 4 13 5 14 6 15 7 16 8 17 9 8 10 7 11 6 12
REMARK SMILES IDX 5 13 4 14 3 15 2 16 1 17
REMARK H PARENT
REMARK Flexibility Score: inf
ROOT
ATOM      1  C   UNL     1      14.697  43.261   7.772  1.00  0.00     0.000 C 
ENDROOT
BRANCH   1   2
ATOM      2  C   UNL     1      14.525  44.785   7.693  1.00  0.00     0.000 C 
BRANCH   2   3
ATOM      3  C   UNL     1      13.158  45.260   8.214  1.00  0.00     0.000 C 
BRANCH   3   4
ATOM      4  C   UNL     1      12.451  46.299   7.322  1.00  0.00     0.000 C 
BRANCH   4   5
ATOM      5  C   UNL     1      10.936  46.048   7.150  1.00  0.00     0.006 C 
BRANCH   5   6
ATOM      6  C   UNL     1      10.574  44.565   6.973  1.00  0.00     0.053 C 
BRANCH   6   7
ATOM      7  C   UNL     1       9.318  44.206   7.710  1.00  0.00     0.041 C 
ATOM      8  O   UNL     1       9.340  44.045   8.959  1.00  0.00    -0.550 OA
ATOM      9  O   UNL     1       8.129  44.029   7.014  1.00  0.00    -0.550 OA
ENDBRANCH   6   7
ENDBRANCH   5   6
ENDBRANCH   4   5
ENDBRANCH   3   4
ENDBRANCH   2   3
ENDBRANCH   1   2
BRANCH   1  10
ATOM     10  C   UNL     1      15.589  42.749   6.632  1.00  0.00     0.000 C 
BRANCH  10  11
ATOM     11  C   UNL     1      16.262  43.889   5.852  1.00  0.00    -0.000 C 
BRANCH  11  12
ATOM     12  C   UNL     1      16.557  43.512   4.390  1.00  0.00    -0.000 C 
BRANCH  12  13
ATOM     13  C   UNL     1      15.325  43.663   3.482  1.00  0.00    -0.000 C 
BRANCH  13  14
ATOM     14  C   UNL     1      14.399  44.807   3.932  1.00  0.00    -0.000 C 
BRANCH  14  15
ATOM     15  C   UNL     1      12.939  44.355   4.091  1.00  0.00    -0.000 C 
BRANCH  15  16
ATOM     16  C   UNL     1      12.731  42.884   3.703  1.00  0.00    -0.003 C 
ATOM     17  C   UNL     1      12.359  42.042   4.921  1.00  0.00     0.004 C 
ENDBRANCH  15  16
ENDBRANCH  14  15
ENDBRANCH  13  14
ENDBRANCH  12  13
ENDBRANCH  11  12
ENDBRANCH  10  11
ENDBRANCH   1  10
TORSDOF 13
ENDMDL
