MODEL 1
REMARK VINA RESULT:    -5.319      0.000      0.000
REMARK INTER + INTRA:          -5.630
REMARK INTER:                  -5.630
REMARK INTRA:                   0.000
REMARK UNBOUND:                 0.000
REMARK SMILES O=c1ccc2cc(O)c(O)cc2o1
REMARK SMILES IDX 4 1 3 2 2 3 1 4 13 5 12 6 11 7 9 8 7 9 6 10 5 11 8 12 10 14
REMARK H PARENT 8 13 10 15
REMARK Flexibility Score: inf
ROOT
ATOM      1  C   UNL     1       3.975   6.676 110.894  1.00  0.00     0.019 A 
ATOM      2  C   UNL     1       2.974   7.457 111.469  1.00  0.00     0.094 A 
ATOM      3  C   UNL     1       2.259   6.949 112.560  1.00  0.00     0.336 A 
ATOM      4  O   UNL     1       1.352   7.639 113.093  1.00  0.00    -0.246 OA
ATOM      5  O   UNL     1       2.534   5.738 113.039  1.00  0.00    -0.423 OA
ATOM      6  C   UNL     1       3.481   4.961 112.520  1.00  0.00     0.142 A 
ATOM      7  C   UNL     1       3.724   3.696 113.066  1.00  0.00     0.098 A 
ATOM      8  C   UNL     1       4.721   2.873 112.522  1.00  0.00     0.161 A 
ATOM      9  C   UNL     1       5.478   3.316 111.428  1.00  0.00     0.158 A 
ATOM     10  C   UNL     1       5.238   4.583 110.876  1.00  0.00     0.062 A 
ATOM     11  C   UNL     1       4.242   5.407 111.418  1.00  0.00     0.022 A 
ENDROOT
BRANCH   9  12
ATOM     12  O   UNL     1       6.466   2.492 110.894  1.00  0.00    -0.504 OA
ATOM     13  H   UNL     1       6.251   1.566 110.540  1.00  0.00     0.293 HD
ENDBRANCH   9  12
BRANCH   8  14
ATOM     14  O   UNL     1       4.967   1.612 113.064  1.00  0.00    -0.504 OA
ATOM     15  H   UNL     1       4.488   0.786 112.722  1.00  0.00     0.293 HD
ENDBRANCH   8  14
TORSDOF 2
ENDMDL
MODEL 2
REMARK VINA RESULT:    -5.133      1.055      2.231
REMARK INTER + INTRA:          -5.433
REMARK INTER:                  -5.433
REMARK INTRA:                   0.000
REMARK UNBOUND:                 0.000
REMARK SMILES O=c1ccc2cc(O)c(O)cc2o1
REMARK SMILES IDX 4 1 3 2 2 3 1 4 13 5 12 6 11 7 9 8 7 9 6 10 5 11 8 12 10 14
REMARK H PARENT 8 13 10 15
REMARK Flexibility Score: inf
ROOT
ATOM      1  C   UNL     1       2.292   5.695 113.257  1.00  0.00     0.019 A 
ATOM      2  C   UNL     1       1.994   6.948 112.723  1.00  0.00     0.094 A 
ATOM      3  C   UNL     1       2.734   7.412 111.628  1.00  0.00     0.336 A 
ATOM      4  O   UNL     1       2.480   8.540 111.132  1.00  0.00    -0.246 OA
ATOM      5  O   UNL     1       3.704   6.666 111.108  1.00  0.00    -0.423 OA
ATOM      6  C   UNL     1       4.020   5.465 111.587  1.00  0.00     0.142 A 
ATOM      7  C   UNL     1       5.051   4.727 110.998  1.00  0.00     0.098 A 
ATOM      8  C   UNL     1       5.388   3.461 111.500  1.00  0.00     0.161 A 
ATOM      9  C   UNL     1       4.690   2.931 112.595  1.00  0.00     0.158 A 
ATOM     10  C   UNL     1       3.655   3.668 113.190  1.00  0.00     0.062 A 
ATOM     11  C   UNL     1       3.318   4.933 112.689  1.00  0.00     0.022 A 
ENDROOT
BRANCH   9  12
ATOM     12  O   UNL     1       5.031   1.673 113.087  1.00  0.00    -0.504 OA
ATOM     13  H   UNL     1       5.926   1.245 112.876  1.00  0.00     0.293 HD
ENDBRANCH   9  12
BRANCH   8  14
ATOM     14  O   UNL     1       6.416   2.722 110.915  1.00  0.00    -0.504 OA
ATOM     15  H   UNL     1       7.047   3.136 110.238  1.00  0.00     0.293 HD
ENDBRANCH   8  14
TORSDOF 2
ENDMDL
MODEL 3
REMARK VINA RESULT:    -4.925      1.144      4.667
REMARK INTER + INTRA:          -5.213
REMARK INTER:                  -5.213
REMARK INTRA:                   0.000
REMARK UNBOUND:                 0.000
REMARK SMILES O=c1ccc2cc(O)c(O)cc2o1
REMARK SMILES IDX 4 1 3 2 2 3 1 4 13 5 12 6 11 7 9 8 7 9 6 10 5 11 8 12 10 14
REMARK H PARENT 8 13 10 15
REMARK Flexibility Score: inf
ROOT
ATOM      1  C   UNL     1       4.747   5.401 110.875  1.00  0.00     0.019 A 
ATOM      2  C   UNL     1       5.254   4.158 111.252  1.00  0.00     0.094 A 
ATOM      3  C   UNL     1       4.684   3.495 112.345  1.00  0.00     0.336 A 
ATOM      4  O   UNL     1       5.127   2.373 112.701  1.00  0.00    -0.246 OA
ATOM      5  O   UNL     1       3.673   4.046 113.013  1.00  0.00    -0.423 OA
ATOM      6  C   UNL     1       3.160   5.230 112.687  1.00  0.00     0.142 A 
ATOM      7  C   UNL     1       2.098   5.759 113.426  1.00  0.00     0.098 A 
ATOM      8  C   UNL     1       1.553   7.006 113.087  1.00  0.00     0.161 A 
ATOM      9  C   UNL     1       2.073   7.727 112.002  1.00  0.00     0.158 A 
ATOM     10  C   UNL     1       3.139   7.202 111.257  1.00  0.00     0.062 A 
ATOM     11  C   UNL     1       3.685   5.955 111.596  1.00  0.00     0.022 A 
ENDROOT
BRANCH   9  12
ATOM     12  O   UNL     1       1.527   8.965 111.671  1.00  0.00    -0.504 OA
ATOM     13  H   UNL     1       1.927   9.831 112.015  1.00  0.00     0.293 HD
ENDBRANCH   9  12
BRANCH   8  14
ATOM     14  O   UNL     1       0.493   7.536 113.821  1.00  0.00    -0.504 OA
ATOM     15  H   UNL     1       0.644   8.241 114.534  1.00  0.00     0.293 HD
ENDBRANCH   8  14
TORSDOF 2
ENDMDL
MODEL 4
REMARK VINA RESULT:    -4.924      1.722      4.691
REMARK INTER + INTRA:          -5.212
REMARK INTER:                  -5.212
REMARK INTRA:                   0.000
REMARK UNBOUND:                 0.000
REMARK SMILES O=c1ccc2cc(O)c(O)cc2o1
REMARK SMILES IDX 4 1 3 2 2 3 1 4 13 5 12 6 11 7 9 8 7 9 6 10 5 11 8 12 10 14
REMARK H PARENT 8 13 10 15
REMARK Flexibility Score: inf
ROOT
ATOM      1  C   UNL     1       4.184   4.822 111.112  1.00  0.00     0.019 A 
ATOM      2  C   UNL     1       4.599   3.526 111.415  1.00  0.00     0.094 A 
ATOM      3  C   UNL     1       4.780   3.167 112.756  1.00  0.00     0.336 A 
ATOM      4  O   UNL     1       5.154   2.002 113.050  1.00  0.00    -0.246 OA
ATOM      5  O   UNL     1       4.559   4.052 113.725  1.00  0.00    -0.423 OA
ATOM      6  C   UNL     1       4.162   5.299 113.479  1.00  0.00     0.142 A 
ATOM      7  C   UNL     1       3.945   6.185 114.539  1.00  0.00     0.098 A 
ATOM      8  C   UNL     1       3.527   7.499 114.285  1.00  0.00     0.161 A 
ATOM      9  C   UNL     1       3.325   7.929 112.966  1.00  0.00     0.158 A 
ATOM     10  C   UNL     1       3.542   7.045 111.899  1.00  0.00     0.062 A 
ATOM     11  C   UNL     1       3.960   5.731 112.151  1.00  0.00     0.022 A 
ENDROOT
BRANCH   9  12
ATOM     12  O   UNL     1       2.910   9.237 112.723  1.00  0.00    -0.504 OA
ATOM     13  H   UNL     1       3.443   9.861 112.126  1.00  0.00     0.293 HD
ENDBRANCH   9  12
BRANCH   8  14
ATOM     14  O   UNL     1       3.310   8.386 115.339  1.00  0.00    -0.504 OA
ATOM     15  H   UNL     1       2.894   9.298 115.187  1.00  0.00     0.293 HD
ENDBRANCH   8  14
TORSDOF 2
ENDMDL
MODEL 5
REMARK VINA RESULT:    -4.659      1.866      2.138
REMARK INTER + INTRA:          -4.931
REMARK INTER:                  -4.931
REMARK INTRA:                   0.000
REMARK UNBOUND:                 0.000
REMARK SMILES O=c1ccc2cc(O)c(O)cc2o1
REMARK SMILES IDX 4 1 3 2 2 3 1 4 13 5 12 6 11 7 9 8 7 9 6 10 5 11 8 12 10 14
REMARK H PARENT 8 13 10 15
REMARK Flexibility Score: inf
ROOT
ATOM      1  C   UNL     1       2.874   7.989 111.685  1.00  0.00     0.019 A 
ATOM      2  C   UNL     1       2.652   9.026 112.591  1.00  0.00     0.094 A 
ATOM      3  C   UNL     1       3.050   8.861 113.923  1.00  0.00     0.336 A 
ATOM      4  O   UNL     1       2.858   9.786 114.754  1.00  0.00    -0.246 OA
ATOM      5  O   UNL     1       3.630   7.731 114.316  1.00  0.00    -0.423 OA
ATOM      6  C   UNL     1       3.860   6.717 113.485  1.00  0.00     0.142 A 
ATOM      7  C   UNL     1       4.474   5.553 113.957  1.00  0.00     0.098 A 
ATOM      8  C   UNL     1       4.719   4.481 113.086  1.00  0.00     0.161 A 
ATOM      9  C   UNL     1       4.348   4.575 111.736  1.00  0.00     0.158 A 
ATOM     10  C   UNL     1       3.731   5.741 111.258  1.00  0.00     0.062 A 
ATOM     11  C   UNL     1       3.486   6.812 112.128  1.00  0.00     0.022 A 
ENDROOT
BRANCH   9  12
ATOM     12  O   UNL     1       4.594   3.506 110.877  1.00  0.00    -0.504 OA
ATOM     13  H   UNL     1       5.524   3.313 110.522  1.00  0.00     0.293 HD
ENDBRANCH   9  12
BRANCH   8  14
ATOM     14  O   UNL     1       5.331   3.319 113.552  1.00  0.00    -0.504 OA
ATOM     15  H   UNL     1       4.822   2.445 113.623  1.00  0.00     0.293 HD
ENDBRANCH   8  14
TORSDOF 2
ENDMDL
MODEL 6
REMARK VINA RESULT:    -4.636      1.805      5.147
REMARK INTER + INTRA:          -4.907
REMARK INTER:                  -4.907
REMARK INTRA:                   0.000
REMARK UNBOUND:                 0.000
REMARK SMILES O=c1ccc2cc(O)c(O)cc2o1
REMARK SMILES IDX 4 1 3 2 2 3 1 4 13 5 12 6 11 7 9 8 7 9 6 10 5 11 8 12 10 14
REMARK H PARENT 8 13 10 15
REMARK Flexibility Score: inf
ROOT
ATOM      1  C   UNL     1       4.604   4.843 113.897  1.00  0.00     0.019 A 
ATOM      2  C   UNL     1       4.830   3.779 113.025  1.00  0.00     0.094 A 
ATOM      3  C   UNL     1       4.478   3.919 111.677  1.00  0.00     0.336 A 
ATOM      4  O   UNL     1       4.675   2.969 110.875  1.00  0.00    -0.246 OA
ATOM      5  O   UNL     1       3.935   5.051 111.238  1.00  0.00    -0.423 OA
ATOM      6  C   UNL     1       3.702   6.090 112.036  1.00  0.00     0.142 A 
ATOM      7  C   UNL     1       3.129   7.255 111.517  1.00  0.00     0.098 A 
ATOM      8  C   UNL     1       2.881   8.353 112.353  1.00  0.00     0.161 A 
ATOM      9  C   UNL     1       3.209   8.286 113.715  1.00  0.00     0.158 A 
ATOM     10  C   UNL     1       3.784   7.119 114.242  1.00  0.00     0.062 A 
ATOM     11  C   UNL     1       4.032   6.021 113.407  1.00  0.00     0.022 A 
ENDROOT
BRANCH   9  12
ATOM     12  O   UNL     1       2.959   9.381 114.540  1.00  0.00    -0.504 OA
ATOM     13  H   UNL     1       2.687  10.281 114.160  1.00  0.00     0.293 HD
ENDBRANCH   9  12
BRANCH   8  14
ATOM     14  O   UNL     1       2.310   9.516 111.839  1.00  0.00    -0.504 OA
ATOM     15  H   UNL     1       1.375   9.519 111.449  1.00  0.00     0.293 HD
ENDBRANCH   8  14
TORSDOF 2
ENDMDL
MODEL 7
REMARK VINA RESULT:    -4.622      1.847      2.684
REMARK INTER + INTRA:          -4.893
REMARK INTER:                  -4.893
REMARK INTRA:                   0.000
REMARK UNBOUND:                 0.000
REMARK SMILES O=c1ccc2cc(O)c(O)cc2o1
REMARK SMILES IDX 4 1 3 2 2 3 1 4 13 5 12 6 11 7 9 8 7 9 6 10 5 11 8 12 10 14
REMARK H PARENT 8 13 10 15
REMARK Flexibility Score: inf
ROOT
ATOM      1  C   UNL     1       3.292   7.946 113.893  1.00  0.00     0.019 A 
ATOM      2  C   UNL     1       2.699   8.984 113.174  1.00  0.00     0.094 A 
ATOM      3  C   UNL     1       2.600   8.874 111.782  1.00  0.00     0.336 A 
ATOM      4  O   UNL     1       2.068   9.799 111.115  1.00  0.00    -0.246 OA
ATOM      5  O   UNL     1       3.066   7.795 111.157  1.00  0.00    -0.423 OA
ATOM      6  C   UNL     1       3.638   6.784 111.805  1.00  0.00     0.142 A 
ATOM      7  C   UNL     1       4.110   5.676 111.095  1.00  0.00     0.098 A 
ATOM      8  C   UNL     1       4.714   4.607 111.773  1.00  0.00     0.161 A 
ATOM      9  C   UNL     1       4.847   4.647 113.168  1.00  0.00     0.158 A 
ATOM     10  C   UNL     1       4.377   5.756 113.887  1.00  0.00     0.062 A 
ATOM     11  C   UNL     1       3.773   6.825 113.210  1.00  0.00     0.022 A 
ENDROOT
BRANCH   9  12
ATOM     12  O   UNL     1       5.449   3.582 113.835  1.00  0.00    -0.504 OA
ATOM     13  H   UNL     1       4.918   2.766 114.121  1.00  0.00     0.293 HD
ENDBRANCH   9  12
BRANCH   8  14
ATOM     14  O   UNL     1       5.185   3.501 111.068  1.00  0.00    -0.504 OA
ATOM     15  H   UNL     1       6.160   3.416 110.804  1.00  0.00     0.293 HD
ENDBRANCH   8  14
TORSDOF 2
ENDMDL
MODEL 8
REMARK VINA RESULT:    -4.574      2.052      5.344
REMARK INTER + INTRA:          -4.842
REMARK INTER:                  -4.842
REMARK INTRA:                   0.000
REMARK UNBOUND:                 0.000
REMARK SMILES O=c1ccc2cc(O)c(O)cc2o1
REMARK SMILES IDX 4 1 3 2 2 3 1 4 13 5 12 6 11 7 9 8 7 9 6 10 5 11 8 12 10 14
REMARK H PARENT 8 13 10 15
REMARK Flexibility Score: inf
ROOT
ATOM      1  C   UNL     1       3.386   5.603 112.353  1.00  0.00     0.019 A 
ATOM      2  C   UNL     1       3.947   4.344 112.563  1.00  0.00     0.094 A 
ATOM      3  C   UNL     1       3.360   3.488 113.501  1.00  0.00     0.336 A 
ATOM      4  O   UNL     1       3.851   2.347 113.705  1.00  0.00    -0.246 OA
ATOM      5  O   UNL     1       2.283   3.872 114.182  1.00  0.00    -0.423 OA
ATOM      6  C   UNL     1       1.717   5.064 114.012  1.00  0.00     0.142 A 
ATOM      7  C   UNL     1       0.586   5.413 114.757  1.00  0.00     0.098 A 
ATOM      8  C   UNL     1      -0.015   6.668 114.582  1.00  0.00     0.161 A 
ATOM      9  C   UNL     1       0.518   7.579 113.658  1.00  0.00     0.158 A 
ATOM     10  C   UNL     1       1.653   7.235 112.909  1.00  0.00     0.062 A 
ATOM     11  C   UNL     1       2.254   5.980 113.083  1.00  0.00     0.022 A 
ENDROOT
BRANCH   9  12
ATOM     12  O   UNL     1      -0.084   8.824 113.490  1.00  0.00    -0.504 OA
ATOM     13  H   UNL     1       0.429   9.617 113.122  1.00  0.00     0.293 HD
ENDBRANCH   9  12
BRANCH   8  14
ATOM     14  O   UNL     1      -1.143   7.019 115.322  1.00  0.00    -0.504 OA
ATOM     15  H   UNL     1      -1.511   7.964 115.311  1.00  0.00     0.293 HD
ENDBRANCH   8  14
TORSDOF 2
ENDMDL
MODEL 9
REMARK VINA RESULT:    -4.463      2.480      5.015
REMARK INTER + INTRA:          -4.724
REMARK INTER:                  -4.724
REMARK INTRA:                   0.000
REMARK UNBOUND:                 0.000
REMARK SMILES O=c1ccc2cc(O)c(O)cc2o1
REMARK SMILES IDX 4 1 3 2 2 3 1 4 13 5 12 6 11 7 9 8 7 9 6 10 5 11 8 12 10 14
REMARK H PARENT 8 13 10 15
REMARK Flexibility Score: inf
ROOT
ATOM      1  C   UNL     1       4.850   4.962 114.047  1.00  0.00     0.019 A 
ATOM      2  C   UNL     1       4.551   3.611 114.214  1.00  0.00     0.094 A 
ATOM      3  C   UNL     1       3.219   3.193 114.110  1.00  0.00     0.336 A 
ATOM      4  O   UNL     1       2.929   1.977 114.258  1.00  0.00    -0.246 OA
ATOM      5  O   UNL     1       2.255   4.074 113.856  1.00  0.00    -0.423 OA
ATOM      6  C   UNL     1       2.497   5.372 113.690  1.00  0.00     0.142 A 
ATOM      7  C   UNL     1       1.443   6.251 113.425  1.00  0.00     0.098 A 
ATOM      8  C   UNL     1       1.692   7.620 113.249  1.00  0.00     0.161 A 
ATOM      9  C   UNL     1       3.003   8.111 113.339  1.00  0.00     0.158 A 
ATOM     10  C   UNL     1       4.064   7.234 113.605  1.00  0.00     0.062 A 
ATOM     11  C   UNL     1       3.816   5.866 113.781  1.00  0.00     0.022 A 
ENDROOT
BRANCH   9  12
ATOM     12  O   UNL     1       3.242   9.473 113.163  1.00  0.00    -0.504 OA
ATOM     13  H   UNL     1       3.151  10.131 113.929  1.00  0.00     0.293 HD
ENDBRANCH   9  12
BRANCH   8  14
ATOM     14  O   UNL     1       0.643   8.499 112.984  1.00  0.00    -0.504 OA
ATOM     15  H   UNL     1       0.027   8.825 113.720  1.00  0.00     0.293 HD
ENDBRANCH   8  14
TORSDOF 2
ENDMDL
