MODEL 1
REMARK VINA RESULT:    -3.325      0.000      0.000
REMARK INTER + INTRA:          -4.229
REMARK INTER:                  -4.005
REMARK INTRA:                  -0.224
REMARK UNBOUND:                -0.224
REMARK SMILES OCC(O)CO
REMARK SMILES IDX 3 1 5 2 6 3 2 5 1 6 4 8
REMARK H PARENT 6 4 1 7 4 9
REMARK Flexibility Score: inf
ROOT
ATOM      1  C   UNL     1     163.734 178.842 182.714  1.00  0.00     0.165 C 
ENDROOT
BRANCH   1   2
ATOM      2  C   UNL     1     163.634 177.665 183.694  1.00  0.00     0.190 C 
BRANCH   2   3
ATOM      3  O   UNL     1     162.812 178.000 184.780  1.00  0.00    -0.394 OA
ATOM      4  H   UNL     1     163.373 177.926 185.595  1.00  0.00     0.210 HD
ENDBRANCH   2   3
ENDBRANCH   1   2
BRANCH   1   5
ATOM      5  C   UNL     1     162.339 179.369 182.337  1.00  0.00     0.190 C 
BRANCH   5   6
ATOM      6  O   UNL     1     161.900 180.329 183.260  1.00  0.00    -0.394 OA
ATOM      7  H   UNL     1     161.401 181.014 182.742  1.00  0.00     0.210 HD
ENDBRANCH   5   6
ENDBRANCH   1   5
BRANCH   1   8
ATOM      8  O   UNL     1     164.480 179.872 183.309  1.00  0.00    -0.388 OA
ATOM      9  H   UNL     1     165.208 180.103 182.674  1.00  0.00     0.211 HD
ENDBRANCH   1   8
TORSDOF 5
ENDMDL
MODEL 2
REMARK VINA RESULT:    -3.301     15.322     15.562
REMARK INTER + INTRA:          -4.200
REMARK INTER:                  -4.197
REMARK INTRA:                  -0.003
REMARK UNBOUND:                -0.224
REMARK SMILES OCC(O)CO
REMARK SMILES IDX 3 1 5 2 6 3 2 5 1 6 4 8
REMARK H PARENT 6 4 1 7 4 9
REMARK Flexibility Score: inf
ROOT
ATOM      1  C   UNL     1     163.847 164.302 186.514  1.00  0.00     0.165 C 
ENDROOT
BRANCH   1   2
ATOM      2  C   UNL     1     164.339 164.304 187.968  1.00  0.00     0.190 C 
BRANCH   2   3
ATOM      3  O   UNL     1     163.252 164.343 188.854  1.00  0.00    -0.394 OA
ATOM      4  H   UNL     1     162.858 163.433 188.860  1.00  0.00     0.210 HD
ENDBRANCH   2   3
ENDBRANCH   1   2
BRANCH   1   5
ATOM      5  C   UNL     1     164.762 163.449 185.620  1.00  0.00     0.190 C 
BRANCH   5   6
ATOM      6  O   UNL     1     164.521 163.710 184.263  1.00  0.00    -0.394 OA
ATOM      7  H   UNL     1     163.535 163.688 184.140  1.00  0.00     0.210 HD
ENDBRANCH   5   6
ENDBRANCH   1   5
BRANCH   1   8
ATOM      8  O   UNL     1     162.540 163.788 186.474  1.00  0.00    -0.388 OA
ATOM      9  H   UNL     1     162.312 163.512 187.400  1.00  0.00     0.211 HD
ENDBRANCH   1   8
TORSDOF 5
ENDMDL
MODEL 3
REMARK VINA RESULT:    -3.288     21.566     22.506
REMARK INTER + INTRA:          -4.184
REMARK INTER:                  -3.966
REMARK INTRA:                  -0.218
REMARK UNBOUND:                -0.224
REMARK SMILES OCC(O)CO
REMARK SMILES IDX 3 1 5 2 6 3 2 5 1 6 4 8
REMARK H PARENT 6 4 1 7 4 9
REMARK Flexibility Score: inf
ROOT
ATOM      1  C   UNL     1     180.871 165.477 182.957  1.00  0.00     0.165 C 
ENDROOT
BRANCH   1   2
ATOM      2  C   UNL     1     180.468 166.887 183.409  1.00  0.00     0.190 C 
BRANCH   2   3
ATOM      3  O   UNL     1     181.353 167.360 184.389  1.00  0.00    -0.394 OA
ATOM      4  H   UNL     1     182.268 167.250 184.022  1.00  0.00     0.210 HD
ENDBRANCH   2   3
ENDBRANCH   1   2
BRANCH   1   5
ATOM      5  C   UNL     1     182.089 164.969 183.746  1.00  0.00     0.190 C 
BRANCH   5   6
ATOM      6  O   UNL     1     181.727 164.616 185.054  1.00  0.00    -0.394 OA
ATOM      7  H   UNL     1     181.383 165.441 185.487  1.00  0.00     0.210 HD
ENDBRANCH   5   6
ENDBRANCH   1   5
BRANCH   1   8
ATOM      8  O   UNL     1     179.787 164.606 183.154  1.00  0.00    -0.388 OA
ATOM      9  H   UNL     1     179.906 164.197 184.051  1.00  0.00     0.211 HD
ENDBRANCH   1   8
TORSDOF 5
ENDMDL
MODEL 4
REMARK VINA RESULT:    -3.258     21.716     22.025
REMARK INTER + INTRA:          -4.148
REMARK INTER:                  -3.937
REMARK INTRA:                  -0.211
REMARK UNBOUND:                -0.224
REMARK SMILES OCC(O)CO
REMARK SMILES IDX 3 1 5 2 6 3 2 5 1 6 4 8
REMARK H PARENT 6 4 1 7 4 9
REMARK Flexibility Score: inf
ROOT
ATOM      1  C   UNL     1     180.861 166.739 182.774  1.00  0.00     0.165 C 
ENDROOT
BRANCH   1   2
ATOM      2  C   UNL     1     181.073 165.220 182.703  1.00  0.00     0.190 C 
BRANCH   2   3
ATOM      3  O   UNL     1     179.940 164.544 183.177  1.00  0.00    -0.394 OA
ATOM      4  H   UNL     1     179.844 164.787 184.135  1.00  0.00     0.210 HD
ENDBRANCH   2   3
ENDBRANCH   1   2
BRANCH   1   5
ATOM      5  C   UNL     1     180.750 167.215 184.231  1.00  0.00     0.190 C 
BRANCH   5   6
ATOM      6  O   UNL     1     181.473 166.373 185.090  1.00  0.00    -0.394 OA
ATOM      7  H   UNL     1     182.012 165.773 184.511  1.00  0.00     0.210 HD
ENDBRANCH   5   6
ENDBRANCH   1   5
BRANCH   1   8
ATOM      8  O   UNL     1     181.942 167.382 182.150  1.00  0.00    -0.388 OA
ATOM      9  H   UNL     1     182.485 166.674 181.714  1.00  0.00     0.211 HD
ENDBRANCH   1   8
TORSDOF 5
ENDMDL
MODEL 5
REMARK VINA RESULT:    -3.244      1.370      2.108
REMARK INTER + INTRA:          -4.132
REMARK INTER:                  -3.948
REMARK INTRA:                  -0.183
REMARK UNBOUND:                -0.224
REMARK SMILES OCC(O)CO
REMARK SMILES IDX 3 1 5 2 6 3 2 5 1 6 4 8
REMARK H PARENT 6 4 1 7 4 9
REMARK Flexibility Score: inf
ROOT
ATOM      1  C   UNL     1     163.265 179.223 182.097  1.00  0.00     0.165 C 
ENDROOT
BRANCH   1   2
ATOM      2  C   UNL     1     164.658 178.904 182.658  1.00  0.00     0.190 C 
BRANCH   2   3
ATOM      3  O   UNL     1     165.223 180.045 183.246  1.00  0.00    -0.394 OA
ATOM      4  H   UNL     1     165.884 180.402 182.598  1.00  0.00     0.210 HD
ENDBRANCH   2   3
ENDBRANCH   1   2
BRANCH   1   5
ATOM      5  C   UNL     1     162.278 179.564 183.225  1.00  0.00     0.190 C 
BRANCH   5   6
ATOM      6  O   UNL     1     162.891 179.443 184.481  1.00  0.00    -0.394 OA
ATOM      7  H   UNL     1     162.564 180.203 185.031  1.00  0.00     0.210 HD
ENDBRANCH   5   6
ENDBRANCH   1   5
BRANCH   1   8
ATOM      8  O   UNL     1     163.366 180.312 181.215  1.00  0.00    -0.388 OA
ATOM      9  H   UNL     1     164.331 180.532 181.138  1.00  0.00     0.211 HD
ENDBRANCH   1   8
TORSDOF 5
ENDMDL
MODEL 6
REMARK VINA RESULT:    -3.213      1.343      2.736
REMARK INTER + INTRA:          -4.094
REMARK INTER:                  -3.883
REMARK INTRA:                  -0.211
REMARK UNBOUND:                -0.224
REMARK SMILES OCC(O)CO
REMARK SMILES IDX 3 1 5 2 6 3 2 5 1 6 4 8
REMARK H PARENT 6 4 1 7 4 9
REMARK Flexibility Score: inf
ROOT
ATOM      1  C   UNL     1     163.577 177.810 182.565  1.00  0.00     0.165 C 
ENDROOT
BRANCH   1   2
ATOM      2  C   UNL     1     163.433 179.338 182.566  1.00  0.00     0.190 C 
BRANCH   2   3
ATOM      3  O   UNL     1     164.529 179.933 183.207  1.00  0.00    -0.394 OA
ATOM      4  H   UNL     1     164.521 180.892 182.952  1.00  0.00     0.210 HD
ENDBRANCH   2   3
ENDBRANCH   1   2
BRANCH   1   5
ATOM      5  C   UNL     1     163.628 177.257 183.998  1.00  0.00     0.190 C 
BRANCH   5   6
ATOM      6  O   UNL     1     162.811 178.009 184.855  1.00  0.00    -0.394 OA
ATOM      7  H   UNL     1     161.875 177.862 184.557  1.00  0.00     0.210 HD
ENDBRANCH   5   6
ENDBRANCH   1   5
BRANCH   1   8
ATOM      8  O   UNL     1     162.484 177.248 181.883  1.00  0.00    -0.388 OA
ATOM      9  H   UNL     1     162.692 177.303 180.914  1.00  0.00     0.211 HD
ENDBRANCH   1   8
TORSDOF 5
ENDMDL
MODEL 7
REMARK VINA RESULT:    -3.196      1.224      2.664
REMARK INTER + INTRA:          -4.074
REMARK INTER:                  -4.072
REMARK INTRA:                  -0.003
REMARK UNBOUND:                -0.224
REMARK SMILES OCC(O)CO
REMARK SMILES IDX 3 1 5 2 6 3 2 5 1 6 4 8
REMARK H PARENT 6 4 1 7 4 9
REMARK Flexibility Score: inf
ROOT
ATOM      1  C   UNL     1     163.297 179.255 183.040  1.00  0.00     0.165 C 
ENDROOT
BRANCH   1   2
ATOM      2  C   UNL     1     162.986 179.057 181.550  1.00  0.00     0.190 C 
BRANCH   2   3
ATOM      3  O   UNL     1     163.085 180.275 180.862  1.00  0.00    -0.394 OA
ATOM      4  H   UNL     1     162.242 180.769 181.036  1.00  0.00     0.210 HD
ENDBRANCH   2   3
ENDBRANCH   1   2
BRANCH   1   5
ATOM      5  C   UNL     1     163.362 177.908 183.777  1.00  0.00     0.190 C 
BRANCH   5   6
ATOM      6  O   UNL     1     162.731 177.989 185.028  1.00  0.00    -0.394 OA
ATOM      7  H   UNL     1     162.712 177.067 185.396  1.00  0.00     0.210 HD
ENDBRANCH   5   6
ENDBRANCH   1   5
BRANCH   1   8
ATOM      8  O   UNL     1     164.527 179.920 183.167  1.00  0.00    -0.388 OA
ATOM      9  H   UNL     1     165.130 179.314 183.672  1.00  0.00     0.211 HD
ENDBRANCH   1   8
TORSDOF 5
ENDMDL
MODEL 8
REMARK VINA RESULT:    -3.174     20.973     21.861
REMARK INTER + INTRA:          -4.047
REMARK INTER:                  -3.919
REMARK INTRA:                  -0.128
REMARK UNBOUND:                -0.224
REMARK SMILES OCC(O)CO
REMARK SMILES IDX 3 1 5 2 6 3 2 5 1 6 4 8
REMARK H PARENT 6 4 1 7 4 9
REMARK Flexibility Score: inf
ROOT
ATOM      1  C   UNL     1     180.176 166.635 182.927  1.00  0.00     0.165 C 
ENDROOT
BRANCH   1   2
ATOM      2  C   UNL     1     180.625 167.278 184.247  1.00  0.00     0.190 C 
BRANCH   2   3
ATOM      3  O   UNL     1     181.458 166.403 184.960  1.00  0.00    -0.394 OA
ATOM      4  H   UNL     1     182.266 166.922 185.210  1.00  0.00     0.210 HD
ENDBRANCH   2   3
ENDBRANCH   1   2
BRANCH   1   5
ATOM      5  C   UNL     1     181.278 165.732 182.347  1.00  0.00     0.190 C 
BRANCH   5   6
ATOM      6  O   UNL     1     180.922 164.379 182.449  1.00  0.00    -0.394 OA
ATOM      7  H   UNL     1     180.944 164.152 183.416  1.00  0.00     0.210 HD
ENDBRANCH   5   6
ENDBRANCH   1   5
BRANCH   1   8
ATOM      8  O   UNL     1     179.019 165.874 183.159  1.00  0.00    -0.388 OA
ATOM      9  H   UNL     1     178.870 165.323 182.346  1.00  0.00     0.211 HD
ENDBRANCH   1   8
TORSDOF 5
ENDMDL
MODEL 9
REMARK VINA RESULT:    -3.072      1.695      2.212
REMARK INTER + INTRA:          -3.924
REMARK INTER:                  -3.701
REMARK INTRA:                  -0.223
REMARK UNBOUND:                -0.224
REMARK SMILES OCC(O)CO
REMARK SMILES IDX 3 1 5 2 6 3 2 5 1 6 4 8
REMARK H PARENT 6 4 1 7 4 9
REMARK Flexibility Score: inf
ROOT
ATOM      1  C   UNL     1     164.984 177.435 183.048  1.00  0.00     0.165 C 
ENDROOT
BRANCH   1   2
ATOM      2  C   UNL     1     163.484 177.230 183.303  1.00  0.00     0.190 C 
BRANCH   2   3
ATOM      3  O   UNL     1     163.140 177.676 184.588  1.00  0.00    -0.394 OA
ATOM      4  H   UNL     1     163.629 177.097 185.229  1.00  0.00     0.210 HD
ENDBRANCH   2   3
ENDBRANCH   1   2
BRANCH   1   5
ATOM      5  C   UNL     1     165.259 178.818 182.437  1.00  0.00     0.190 C 
BRANCH   5   6
ATOM      6  O   UNL     1     164.560 179.819 183.128  1.00  0.00    -0.394 OA
ATOM      7  H   UNL     1     164.729 180.669 182.643  1.00  0.00     0.210 HD
ENDBRANCH   5   6
ENDBRANCH   1   5
BRANCH   1   8
ATOM      8  O   UNL     1     165.676 177.313 184.264  1.00  0.00    -0.388 OA
ATOM      9  H   UNL     1     166.629 177.521 184.075  1.00  0.00     0.211 HD
ENDBRANCH   1   8
TORSDOF 5
ENDMDL
