MODEL 1
REMARK VINA RESULT:    -4.354      0.000      0.000
REMARK INTER + INTRA:          -9.465
REMARK INTER:                  -7.662
REMARK INTRA:                  -1.802
REMARK UNBOUND:                -1.802
REMARK SMILES CCCCCCC=CCCCCCCCC(=O)[O-]
REMARK SMILES IDX 10 1 11 2 12 3 13 4 14 5 15 6 16 7 17 8 18 9 9 10 8 11 7 12
REMARK SMILES IDX 6 13 5 14 4 15 3 16 2 17 1 18
REMARK H PARENT
REMARK Flexibility Score: inf
ROOT
ATOM      1  C   UNL     1      59.093  33.854  79.566  1.00  0.00     0.004 C 
ENDROOT
BRANCH   1   2
ATOM      2  C   UNL     1      57.948  33.415  78.639  1.00  0.00     0.000 C 
BRANCH   2   3
ATOM      3  C   UNL     1      58.399  32.283  77.708  1.00  0.00     0.000 C 
BRANCH   3   4
ATOM      4  C   UNL     1      57.910  32.522  76.274  1.00  0.00     0.000 C 
BRANCH   4   5
ATOM      5  C   UNL     1      58.820  31.817  75.259  1.00  0.00     0.006 C 
BRANCH   5   6
ATOM      6  C   UNL     1      58.622  30.296  75.261  1.00  0.00     0.053 C 
BRANCH   6   7
ATOM      7  C   UNL     1      57.178  29.922  75.122  1.00  0.00     0.041 C 
ATOM      8  O   UNL     1      56.523  30.287  74.110  1.00  0.00    -0.550 OA
ATOM      9  O   UNL     1      56.563  29.142  76.094  1.00  0.00    -0.550 OA
ENDBRANCH   6   7
ENDBRANCH   5   6
ENDBRANCH   4   5
ENDBRANCH   3   4
ENDBRANCH   2   3
ENDBRANCH   1   2
BRANCH   1  10
ATOM     10  C   UNL     1      58.575  34.374  80.916  1.00  0.00     0.027 C 
BRANCH  10  11
ATOM     11  C   UNL     1      58.978  35.807  81.166  1.00  0.00    -0.031 C 
ATOM     12  C   UNL     1      58.301  36.884  80.727  1.00  0.00    -0.031 C 
BRANCH  12  13
ATOM     13  C   UNL     1      56.997  36.842  79.966  1.00  0.00     0.027 C 
BRANCH  13  14
ATOM     14  C   UNL     1      57.118  37.560  78.616  1.00  0.00     0.004 C 
BRANCH  14  15
ATOM     15  C   UNL     1      58.364  37.113  77.831  1.00  0.00     0.000 C 
BRANCH  15  16
ATOM     16  C   UNL     1      57.998  36.465  76.480  1.00  0.00    -0.000 C 
BRANCH  16  17
ATOM     17  C   UNL     1      56.525  36.035  76.384  1.00  0.00    -0.003 C 
ATOM     18  C   UNL     1      56.170  35.412  75.035  1.00  0.00     0.004 C 
ENDBRANCH  16  17
ENDBRANCH  15  16
ENDBRANCH  14  15
ENDBRANCH  13  14
ENDBRANCH  12  13
ENDBRANCH  10  11
ENDBRANCH   1  10
TORSDOF 13
ENDMDL
MODEL 2
REMARK VINA RESULT:    -4.294      1.149      3.319
REMARK INTER + INTRA:          -9.359
REMARK INTER:                  -7.800
REMARK INTRA:                  -1.559
REMARK UNBOUND:                -1.802
REMARK SMILES CCCCCCC=CCCCCCCCC(=O)[O-]
REMARK SMILES IDX 10 1 11 2 12 3 13 4 14 5 15 6 16 7 17 8 18 9 9 10 8 11 7 12
REMARK SMILES IDX 6 13 5 14 4 15 3 16 2 17 1 18
REMARK H PARENT
REMARK Flexibility Score: inf
ROOT
ATOM      1  C   UNL     1      56.342  36.133  75.809  1.00  0.00     0.004 C 
ENDROOT
BRANCH   1   2
ATOM      2  C   UNL     1      56.790  34.712  75.437  1.00  0.00     0.000 C 
BRANCH   2   3
ATOM      3  C   UNL     1      58.319  34.624  75.349  1.00  0.00     0.000 C 
BRANCH   3   4
ATOM      4  C   UNL     1      58.757  33.313  74.685  1.00  0.00     0.000 C 
BRANCH   4   5
ATOM      5  C   UNL     1      57.550  32.399  74.424  1.00  0.00     0.006 C 
BRANCH   5   6
ATOM      6  C   UNL     1      57.582  31.134  75.292  1.00  0.00     0.053 C 
BRANCH   6   7
ATOM      7  C   UNL     1      56.801  30.015  74.675  1.00  0.00     0.041 C 
ATOM      8  O   UNL     1      55.896  30.261  73.834  1.00  0.00    -0.550 OA
ATOM      9  O   UNL     1      57.094  28.697  75.004  1.00  0.00    -0.550 OA
ENDBRANCH   6   7
ENDBRANCH   5   6
ENDBRANCH   4   5
ENDBRANCH   3   4
ENDBRANCH   2   3
ENDBRANCH   1   2
BRANCH   1  10
ATOM     10  C   UNL     1      56.490  36.410  77.314  1.00  0.00     0.027 C 
BRANCH  10  11
ATOM     11  C   UNL     1      57.119  37.753  77.586  1.00  0.00    -0.031 C 
ATOM     12  C   UNL     1      58.154  37.964  78.421  1.00  0.00    -0.031 C 
BRANCH  12  13
ATOM     13  C   UNL     1      58.895  36.886  79.176  1.00  0.00     0.027 C 
BRANCH  13  14
ATOM     14  C   UNL     1      58.337  36.717  80.595  1.00  0.00     0.004 C 
BRANCH  14  15
ATOM     15  C   UNL     1      58.915  35.478  81.301  1.00  0.00     0.000 C 
BRANCH  15  16
ATOM     16  C   UNL     1      59.144  34.307  80.324  1.00  0.00    -0.000 C 
BRANCH  16  17
ATOM     17  C   UNL     1      57.860  33.534  79.980  1.00  0.00    -0.003 C 
ATOM     18  C   UNL     1      57.859  32.977  78.558  1.00  0.00     0.004 C 
ENDBRANCH  16  17
ENDBRANCH  15  16
ENDBRANCH  14  15
ENDBRANCH  13  14
ENDBRANCH  12  13
ENDBRANCH  10  11
ENDBRANCH   1  10
TORSDOF 13
ENDMDL
MODEL 3
REMARK VINA RESULT:    -4.226      1.080      1.854
REMARK INTER + INTRA:          -9.240
REMARK INTER:                  -7.365
REMARK INTRA:                  -1.875
REMARK UNBOUND:                -1.802
REMARK SMILES CCCCCCC=CCCCCCCCC(=O)[O-]
REMARK SMILES IDX 10 1 11 2 12 3 13 4 14 5 15 6 16 7 17 8 18 9 9 10 8 11 7 12
REMARK SMILES IDX 6 13 5 14 4 15 3 16 2 17 1 18
REMARK H PARENT
REMARK Flexibility Score: inf
ROOT
ATOM      1  C   UNL     1      58.445  33.487  79.139  1.00  0.00     0.004 C 
ENDROOT
BRANCH   1   2
ATOM      2  C   UNL     1      57.726  33.872  77.837  1.00  0.00     0.000 C 
BRANCH   2   3
ATOM      3  C   UNL     1      58.375  33.188  76.629  1.00  0.00     0.000 C 
BRANCH   3   4
ATOM      4  C   UNL     1      57.725  33.650  75.319  1.00  0.00     0.000 C 
BRANCH   4   5
ATOM      5  C   UNL     1      57.356  32.450  74.435  1.00  0.00     0.006 C 
BRANCH   5   6
ATOM      6  C   UNL     1      57.853  31.123  75.024  1.00  0.00     0.053 C 
BRANCH   6   7
ATOM      7  C   UNL     1      56.803  30.057  74.960  1.00  0.00     0.041 C 
ATOM      8  O   UNL     1      56.750  29.164  75.847  1.00  0.00    -0.550 OA
ATOM      9  O   UNL     1      55.860  30.068  73.939  1.00  0.00    -0.550 OA
ENDBRANCH   6   7
ENDBRANCH   5   6
ENDBRANCH   4   5
ENDBRANCH   3   4
ENDBRANCH   2   3
ENDBRANCH   1   2
BRANCH   1  10
ATOM     10  C   UNL     1      57.957  34.318  80.336  1.00  0.00     0.027 C 
BRANCH  10  11
ATOM     11  C   UNL     1      58.780  35.566  80.536  1.00  0.00    -0.031 C 
ATOM     12  C   UNL     1      58.295  36.821  80.515  1.00  0.00    -0.031 C 
BRANCH  12  13
ATOM     13  C   UNL     1      56.838  37.187  80.349  1.00  0.00     0.027 C 
BRANCH  13  14
ATOM     14  C   UNL     1      56.450  37.267  78.867  1.00  0.00     0.004 C 
BRANCH  14  15
ATOM     15  C   UNL     1      57.507  38.011  78.032  1.00  0.00     0.000 C 
BRANCH  15  16
ATOM     16  C   UNL     1      57.832  37.274  76.716  1.00  0.00    -0.000 C 
BRANCH  16  17
ATOM     17  C   UNL     1      59.339  37.165  76.430  1.00  0.00    -0.003 C 
ATOM     18  C   UNL     1      60.203  37.455  77.656  1.00  0.00     0.004 C 
ENDBRANCH  16  17
ENDBRANCH  15  16
ENDBRANCH  14  15
ENDBRANCH  13  14
ENDBRANCH  12  13
ENDBRANCH  10  11
ENDBRANCH   1  10
TORSDOF 13
ENDMDL
MODEL 4
REMARK VINA RESULT:    -4.206      1.323      2.539
REMARK INTER + INTRA:          -9.205
REMARK INTER:                  -6.996
REMARK INTRA:                  -2.209
REMARK UNBOUND:                -1.802
REMARK SMILES CCCCCCC=CCCCCCCCC(=O)[O-]
REMARK SMILES IDX 10 1 11 2 12 3 13 4 14 5 15 6 16 7 17 8 18 9 9 10 8 11 7 12
REMARK SMILES IDX 6 13 5 14 4 15 3 16 2 17 1 18
REMARK H PARENT
REMARK Flexibility Score: inf
ROOT
ATOM      1  C   UNL     1      58.750  35.772  81.012  1.00  0.00     0.004 C 
ENDROOT
BRANCH   1   2
ATOM      2  C   UNL     1      59.074  34.307  80.683  1.00  0.00     0.000 C 
BRANCH   2   3
ATOM      3  C   UNL     1      57.993  33.694  79.785  1.00  0.00     0.000 C 
BRANCH   3   4
ATOM      4  C   UNL     1      58.605  33.121  78.501  1.00  0.00     0.000 C 
BRANCH   4   5
ATOM      5  C   UNL     1      57.725  33.442  77.283  1.00  0.00     0.006 C 
BRANCH   5   6
ATOM      6  C   UNL     1      58.364  32.975  75.968  1.00  0.00     0.053 C 
BRANCH   6   7
ATOM      7  C   UNL     1      57.709  31.737  75.439  1.00  0.00     0.041 C 
ATOM      8  O   UNL     1      57.621  30.708  76.160  1.00  0.00    -0.550 OA
ATOM      9  O   UNL     1      57.165  31.728  74.160  1.00  0.00    -0.550 OA
ENDBRANCH   6   7
ENDBRANCH   5   6
ENDBRANCH   4   5
ENDBRANCH   3   4
ENDBRANCH   2   3
ENDBRANCH   1   2
BRANCH   1  10
ATOM     10  C   UNL     1      57.741  36.376  80.023  1.00  0.00     0.027 C 
BRANCH  10  11
ATOM     11  C   UNL     1      58.113  37.781  79.618  1.00  0.00    -0.031 C 
ATOM     12  C   UNL     1      59.053  38.097  78.708  1.00  0.00    -0.031 C 
BRANCH  12  13
ATOM     13  C   UNL     1      59.850  37.101  77.899  1.00  0.00     0.027 C 
BRANCH  13  14
ATOM     14  C   UNL     1      59.346  37.032  76.451  1.00  0.00     0.004 C 
BRANCH  14  15
ATOM     15  C   UNL     1      58.622  38.322  76.027  1.00  0.00     0.000 C 
BRANCH  15  16
ATOM     16  C   UNL     1      57.225  38.038  75.438  1.00  0.00    -0.000 C 
BRANCH  16  17
ATOM     17  C   UNL     1      56.710  36.620  75.736  1.00  0.00    -0.003 C 
ATOM     18  C   UNL     1      55.742  36.571  76.917  1.00  0.00     0.004 C 
ENDBRANCH  16  17
ENDBRANCH  15  16
ENDBRANCH  14  15
ENDBRANCH  13  14
ENDBRANCH  12  13
ENDBRANCH  10  11
ENDBRANCH   1  10
TORSDOF 13
ENDMDL
MODEL 5
REMARK VINA RESULT:    -4.188      3.483      6.942
REMARK INTER + INTRA:          -9.174
REMARK INTER:                  -7.819
REMARK INTRA:                  -1.355
REMARK UNBOUND:                -1.802
REMARK SMILES CCCCCCC=CCCCCCCCC(=O)[O-]
REMARK SMILES IDX 10 1 11 2 12 3 13 4 14 5 15 6 16 7 17 8 18 9 9 10 8 11 7 12
REMARK SMILES IDX 6 13 5 14 4 15 3 16 2 17 1 18
REMARK H PARENT
REMARK Flexibility Score: inf
ROOT
ATOM      1  C   UNL     1      57.796  32.660  76.685  1.00  0.00     0.004 C 
ENDROOT
BRANCH   1   2
ATOM      2  C   UNL     1      57.797  33.783  77.733  1.00  0.00     0.000 C 
BRANCH   2   3
ATOM      3  C   UNL     1      58.681  33.415  78.931  1.00  0.00     0.000 C 
BRANCH   3   4
ATOM      4  C   UNL     1      58.034  33.858  80.249  1.00  0.00     0.000 C 
BRANCH   4   5
ATOM      5  C   UNL     1      58.816  35.020  80.881  1.00  0.00     0.006 C 
BRANCH   5   6
ATOM      6  C   UNL     1      59.216  36.080  79.845  1.00  0.00     0.053 C 
BRANCH   6   7
ATOM      7  C   UNL     1      58.231  37.207  79.793  1.00  0.00     0.041 C 
ATOM      8  O   UNL     1      57.194  37.177  80.507  1.00  0.00    -0.550 OA
ATOM      9  O   UNL     1      58.475  38.308  78.980  1.00  0.00    -0.550 OA
ENDBRANCH   6   7
ENDBRANCH   5   6
ENDBRANCH   4   5
ENDBRANCH   3   4
ENDBRANCH   2   3
ENDBRANCH   1   2
BRANCH   1  10
ATOM     10  C   UNL     1      58.849  31.583  76.992  1.00  0.00     0.027 C 
BRANCH  10  11
ATOM     11  C   UNL     1      59.364  30.918  75.740  1.00  0.00    -0.031 C 
ATOM     12  C   UNL     1      58.800  29.848  75.149  1.00  0.00    -0.031 C 
BRANCH  12  13
ATOM     13  C   UNL     1      57.528  29.173  75.604  1.00  0.00     0.027 C 
BRANCH  13  14
ATOM     14  C   UNL     1      56.535  29.020  74.444  1.00  0.00     0.004 C 
BRANCH  14  15
ATOM     15  C   UNL     1      55.662  30.274  74.259  1.00  0.00     0.000 C 
BRANCH  15  16
ATOM     16  C   UNL     1      56.035  31.059  72.984  1.00  0.00    -0.000 C 
BRANCH  16  17
ATOM     17  C   UNL     1      56.579  32.469  73.268  1.00  0.00    -0.003 C 
ATOM     18  C   UNL     1      57.757  32.848  72.373  1.00  0.00     0.004 C 
ENDBRANCH  16  17
ENDBRANCH  15  16
ENDBRANCH  14  15
ENDBRANCH  13  14
ENDBRANCH  12  13
ENDBRANCH  10  11
ENDBRANCH   1  10
TORSDOF 13
ENDMDL
MODEL 6
REMARK VINA RESULT:    -4.170      2.648      5.827
REMARK INTER + INTRA:          -9.141
REMARK INTER:                  -7.571
REMARK INTRA:                  -1.570
REMARK UNBOUND:                -1.802
REMARK SMILES CCCCCCC=CCCCCCCCC(=O)[O-]
REMARK SMILES IDX 10 1 11 2 12 3 13 4 14 5 15 6 16 7 17 8 18 9 9 10 8 11 7 12
REMARK SMILES IDX 6 13 5 14 4 15 3 16 2 17 1 18
REMARK H PARENT
REMARK Flexibility Score: inf
ROOT
ATOM      1  C   UNL     1      58.748  35.657  81.171  1.00  0.00     0.004 C 
ENDROOT
BRANCH   1   2
ATOM      2  C   UNL     1      58.359  37.057  80.672  1.00  0.00     0.000 C 
BRANCH   2   3
ATOM      3  C   UNL     1      56.858  37.133  80.368  1.00  0.00     0.000 C 
BRANCH   3   4
ATOM      4  C   UNL     1      56.606  37.238  78.859  1.00  0.00     0.000 C 
BRANCH   4   5
ATOM      5  C   UNL     1      57.737  38.014  78.167  1.00  0.00     0.006 C 
BRANCH   5   6
ATOM      6  C   UNL     1      58.157  37.366  76.841  1.00  0.00     0.053 C 
BRANCH   6   7
ATOM      7  C   UNL     1      57.089  37.488  75.798  1.00  0.00     0.041 C 
ATOM      8  O   UNL     1      56.377  36.493  75.499  1.00  0.00    -0.550 OA
ATOM      9  O   UNL     1      56.857  38.711  75.179  1.00  0.00    -0.550 OA
ENDBRANCH   6   7
ENDBRANCH   5   6
ENDBRANCH   4   5
ENDBRANCH   3   4
ENDBRANCH   2   3
ENDBRANCH   1   2
BRANCH   1  10
ATOM     10  C   UNL     1      59.142  34.722  80.017  1.00  0.00     0.027 C 
BRANCH  10  11
ATOM     11  C   UNL     1      58.170  33.580  79.853  1.00  0.00    -0.031 C 
ATOM     12  C   UNL     1      57.657  33.167  78.680  1.00  0.00    -0.031 C 
BRANCH  12  13
ATOM     13  C   UNL     1      58.013  33.738  77.327  1.00  0.00     0.027 C 
BRANCH  13  14
ATOM     14  C   UNL     1      58.095  32.636  76.263  1.00  0.00     0.004 C 
BRANCH  14  15
ATOM     15  C   UNL     1      58.089  31.228  76.885  1.00  0.00     0.000 C 
BRANCH  15  16
ATOM     16  C   UNL     1      58.317  30.125  75.830  1.00  0.00    -0.000 C 
BRANCH  16  17
ATOM     17  C   UNL     1      57.114  29.183  75.658  1.00  0.00    -0.003 C 
ATOM     18  C   UNL     1      56.116  29.672  74.610  1.00  0.00     0.004 C 
ENDBRANCH  16  17
ENDBRANCH  15  16
ENDBRANCH  14  15
ENDBRANCH  13  14
ENDBRANCH  12  13
ENDBRANCH  10  11
ENDBRANCH   1  10
TORSDOF 13
ENDMDL
MODEL 7
REMARK VINA RESULT:    -4.148      1.159      2.459
REMARK INTER + INTRA:          -9.102
REMARK INTER:                  -7.284
REMARK INTRA:                  -1.818
REMARK UNBOUND:                -1.802
REMARK SMILES CCCCCCC=CCCCCCCCC(=O)[O-]
REMARK SMILES IDX 10 1 11 2 12 3 13 4 14 5 15 6 16 7 17 8 18 9 9 10 8 11 7 12
REMARK SMILES IDX 6 13 5 14 4 15 3 16 2 17 1 18
REMARK H PARENT
REMARK Flexibility Score: inf
ROOT
ATOM      1  C   UNL     1      58.907  35.216  81.059  1.00  0.00     0.004 C 
ENDROOT
BRANCH   1   2
ATOM      2  C   UNL     1      58.162  34.009  80.469  1.00  0.00     0.000 C 
BRANCH   2   3
ATOM      3  C   UNL     1      58.866  33.492  79.208  1.00  0.00     0.000 C 
BRANCH   3   4
ATOM      4  C   UNL     1      57.848  33.093  78.133  1.00  0.00     0.000 C 
BRANCH   4   5
ATOM      5  C   UNL     1      58.281  31.805  77.418  1.00  0.00     0.006 C 
BRANCH   5   6
ATOM      6  C   UNL     1      57.941  31.830  75.922  1.00  0.00     0.053 C 
BRANCH   6   7
ATOM      7  C   UNL     1      57.470  30.495  75.435  1.00  0.00     0.041 C 
ATOM      8  O   UNL     1      57.917  29.437  75.953  1.00  0.00    -0.550 OA
ATOM      9  O   UNL     1      56.512  30.417  74.430  1.00  0.00    -0.550 OA
ENDBRANCH   6   7
ENDBRANCH   5   6
ENDBRANCH   4   5
ENDBRANCH   3   4
ENDBRANCH   2   3
ENDBRANCH   1   2
BRANCH   1  10
ATOM     10  C   UNL     1      58.726  36.480  80.204  1.00  0.00     0.027 C 
BRANCH  10  11
ATOM     11  C   UNL     1      57.277  36.879  80.078  1.00  0.00    -0.031 C 
ATOM     12  C   UNL     1      56.640  37.116  78.916  1.00  0.00    -0.031 C 
BRANCH  12  13
ATOM     13  C   UNL     1      57.252  36.963  77.544  1.00  0.00     0.027 C 
BRANCH  13  14
ATOM     14  C   UNL     1      56.350  36.132  76.622  1.00  0.00     0.004 C 
BRANCH  14  15
ATOM     15  C   UNL     1      57.089  35.667  75.355  1.00  0.00     0.000 C 
BRANCH  15  16
ATOM     16  C   UNL     1      58.605  35.505  75.592  1.00  0.00    -0.000 C 
BRANCH  16  17
ATOM     17  C   UNL     1      59.469  36.324  74.619  1.00  0.00    -0.003 C 
ATOM     18  C   UNL     1      60.380  37.327  75.326  1.00  0.00     0.004 C 
ENDBRANCH  16  17
ENDBRANCH  15  16
ENDBRANCH  14  15
ENDBRANCH  13  14
ENDBRANCH  12  13
ENDBRANCH  10  11
ENDBRANCH   1  10
TORSDOF 13
ENDMDL
MODEL 8
REMARK VINA RESULT:    -4.141      3.287      6.864
REMARK INTER + INTRA:          -9.089
REMARK INTER:                  -7.321
REMARK INTRA:                  -1.768
REMARK UNBOUND:                -1.802
REMARK SMILES CCCCCCC=CCCCCCCCC(=O)[O-]
REMARK SMILES IDX 10 1 11 2 12 3 13 4 14 5 15 6 16 7 17 8 18 9 9 10 8 11 7 12
REMARK SMILES IDX 6 13 5 14 4 15 3 16 2 17 1 18
REMARK H PARENT
REMARK Flexibility Score: inf
ROOT
ATOM      1  C   UNL     1      56.875  34.448  74.809  1.00  0.00     0.004 C 
ENDROOT
BRANCH   1   2
ATOM      2  C   UNL     1      57.243  35.795  75.449  1.00  0.00     0.000 C 
BRANCH   2   3
ATOM      3  C   UNL     1      56.154  36.254  76.426  1.00  0.00     0.000 C 
BRANCH   3   4
ATOM      4  C   UNL     1      56.771  36.847  77.699  1.00  0.00     0.000 C 
BRANCH   4   5
ATOM      5  C   UNL     1      57.262  35.736  78.639  1.00  0.00     0.006 C 
BRANCH   5   6
ATOM      6  C   UNL     1      58.657  36.033  79.207  1.00  0.00     0.053 C 
BRANCH   6   7
ATOM      7  C   UNL     1      58.621  36.252  80.688  1.00  0.00     0.041 C 
ATOM      8  O   UNL     1      57.995  37.234  81.169  1.00  0.00    -0.550 OA
ATOM      9  O   UNL     1      59.250  35.353  81.541  1.00  0.00    -0.550 OA
ENDBRANCH   6   7
ENDBRANCH   5   6
ENDBRANCH   4   5
ENDBRANCH   3   4
ENDBRANCH   2   3
ENDBRANCH   1   2
BRANCH   1  10
ATOM     10  C   UNL     1      57.936  33.370  75.082  1.00  0.00     0.027 C 
BRANCH  10  11
ATOM     11  C   UNL     1      57.930  32.918  76.521  1.00  0.00    -0.031 C 
ATOM     12  C   UNL     1      58.755  31.990  77.041  1.00  0.00    -0.031 C 
BRANCH  12  13
ATOM     13  C   UNL     1      59.862  31.291  76.287  1.00  0.00     0.027 C 
BRANCH  13  14
ATOM     14  C   UNL     1      59.676  29.769  76.310  1.00  0.00     0.004 C 
BRANCH  14  15
ATOM     15  C   UNL     1      58.882  29.264  75.093  1.00  0.00     0.000 C 
BRANCH  15  16
ATOM     16  C   UNL     1      57.551  28.598  75.501  1.00  0.00    -0.000 C 
BRANCH  16  17
ATOM     17  C   UNL     1      56.330  29.519  75.346  1.00  0.00    -0.003 C 
ATOM     18  C   UNL     1      56.312  30.269  74.015  1.00  0.00     0.004 C 
ENDBRANCH  16  17
ENDBRANCH  15  16
ENDBRANCH  14  15
ENDBRANCH  13  14
ENDBRANCH  12  13
ENDBRANCH  10  11
ENDBRANCH   1  10
TORSDOF 13
ENDMDL
MODEL 9
REMARK VINA RESULT:    -4.114      1.767      2.444
REMARK INTER + INTRA:          -9.043
REMARK INTER:                  -7.193
REMARK INTRA:                  -1.850
REMARK UNBOUND:                -1.802
REMARK SMILES CCCCCCC=CCCCCCCCC(=O)[O-]
REMARK SMILES IDX 10 1 11 2 12 3 13 4 14 5 15 6 16 7 17 8 18 9 9 10 8 11 7 12
REMARK SMILES IDX 6 13 5 14 4 15 3 16 2 17 1 18
REMARK H PARENT
REMARK Flexibility Score: inf
ROOT
ATOM      1  C   UNL     1      58.697  33.457  78.565  1.00  0.00     0.004 C 
ENDROOT
BRANCH   1   2
ATOM      2  C   UNL     1      57.978  32.396  77.718  1.00  0.00     0.000 C 
BRANCH   2   3
ATOM      3  C   UNL     1      58.986  31.503  76.984  1.00  0.00     0.000 C 
BRANCH   3   4
ATOM      4  C   UNL     1      58.812  31.610  75.464  1.00  0.00     0.000 C 
BRANCH   4   5
ATOM      5  C   UNL     1      57.619  32.510  75.110  1.00  0.00     0.006 C 
BRANCH   5   6
ATOM      6  C   UNL     1      57.994  33.598  74.096  1.00  0.00     0.053 C 
BRANCH   6   7
ATOM      7  C   UNL     1      57.101  33.571  72.894  1.00  0.00     0.041 C 
ATOM      8  O   UNL     1      57.104  32.574  72.124  1.00  0.00    -0.550 OA
ATOM      9  O   UNL     1      56.240  34.633  72.642  1.00  0.00    -0.550 OA
ENDBRANCH   6   7
ENDBRANCH   5   6
ENDBRANCH   4   5
ENDBRANCH   3   4
ENDBRANCH   2   3
ENDBRANCH   1   2
BRANCH   1  10
ATOM     10  C   UNL     1      57.949  33.752  79.875  1.00  0.00     0.027 C 
BRANCH  10  11
ATOM     11  C   UNL     1      58.829  34.443  80.888  1.00  0.00    -0.031 C 
ATOM     12  C   UNL     1      58.853  35.771  81.109  1.00  0.00    -0.031 C 
BRANCH  12  13
ATOM     13  C   UNL     1      57.964  36.782  80.424  1.00  0.00     0.027 C 
BRANCH  13  14
ATOM     14  C   UNL     1      58.736  37.570  79.358  1.00  0.00     0.004 C 
BRANCH  14  15
ATOM     15  C   UNL     1      58.127  37.396  77.956  1.00  0.00     0.000 C 
BRANCH  15  16
ATOM     16  C   UNL     1      56.755  36.692  78.000  1.00  0.00    -0.000 C 
BRANCH  16  17
ATOM     17  C   UNL     1      56.454  35.855  76.746  1.00  0.00    -0.003 C 
ATOM     18  C   UNL     1      56.060  36.705  75.540  1.00  0.00     0.004 C 
ENDBRANCH  16  17
ENDBRANCH  15  16
ENDBRANCH  14  15
ENDBRANCH  13  14
ENDBRANCH  12  13
ENDBRANCH  10  11
ENDBRANCH   1  10
TORSDOF 13
ENDMDL
