MODEL 1
REMARK VINA RESULT:    -7.413      0.000      0.000
REMARK INTER + INTRA:          -7.880
REMARK INTER:                  -7.847
REMARK INTRA:                  -0.033
REMARK UNBOUND:                -0.033
REMARK SMILES COc1ccc2ccc(=O)oc2c1
REMARK SMILES IDX 3 1 13 2 12 3 6 4 5 5 4 6 7 7 8 8 9 9 10 10 11 11 2 12 1 13
REMARK H PARENT
REMARK Flexibility Score: inf
ROOT
ATOM      1  C   UNL     1      13.994 -13.785  27.873  1.00  0.00     0.122 A 
ATOM      2  C   UNL     1      14.174 -12.777  28.829  1.00  0.00     0.094 A 
ATOM      3  C   UNL     1      13.152 -11.861  29.098  1.00  0.00     0.142 A 
ATOM      4  C   UNL     1      11.928 -11.952  28.401  1.00  0.00     0.018 A 
ATOM      5  C   UNL     1      11.742 -12.957  27.445  1.00  0.00     0.016 A 
ATOM      6  C   UNL     1      12.769 -13.869  27.181  1.00  0.00     0.047 A 
ATOM      7  C   UNL     1      10.924 -11.022  28.692  1.00  0.00     0.019 A 
ATOM      8  C   UNL     1      11.159 -10.040  29.653  1.00  0.00     0.094 A 
ATOM      9  C   UNL     1      12.397 -10.011  30.304  1.00  0.00     0.336 A 
ATOM     10  O   UNL     1      12.629  -9.132  31.175  1.00  0.00    -0.246 OA
ATOM     11  O   UNL     1      13.335 -10.908  30.009  1.00  0.00    -0.423 OA
ENDROOT
BRANCH   1  12
ATOM     12  O   UNL     1      15.051 -14.677  27.642  1.00  0.00    -0.497 OA
ATOM     13  C   UNL     1      15.287 -15.858  28.402  1.00  0.00     0.278 C 
ENDBRANCH   1  12
TORSDOF 1
ENDMDL
MODEL 2
REMARK VINA RESULT:    -6.982     10.474     12.453
REMARK INTER + INTRA:          -7.423
REMARK INTER:                  -7.390
REMARK INTRA:                  -0.033
REMARK UNBOUND:                -0.033
REMARK SMILES COc1ccc2ccc(=O)oc2c1
REMARK SMILES IDX 3 1 13 2 12 3 6 4 5 5 4 6 7 7 8 8 9 9 10 10 11 11 2 12 1 13
REMARK H PARENT
REMARK Flexibility Score: inf
ROOT
ATOM      1  C   UNL     1      15.966  -0.317  25.843  1.00  0.00     0.122 A 
ATOM      2  C   UNL     1      15.908  -1.064  27.027  1.00  0.00     0.094 A 
ATOM      3  C   UNL     1      17.006  -1.823  27.444  1.00  0.00     0.142 A 
ATOM      4  C   UNL     1      18.184  -1.837  26.666  1.00  0.00     0.018 A 
ATOM      5  C   UNL     1      18.248  -1.092  25.483  1.00  0.00     0.016 A 
ATOM      6  C   UNL     1      17.146  -0.337  25.072  1.00  0.00     0.047 A 
ATOM      7  C   UNL     1      19.266  -2.605  27.109  1.00  0.00     0.019 A 
ATOM      8  C   UNL     1      19.152  -3.329  28.296  1.00  0.00     0.094 A 
ATOM      9  C   UNL     1      17.953  -3.267  29.014  1.00  0.00     0.336 A 
ATOM     10  O   UNL     1      17.830  -3.913  30.088  1.00  0.00    -0.246 OA
ATOM     11  O   UNL     1      16.939  -2.528  28.570  1.00  0.00    -0.423 OA
ENDROOT
BRANCH   1  12
ATOM     12  O   UNL     1      14.837   0.426  25.470  1.00  0.00    -0.497 OA
ATOM     13  C   UNL     1      14.729   1.840  25.595  1.00  0.00     0.278 C 
ENDBRANCH   1  12
TORSDOF 1
ENDMDL
MODEL 3
REMARK VINA RESULT:    -6.579      1.560      2.292
REMARK INTER + INTRA:          -6.997
REMARK INTER:                  -6.964
REMARK INTRA:                  -0.033
REMARK UNBOUND:                -0.033
REMARK SMILES COc1ccc2ccc(=O)oc2c1
REMARK SMILES IDX 3 1 13 2 12 3 6 4 5 5 4 6 7 7 8 8 9 9 10 10 11 11 2 12 1 13
REMARK H PARENT
REMARK Flexibility Score: inf
ROOT
ATOM      1  C   UNL     1      14.119 -13.828  28.373  1.00  0.00     0.122 A 
ATOM      2  C   UNL     1      12.782 -13.440  28.220  1.00  0.00     0.094 A 
ATOM      3  C   UNL     1      12.302 -12.282  28.840  1.00  0.00     0.142 A 
ATOM      4  C   UNL     1      13.171 -11.497  29.628  1.00  0.00     0.018 A 
ATOM      5  C   UNL     1      14.509 -11.880  29.785  1.00  0.00     0.016 A 
ATOM      6  C   UNL     1      14.981 -13.039  29.161  1.00  0.00     0.047 A 
ATOM      7  C   UNL     1      12.662 -10.344  30.236  1.00  0.00     0.019 A 
ATOM      8  C   UNL     1      11.323 -10.006  30.049  1.00  0.00     0.094 A 
ATOM      9  C   UNL     1      10.520 -10.832  29.254  1.00  0.00     0.336 A 
ATOM     10  O   UNL     1       9.308 -10.544  29.073  1.00  0.00    -0.246 OA
ATOM     11  O   UNL     1      11.030 -11.923  28.687  1.00  0.00    -0.423 OA
ENDROOT
BRANCH   1  12
ATOM     12  O   UNL     1      14.549 -14.997  27.729  1.00  0.00    -0.497 OA
ATOM     13  C   UNL     1      15.397 -15.975  28.321  1.00  0.00     0.278 C 
ENDBRANCH   1  12
TORSDOF 1
ENDMDL
MODEL 4
REMARK VINA RESULT:    -6.533      1.039      4.608
REMARK INTER + INTRA:          -6.948
REMARK INTER:                  -6.909
REMARK INTRA:                  -0.040
REMARK UNBOUND:                -0.033
REMARK SMILES COc1ccc2ccc(=O)oc2c1
REMARK SMILES IDX 3 1 13 2 12 3 6 4 5 5 4 6 7 7 8 8 9 9 10 10 11 11 2 12 1 13
REMARK H PARENT
REMARK Flexibility Score: inf
ROOT
ATOM      1  C   UNL     1      12.521 -10.255  30.284  1.00  0.00     0.122 A 
ATOM      2  C   UNL     1      13.585 -11.126  30.017  1.00  0.00     0.094 A 
ATOM      3  C   UNL     1      13.460 -12.125  29.046  1.00  0.00     0.142 A 
ATOM      4  C   UNL     1      12.252 -12.257  28.328  1.00  0.00     0.018 A 
ATOM      5  C   UNL     1      11.185 -11.389  28.591  1.00  0.00     0.016 A 
ATOM      6  C   UNL     1      11.317 -10.394  29.563  1.00  0.00     0.047 A 
ATOM      7  C   UNL     1      12.156 -13.265  27.363  1.00  0.00     0.019 A 
ATOM      8  C   UNL     1      13.248 -14.104  27.139  1.00  0.00     0.094 A 
ATOM      9  C   UNL     1      14.414 -13.914  27.889  1.00  0.00     0.336 A 
ATOM     10  O   UNL     1      15.410 -14.660  27.701  1.00  0.00    -0.246 OA
ATOM     11  O   UNL     1      14.478 -12.946  28.800  1.00  0.00    -0.423 OA
ENDROOT
BRANCH   1  12
ATOM     12  O   UNL     1      12.699  -9.271  31.267  1.00  0.00    -0.497 OA
ATOM     13  C   UNL     1      13.421  -9.467  32.478  1.00  0.00     0.278 C 
ENDBRANCH   1  12
TORSDOF 1
ENDMDL
MODEL 5
REMARK VINA RESULT:    -6.053     10.357     11.850
REMARK INTER + INTRA:          -6.440
REMARK INTER:                  -6.402
REMARK INTRA:                  -0.038
REMARK UNBOUND:                -0.033
REMARK SMILES COc1ccc2ccc(=O)oc2c1
REMARK SMILES IDX 3 1 13 2 12 3 6 4 5 5 4 6 7 7 8 8 9 9 10 10 11 11 2 12 1 13
REMARK H PARENT
REMARK Flexibility Score: inf
ROOT
ATOM      1  C   UNL     1      17.971  -3.227  29.121  1.00  0.00     0.122 A 
ATOM      2  C   UNL     1      16.954  -2.529  28.455  1.00  0.00     0.094 A 
ATOM      3  C   UNL     1      17.210  -1.890  27.238  1.00  0.00     0.142 A 
ATOM      4  C   UNL     1      18.502  -1.948  26.673  1.00  0.00     0.018 A 
ATOM      5  C   UNL     1      19.522  -2.644  27.333  1.00  0.00     0.016 A 
ATOM      6  C   UNL     1      19.259  -3.280  28.550  1.00  0.00     0.047 A 
ATOM      7  C   UNL     1      18.726  -1.299  25.454  1.00  0.00     0.019 A 
ATOM      8  C   UNL     1      17.677  -0.620  24.837  1.00  0.00     0.094 A 
ATOM      9  C   UNL     1      16.422  -0.605  25.456  1.00  0.00     0.336 A 
ATOM     10  O   UNL     1      15.462   0.003  24.914  1.00  0.00    -0.246 OA
ATOM     11  O   UNL     1      16.235  -1.231  26.615  1.00  0.00    -0.423 OA
ENDROOT
BRANCH   1  12
ATOM     12  O   UNL     1      17.662  -3.850  30.338  1.00  0.00    -0.497 OA
ATOM     13  C   UNL     1      16.935  -3.233  31.395  1.00  0.00     0.278 C 
ENDBRANCH   1  12
TORSDOF 1
ENDMDL
MODEL 6
REMARK VINA RESULT:    -6.029     10.764     12.708
REMARK INTER + INTRA:          -6.414
REMARK INTER:                  -6.382
REMARK INTRA:                  -0.033
REMARK UNBOUND:                -0.033
REMARK SMILES COc1ccc2ccc(=O)oc2c1
REMARK SMILES IDX 3 1 13 2 12 3 6 4 5 5 4 6 7 7 8 8 9 9 10 10 11 11 2 12 1 13
REMARK H PARENT
REMARK Flexibility Score: inf
ROOT
ATOM      1  C   UNL     1      15.795   0.029  25.907  1.00  0.00     0.122 A 
ATOM      2  C   UNL     1      17.177  -0.157  26.043  1.00  0.00     0.094 A 
ATOM      3  C   UNL     1      17.683  -1.319  26.635  1.00  0.00     0.142 A 
ATOM      4  C   UNL     1      16.795  -2.314  27.099  1.00  0.00     0.018 A 
ATOM      5  C   UNL     1      15.413  -2.133  26.965  1.00  0.00     0.016 A 
ATOM      6  C   UNL     1      14.914  -0.969  26.373  1.00  0.00     0.047 A 
ATOM      7  C   UNL     1      17.331  -3.464  27.686  1.00  0.00     0.019 A 
ATOM      8  C   UNL     1      18.715  -3.596  27.796  1.00  0.00     0.094 A 
ATOM      9  C   UNL     1      19.534  -2.569  27.314  1.00  0.00     0.336 A 
ATOM     10  O   UNL     1      20.785  -2.668  27.403  1.00  0.00    -0.246 OA
ATOM     11  O   UNL     1      18.997  -1.484  26.759  1.00  0.00    -0.423 OA
ENDROOT
BRANCH   1  12
ATOM     12  O   UNL     1      15.340   1.211  25.306  1.00  0.00    -0.497 OA
ATOM     13  C   UNL     1      14.953   2.379  26.022  1.00  0.00     0.278 C 
ENDBRANCH   1  12
TORSDOF 1
ENDMDL
MODEL 7
REMARK VINA RESULT:    -6.018      1.895      5.281
REMARK INTER + INTRA:          -6.404
REMARK INTER:                  -6.368
REMARK INTRA:                  -0.035
REMARK UNBOUND:                -0.033
REMARK SMILES COc1ccc2ccc(=O)oc2c1
REMARK SMILES IDX 3 1 13 2 12 3 6 4 5 5 4 6 7 7 8 8 9 9 10 10 11 11 2 12 1 13
REMARK H PARENT
REMARK Flexibility Score: inf
ROOT
ATOM      1  C   UNL     1      13.768 -11.636  30.062  1.00  0.00     0.122 A 
ATOM      2  C   UNL     1      14.035 -12.983  30.337  1.00  0.00     0.094 A 
ATOM      3  C   UNL     1      14.587 -13.813  29.356  1.00  0.00     0.142 A 
ATOM      4  C   UNL     1      14.876 -13.290  28.077  1.00  0.00     0.018 A 
ATOM      5  C   UNL     1      14.611 -11.945  27.796  1.00  0.00     0.016 A 
ATOM      6  C   UNL     1      14.059 -11.121  28.783  1.00  0.00     0.047 A 
ATOM      7  C   UNL     1      15.427 -14.145  27.116  1.00  0.00     0.019 A 
ATOM      8  C   UNL     1      15.673 -15.477  27.445  1.00  0.00     0.094 A 
ATOM      9  C   UNL     1      15.360 -15.926  28.733  1.00  0.00     0.336 A 
ATOM     10  O   UNL     1      15.575 -17.125  29.050  1.00  0.00    -0.246 OA
ATOM     11  O   UNL     1      14.837 -15.091  29.629  1.00  0.00    -0.423 OA
ENDROOT
BRANCH   1  12
ATOM     12  O   UNL     1      13.215 -10.847  31.082  1.00  0.00    -0.497 OA
ATOM     13  C   UNL     1      12.590  -9.586  30.872  1.00  0.00     0.278 C 
ENDBRANCH   1  12
TORSDOF 1
ENDMDL
MODEL 8
REMARK VINA RESULT:    -5.577      1.917      4.423
REMARK INTER + INTRA:          -5.936
REMARK INTER:                  -5.894
REMARK INTRA:                  -0.042
REMARK UNBOUND:                -0.033
REMARK SMILES COc1ccc2ccc(=O)oc2c1
REMARK SMILES IDX 3 1 13 2 12 3 6 4 5 5 4 6 7 7 8 8 9 9 10 10 11 11 2 12 1 13
REMARK H PARENT
REMARK Flexibility Score: inf
ROOT
ATOM      1  C   UNL     1      11.072 -11.709  28.305  1.00  0.00     0.122 A 
ATOM      2  C   UNL     1      11.965 -11.900  29.368  1.00  0.00     0.094 A 
ATOM      3  C   UNL     1      12.998 -12.838  29.269  1.00  0.00     0.142 A 
ATOM      4  C   UNL     1      13.144 -13.599  28.089  1.00  0.00     0.018 A 
ATOM      5  C   UNL     1      12.254 -13.413  27.024  1.00  0.00     0.016 A 
ATOM      6  C   UNL     1      11.223 -12.474  27.130  1.00  0.00     0.047 A 
ATOM      7  C   UNL     1      14.186 -14.529  28.020  1.00  0.00     0.019 A 
ATOM      8  C   UNL     1      15.045 -14.676  29.108  1.00  0.00     0.094 A 
ATOM      9  C   UNL     1      14.840 -13.887  30.245  1.00  0.00     0.336 A 
ATOM     10  O   UNL     1      15.605 -14.005  31.238  1.00  0.00    -0.246 OA
ATOM     11  O   UNL     1      13.840 -13.009  30.285  1.00  0.00    -0.423 OA
ENDROOT
BRANCH   1  12
ATOM     12  O   UNL     1      10.054 -10.757  28.456  1.00  0.00    -0.497 OA
ATOM     13  C   UNL     1       9.517 -10.346  29.709  1.00  0.00     0.278 C 
ENDBRANCH   1  12
TORSDOF 1
ENDMDL
MODEL 9
REMARK VINA RESULT:    -5.373      1.988      4.799
REMARK INTER + INTRA:          -5.720
REMARK INTER:                  -5.686
REMARK INTRA:                  -0.035
REMARK UNBOUND:                -0.033
REMARK SMILES COc1ccc2ccc(=O)oc2c1
REMARK SMILES IDX 3 1 13 2 12 3 6 4 5 5 4 6 7 7 8 8 9 9 10 10 11 11 2 12 1 13
REMARK H PARENT
REMARK Flexibility Score: inf
ROOT
ATOM      1  C   UNL     1      13.159 -10.423  30.841  1.00  0.00     0.122 A 
ATOM      2  C   UNL     1      12.204 -10.687  29.850  1.00  0.00     0.094 A 
ATOM      3  C   UNL     1      12.382 -11.746  28.955  1.00  0.00     0.142 A 
ATOM      4  C   UNL     1      13.533 -12.558  29.049  1.00  0.00     0.018 A 
ATOM      5  C   UNL     1      14.491 -12.299  30.037  1.00  0.00     0.016 A 
ATOM      6  C   UNL     1      14.306 -11.237  30.928  1.00  0.00     0.047 A 
ATOM      7  C   UNL     1      13.683 -13.610  28.140  1.00  0.00     0.019 A 
ATOM      8  C   UNL     1      12.701 -13.826  27.174  1.00  0.00     0.094 A 
ATOM      9  C   UNL     1      11.586 -12.981  27.141  1.00  0.00     0.336 A 
ATOM     10  O   UNL     1      10.688 -13.159  26.278  1.00  0.00    -0.246 OA
ATOM     11  O   UNL     1      11.467 -11.987  28.019  1.00  0.00    -0.423 OA
ENDROOT
BRANCH   1  12
ATOM     12  O   UNL     1      12.932  -9.349  31.713  1.00  0.00    -0.497 OA
ATOM     13  C   UNL     1      13.489  -9.243  33.019  1.00  0.00     0.278 C 
ENDBRANCH   1  12
TORSDOF 1
ENDMDL
