MODEL 1
REMARK VINA RESULT:    14.620      0.000      0.000
REMARK INTER + INTRA:          22.683
REMARK INTER:                  22.313
REMARK INTRA:                   0.370
REMARK UNBOUND:                 0.370
REMARK SMILES CC1=CCC[C@H](C)C(=O)C[C@@H](C(C)C)C(=O)C1
REMARK SMILES IDX 8 1 9 2 6 3 7 4 5 5 4 6 3 7 2 8 1 9 10 11 11 12 15 13 16 14
REMARK SMILES IDX 17 15 12 17 13 18 14 19
REMARK H PARENT
REMARK Flexibility Score: 70.00
ROOT
ATOM      1  C   UNL     1      20.701  16.917 -11.823  1.00  0.00     0.136 C 
ATOM      2  O   UNL     1      20.834  15.854 -11.237  1.00  0.00    -0.299 OA
ENDROOT
BRANCH   1   3
ATOM      3  C   UNL     1      21.698  18.029 -11.551  1.00  0.00     0.053 C 
ATOM      4  C   UNL     1      23.118  17.456 -11.449  1.00  0.00     0.016 C 
BRANCH   3   5
ATOM      5  C   UNL     1      21.627  19.144 -12.617  1.00  0.00     0.015 C 
BRANCH   5   6
ATOM      6  C   UNL     1      20.903  20.401 -12.100  1.00  0.00     0.028 C 
BRANCH   6   7
ATOM      7  C   UNL     1      19.567  20.582 -12.776  1.00  0.00    -0.028 C 
ATOM      8  C   UNL     1      18.403  20.049 -12.342  1.00  0.00    -0.070 CG0
ATOM      9  C   UNL     1      17.156  20.330 -13.143  1.00  0.00     0.039 C 
ATOM     10  G   UNL     1      18.279  19.225 -11.069  1.00  0.00     0.000 G0
ENDBRANCH   6   7
ENDBRANCH   5   6
ENDBRANCH   3   5
ENDBRANCH   1   3
BRANCH   1  11
ATOM     11  C   UNL     1      19.668  17.035 -12.922  1.00  0.00     0.087 C 
BRANCH  11  12
ATOM     12  C   UNL     1      18.173  16.995 -12.508  1.00  0.00     0.066 C 
BRANCH  12  13
ATOM     13  C   UNL     1      17.828  17.817 -11.266  1.00  0.00     0.140 C 
ATOM     14  O   UNL     1      17.209  17.266 -10.366  1.00  0.00    -0.299 OA
BRANCH  13  15
ATOM     15  C   UNL     1      18.279  19.246 -11.052  1.00  0.00     0.106 CG0
ATOM     16  G   UNL     1      18.366  20.036 -12.349  1.00  0.00     0.000 G0
ENDBRANCH  13  15
ENDBRANCH  12  13
BRANCH  12  17
ATOM     17  C   UNL     1      17.495  15.580 -12.614  1.00  0.00    -0.006 C 
ATOM     18  C   UNL     1      18.285  14.666 -13.568  1.00  0.00     0.008 C 
ATOM     19  C   UNL     1      16.017  15.573 -13.040  1.00  0.00     0.008 C 
ENDBRANCH  12  17
ENDBRANCH  11  12
ENDBRANCH   1  11
TORSDOF 1
ENDMDL
MODEL 2
REMARK VINA RESULT:    15.924      1.794      4.787
REMARK INTER + INTRA:          24.672
REMARK INTER:                  24.414
REMARK INTRA:                   0.258
REMARK UNBOUND:                 0.370
REMARK SMILES CC1=CCC[C@H](C)C(=O)C[C@@H](C(C)C)C(=O)C1
REMARK SMILES IDX 8 1 9 2 6 3 7 4 5 5 4 6 3 7 2 8 1 9 10 11 11 12 15 13 16 14
REMARK SMILES IDX 17 15 12 17 13 18 14 19
REMARK H PARENT
REMARK Flexibility Score: 70.00
ROOT
ATOM      1  C   UNL     1      17.108  16.681 -13.074  1.00  0.00     0.136 C 
ATOM      2  O   UNL     1      15.961  17.097 -13.118  1.00  0.00    -0.299 OA
ENDROOT
BRANCH   1   3
ATOM      3  C   UNL     1      17.337  15.196 -12.858  1.00  0.00     0.053 C 
ATOM      4  C   UNL     1      16.128  14.393 -13.356  1.00  0.00     0.016 C 
BRANCH   3   5
ATOM      5  C   UNL     1      18.640  14.707 -13.528  1.00  0.00     0.015 C 
BRANCH   5   6
ATOM      6  C   UNL     1      19.695  14.261 -12.499  1.00  0.00     0.028 C 
BRANCH   6   7
ATOM      7  C   UNL     1      20.836  15.243 -12.423  1.00  0.00    -0.028 C 
ATOM      8  C   UNL     1      20.907  16.280 -11.559  1.00  0.00    -0.070 CG0
ATOM      9  C   UNL     1      22.124  17.169 -11.621  1.00  0.00     0.039 C 
ATOM     10  G   UNL     1      19.851  16.567 -10.502  1.00  0.00     0.000 G0
ENDBRANCH   6   7
ENDBRANCH   5   6
ENDBRANCH   3   5
ENDBRANCH   1   3
BRANCH   1  11
ATOM     11  C   UNL     1      18.250  17.614 -13.411  1.00  0.00     0.087 C 
BRANCH  11  12
ATOM     12  C   UNL     1      18.916  18.384 -12.240  1.00  0.00     0.066 C 
BRANCH  12  13
ATOM     13  C   UNL     1      18.883  17.660 -10.894  1.00  0.00     0.140 C 
ATOM     14  O   UNL     1      17.966  17.916 -10.126  1.00  0.00    -0.299 OA
BRANCH  13  15
ATOM     15  C   UNL     1      19.872  16.587 -10.493  1.00  0.00     0.106 CG0
ATOM     16  G   UNL     1      20.903  16.303 -11.575  1.00  0.00     0.000 G0
ENDBRANCH  13  15
ENDBRANCH  12  13
BRANCH  12  17
ATOM     17  C   UNL     1      18.613  19.927 -12.206  1.00  0.00    -0.006 C 
ATOM     18  C   UNL     1      17.739  20.339 -13.404  1.00  0.00     0.008 C 
ATOM     19  C   UNL     1      19.841  20.852 -12.154  1.00  0.00     0.008 C 
ENDBRANCH  12  17
ENDBRANCH  11  12
ENDBRANCH   1  11
TORSDOF 1
ENDMDL
MODEL 3
REMARK VINA RESULT:    16.099      1.503      3.233
REMARK INTER + INTRA:          24.940
REMARK INTER:                  23.210
REMARK INTRA:                   1.730
REMARK UNBOUND:                 0.370
REMARK SMILES CC1=CCC[C@H](C)C(=O)C[C@@H](C(C)C)C(=O)C1
REMARK SMILES IDX 8 1 9 2 6 3 7 4 5 5 4 6 3 7 2 8 1 9 10 11 11 12 15 13 16 14
REMARK SMILES IDX 17 15 12 17 13 18 14 19
REMARK H PARENT
REMARK Flexibility Score: 70.00
ROOT
ATOM      1  C   UNL     1      17.909  19.983 -13.109  1.00  0.00     0.136 C 
ATOM      2  O   UNL     1      16.741  20.339 -13.085  1.00  0.00    -0.299 OA
ENDROOT
BRANCH   1   3
ATOM      3  C   UNL     1      18.973  20.937 -12.597  1.00  0.00     0.053 C 
ATOM      4  C   UNL     1      18.944  20.992 -11.063  1.00  0.00     0.016 C 
BRANCH   3   5
ATOM      5  C   UNL     1      20.381  20.564 -13.111  1.00  0.00     0.015 C 
BRANCH   5   6
ATOM      6  C   UNL     1      21.306  20.080 -11.978  1.00  0.00     0.028 C 
BRANCH   6   7
ATOM      7  C   UNL     1      21.463  18.582 -12.002  1.00  0.00    -0.028 C 
ATOM      8  C   UNL     1      20.618  17.707 -11.410  1.00  0.00    -0.070 CG0
ATOM      9  C   UNL     1      20.926  16.235 -11.532  1.00  0.00     0.039 C 
ATOM     10  G   UNL     1      19.355  18.127 -10.673  1.00  0.00     0.000 G0
ENDBRANCH   6   7
ENDBRANCH   5   6
ENDBRANCH   3   5
ENDBRANCH   1   3
BRANCH   1  11
ATOM     11  C   UNL     1      18.242  18.554 -13.475  1.00  0.00     0.087 C 
BRANCH  11  12
ATOM     12  C   UNL     1      17.636  17.428 -12.595  1.00  0.00     0.066 C 
BRANCH  12  13
ATOM     13  C   UNL     1      18.091  17.440 -11.135  1.00  0.00     0.140 C 
ATOM     14  O   UNL     1      17.423  16.818 -10.320  1.00  0.00    -0.299 OA
BRANCH  13  15
ATOM     15  C   UNL     1      19.364  18.105 -10.656  1.00  0.00     0.106 CG0
ATOM     16  G   UNL     1      20.586  17.682 -11.458  1.00  0.00     0.000 G0
ENDBRANCH  13  15
ENDBRANCH  12  13
BRANCH  12  17
ATOM     17  C   UNL     1      17.556  16.019 -13.286  1.00  0.00    -0.006 C 
ATOM     18  C   UNL     1      16.288  15.265 -12.844  1.00  0.00     0.008 C 
ATOM     19  C   UNL     1      18.770  15.098 -13.080  1.00  0.00     0.008 C 
ENDBRANCH  12  17
ENDBRANCH  11  12
ENDBRANCH   1  11
TORSDOF 1
ENDMDL
MODEL 4
REMARK VINA RESULT:    16.371      1.997      4.602
REMARK INTER + INTRA:          25.355
REMARK INTER:                  23.744
REMARK INTRA:                   1.611
REMARK UNBOUND:                 0.370
REMARK SMILES CC1=CCC[C@H](C)C(=O)C[C@@H](C(C)C)C(=O)C1
REMARK SMILES IDX 8 1 9 2 6 3 7 4 5 5 4 6 3 7 2 8 1 9 10 11 11 12 15 13 16 14
REMARK SMILES IDX 17 15 12 17 13 18 14 19
REMARK H PARENT
REMARK Flexibility Score: 70.00
ROOT
ATOM      1  C   UNL     1      18.925  15.964 -12.849  1.00  0.00     0.136 C 
ATOM      2  O   UNL     1      19.894  15.784 -12.129  1.00  0.00    -0.299 OA
ENDROOT
BRANCH   1   3
ATOM      3  C   UNL     1      18.237  14.756 -13.461  1.00  0.00     0.053 C 
ATOM      4  C   UNL     1      19.050  13.484 -13.183  1.00  0.00     0.016 C 
BRANCH   3   5
ATOM      5  C   UNL     1      16.783  14.604 -12.963  1.00  0.00     0.015 C 
BRANCH   5   6
ATOM      6  C   UNL     1      16.157  15.954 -12.567  1.00  0.00     0.028 C 
BRANCH   6   7
ATOM      7  C   UNL     1      15.510  15.880 -11.207  1.00  0.00    -0.028 C 
ATOM      8  C   UNL     1      16.128  16.173 -10.041  1.00  0.00    -0.070 CG0
ATOM      9  C   UNL     1      15.329  16.043  -8.767  1.00  0.00     0.039 C 
ATOM     10  G   UNL     1      17.563  16.669  -9.951  1.00  0.00     0.000 G0
ENDBRANCH   6   7
ENDBRANCH   5   6
ENDBRANCH   3   5
ENDBRANCH   1   3
BRANCH   1  11
ATOM     11  C   UNL     1      18.334  17.351 -12.966  1.00  0.00     0.087 C 
BRANCH  11  12
ATOM     12  C   UNL     1      18.590  18.340 -11.797  1.00  0.00     0.066 C 
BRANCH  12  13
ATOM     13  C   UNL     1      17.805  18.041 -10.519  1.00  0.00     0.140 C 
ATOM     14  O   UNL     1      17.261  18.976  -9.948  1.00  0.00    -0.299 OA
BRANCH  13  15
ATOM     15  C   UNL     1      17.596  16.647  -9.968  1.00  0.00     0.106 CG0
ATOM     16  G   UNL     1      16.143  16.200 -10.036  1.00  0.00     0.000 G0
ENDBRANCH  13  15
ENDBRANCH  12  13
BRANCH  12  17
ATOM     17  C   UNL     1      18.682  19.852 -12.218  1.00  0.00    -0.006 C 
ATOM     18  C   UNL     1      17.879  20.110 -13.506  1.00  0.00     0.008 C 
ATOM     19  C   UNL     1      20.101  20.413 -12.404  1.00  0.00     0.008 C 
ENDBRANCH  12  17
ENDBRANCH  11  12
ENDBRANCH   1  11
TORSDOF 1
ENDMDL
MODEL 5
REMARK VINA RESULT:    16.872      1.757      3.960
REMARK INTER + INTRA:          26.119
REMARK INTER:                  25.403
REMARK INTRA:                   0.715
REMARK UNBOUND:                 0.370
REMARK SMILES CC1=CCC[C@H](C)C(=O)C[C@@H](C(C)C)C(=O)C1
REMARK SMILES IDX 8 1 9 2 6 3 7 4 5 5 4 6 3 7 2 8 1 9 10 11 11 12 15 13 16 14
REMARK SMILES IDX 17 15 12 17 13 18 14 19
REMARK H PARENT
REMARK Flexibility Score: 70.00
ROOT
ATOM      1  C   UNL     1      21.328  18.377 -12.259  1.00  0.00     0.136 C 
ATOM      2  O   UNL     1      21.784  19.080 -13.147  1.00  0.00    -0.299 OA
ENDROOT
BRANCH   1   3
ATOM      3  C   UNL     1      21.902  16.985 -12.064  1.00  0.00     0.053 C 
ATOM      4  C   UNL     1      23.006  17.010 -10.999  1.00  0.00     0.016 C 
BRANCH   3   5
ATOM      5  C   UNL     1      20.810  15.954 -11.705  1.00  0.00     0.015 C 
BRANCH   5   6
ATOM      6  C   UNL     1      20.446  15.048 -12.897  1.00  0.00     0.028 C 
BRANCH   6   7
ATOM      7  C   UNL     1      18.998  14.633 -12.847  1.00  0.00    -0.028 C 
ATOM      8  C   UNL     1      17.948  15.477 -12.949  1.00  0.00    -0.070 CG0
ATOM      9  C   UNL     1      16.560  14.890 -12.878  1.00  0.00     0.039 C 
ATOM     10  G   UNL     1      18.093  16.974 -13.178  1.00  0.00     0.000 G0
ENDBRANCH   6   7
ENDBRANCH   5   6
ENDBRANCH   3   5
ENDBRANCH   1   3
BRANCH   1  11
ATOM     11  C   UNL     1      20.342  18.969 -11.276  1.00  0.00     0.087 C 
BRANCH  11  12
ATOM     12  C   UNL     1      18.866  19.102 -11.735  1.00  0.00     0.066 C 
BRANCH  12  13
ATOM     13  C   UNL     1      18.117  17.778 -11.885  1.00  0.00     0.140 C 
ATOM     14  O   UNL     1      17.473  17.370 -10.928  1.00  0.00    -0.299 OA
BRANCH  13  15
ATOM     15  C   UNL     1      18.059  16.986 -13.174  1.00  0.00     0.106 CG0
ATOM     16  G   UNL     1      17.928  15.489 -12.940  1.00  0.00     0.000 G0
ENDBRANCH  13  15
ENDBRANCH  12  13
BRANCH  12  17
ATOM     17  C   UNL     1      18.616  20.172 -12.859  1.00  0.00    -0.006 C 
ATOM     18  C   UNL     1      19.273  21.515 -12.492  1.00  0.00     0.008 C 
ATOM     19  C   UNL     1      17.146  20.430 -13.228  1.00  0.00     0.008 C 
ENDBRANCH  12  17
ENDBRANCH  11  12
ENDBRANCH   1  11
TORSDOF 1
ENDMDL
MODEL 6
REMARK VINA RESULT:    16.995      1.687      3.519
REMARK INTER + INTRA:          26.306
REMARK INTER:                  24.710
REMARK INTRA:                   1.596
REMARK UNBOUND:                 0.370
REMARK SMILES CC1=CCC[C@H](C)C(=O)C[C@@H](C(C)C)C(=O)C1
REMARK SMILES IDX 8 1 9 2 6 3 7 4 5 5 4 6 3 7 2 8 1 9 10 11 11 12 15 13 16 14
REMARK SMILES IDX 17 15 12 17 13 18 14 19
REMARK H PARENT
REMARK Flexibility Score: 70.00
ROOT
ATOM      1  C   UNL     1      18.368  19.014 -12.838  1.00  0.00     0.136 C 
ATOM      2  O   UNL     1      18.428  18.718 -14.021  1.00  0.00    -0.299 OA
ENDROOT
BRANCH   1   3
ATOM      3  C   UNL     1      18.646  20.450 -12.431  1.00  0.00     0.053 C 
ATOM      4  C   UNL     1      18.258  20.670 -10.962  1.00  0.00     0.016 C 
BRANCH   3   5
ATOM      5  C   UNL     1      20.117  20.849 -12.681  1.00  0.00     0.015 C 
BRANCH   5   6
ATOM      6  C   UNL     1      21.054  20.358 -11.561  1.00  0.00     0.028 C 
BRANCH   6   7
ATOM      7  C   UNL     1      21.980  19.277 -12.056  1.00  0.00    -0.028 C 
ATOM      8  C   UNL     1      21.853  17.961 -11.773  1.00  0.00    -0.070 CG0
ATOM      9  C   UNL     1      22.872  17.012 -12.352  1.00  0.00     0.039 C 
ATOM     10  G   UNL     1      20.713  17.386 -10.944  1.00  0.00     0.000 G0
ENDBRANCH   6   7
ENDBRANCH   5   6
ENDBRANCH   3   5
ENDBRANCH   1   3
BRANCH   1  11
ATOM     11  C   UNL     1      17.852  17.998 -11.844  1.00  0.00     0.087 C 
BRANCH  11  12
ATOM     12  C   UNL     1      18.373  16.542 -11.970  1.00  0.00     0.066 C 
BRANCH  12  13
ATOM     13  C   UNL     1      19.867  16.368 -11.699  1.00  0.00     0.140 C 
ATOM     14  O   UNL     1      20.428  15.391 -12.176  1.00  0.00    -0.299 OA
BRANCH  13  15
ATOM     15  C   UNL     1      20.708  17.376 -10.945  1.00  0.00     0.106 CG0
ATOM     16  G   UNL     1      21.835  17.950 -11.789  1.00  0.00     0.000 G0
ENDBRANCH  13  15
ENDBRANCH  12  13
BRANCH  12  17
ATOM     17  C   UNL     1      17.790  15.734 -13.187  1.00  0.00    -0.006 C 
ATOM     18  C   UNL     1      16.372  15.222 -12.874  1.00  0.00     0.008 C 
ATOM     19  C   UNL     1      18.641  14.551 -13.679  1.00  0.00     0.008 C 
ENDBRANCH  12  17
ENDBRANCH  11  12
ENDBRANCH   1  11
TORSDOF 1
ENDMDL
