MODEL 1
REMARK VINA RESULT:    -4.464      0.000      0.000
REMARK INTER + INTRA:          -7.159
REMARK INTER:                  -6.813
REMARK INTRA:                  -0.347
REMARK UNBOUND:                -0.347
REMARK SMILES O=C([O-])CCCCCCCCC(=O)[O-]
REMARK SMILES IDX 7 1 6 2 5 3 4 4 2 5 1 6 3 7 8 8 9 9 10 10 11 11 12 12 13 13
REMARK SMILES IDX 14 14
REMARK H PARENT
REMARK Flexibility Score: inf
ROOT
ATOM      1  C   UNL     1      13.398  49.320  97.170  1.00  0.00     0.000 C 
ENDROOT
BRANCH   1   2
ATOM      2  C   UNL     1      13.953  50.735  96.948  1.00  0.00     0.000 C 
BRANCH   2   3
ATOM      3  C   UNL     1      14.235  50.987  95.459  1.00  0.00     0.006 C 
BRANCH   3   4
ATOM      4  C   UNL     1      15.660  50.580  95.060  1.00  0.00     0.053 C 
BRANCH   4   5
ATOM      5  C   UNL     1      15.720  49.164  94.573  1.00  0.00     0.041 C 
ATOM      6  O   UNL     1      16.477  48.332  95.139  1.00  0.00    -0.550 OA
ATOM      7  O   UNL     1      14.915  48.756  93.518  1.00  0.00    -0.550 OA
ENDBRANCH   4   5
ENDBRANCH   3   4
ENDBRANCH   2   3
ENDBRANCH   1   2
BRANCH   1   8
ATOM      8  C   UNL     1      11.918  49.321  97.585  1.00  0.00     0.000 C 
BRANCH   8   9
ATOM      9  C   UNL     1      11.040  48.478  96.649  1.00  0.00     0.000 C 
BRANCH   9  10
ATOM     10  C   UNL     1       9.570  48.913  96.735  1.00  0.00     0.006 C 
BRANCH  10  11
ATOM     11  C   UNL     1       9.289  49.780  97.969  1.00  0.00     0.053 C 
BRANCH  11  12
ATOM     12  C   UNL     1       7.897  50.332  97.956  1.00  0.00     0.041 C 
ATOM     13  O   UNL     1       6.914  49.568  97.770  1.00  0.00    -0.550 OA
ATOM     14  O   UNL     1       7.687  51.696  98.115  1.00  0.00    -0.550 OA
ENDBRANCH  11  12
ENDBRANCH  10  11
ENDBRANCH   9  10
ENDBRANCH   8   9
ENDBRANCH   1   8
TORSDOF 9
ENDMDL
MODEL 2
REMARK VINA RESULT:    -4.431      1.484      2.501
REMARK INTER + INTRA:          -7.109
REMARK INTER:                  -6.785
REMARK INTRA:                  -0.325
REMARK UNBOUND:                -0.347
REMARK SMILES O=C([O-])CCCCCCCCC(=O)[O-]
REMARK SMILES IDX 7 1 6 2 5 3 4 4 2 5 1 6 3 7 8 8 9 9 10 10 11 11 12 12 13 13
REMARK SMILES IDX 14 14
REMARK H PARENT
REMARK Flexibility Score: inf
ROOT
ATOM      1  C   UNL     1      14.185  50.892  95.443  1.00  0.00     0.000 C 
ENDROOT
BRANCH   1   2
ATOM      2  C   UNL     1      15.634  50.664  94.988  1.00  0.00     0.000 C 
BRANCH   2   3
ATOM      3  C   UNL     1      15.901  49.173  94.732  1.00  0.00     0.006 C 
BRANCH   3   4
ATOM      4  C   UNL     1      15.432  48.729  93.340  1.00  0.00     0.053 C 
BRANCH   4   5
ATOM      5  C   UNL     1      16.414  47.801  92.691  1.00  0.00     0.041 C 
ATOM      6  O   UNL     1      16.716  47.946  91.477  1.00  0.00    -0.550 OA
ATOM      7  O   UNL     1      17.021  46.797  93.436  1.00  0.00    -0.550 OA
ENDBRANCH   4   5
ENDBRANCH   3   4
ENDBRANCH   2   3
ENDBRANCH   1   2
BRANCH   1   8
ATOM      8  C   UNL     1      13.968  50.551  96.926  1.00  0.00     0.000 C 
BRANCH   8   9
ATOM      9  C   UNL     1      13.172  49.253  97.125  1.00  0.00     0.000 C 
BRANCH   9  10
ATOM     10  C   UNL     1      11.809  49.538  97.774  1.00  0.00     0.006 C 
BRANCH  10  11
ATOM     11  C   UNL     1      10.716  48.584  97.276  1.00  0.00     0.053 C 
BRANCH  11  12
ATOM     12  C   UNL     1       9.354  49.015  97.729  1.00  0.00     0.041 C 
ATOM     13  O   UNL     1       8.367  48.247  97.586  1.00  0.00    -0.550 OA
ATOM     14  O   UNL     1       9.170  50.277  98.278  1.00  0.00    -0.550 OA
ENDBRANCH  11  12
ENDBRANCH  10  11
ENDBRANCH   9  10
ENDBRANCH   8   9
ENDBRANCH   1   8
TORSDOF 9
ENDMDL
MODEL 3
REMARK VINA RESULT:    -4.235      0.843      7.327
REMARK INTER + INTRA:          -6.810
REMARK INTER:                  -6.553
REMARK INTRA:                  -0.257
REMARK UNBOUND:                -0.347
REMARK SMILES O=C([O-])CCCCCCCCC(=O)[O-]
REMARK SMILES IDX 7 1 6 2 5 3 4 4 2 5 1 6 3 7 8 8 9 9 10 10 11 11 12 12 13 13
REMARK SMILES IDX 14 14
REMARK H PARENT
REMARK Flexibility Score: inf
ROOT
ATOM      1  C   UNL     1      11.596  48.868  96.829  1.00  0.00     0.000 C 
ENDROOT
BRANCH   1   2
ATOM      2  C   UNL     1      10.467  48.441  97.779  1.00  0.00     0.000 C 
BRANCH   2   3
ATOM      3  C   UNL     1       9.640  49.655  98.230  1.00  0.00     0.006 C 
BRANCH   3   4
ATOM      4  C   UNL     1       8.186  49.580  97.746  1.00  0.00     0.053 C 
BRANCH   4   5
ATOM      5  C   UNL     1       7.378  50.747  98.229  1.00  0.00     0.041 C 
ATOM      6  O   UNL     1       7.525  51.881  97.701  1.00  0.00    -0.550 OA
ATOM      7  O   UNL     1       6.439  50.574  99.238  1.00  0.00    -0.550 OA
ENDBRANCH   4   5
ENDBRANCH   3   4
ENDBRANCH   2   3
ENDBRANCH   1   2
BRANCH   1   8
ATOM      8  C   UNL     1      12.714  49.642  97.546  1.00  0.00     0.000 C 
BRANCH   8   9
ATOM      9  C   UNL     1      14.074  49.501  96.847  1.00  0.00     0.000 C 
BRANCH   9  10
ATOM     10  C   UNL     1      14.348  50.704  95.932  1.00  0.00     0.006 C 
BRANCH  10  11
ATOM     11  C   UNL     1      15.597  50.503  95.064  1.00  0.00     0.053 C 
BRANCH  11  12
ATOM     12  C   UNL     1      15.654  49.124  94.482  1.00  0.00     0.041 C 
ATOM     13  O   UNL     1      16.558  48.323  94.837  1.00  0.00    -0.550 OA
ATOM     14  O   UNL     1      14.727  48.734  93.524  1.00  0.00    -0.550 OA
ENDBRANCH  11  12
ENDBRANCH  10  11
ENDBRANCH   9  10
ENDBRANCH   8   9
ENDBRANCH   1   8
TORSDOF 9
ENDMDL
MODEL 4
REMARK VINA RESULT:    -4.191      1.164      6.971
REMARK INTER + INTRA:          -6.743
REMARK INTER:                  -6.378
REMARK INTRA:                  -0.365
REMARK UNBOUND:                -0.347
REMARK SMILES O=C([O-])CCCCCCCCC(=O)[O-]
REMARK SMILES IDX 7 1 6 2 5 3 4 4 2 5 1 6 3 7 8 8 9 9 10 10 11 11 12 12 13 13
REMARK SMILES IDX 14 14
REMARK H PARENT
REMARK Flexibility Score: inf
ROOT
ATOM      1  C   UNL     1      11.628  48.910  96.876  1.00  0.00     0.000 C 
ENDROOT
BRANCH   1   2
ATOM      2  C   UNL     1      10.514  48.530  97.863  1.00  0.00     0.000 C 
BRANCH   2   3
ATOM      3  C   UNL     1       9.831  49.784  98.430  1.00  0.00     0.006 C 
BRANCH   3   4
ATOM      4  C   UNL     1       8.618  50.213  97.595  1.00  0.00     0.053 C 
BRANCH   4   5
ATOM      5  C   UNL     1       7.706  49.060  97.303  1.00  0.00     0.041 C 
ATOM      6  O   UNL     1       7.020  48.546  98.225  1.00  0.00    -0.550 OA
ATOM      7  O   UNL     1       7.589  48.576  96.006  1.00  0.00    -0.550 OA
ENDBRANCH   4   5
ENDBRANCH   3   4
ENDBRANCH   2   3
ENDBRANCH   1   2
BRANCH   1   8
ATOM      8  C   UNL     1      12.772  49.689  97.545  1.00  0.00     0.000 C 
BRANCH   8   9
ATOM      9  C   UNL     1      14.106  49.538  96.799  1.00  0.00     0.000 C 
BRANCH   9  10
ATOM     10  C   UNL     1      14.372  50.753  95.898  1.00  0.00     0.006 C 
BRANCH  10  11
ATOM     11  C   UNL     1      15.584  50.544  94.980  1.00  0.00     0.053 C 
BRANCH  11  12
ATOM     12  C   UNL     1      15.619  49.157  94.414  1.00  0.00     0.041 C 
ATOM     13  O   UNL     1      16.546  48.367  94.733  1.00  0.00    -0.550 OA
ATOM     14  O   UNL     1      14.647  48.748  93.511  1.00  0.00    -0.550 OA
ENDBRANCH  11  12
ENDBRANCH  10  11
ENDBRANCH   9  10
ENDBRANCH   8   9
ENDBRANCH   1   8
TORSDOF 9
ENDMDL
MODEL 5
REMARK VINA RESULT:    -4.124      1.163      1.645
REMARK INTER + INTRA:          -6.641
REMARK INTER:                  -6.195
REMARK INTRA:                  -0.446
REMARK UNBOUND:                -0.347
REMARK SMILES O=C([O-])CCCCCCCCC(=O)[O-]
REMARK SMILES IDX 7 1 6 2 5 3 4 4 2 5 1 6 3 7 8 8 9 9 10 10 11 11 12 12 13 13
REMARK SMILES IDX 14 14
REMARK H PARENT
REMARK Flexibility Score: inf
ROOT
ATOM      1  C   UNL     1      12.555  48.950  96.679  1.00  0.00     0.000 C 
ENDROOT
BRANCH   1   2
ATOM      2  C   UNL     1      13.245  50.033  97.523  1.00  0.00     0.000 C 
BRANCH   2   3
ATOM      3  C   UNL     1      14.300  50.784  96.696  1.00  0.00     0.006 C 
BRANCH   3   4
ATOM      4  C   UNL     1      14.161  50.513  95.192  1.00  0.00     0.053 C 
BRANCH   4   5
ATOM      5  C   UNL     1      15.281  49.662  94.674  1.00  0.00     0.041 C 
ATOM      6  O   UNL     1      15.643  49.756  93.471  1.00  0.00    -0.550 OA
ATOM      7  O   UNL     1      15.946  48.791  95.527  1.00  0.00    -0.550 OA
ENDBRANCH   4   5
ENDBRANCH   3   4
ENDBRANCH   2   3
ENDBRANCH   1   2
BRANCH   1   8
ATOM      8  C   UNL     1      11.076  48.760  97.053  1.00  0.00     0.000 C 
BRANCH   8   9
ATOM      9  C   UNL     1      10.687  49.514  98.332  1.00  0.00     0.000 C 
BRANCH   9  10
ATOM     10  C   UNL     1       9.238  50.018  98.253  1.00  0.00     0.006 C 
BRANCH  10  11
ATOM     11  C   UNL     1       8.334  49.068  97.456  1.00  0.00     0.053 C 
BRANCH  11  12
ATOM     12  C   UNL     1       7.440  49.813  96.513  1.00  0.00     0.041 C 
ATOM     13  O   UNL     1       6.605  49.190  95.806  1.00  0.00    -0.550 OA
ATOM     14  O   UNL     1       7.552  51.192  96.390  1.00  0.00    -0.550 OA
ENDBRANCH  11  12
ENDBRANCH  10  11
ENDBRANCH   9  10
ENDBRANCH   8   9
ENDBRANCH   1   8
TORSDOF 9
ENDMDL
MODEL 6
REMARK VINA RESULT:    -4.095      1.546      6.856
REMARK INTER + INTRA:          -6.597
REMARK INTER:                  -6.166
REMARK INTRA:                  -0.431
REMARK UNBOUND:                -0.347
REMARK SMILES O=C([O-])CCCCCCCCC(=O)[O-]
REMARK SMILES IDX 7 1 6 2 5 3 4 4 2 5 1 6 3 7 8 8 9 9 10 10 11 11 12 12 13 13
REMARK SMILES IDX 14 14
REMARK H PARENT
REMARK Flexibility Score: inf
ROOT
ATOM      1  C   UNL     1      12.929  49.316  96.875  1.00  0.00     0.000 C 
ENDROOT
BRANCH   1   2
ATOM      2  C   UNL     1      11.834  49.634  97.905  1.00  0.00     0.000 C 
BRANCH   2   3
ATOM      3  C   UNL     1      10.598  48.750  97.682  1.00  0.00     0.006 C 
BRANCH   3   4
ATOM      4  C   UNL     1      10.454  48.309  96.219  1.00  0.00     0.053 C 
BRANCH   4   5
ATOM      5  C   UNL     1       9.297  48.984  95.546  1.00  0.00     0.041 C 
ATOM      6  O   UNL     1       9.049  48.754  94.333  1.00  0.00    -0.550 OA
ATOM      7  O   UNL     1       8.474  49.839  96.267  1.00  0.00    -0.550 OA
ENDBRANCH   4   5
ENDBRANCH   3   4
ENDBRANCH   2   3
ENDBRANCH   1   2
BRANCH   1   8
ATOM      8  C   UNL     1      13.899  50.489  96.659  1.00  0.00     0.000 C 
BRANCH   8   9
ATOM      9  C   UNL     1      14.183  50.754  95.173  1.00  0.00     0.000 C 
BRANCH   9  10
ATOM     10  C   UNL     1      15.646  50.436  94.830  1.00  0.00     0.006 C 
BRANCH  10  11
ATOM     11  C   UNL     1      15.989  48.957  95.052  1.00  0.00     0.053 C 
BRANCH  11  12
ATOM     12  C   UNL     1      16.278  48.254  93.761  1.00  0.00     0.041 C 
ATOM     13  O   UNL     1      15.803  48.692  92.680  1.00  0.00    -0.550 OA
ATOM     14  O   UNL     1      17.044  47.095  93.756  1.00  0.00    -0.550 OA
ENDBRANCH  11  12
ENDBRANCH  10  11
ENDBRANCH   9  10
ENDBRANCH   8   9
ENDBRANCH   1   8
TORSDOF 9
ENDMDL
MODEL 7
REMARK VINA RESULT:    -4.095      1.961      2.634
REMARK INTER + INTRA:          -6.596
REMARK INTER:                  -5.994
REMARK INTRA:                  -0.602
REMARK UNBOUND:                -0.347
REMARK SMILES O=C([O-])CCCCCCCCC(=O)[O-]
REMARK SMILES IDX 7 1 6 2 5 3 4 4 2 5 1 6 3 7 8 8 9 9 10 10 11 11 12 12 13 13
REMARK SMILES IDX 14 14
REMARK H PARENT
REMARK Flexibility Score: inf
ROOT
ATOM      1  C   UNL     1      12.725  49.569  97.133  1.00  0.00     0.000 C 
ENDROOT
BRANCH   1   2
ATOM      2  C   UNL     1      14.089  50.267  97.016  1.00  0.00     0.000 C 
BRANCH   2   3
ATOM      3  C   UNL     1      14.244  50.945  95.647  1.00  0.00     0.006 C 
BRANCH   3   4
ATOM      4  C   UNL     1      15.593  50.626  94.989  1.00  0.00     0.053 C 
BRANCH   4   5
ATOM      5  C   UNL     1      15.668  49.200  94.534  1.00  0.00     0.041 C 
ATOM      6  O   UNL     1      15.033  48.827  93.513  1.00  0.00    -0.550 OA
ATOM      7  O   UNL     1      16.466  48.292  95.217  1.00  0.00    -0.550 OA
ENDBRANCH   4   5
ENDBRANCH   3   4
ENDBRANCH   2   3
ENDBRANCH   1   2
BRANCH   1   8
ATOM      8  C   UNL     1      12.311  48.855  95.836  1.00  0.00     0.000 C 
BRANCH   8   9
ATOM      9  C   UNL     1      10.816  48.506  95.804  1.00  0.00     0.000 C 
BRANCH   9  10
ATOM     10  C   UNL     1      10.223  48.500  97.221  1.00  0.00     0.006 C 
BRANCH  10  11
ATOM     11  C   UNL     1       9.828  47.091  97.682  1.00  0.00     0.053 C 
BRANCH  11  12
ATOM     12  C   UNL     1       9.035  46.367  96.638  1.00  0.00     0.041 C 
ATOM     13  O   UNL     1       9.506  45.341  96.081  1.00  0.00    -0.550 OA
ATOM     14  O   UNL     1       7.788  46.845  96.255  1.00  0.00    -0.550 OA
ENDBRANCH  11  12
ENDBRANCH  10  11
ENDBRANCH   9  10
ENDBRANCH   8   9
ENDBRANCH   1   8
TORSDOF 9
ENDMDL
MODEL 8
REMARK VINA RESULT:    -3.962     10.574     12.764
REMARK INTER + INTRA:          -6.393
REMARK INTER:                  -6.012
REMARK INTRA:                  -0.381
REMARK UNBOUND:                -0.347
REMARK SMILES O=C([O-])CCCCCCCCC(=O)[O-]
REMARK SMILES IDX 7 1 6 2 5 3 4 4 2 5 1 6 3 7 8 8 9 9 10 10 11 11 12 12 13 13
REMARK SMILES IDX 14 14
REMARK H PARENT
REMARK Flexibility Score: inf
ROOT
ATOM      1  C   UNL     1      18.490  38.590  96.993  1.00  0.00     0.000 C 
ENDROOT
BRANCH   1   2
ATOM      2  C   UNL     1      19.760  39.422  96.755  1.00  0.00     0.000 C 
BRANCH   2   3
ATOM      3  C   UNL     1      20.755  39.248  97.912  1.00  0.00     0.006 C 
BRANCH   3   4
ATOM      4  C   UNL     1      21.941  40.216  97.810  1.00  0.00     0.053 C 
BRANCH   4   5
ATOM      5  C   UNL     1      23.185  39.525  97.341  1.00  0.00     0.041 C 
ATOM      6  O   UNL     1      23.363  39.304  96.114  1.00  0.00    -0.550 OA
ATOM      7  O   UNL     1      24.163  39.155  98.256  1.00  0.00    -0.550 OA
ENDBRANCH   4   5
ENDBRANCH   3   4
ENDBRANCH   2   3
ENDBRANCH   1   2
BRANCH   1   8
ATOM      8  C   UNL     1      18.072  37.779  95.756  1.00  0.00     0.000 C 
BRANCH   8   9
ATOM      9  C   UNL     1      16.610  38.021  95.356  1.00  0.00     0.000 C 
BRANCH   9  10
ATOM     10  C   UNL     1      16.346  39.515  95.117  1.00  0.00     0.006 C 
BRANCH  10  11
ATOM     11  C   UNL     1      16.678  39.944  93.682  1.00  0.00     0.053 C 
BRANCH  11  12
ATOM     12  C   UNL     1      15.715  40.971  93.171  1.00  0.00     0.041 C 
ATOM     13  O   UNL     1      15.140  41.753  93.973  1.00  0.00    -0.550 OA
ATOM     14  O   UNL     1      15.428  41.042  91.814  1.00  0.00    -0.550 OA
ENDBRANCH  11  12
ENDBRANCH  10  11
ENDBRANCH   9  10
ENDBRANCH   8   9
ENDBRANCH   1   8
TORSDOF 9
ENDMDL
MODEL 9
REMARK VINA RESULT:    -3.957      2.324      6.575
REMARK INTER + INTRA:          -6.385
REMARK INTER:                  -5.725
REMARK INTRA:                  -0.660
REMARK UNBOUND:                -0.347
REMARK SMILES O=C([O-])CCCCCCCCC(=O)[O-]
REMARK SMILES IDX 7 1 6 2 5 3 4 4 2 5 1 6 3 7 8 8 9 9 10 10 11 11 12 12 13 13
REMARK SMILES IDX 14 14
REMARK H PARENT
REMARK Flexibility Score: inf
ROOT
ATOM      1  C   UNL     1       9.258  49.998  98.020  1.00  0.00     0.000 C 
ENDROOT
BRANCH   1   2
ATOM      2  C   UNL     1       8.788  49.414  96.679  1.00  0.00     0.000 C 
BRANCH   2   3
ATOM      3  C   UNL     1       7.421  48.730  96.826  1.00  0.00     0.006 C 
BRANCH   3   4
ATOM      4  C   UNL     1       7.512  47.410  97.603  1.00  0.00     0.053 C 
BRANCH   4   5
ATOM      5  C   UNL     1       8.483  46.458  96.972  1.00  0.00     0.041 C 
ATOM      6  O   UNL     1       9.377  45.911  97.670  1.00  0.00    -0.550 OA
ATOM      7  O   UNL     1       8.379  46.150  95.622  1.00  0.00    -0.550 OA
ENDBRANCH   4   5
ENDBRANCH   3   4
ENDBRANCH   2   3
ENDBRANCH   1   2
BRANCH   1   8
ATOM      8  C   UNL     1      10.682  49.558  98.393  1.00  0.00     0.000 C 
BRANCH   8   9
ATOM      9  C   UNL     1      11.388  48.809  97.254  1.00  0.00     0.000 C 
BRANCH   9  10
ATOM     10  C   UNL     1      12.858  49.240  97.140  1.00  0.00     0.006 C 
BRANCH  10  11
ATOM     11  C   UNL     1      13.261  49.565  95.696  1.00  0.00     0.053 C 
BRANCH  11  12
ATOM     12  C   UNL     1      14.726  49.855  95.580  1.00  0.00     0.041 C 
ATOM     13  O   UNL     1      15.119  50.999  95.230  1.00  0.00    -0.550 OA
ATOM     14  O   UNL     1      15.656  48.854  95.825  1.00  0.00    -0.550 OA
ENDBRANCH  11  12
ENDBRANCH  10  11
ENDBRANCH   9  10
ENDBRANCH   8   9
ENDBRANCH   1   8
TORSDOF 9
ENDMDL
