MODEL 1
REMARK VINA RESULT:     4.955      0.000      0.000
REMARK INTER + INTRA:           5.199
REMARK INTER:                   5.389
REMARK INTRA:                  -0.190
REMARK UNBOUND:                -0.190
REMARK SMILES C=C(C)[C@@H]1CC[C@@H](C)C[C@H]1O
REMARK SMILES IDX 8 1 7 2 6 3 5 4 4 5 10 6 9 7 11 8 2 10 1 11 3 12
REMARK H PARENT 11 9
REMARK Flexibility Score: inf
ROOT
ATOM      1  C   UNL     1     -18.876  21.819  -8.324  1.00  0.00     0.008 C 
ATOM      2  C   UNL     1     -18.875  22.895  -7.233  1.00  0.00    -0.012 C 
ATOM      3  C   UNL     1     -20.086  22.716  -6.298  1.00  0.00     0.004 C 
ATOM      4  C   UNL     1     -20.104  23.798  -5.212  1.00  0.00     0.011 C 
ATOM      5  C   UNL     1     -20.107  25.208  -5.836  1.00  0.00     0.043 C 
ATOM      6  C   UNL     1     -18.895  25.396  -6.778  1.00  0.00     0.121 C 
ATOM      7  C   UNL     1     -18.881  24.303  -7.861  1.00  0.00     0.035 C 
ENDROOT
BRANCH   6   8
ATOM      8  O   UNL     1     -18.973  26.659  -7.389  1.00  0.00    -0.392 OA
ATOM      9  H   UNL     1     -18.877  27.334  -6.667  1.00  0.00     0.210 HD
ENDBRANCH   6   8
BRANCH   5  10
ATOM     10  C   UNL     1     -20.147  26.279  -4.753  1.00  0.00    -0.075 C 
ATOM     11  C   UNL     1     -21.247  27.032  -4.591  1.00  0.00     0.008 C 
ATOM     12  C   UNL     1     -18.967  26.522  -3.844  1.00  0.00     0.039 C 
ENDBRANCH   5  10
TORSDOF 2
ENDMDL
MODEL 2
REMARK VINA RESULT:     7.033     12.166     14.129
REMARK INTER + INTRA:           7.460
REMARK INTER:                   7.394
REMARK INTRA:                   0.065
REMARK UNBOUND:                -0.190
REMARK SMILES C=C(C)[C@@H]1CC[C@@H](C)C[C@H]1O
REMARK SMILES IDX 8 1 7 2 6 3 5 4 4 5 10 6 9 7 11 8 2 10 1 11 3 12
REMARK H PARENT 11 9
REMARK Flexibility Score: inf
ROOT
ATOM      1  C   UNL     1     -23.037  26.389   4.779  1.00  0.00     0.008 C 
ATOM      2  C   UNL     1     -23.023  27.571   5.754  1.00  0.00    -0.012 C 
ATOM      3  C   UNL     1     -23.274  28.892   5.003  1.00  0.00     0.004 C 
ATOM      4  C   UNL     1     -23.245  30.085   5.967  1.00  0.00     0.011 C 
ATOM      5  C   UNL     1     -21.909  30.143   6.734  1.00  0.00     0.043 C 
ATOM      6  C   UNL     1     -21.648  28.820   7.490  1.00  0.00     0.121 C 
ATOM      7  C   UNL     1     -21.685  27.628   6.516  1.00  0.00     0.035 C 
ENDROOT
BRANCH   6   8
ATOM      8  O   UNL     1     -20.389  28.879   8.110  1.00  0.00    -0.392 OA
ATOM      9  H   UNL     1     -20.185  29.840   8.254  1.00  0.00     0.210 HD
ENDBRANCH   6   8
BRANCH   5  10
ATOM     10  C   UNL     1     -21.877  31.341   7.675  1.00  0.00    -0.075 C 
ATOM     11  C   UNL     1     -23.024  31.877   8.124  1.00  0.00     0.008 C 
ATOM     12  C   UNL     1     -20.572  31.953   8.125  1.00  0.00     0.039 C 
ENDBRANCH   5  10
TORSDOF 2
ENDMDL
MODEL 3
REMARK VINA RESULT:     7.096      1.596      2.422
REMARK INTER + INTRA:           7.528
REMARK INTER:                   7.686
REMARK INTRA:                  -0.158
REMARK UNBOUND:                -0.190
REMARK SMILES C=C(C)[C@@H]1CC[C@@H](C)C[C@H]1O
REMARK SMILES IDX 8 1 7 2 6 3 5 4 4 5 10 6 9 7 11 8 2 10 1 11 3 12
REMARK H PARENT 11 9
REMARK Flexibility Score: inf
ROOT
ATOM      1  C   UNL     1     -19.071  21.768  -8.461  1.00  0.00     0.008 C 
ATOM      2  C   UNL     1     -19.596  22.883  -7.552  1.00  0.00    -0.012 C 
ATOM      3  C   UNL     1     -18.876  24.210  -7.855  1.00  0.00     0.004 C 
ATOM      4  C   UNL     1     -19.382  25.331  -6.938  1.00  0.00     0.011 C 
ATOM      5  C   UNL     1     -19.213  24.950  -5.454  1.00  0.00     0.043 C 
ATOM      6  C   UNL     1     -19.931  23.617  -5.141  1.00  0.00     0.121 C 
ATOM      7  C   UNL     1     -19.422  22.500  -6.069  1.00  0.00     0.035 C 
ENDROOT
BRANCH   6   8
ATOM      8  O   UNL     1     -19.690  23.261  -3.803  1.00  0.00    -0.392 OA
ATOM      9  H   UNL     1     -18.874  22.696  -3.799  1.00  0.00     0.210 HD
ENDBRANCH   6   8
BRANCH   5  10
ATOM     10  C   UNL     1     -19.698  26.074  -4.547  1.00  0.00    -0.075 C 
ATOM     11  C   UNL     1     -18.884  26.578  -3.604  1.00  0.00     0.008 C 
ATOM     12  C   UNL     1     -21.087  26.648  -4.681  1.00  0.00     0.039 C 
ENDBRANCH   5  10
TORSDOF 2
ENDMDL
MODEL 4
REMARK VINA RESULT:     7.142     19.659     21.331
REMARK INTER + INTRA:           7.579
REMARK INTER:                   7.648
REMARK INTRA:                  -0.069
REMARK UNBOUND:                -0.190
REMARK SMILES C=C(C)[C@@H]1CC[C@@H](C)C[C@H]1O
REMARK SMILES IDX 8 1 7 2 6 3 5 4 4 5 10 6 9 7 11 8 2 10 1 11 3 12
REMARK H PARENT 11 9
REMARK Flexibility Score: inf
ROOT
ATOM      1  C   UNL     1     -39.124  20.456   7.531  1.00  0.00     0.008 C 
ATOM      2  C   UNL     1     -37.828  21.067   6.991  1.00  0.00    -0.012 C 
ATOM      3  C   UNL     1     -37.042  21.753   8.124  1.00  0.00     0.004 C 
ATOM      4  C   UNL     1     -35.749  22.384   7.591  1.00  0.00     0.011 C 
ATOM      5  C   UNL     1     -36.049  23.385   6.457  1.00  0.00     0.043 C 
ATOM      6  C   UNL     1     -36.840  22.705   5.315  1.00  0.00     0.121 C 
ATOM      7  C   UNL     1     -38.132  22.069   5.860  1.00  0.00     0.035 C 
ENDROOT
BRANCH   6   8
ATOM      8  O   UNL     1     -37.164  23.662   4.339  1.00  0.00    -0.392 OA
ATOM      9  H   UNL     1     -37.010  24.553   4.749  1.00  0.00     0.210 HD
ENDBRANCH   6   8
BRANCH   5  10
ATOM     10  C   UNL     1     -34.764  24.024   5.945  1.00  0.00    -0.075 C 
ATOM     11  C   UNL     1     -34.007  23.383   5.039  1.00  0.00     0.008 C 
ATOM     12  C   UNL     1     -34.312  25.378   6.433  1.00  0.00     0.039 C 
ENDBRANCH   5  10
TORSDOF 2
ENDMDL
MODEL 5
REMARK VINA RESULT:     7.443     19.987     21.695
REMARK INTER + INTRA:           7.906
REMARK INTER:                   8.105
REMARK INTRA:                  -0.199
REMARK UNBOUND:                -0.190
REMARK SMILES C=C(C)[C@@H]1CC[C@@H](C)C[C@H]1O
REMARK SMILES IDX 8 1 7 2 6 3 5 4 4 5 10 6 9 7 11 8 2 10 1 11 3 12
REMARK H PARENT 11 9
REMARK Flexibility Score: inf
ROOT
ATOM      1  C   UNL     1     -33.498  24.420   5.577  1.00  0.00     0.008 C 
ATOM      2  C   UNL     1     -34.875  24.088   6.161  1.00  0.00    -0.012 C 
ATOM      3  C   UNL     1     -34.729  23.220   7.425  1.00  0.00     0.004 C 
ATOM      4  C   UNL     1     -36.102  22.867   8.009  1.00  0.00     0.011 C 
ATOM      5  C   UNL     1     -36.983  22.156   6.962  1.00  0.00     0.043 C 
ATOM      6  C   UNL     1     -37.133  23.020   5.689  1.00  0.00     0.121 C 
ATOM      7  C   UNL     1     -35.750  23.374   5.113  1.00  0.00     0.035 C 
ENDROOT
BRANCH   6   8
ATOM      8  O   UNL     1     -37.872  22.309   4.729  1.00  0.00    -0.392 OA
ATOM      9  H   UNL     1     -38.045  22.935   3.978  1.00  0.00     0.210 HD
ENDBRANCH   6   8
BRANCH   5  10
ATOM     10  C   UNL     1     -38.339  21.789   7.553  1.00  0.00    -0.075 C 
ATOM     11  C   UNL     1     -39.125  22.743   8.079  1.00  0.00     0.008 C 
ATOM     12  C   UNL     1     -38.831  20.362   7.564  1.00  0.00     0.039 C 
ENDBRANCH   5  10
TORSDOF 2
ENDMDL
