MODEL 1
REMARK VINA RESULT:    -4.019      0.000      0.000
REMARK INTER + INTRA:         -10.290
REMARK INTER:                  -7.778
REMARK INTRA:                  -2.512
REMARK UNBOUND:                -2.512
REMARK SMILES CCCCCCCCCCCCCCCCCC(=O)[O-]
REMARK SMILES IDX 10 1 11 2 12 3 13 4 14 5 15 6 16 7 17 8 18 9 19 10 20 11
REMARK SMILES IDX 9 12 8 13 7 14 6 15 5 16 4 17 3 18 2 19 1 20
REMARK H PARENT
REMARK Flexibility Score: inf
ROOT
ATOM      1  C   UNL     1       8.783  -0.365  42.470  1.00  0.00     0.000 C 
ENDROOT
BRANCH   1   2
ATOM      2  C   UNL     1       8.471  -1.279  41.272  1.00  0.00     0.000 C 
BRANCH   2   3
ATOM      3  C   UNL     1       8.285  -2.754  41.676  1.00  0.00     0.000 C 
BRANCH   3   4
ATOM      4  C   UNL     1       7.924  -3.709  40.524  1.00  0.00     0.000 C 
BRANCH   4   5
ATOM      5  C   UNL     1       7.912  -5.185  40.949  1.00  0.00     0.000 C 
BRANCH   5   6
ATOM      6  C   UNL     1       7.490  -5.328  42.418  1.00  0.00     0.000 C 
BRANCH   6   7
ATOM      7  C   UNL     1       8.372  -6.321  43.192  1.00  0.00     0.006 C 
BRANCH   7   8
ATOM      8  C   UNL     1       8.817  -7.510  42.330  1.00  0.00     0.053 C 
BRANCH   8   9
ATOM      9  C   UNL     1       7.824  -8.624  42.424  1.00  0.00     0.041 C 
ATOM     10  O   UNL     1       7.114  -8.926  41.427  1.00  0.00    -0.550 OA
ATOM     11  O   UNL     1       7.715  -9.363  43.595  1.00  0.00    -0.550 OA
ENDBRANCH   8   9
ENDBRANCH   7   8
ENDBRANCH   6   7
ENDBRANCH   5   6
ENDBRANCH   4   5
ENDBRANCH   3   4
ENDBRANCH   2   3
ENDBRANCH   1   2
BRANCH   1  12
ATOM     12  C   UNL     1       8.979  -1.154  43.774  1.00  0.00     0.000 C 
BRANCH  12  13
ATOM     13  C   UNL     1       9.752  -0.354  44.838  1.00  0.00    -0.000 C 
BRANCH  13  14
ATOM     14  C   UNL     1      10.859   0.520  44.226  1.00  0.00    -0.000 C 
BRANCH  14  15
ATOM     15  C   UNL     1      12.268   0.075  44.658  1.00  0.00    -0.000 C 
BRANCH  15  16
ATOM     16  C   UNL     1      13.045  -0.613  43.524  1.00  0.00    -0.000 C 
BRANCH  16  17
ATOM     17  C   UNL     1      12.376  -0.426  42.152  1.00  0.00    -0.000 C 
BRANCH  17  18
ATOM     18  C   UNL     1      12.171  -1.756  41.409  1.00  0.00    -0.000 C 
BRANCH  18  19
ATOM     19  C   UNL     1      12.001  -2.947  42.363  1.00  0.00    -0.003 C 
ATOM     20  C   UNL     1      11.409  -4.153  41.637  1.00  0.00     0.004 C 
ENDBRANCH  18  19
ENDBRANCH  17  18
ENDBRANCH  16  17
ENDBRANCH  15  16
ENDBRANCH  14  15
ENDBRANCH  13  14
ENDBRANCH  12  13
ENDBRANCH   1  12
TORSDOF 16
ENDMDL
MODEL 2
REMARK VINA RESULT:    -3.971      2.678      4.951
REMARK INTER + INTRA:         -10.198
REMARK INTER:                  -8.576
REMARK INTRA:                  -1.622
REMARK UNBOUND:                -2.512
REMARK SMILES CCCCCCCCCCCCCCCCCC(=O)[O-]
REMARK SMILES IDX 10 1 11 2 12 3 13 4 14 5 15 6 16 7 17 8 18 9 19 10 20 11
REMARK SMILES IDX 9 12 8 13 7 14 6 15 5 16 4 17 3 18 2 19 1 20
REMARK H PARENT
REMARK Flexibility Score: inf
ROOT
ATOM      1  C   UNL     1       7.775  -5.703  41.598  1.00  0.00     0.000 C 
ENDROOT
BRANCH   1   2
ATOM      2  C   UNL     1       8.367  -7.122  41.648  1.00  0.00     0.000 C 
BRANCH   2   3
ATOM      3  C   UNL     1       8.879  -7.510  43.048  1.00  0.00     0.000 C 
BRANCH   3   4
ATOM      4  C   UNL     1       8.239  -8.772  43.654  1.00  0.00     0.000 C 
BRANCH   4   5
ATOM      5  C   UNL     1       7.436  -9.589  42.630  1.00  0.00     0.000 C 
BRANCH   5   6
ATOM      6  C   UNL     1       6.729 -10.772  43.307  1.00  0.00     0.000 C 
BRANCH   6   7
ATOM      7  C   UNL     1       5.654 -11.409  42.411  1.00  0.00     0.006 C 
BRANCH   7   8
ATOM      8  C   UNL     1       5.661 -10.838  40.987  1.00  0.00     0.053 C 
BRANCH   8   9
ATOM      9  C   UNL     1       5.876 -11.929  39.987  1.00  0.00     0.041 C 
ATOM     10  O   UNL     1       5.106 -12.926  39.961  1.00  0.00    -0.550 OA
ATOM     11  O   UNL     1       6.897 -11.824  39.051  1.00  0.00    -0.550 OA
ENDBRANCH   8   9
ENDBRANCH   7   8
ENDBRANCH   6   7
ENDBRANCH   5   6
ENDBRANCH   4   5
ENDBRANCH   3   4
ENDBRANCH   2   3
ENDBRANCH   1   2
BRANCH   1  12
ATOM     12  C   UNL     1       7.241  -5.242  42.964  1.00  0.00     0.000 C 
BRANCH  12  13
ATOM     13  C   UNL     1       7.472  -3.741  43.213  1.00  0.00    -0.000 C 
BRANCH  13  14
ATOM     14  C   UNL     1       8.848  -3.268  42.715  1.00  0.00    -0.000 C 
BRANCH  14  15
ATOM     15  C   UNL     1       9.105  -1.781  43.016  1.00  0.00    -0.000 C 
BRANCH  15  16
ATOM     16  C   UNL     1       8.718  -0.863  41.845  1.00  0.00    -0.000 C 
BRANCH  16  17
ATOM     17  C   UNL     1       9.088  -1.464  40.478  1.00  0.00    -0.000 C 
BRANCH  17  18
ATOM     18  C   UNL     1       7.891  -1.521  39.516  1.00  0.00    -0.000 C 
BRANCH  18  19
ATOM     19  C   UNL     1       7.406  -2.955  39.257  1.00  0.00    -0.003 C 
ATOM     20  C   UNL     1       8.421  -3.737  38.426  1.00  0.00     0.004 C 
ENDBRANCH  18  19
ENDBRANCH  17  18
ENDBRANCH  16  17
ENDBRANCH  15  16
ENDBRANCH  14  15
ENDBRANCH  13  14
ENDBRANCH  12  13
ENDBRANCH   1  12
TORSDOF 16
ENDMDL
MODEL 3
REMARK VINA RESULT:    -3.923      4.332      6.548
REMARK INTER + INTRA:         -10.104
REMARK INTER:                  -7.927
REMARK INTRA:                  -2.177
REMARK UNBOUND:                -2.512
REMARK SMILES CCCCCCCCCCCCCCCCCC(=O)[O-]
REMARK SMILES IDX 10 1 11 2 12 3 13 4 14 5 15 6 16 7 17 8 18 9 19 10 20 11
REMARK SMILES IDX 9 12 8 13 7 14 6 15 5 16 4 17 3 18 2 19 1 20
REMARK H PARENT
REMARK Flexibility Score: inf
ROOT
ATOM      1  C   UNL     1      11.987  -4.341  40.112  1.00  0.00     0.000 C 
ENDROOT
BRANCH   1   2
ATOM      2  C   UNL     1      10.578  -4.850  39.762  1.00  0.00     0.000 C 
BRANCH   2   3
ATOM      3  C   UNL     1       9.743  -3.816  38.983  1.00  0.00     0.000 C 
BRANCH   3   4
ATOM      4  C   UNL     1       8.217  -3.978  39.109  1.00  0.00     0.000 C 
BRANCH   4   5
ATOM      5  C   UNL     1       7.452  -2.670  38.851  1.00  0.00     0.000 C 
BRANCH   5   6
ATOM      6  C   UNL     1       6.668  -2.746  37.533  1.00  0.00     0.000 C 
BRANCH   6   7
ATOM      7  C   UNL     1       5.533  -1.711  37.461  1.00  0.00     0.006 C 
BRANCH   7   8
ATOM      8  C   UNL     1       5.941  -0.440  36.706  1.00  0.00     0.053 C 
BRANCH   8   9
ATOM      9  C   UNL     1       5.394  -0.460  35.314  1.00  0.00     0.041 C 
ATOM     10  O   UNL     1       4.879   0.578  34.820  1.00  0.00    -0.550 OA
ATOM     11  O   UNL     1       5.497  -1.611  34.543  1.00  0.00    -0.550 OA
ENDBRANCH   8   9
ENDBRANCH   7   8
ENDBRANCH   6   7
ENDBRANCH   5   6
ENDBRANCH   4   5
ENDBRANCH   3   4
ENDBRANCH   2   3
ENDBRANCH   1   2
BRANCH   1  12
ATOM     12  C   UNL     1      12.076  -3.804  41.550  1.00  0.00     0.000 C 
BRANCH  12  13
ATOM     13  C   UNL     1      11.979  -2.270  41.615  1.00  0.00    -0.000 C 
BRANCH  13  14
ATOM     14  C   UNL     1      10.884  -1.791  42.582  1.00  0.00    -0.000 C 
BRANCH  14  15
ATOM     15  C   UNL     1       9.616  -1.316  41.850  1.00  0.00    -0.000 C 
BRANCH  15  16
ATOM     16  C   UNL     1       8.371  -2.134  42.229  1.00  0.00    -0.000 C 
BRANCH  16  17
ATOM     17  C   UNL     1       8.723  -3.537  42.751  1.00  0.00    -0.000 C 
BRANCH  17  18
ATOM     18  C   UNL     1       7.537  -4.512  42.670  1.00  0.00    -0.000 C 
BRANCH  18  19
ATOM     19  C   UNL     1       7.952  -5.971  42.910  1.00  0.00    -0.003 C 
ATOM     20  C   UNL     1       7.891  -6.780  41.617  1.00  0.00     0.004 C 
ENDBRANCH  18  19
ENDBRANCH  17  18
ENDBRANCH  16  17
ENDBRANCH  15  16
ENDBRANCH  14  15
ENDBRANCH  13  14
ENDBRANCH  12  13
ENDBRANCH   1  12
TORSDOF 16
ENDMDL
MODEL 4
REMARK VINA RESULT:    -3.903      1.741      3.864
REMARK INTER + INTRA:         -10.065
REMARK INTER:                  -7.799
REMARK INTRA:                  -2.266
REMARK UNBOUND:                -2.512
REMARK SMILES CCCCCCCCCCCCCCCCCC(=O)[O-]
REMARK SMILES IDX 10 1 11 2 12 3 13 4 14 5 15 6 16 7 17 8 18 9 19 10 20 11
REMARK SMILES IDX 9 12 8 13 7 14 6 15 5 16 4 17 3 18 2 19 1 20
REMARK H PARENT
REMARK Flexibility Score: inf
ROOT
ATOM      1  C   UNL     1      11.234  -3.689  40.164  1.00  0.00     0.000 C 
ENDROOT
BRANCH   1   2
ATOM      2  C   UNL     1      10.631  -5.104  40.183  1.00  0.00     0.000 C 
BRANCH   2   3
ATOM      3  C   UNL     1       9.923  -5.437  41.510  1.00  0.00     0.000 C 
BRANCH   3   4
ATOM      4  C   UNL     1       8.640  -6.277  41.376  1.00  0.00     0.000 C 
BRANCH   4   5
ATOM      5  C   UNL     1       7.663  -6.072  42.544  1.00  0.00     0.000 C 
BRANCH   5   6
ATOM      6  C   UNL     1       8.102  -6.882  43.773  1.00  0.00     0.000 C 
BRANCH   6   7
ATOM      7  C   UNL     1       8.616  -8.283  43.405  1.00  0.00     0.006 C 
BRANCH   7   8
ATOM      8  C   UNL     1       7.594  -9.385  43.712  1.00  0.00     0.053 C 
BRANCH   8   9
ATOM      9  C   UNL     1       7.145 -10.049  42.449  1.00  0.00     0.041 C 
ATOM     10  O   UNL     1       6.830  -9.356  41.445  1.00  0.00    -0.550 OA
ATOM     11  O   UNL     1       7.124 -11.436  42.362  1.00  0.00    -0.550 OA
ENDBRANCH   8   9
ENDBRANCH   7   8
ENDBRANCH   6   7
ENDBRANCH   5   6
ENDBRANCH   4   5
ENDBRANCH   3   4
ENDBRANCH   2   3
ENDBRANCH   1   2
BRANCH   1  12
ATOM     12  C   UNL     1      12.386  -3.529  41.169  1.00  0.00     0.000 C 
BRANCH  12  13
ATOM     13  C   UNL     1      12.055  -2.533  42.294  1.00  0.00    -0.000 C 
BRANCH  13  14
ATOM     14  C   UNL     1      10.797  -1.702  41.991  1.00  0.00    -0.000 C 
BRANCH  14  15
ATOM     15  C   UNL     1       9.668  -1.948  43.009  1.00  0.00    -0.000 C 
BRANCH  15  16
ATOM     16  C   UNL     1       8.351  -2.377  42.342  1.00  0.00    -0.000 C 
BRANCH  16  17
ATOM     17  C   UNL     1       8.283  -1.974  40.859  1.00  0.00    -0.000 C 
BRANCH  17  18
ATOM     18  C   UNL     1       7.541  -3.010  39.999  1.00  0.00    -0.000 C 
BRANCH  18  19
ATOM     19  C   UNL     1       7.033  -2.425  38.673  1.00  0.00    -0.003 C 
ATOM     20  C   UNL     1       7.176  -3.434  37.537  1.00  0.00     0.004 C 
ENDBRANCH  18  19
ENDBRANCH  17  18
ENDBRANCH  16  17
ENDBRANCH  15  16
ENDBRANCH  14  15
ENDBRANCH  13  14
ENDBRANCH  12  13
ENDBRANCH   1  12
TORSDOF 16
ENDMDL
MODEL 5
REMARK VINA RESULT:    -3.888      4.021      7.267
REMARK INTER + INTRA:         -10.037
REMARK INTER:                  -8.173
REMARK INTRA:                  -1.864
REMARK UNBOUND:                -2.512
REMARK SMILES CCCCCCCCCCCCCCCCCC(=O)[O-]
REMARK SMILES IDX 10 1 11 2 12 3 13 4 14 5 15 6 16 7 17 8 18 9 19 10 20 11
REMARK SMILES IDX 9 12 8 13 7 14 6 15 5 16 4 17 3 18 2 19 1 20
REMARK H PARENT
REMARK Flexibility Score: inf
ROOT
ATOM      1  C   UNL     1      10.127  -4.232  42.372  1.00  0.00     0.000 C 
ENDROOT
BRANCH   1   2
ATOM      2  C   UNL     1      11.069  -3.156  41.803  1.00  0.00     0.000 C 
BRANCH   2   3
ATOM      3  C   UNL     1      11.281  -3.288  40.283  1.00  0.00     0.000 C 
BRANCH   3   4
ATOM      4  C   UNL     1      10.118  -2.780  39.412  1.00  0.00     0.000 C 
BRANCH   4   5
ATOM      5  C   UNL     1       9.373  -1.591  40.039  1.00  0.00     0.000 C 
BRANCH   5   6
ATOM      6  C   UNL     1       7.891  -1.600  39.638  1.00  0.00     0.000 C 
BRANCH   6   7
ATOM      7  C   UNL     1       7.577  -2.653  38.563  1.00  0.00     0.006 C 
BRANCH   7   8
ATOM      8  C   UNL     1       6.194  -2.453  37.929  1.00  0.00     0.053 C 
BRANCH   8   9
ATOM      9  C   UNL     1       6.213  -1.288  36.991  1.00  0.00     0.041 C 
ATOM     10  O   UNL     1       5.522  -0.263  37.238  1.00  0.00    -0.550 OA
ATOM     11  O   UNL     1       7.032  -1.311  35.869  1.00  0.00    -0.550 OA
ENDBRANCH   8   9
ENDBRANCH   7   8
ENDBRANCH   6   7
ENDBRANCH   5   6
ENDBRANCH   4   5
ENDBRANCH   3   4
ENDBRANCH   2   3
ENDBRANCH   1   2
BRANCH   1  12
ATOM     12  C   UNL     1       8.773  -3.652  42.813  1.00  0.00     0.000 C 
BRANCH  12  13
ATOM     13  C   UNL     1       7.587  -4.540  42.399  1.00  0.00    -0.000 C 
BRANCH  13  14
ATOM     14  C   UNL     1       7.867  -5.331  41.111  1.00  0.00    -0.000 C 
BRANCH  14  15
ATOM     15  C   UNL     1       7.565  -6.832  41.262  1.00  0.00    -0.000 C 
BRANCH  15  16
ATOM     16  C   UNL     1       8.289  -7.465  42.462  1.00  0.00    -0.000 C 
BRANCH  16  17
ATOM     17  C   UNL     1       7.890  -8.933  42.685  1.00  0.00    -0.000 C 
BRANCH  17  18
ATOM     18  C   UNL     1       7.853  -9.315  44.173  1.00  0.00    -0.000 C 
BRANCH  18  19
ATOM     19  C   UNL     1       6.942 -10.519  44.454  1.00  0.00    -0.003 C 
ATOM     20  C   UNL     1       6.221 -10.971  43.186  1.00  0.00     0.004 C 
ENDBRANCH  18  19
ENDBRANCH  17  18
ENDBRANCH  16  17
ENDBRANCH  15  16
ENDBRANCH  14  15
ENDBRANCH  13  14
ENDBRANCH  12  13
ENDBRANCH   1  12
TORSDOF 16
ENDMDL
MODEL 6
REMARK VINA RESULT:    -3.878      3.813      7.404
REMARK INTER + INTRA:         -10.018
REMARK INTER:                  -8.471
REMARK INTRA:                  -1.547
REMARK UNBOUND:                -2.512
REMARK SMILES CCCCCCCCCCCCCCCCCC(=O)[O-]
REMARK SMILES IDX 10 1 11 2 12 3 13 4 14 5 15 6 16 7 17 8 18 9 19 10 20 11
REMARK SMILES IDX 9 12 8 13 7 14 6 15 5 16 4 17 3 18 2 19 1 20
REMARK H PARENT
REMARK Flexibility Score: inf
ROOT
ATOM      1  C   UNL     1       7.880  -4.062  42.932  1.00  0.00     0.000 C 
ENDROOT
BRANCH   1   2
ATOM      2  C   UNL     1       9.051  -3.224  42.389  1.00  0.00     0.000 C 
BRANCH   2   3
ATOM      3  C   UNL     1       8.594  -1.905  41.738  1.00  0.00     0.000 C 
BRANCH   3   4
ATOM      4  C   UNL     1       9.004  -1.724  40.265  1.00  0.00     0.000 C 
BRANCH   4   5
ATOM      5  C   UNL     1       7.802  -1.543  39.325  1.00  0.00     0.000 C 
BRANCH   5   6
ATOM      6  C   UNL     1       7.173  -2.899  38.973  1.00  0.00     0.000 C 
BRANCH   6   7
ATOM      7  C   UNL     1       8.182  -3.873  38.342  1.00  0.00     0.006 C 
BRANCH   7   8
ATOM      8  C   UNL     1       8.690  -3.392  36.977  1.00  0.00     0.053 C 
BRANCH   8   9
ATOM      9  C   UNL     1       7.820  -3.920  35.880  1.00  0.00     0.041 C 
ATOM     10  O   UNL     1       6.705  -3.384  35.641  1.00  0.00    -0.550 OA
ATOM     11  O   UNL     1       8.262  -4.972  35.088  1.00  0.00    -0.550 OA
ENDBRANCH   8   9
ENDBRANCH   7   8
ENDBRANCH   6   7
ENDBRANCH   5   6
ENDBRANCH   4   5
ENDBRANCH   3   4
ENDBRANCH   2   3
ENDBRANCH   1   2
BRANCH   1  12
ATOM     12  C   UNL     1       7.492  -5.209  41.985  1.00  0.00     0.000 C 
BRANCH  12  13
ATOM     13  C   UNL     1       8.712  -6.004  41.489  1.00  0.00    -0.000 C 
BRANCH  13  14
ATOM     14  C   UNL     1       9.403  -6.785  42.619  1.00  0.00    -0.000 C 
BRANCH  14  15
ATOM     15  C   UNL     1       8.597  -8.021  43.060  1.00  0.00    -0.000 C 
BRANCH  15  16
ATOM     16  C   UNL     1       8.245  -8.949  41.886  1.00  0.00    -0.000 C 
BRANCH  16  17
ATOM     17  C   UNL     1       6.983  -9.787  42.155  1.00  0.00    -0.000 C 
BRANCH  17  18
ATOM     18  C   UNL     1       6.978 -10.412  43.559  1.00  0.00    -0.000 C 
BRANCH  18  19
ATOM     19  C   UNL     1       5.862 -11.450  43.741  1.00  0.00    -0.003 C 
ATOM     20  C   UNL     1       6.320 -12.835  43.288  1.00  0.00     0.004 C 
ENDBRANCH  18  19
ENDBRANCH  17  18
ENDBRANCH  16  17
ENDBRANCH  15  16
ENDBRANCH  14  15
ENDBRANCH  13  14
ENDBRANCH  12  13
ENDBRANCH   1  12
TORSDOF 16
ENDMDL
MODEL 7
REMARK VINA RESULT:    -3.801      3.010      5.739
REMARK INTER + INTRA:          -9.869
REMARK INTER:                  -7.907
REMARK INTRA:                  -1.961
REMARK UNBOUND:                -2.512
REMARK SMILES CCCCCCCCCCCCCCCCCC(=O)[O-]
REMARK SMILES IDX 10 1 11 2 12 3 13 4 14 5 15 6 16 7 17 8 18 9 19 10 20 11
REMARK SMILES IDX 9 12 8 13 7 14 6 15 5 16 4 17 3 18 2 19 1 20
REMARK H PARENT
REMARK Flexibility Score: inf
ROOT
ATOM      1  C   UNL     1      12.144  -3.507  41.018  1.00  0.00     0.000 C 
ENDROOT
BRANCH   1   2
ATOM      2  C   UNL     1      11.460  -3.237  42.369  1.00  0.00     0.000 C 
BRANCH   2   3
ATOM      3  C   UNL     1      10.944  -1.792  42.502  1.00  0.00     0.000 C 
BRANCH   3   4
ATOM      4  C   UNL     1       9.482  -1.657  42.964  1.00  0.00     0.000 C 
BRANCH   4   5
ATOM      5  C   UNL     1       8.518  -2.558  42.176  1.00  0.00     0.000 C 
BRANCH   5   6
ATOM      6  C   UNL     1       7.856  -3.592  43.099  1.00  0.00     0.000 C 
BRANCH   6   7
ATOM      7  C   UNL     1       7.545  -4.913  42.378  1.00  0.00     0.006 C 
BRANCH   7   8
ATOM      8  C   UNL     1       8.764  -5.842  42.300  1.00  0.00     0.053 C 
BRANCH   8   9
ATOM      9  C   UNL     1       8.688  -6.895  43.359  1.00  0.00     0.041 C 
ATOM     10  O   UNL     1       9.507  -7.852  43.363  1.00  0.00    -0.550 OA
ATOM     11  O   UNL     1       7.744  -6.794  44.374  1.00  0.00    -0.550 OA
ENDBRANCH   8   9
ENDBRANCH   7   8
ENDBRANCH   6   7
ENDBRANCH   5   6
ENDBRANCH   4   5
ENDBRANCH   3   4
ENDBRANCH   2   3
ENDBRANCH   1   2
BRANCH   1  12
ATOM     12  C   UNL     1      11.294  -3.037  39.826  1.00  0.00     0.000 C 
BRANCH  12  13
ATOM     13  C   UNL     1      10.369  -4.142  39.287  1.00  0.00    -0.000 C 
BRANCH  13  14
ATOM     14  C   UNL     1       9.305  -3.596  38.320  1.00  0.00    -0.000 C 
BRANCH  14  15
ATOM     15  C   UNL     1       7.873  -3.773  38.858  1.00  0.00    -0.000 C 
BRANCH  15  16
ATOM     16  C   UNL     1       6.991  -2.539  38.609  1.00  0.00    -0.000 C 
BRANCH  16  17
ATOM     17  C   UNL     1       6.813  -2.233  37.112  1.00  0.00    -0.000 C 
BRANCH  17  18
ATOM     18  C   UNL     1       6.319  -0.800  36.858  1.00  0.00    -0.000 C 
BRANCH  18  19
ATOM     19  C   UNL     1       5.555  -0.663  35.533  1.00  0.00    -0.003 C 
ATOM     20  C   UNL     1       6.412   0.021  34.471  1.00  0.00     0.004 C 
ENDBRANCH  18  19
ENDBRANCH  17  18
ENDBRANCH  16  17
ENDBRANCH  15  16
ENDBRANCH  14  15
ENDBRANCH  13  14
ENDBRANCH  12  13
ENDBRANCH   1  12
TORSDOF 16
ENDMDL
MODEL 8
REMARK VINA RESULT:    -3.798      4.242      6.475
REMARK INTER + INTRA:          -9.863
REMARK INTER:                  -8.534
REMARK INTRA:                  -1.329
REMARK UNBOUND:                -2.512
REMARK SMILES CCCCCCCCCCCCCCCCCC(=O)[O-]
REMARK SMILES IDX 10 1 11 2 12 3 13 4 14 5 15 6 16 7 17 8 18 9 19 10 20 11
REMARK SMILES IDX 9 12 8 13 7 14 6 15 5 16 4 17 3 18 2 19 1 20
REMARK H PARENT
REMARK Flexibility Score: inf
ROOT
ATOM      1  C   UNL     1       8.001  -1.012  40.227  1.00  0.00     0.000 C 
ENDROOT
BRANCH   1   2
ATOM      2  C   UNL     1       8.151  -2.166  39.220  1.00  0.00     0.000 C 
BRANCH   2   3
ATOM      3  C   UNL     1       6.809  -2.598  38.598  1.00  0.00     0.000 C 
BRANCH   3   4
ATOM      4  C   UNL     1       6.165  -1.569  37.651  1.00  0.00     0.000 C 
BRANCH   4   5
ATOM      5  C   UNL     1       6.245  -1.982  36.173  1.00  0.00     0.000 C 
BRANCH   5   6
ATOM      6  C   UNL     1       6.848  -3.387  36.028  1.00  0.00     0.000 C 
BRANCH   6   7
ATOM      7  C   UNL     1       8.081  -3.410  35.110  1.00  0.00     0.006 C 
BRANCH   7   8
ATOM      8  C   UNL     1       8.594  -4.831  34.848  1.00  0.00     0.053 C 
BRANCH   8   9
ATOM      9  C   UNL     1      10.025  -4.798  34.413  1.00  0.00     0.041 C 
ATOM     10  O   UNL     1      10.581  -5.844  33.983  1.00  0.00    -0.550 OA
ATOM     11  O   UNL     1      10.731  -3.602  34.435  1.00  0.00    -0.550 OA
ENDBRANCH   8   9
ENDBRANCH   7   8
ENDBRANCH   6   7
ENDBRANCH   5   6
ENDBRANCH   4   5
ENDBRANCH   3   4
ENDBRANCH   2   3
ENDBRANCH   1   2
BRANCH   1  12
ATOM     12  C   UNL     1       9.203  -0.905  41.179  1.00  0.00     0.000 C 
BRANCH  12  13
ATOM     13  C   UNL     1       8.917  -1.516  42.562  1.00  0.00    -0.000 C 
BRANCH  13  14
ATOM     14  C   UNL     1       9.371  -2.982  42.662  1.00  0.00    -0.000 C 
BRANCH  14  15
ATOM     15  C   UNL     1       8.201  -3.973  42.531  1.00  0.00    -0.000 C 
BRANCH  15  16
ATOM     16  C   UNL     1       8.481  -5.090  41.514  1.00  0.00    -0.000 C 
BRANCH  16  17
ATOM     17  C   UNL     1       7.471  -6.246  41.615  1.00  0.00    -0.000 C 
BRANCH  17  18
ATOM     18  C   UNL     1       8.154  -7.620  41.701  1.00  0.00    -0.000 C 
BRANCH  18  19
ATOM     19  C   UNL     1       8.841  -7.856  43.054  1.00  0.00    -0.003 C 
ATOM     20  C   UNL     1       8.014  -8.789  43.936  1.00  0.00     0.004 C 
ENDBRANCH  18  19
ENDBRANCH  17  18
ENDBRANCH  16  17
ENDBRANCH  15  16
ENDBRANCH  14  15
ENDBRANCH  13  14
ENDBRANCH  12  13
ENDBRANCH   1  12
TORSDOF 16
ENDMDL
MODEL 9
REMARK VINA RESULT:    -3.776      4.755      6.348
REMARK INTER + INTRA:          -9.820
REMARK INTER:                  -8.165
REMARK INTRA:                  -1.656
REMARK UNBOUND:                -2.512
REMARK SMILES CCCCCCCCCCCCCCCCCC(=O)[O-]
REMARK SMILES IDX 10 1 11 2 12 3 13 4 14 5 15 6 16 7 17 8 18 9 19 10 20 11
REMARK SMILES IDX 9 12 8 13 7 14 6 15 5 16 4 17 3 18 2 19 1 20
REMARK H PARENT
REMARK Flexibility Score: inf
ROOT
ATOM      1  C   UNL     1       7.588  -2.820  39.441  1.00  0.00     0.000 C 
ENDROOT
BRANCH   1   2
ATOM      2  C   UNL     1       7.874  -3.489  38.085  1.00  0.00     0.000 C 
BRANCH   2   3
ATOM      3  C   UNL     1       6.877  -3.070  36.988  1.00  0.00     0.000 C 
BRANCH   3   4
ATOM      4  C   UNL     1       7.142  -3.673  35.597  1.00  0.00     0.000 C 
BRANCH   4   5
ATOM      5  C   UNL     1       8.633  -3.689  35.223  1.00  0.00     0.000 C 
BRANCH   5   6
ATOM      6  C   UNL     1       9.007  -5.000  34.516  1.00  0.00     0.000 C 
BRANCH   6   7
ATOM      7  C   UNL     1      10.524  -5.246  34.493  1.00  0.00     0.006 C 
BRANCH   7   8
ATOM      8  C   UNL     1      10.956  -6.153  33.334  1.00  0.00     0.053 C 
BRANCH   8   9
ATOM      9  C   UNL     1      10.922  -7.589  33.753  1.00  0.00     0.041 C 
ATOM     10  O   UNL     1      10.489  -8.470  32.963  1.00  0.00    -0.550 OA
ATOM     11  O   UNL     1      11.415  -7.962  34.997  1.00  0.00    -0.550 OA
ENDBRANCH   8   9
ENDBRANCH   7   8
ENDBRANCH   6   7
ENDBRANCH   5   6
ENDBRANCH   4   5
ENDBRANCH   3   4
ENDBRANCH   2   3
ENDBRANCH   1   2
BRANCH   1  12
ATOM     12  C   UNL     1       8.698  -1.841  39.857  1.00  0.00     0.000 C 
BRANCH  12  13
ATOM     13  C   UNL     1       8.500  -1.294  41.282  1.00  0.00    -0.000 C 
BRANCH  13  14
ATOM     14  C   UNL     1       9.000  -2.270  42.360  1.00  0.00    -0.000 C 
BRANCH  14  15
ATOM     15  C   UNL     1      10.375  -2.871  42.019  1.00  0.00    -0.000 C 
BRANCH  15  16
ATOM     16  C   UNL     1      10.461  -4.373  42.337  1.00  0.00    -0.000 C 
BRANCH  16  17
ATOM     17  C   UNL     1      10.007  -5.252  41.160  1.00  0.00    -0.000 C 
BRANCH  17  18
ATOM     18  C   UNL     1       8.906  -6.248  41.558  1.00  0.00    -0.000 C 
BRANCH  18  19
ATOM     19  C   UNL     1       7.535  -5.577  41.733  1.00  0.00    -0.003 C 
ATOM     20  C   UNL     1       7.192  -5.406  43.211  1.00  0.00     0.004 C 
ENDBRANCH  18  19
ENDBRANCH  17  18
ENDBRANCH  16  17
ENDBRANCH  15  16
ENDBRANCH  14  15
ENDBRANCH  13  14
ENDBRANCH  12  13
ENDBRANCH   1  12
TORSDOF 16
ENDMDL
