MODEL 1
REMARK VINA RESULT:    -4.557      0.000      0.000
REMARK INTER + INTRA:          -6.451
REMARK INTER:                  -6.422
REMARK INTRA:                  -0.029
REMARK UNBOUND:                -0.029
REMARK SMILES CC1=CCC(=C(C)C)CCC(C)=CCC1
REMARK SMILES IDX 5 1 6 2 7 3 8 4 9 5 10 6 11 7 12 8 13 9 4 11 3 12 2 13 1 14
REMARK SMILES IDX 15 15 14 16
REMARK H PARENT
REMARK Flexibility Score: 60.00
ROOT
ATOM      1  C   UNL     1     110.342 106.103 127.955  1.00  0.00    -0.067 C 
ATOM      2  C   UNL     1     111.391 106.257 128.823  1.00  0.00    -0.077 C 
ATOM      3  C   UNL     1     111.997 105.077 129.556  1.00  0.00     0.039 C 
ATOM      4  C   UNL     1     112.002 107.619 129.086  1.00  0.00     0.039 C 
ENDROOT
BRANCH   1   5
ATOM      5  C   UNL     1     109.620 104.756 127.828  1.00  0.00     0.035 C 
BRANCH   5   6
ATOM      6  C   UNL     1     108.551 104.508 128.914  1.00  0.00     0.035 C 
BRANCH   6   7
ATOM      7  C   UNL     1     107.155 104.243 128.369  1.00  0.00    -0.077 C 
ATOM      8  C   UNL     1     106.844 102.881 127.800  1.00  0.00     0.039 C 
ATOM      9  C   UNL     1     106.170 105.169 128.363  1.00  0.00    -0.028 CG0
ATOM     10  G   UNL     1     106.271 106.572 128.912  1.00  0.00     0.000 G0
ENDBRANCH   6   7
ENDBRANCH   5   6
ENDBRANCH   1   5
BRANCH   1  11
ATOM     11  C   UNL     1     109.772 107.309 127.200  1.00  0.00     0.058 C 
BRANCH  11  12
ATOM     12  C   UNL     1     109.171 108.348 128.117  1.00  0.00    -0.024 C 
ATOM     13  C   UNL     1     107.851 108.502 128.380  1.00  0.00    -0.077 C 
ATOM     14  C   UNL     1     107.443 109.650 129.269  1.00  0.00     0.039 C 
BRANCH  13  15
ATOM     15  C   UNL     1     106.773 107.576 127.842  1.00  0.00     0.034 C 
BRANCH  15  16
ATOM     16  C   UNL     1     106.252 106.588 128.906  1.00  0.00     0.032 CG0
ATOM     17  G   UNL     1     106.172 105.184 128.361  1.00  0.00     0.000 G0
ENDBRANCH  15  16
ENDBRANCH  13  15
ENDBRANCH  11  12
ENDBRANCH   1  11
TORSDOF 0
ENDMDL
MODEL 2
REMARK VINA RESULT:    -4.497      3.347      4.624
REMARK INTER + INTRA:          -6.366
REMARK INTER:                  -6.122
REMARK INTRA:                  -0.245
REMARK UNBOUND:                -0.029
REMARK SMILES CC1=CCC(=C(C)C)CCC(C)=CCC1
REMARK SMILES IDX 5 1 6 2 7 3 8 4 9 5 10 6 11 7 12 8 13 9 4 11 3 12 2 13 1 14
REMARK SMILES IDX 15 15 14 16
REMARK H PARENT
REMARK Flexibility Score: 60.00
ROOT
ATOM      1  C   UNL     1     109.098 107.800 126.746  1.00  0.00    -0.067 C 
ATOM      2  C   UNL     1     110.341 107.609 127.292  1.00  0.00    -0.077 C 
ATOM      3  C   UNL     1     111.577 107.473 126.426  1.00  0.00     0.039 C 
ATOM      4  C   UNL     1     110.538 107.532 128.792  1.00  0.00     0.039 C 
ENDROOT
BRANCH   1   5
ATOM      5  C   UNL     1     108.883 107.702 125.231  1.00  0.00     0.035 C 
BRANCH   5   6
ATOM      6  C   UNL     1     108.779 109.067 124.517  1.00  0.00     0.035 C 
BRANCH   6   7
ATOM      7  C   UNL     1     107.439 109.321 123.844  1.00  0.00    -0.077 C 
ATOM      8  C   UNL     1     107.089 108.535 122.605  1.00  0.00     0.039 C 
ATOM      9  C   UNL     1     106.538 110.223 124.295  1.00  0.00    -0.028 CG0
ATOM     10  G   UNL     1     106.686 111.080 125.528  1.00  0.00     0.000 G0
ENDBRANCH   6   7
ENDBRANCH   5   6
ENDBRANCH   1   5
BRANCH   1  11
ATOM     11  C   UNL     1     107.870 107.970 127.646  1.00  0.00     0.058 C 
BRANCH  11  12
ATOM     12  C   UNL     1     107.831 109.308 128.346  1.00  0.00    -0.024 C 
ATOM     13  C   UNL     1     107.102 110.382 127.959  1.00  0.00    -0.077 C 
ATOM     14  C   UNL     1     107.255 111.656 128.751  1.00  0.00     0.039 C 
BRANCH  13  15
ATOM     15  C   UNL     1     106.136 110.364 126.786  1.00  0.00     0.034 C 
BRANCH  15  16
ATOM     16  C   UNL     1     106.694 111.085 125.543  1.00  0.00     0.032 CG0
ATOM     17  G   UNL     1     106.557 110.234 124.304  1.00  0.00     0.000 G0
ENDBRANCH  15  16
ENDBRANCH  13  15
ENDBRANCH  11  12
ENDBRANCH   1  11
TORSDOF 0
ENDMDL
MODEL 3
REMARK VINA RESULT:    -4.487      2.142      4.914
REMARK INTER + INTRA:          -6.353
REMARK INTER:                  -6.267
REMARK INTRA:                  -0.086
REMARK UNBOUND:                -0.029
REMARK SMILES CC1=CCC(=C(C)C)CCC(C)=CCC1
REMARK SMILES IDX 5 1 6 2 7 3 8 4 9 5 10 6 11 7 12 8 13 9 4 11 3 12 2 13 1 14
REMARK SMILES IDX 15 15 14 16
REMARK H PARENT
REMARK Flexibility Score: 60.00
ROOT
ATOM      1  C   UNL     1     106.187 101.934 127.899  1.00  0.00    -0.067 C 
ATOM      2  C   UNL     1     106.286 100.956 128.855  1.00  0.00    -0.077 C 
ATOM      3  C   UNL     1     105.063 100.402 129.555  1.00  0.00     0.039 C 
ATOM      4  C   UNL     1     107.629 100.376 129.250  1.00  0.00     0.039 C 
ENDROOT
BRANCH   1   5
ATOM      5  C   UNL     1     104.850 102.636 127.631  1.00  0.00     0.035 C 
BRANCH   5   6
ATOM      6  C   UNL     1     104.529 103.781 128.616  1.00  0.00     0.035 C 
BRANCH   6   7
ATOM      7  C   UNL     1     103.979 105.037 127.957  1.00  0.00    -0.077 C 
ATOM      8  C   UNL     1     102.533 105.058 127.528  1.00  0.00     0.039 C 
ATOM      9  C   UNL     1     104.721 106.144 127.730  1.00  0.00    -0.028 CG0
ATOM     10  G   UNL     1     106.169 106.333 128.111  1.00  0.00     0.000 G0
ENDBRANCH   6   7
ENDBRANCH   5   6
ENDBRANCH   1   5
BRANCH   1  11
ATOM     11  C   UNL     1     107.438 102.451 127.181  1.00  0.00     0.058 C 
BRANCH  11  12
ATOM     12  C   UNL     1     108.257 103.395 128.030  1.00  0.00    -0.024 C 
ATOM     13  C   UNL     1     108.157 104.745 128.033  1.00  0.00    -0.077 C 
ATOM     14  C   UNL     1     109.118 105.518 128.901  1.00  0.00     0.039 C 
BRANCH  13  15
ATOM     15  C   UNL     1     107.124 105.513 127.225  1.00  0.00     0.034 C 
BRANCH  15  16
ATOM     16  C   UNL     1     106.179 106.352 128.110  1.00  0.00     0.032 CG0
ATOM     17  G   UNL     1     104.735 106.141 127.727  1.00  0.00     0.000 G0
ENDBRANCH  15  16
ENDBRANCH  13  15
ENDBRANCH  11  12
ENDBRANCH   1  11
TORSDOF 0
ENDMDL
MODEL 4
REMARK VINA RESULT:    -4.481      2.094      4.882
REMARK INTER + INTRA:          -6.344
REMARK INTER:                  -6.239
REMARK INTRA:                  -0.104
REMARK UNBOUND:                -0.029
REMARK SMILES CC1=CCC(=C(C)C)CCC(C)=CCC1
REMARK SMILES IDX 5 1 6 2 7 3 8 4 9 5 10 6 11 7 12 8 13 9 4 11 3 12 2 13 1 14
REMARK SMILES IDX 15 15 14 16
REMARK H PARENT
REMARK Flexibility Score: 60.00
ROOT
ATOM      1  C   UNL     1     106.396 110.353 127.959  1.00  0.00    -0.067 C 
ATOM      2  C   UNL     1     106.257 111.403 128.829  1.00  0.00    -0.077 C 
ATOM      3  C   UNL     1     107.451 112.024 129.524  1.00  0.00     0.039 C 
ATOM      4  C   UNL     1     104.897 111.999 129.132  1.00  0.00     0.039 C 
ENDROOT
BRANCH   1   5
ATOM      5  C   UNL     1     107.746 109.646 127.793  1.00  0.00     0.035 C 
BRANCH   5   6
ATOM      6  C   UNL     1     107.931 108.414 128.705  1.00  0.00     0.035 C 
BRANCH   6   7
ATOM      7  C   UNL     1     108.186 107.114 127.958  1.00  0.00    -0.077 C 
ATOM      8  C   UNL     1     109.514 106.921 127.269  1.00  0.00     0.039 C 
ATOM      9  C   UNL     1     107.280 106.115 127.873  1.00  0.00    -0.028 CG0
ATOM     10  G   UNL     1     105.914 106.102 128.515  1.00  0.00     0.000 G0
ENDBRANCH   6   7
ENDBRANCH   5   6
ENDBRANCH   1   5
BRANCH   1  11
ATOM     11  C   UNL     1     105.174 109.767 127.243  1.00  0.00     0.058 C 
BRANCH  11  12
ATOM     12  C   UNL     1     104.195 109.111 128.188  1.00  0.00    -0.024 C 
ATOM     13  C   UNL     1     104.012 107.777 128.337  1.00  0.00    -0.077 C 
ATOM     14  C   UNL     1     102.931 107.319 129.282  1.00  0.00     0.039 C 
BRANCH  13  15
ATOM     15  C   UNL     1     104.845 106.729 127.617  1.00  0.00     0.034 C 
BRANCH  15  16
ATOM     16  C   UNL     1     105.914 106.091 128.526  1.00  0.00     0.032 CG0
ATOM     17  G   UNL     1     107.276 106.118 127.877  1.00  0.00     0.000 G0
ENDBRANCH  15  16
ENDBRANCH  13  15
ENDBRANCH  11  12
ENDBRANCH   1  11
TORSDOF 0
ENDMDL
MODEL 5
REMARK VINA RESULT:    -4.477      3.191      6.892
REMARK INTER + INTRA:          -6.338
REMARK INTER:                  -6.277
REMARK INTRA:                  -0.061
REMARK UNBOUND:                -0.029
REMARK SMILES CC1=CCC(=C(C)C)CCC(C)=CCC1
REMARK SMILES IDX 5 1 6 2 7 3 8 4 9 5 10 6 11 7 12 8 13 9 4 11 3 12 2 13 1 14
REMARK SMILES IDX 15 15 14 16
REMARK H PARENT
REMARK Flexibility Score: 60.00
ROOT
ATOM      1  C   UNL     1     102.130 106.309 128.008  1.00  0.00    -0.067 C 
ATOM      2  C   UNL     1     101.053 106.232 128.853  1.00  0.00    -0.077 C 
ATOM      3  C   UNL     1     100.527 107.450 129.584  1.00  0.00     0.039 C 
ATOM      4  C   UNL     1     100.331 104.921 129.090  1.00  0.00     0.039 C 
ENDROOT
BRANCH   1   5
ATOM      5  C   UNL     1     102.959 107.595 127.909  1.00  0.00     0.035 C 
BRANCH   5   6
ATOM      6  C   UNL     1     104.041 107.735 129.002  1.00  0.00     0.035 C 
BRANCH   6   7
ATOM      7  C   UNL     1     105.382 108.240 128.494  1.00  0.00    -0.077 C 
ATOM      8  C   UNL     1     105.534 109.709 128.184  1.00  0.00     0.039 C 
ATOM      9  C   UNL     1     106.454 107.440 128.299  1.00  0.00    -0.028 CG0
ATOM     10  G   UNL     1     106.514 105.958 128.578  1.00  0.00     0.000 G0
ENDBRANCH   6   7
ENDBRANCH   5   6
ENDBRANCH   1   5
BRANCH   1  11
ATOM     11  C   UNL     1     102.618 105.067 127.254  1.00  0.00     0.058 C 
BRANCH  11  12
ATOM     12  C   UNL     1     103.426 104.130 128.121  1.00  0.00    -0.024 C 
ATOM     13  C   UNL     1     104.775 104.132 128.245  1.00  0.00    -0.077 C 
ATOM     14  C   UNL     1     105.401 103.065 129.107  1.00  0.00     0.039 C 
BRANCH  13  15
ATOM     15  C   UNL     1     105.679 105.154 127.577  1.00  0.00     0.034 C 
BRANCH  15  16
ATOM     16  C   UNL     1     106.526 105.952 128.589  1.00  0.00     0.032 CG0
ATOM     17  G   UNL     1     106.461 107.434 128.315  1.00  0.00     0.000 G0
ENDBRANCH  15  16
ENDBRANCH  13  15
ENDBRANCH  11  12
ENDBRANCH   1  11
TORSDOF 0
ENDMDL
MODEL 6
REMARK VINA RESULT:    -4.432      4.102      7.110
REMARK INTER + INTRA:          -6.275
REMARK INTER:                  -5.976
REMARK INTRA:                  -0.299
REMARK UNBOUND:                -0.029
REMARK SMILES CC1=CCC(=C(C)C)CCC(C)=CCC1
REMARK SMILES IDX 5 1 6 2 7 3 8 4 9 5 10 6 11 7 12 8 13 9 4 11 3 12 2 13 1 14
REMARK SMILES IDX 15 15 14 16
REMARK H PARENT
REMARK Flexibility Score: 60.00
ROOT
ATOM      1  C   UNL     1     102.535 106.216 128.877  1.00  0.00    -0.067 C 
ATOM      2  C   UNL     1     101.188 106.197 129.131  1.00  0.00    -0.077 C 
ATOM      3  C   UNL     1     100.424 107.463 129.460  1.00  0.00     0.039 C 
ATOM      4  C   UNL     1     100.397 104.906 129.087  1.00  0.00     0.039 C 
ENDROOT
BRANCH   1   5
ATOM      5  C   UNL     1     103.357 107.492 129.094  1.00  0.00     0.035 C 
BRANCH   5   6
ATOM      6  C   UNL     1     103.692 108.257 127.796  1.00  0.00     0.035 C 
BRANCH   6   7
ATOM      7  C   UNL     1     105.181 108.447 127.548  1.00  0.00    -0.077 C 
ATOM      8  C   UNL     1     105.946 109.407 128.425  1.00  0.00     0.039 C 
ATOM      9  C   UNL     1     105.861 107.801 126.575  1.00  0.00    -0.028 CG0
ATOM     10  G   UNL     1     105.288 106.784 125.619  1.00  0.00     0.000 G0
ENDBRANCH   6   7
ENDBRANCH   5   6
ENDBRANCH   1   5
BRANCH   1  11
ATOM     11  C   UNL     1     103.277 104.925 128.513  1.00  0.00     0.058 C 
BRANCH  11  12
ATOM     12  C   UNL     1     103.047 104.496 127.083  1.00  0.00    -0.024 C 
ATOM     13  C   UNL     1     103.888 104.719 126.045  1.00  0.00    -0.077 C 
ATOM     14  C   UNL     1     103.443 104.274 124.674  1.00  0.00     0.039 C 
BRANCH  13  15
ATOM     15  C   UNL     1     105.250 105.375 126.193  1.00  0.00     0.034 C 
BRANCH  15  16
ATOM     16  C   UNL     1     105.294 106.796 125.595  1.00  0.00     0.032 CG0
ATOM     17  G   UNL     1     105.871 107.788 126.575  1.00  0.00     0.000 G0
ENDBRANCH  15  16
ENDBRANCH  13  15
ENDBRANCH  11  12
ENDBRANCH   1  11
TORSDOF 0
ENDMDL
MODEL 7
REMARK VINA RESULT:    -4.412      4.763      7.024
REMARK INTER + INTRA:          -6.247
REMARK INTER:                  -5.941
REMARK INTRA:                  -0.306
REMARK UNBOUND:                -0.029
REMARK SMILES CC1=CCC(=C(C)C)CCC(C)=CCC1
REMARK SMILES IDX 5 1 6 2 7 3 8 4 9 5 10 6 11 7 12 8 13 9 4 11 3 12 2 13 1 14
REMARK SMILES IDX 15 15 14 16
REMARK H PARENT
REMARK Flexibility Score: 60.00
ROOT
ATOM      1  C   UNL     1     103.150 104.810 127.309  1.00  0.00    -0.067 C 
ATOM      2  C   UNL     1     101.820 104.903 127.628  1.00  0.00    -0.077 C 
ATOM      3  C   UNL     1     100.750 104.978 126.559  1.00  0.00     0.039 C 
ATOM      4  C   UNL     1     101.357 104.926 129.071  1.00  0.00     0.039 C 
ENDROOT
BRANCH   1   5
ATOM      5  C   UNL     1     103.621 104.963 125.858  1.00  0.00     0.035 C 
BRANCH   5   6
ATOM      6  C   UNL     1     104.082 103.644 125.201  1.00  0.00     0.035 C 
BRANCH   6   7
ATOM      7  C   UNL     1     105.492 103.688 124.633  1.00  0.00    -0.077 C 
ATOM      8  C   UNL     1     105.773 104.585 123.453  1.00  0.00     0.039 C 
ATOM      9  C   UNL     1     106.517 102.957 125.128  1.00  0.00    -0.028 CG0
ATOM     10  G   UNL     1     106.449 102.028 126.315  1.00  0.00     0.000 G0
ENDBRANCH   6   7
ENDBRANCH   5   6
ENDBRANCH   1   5
BRANCH   1  11
ATOM     11  C   UNL     1     104.209 104.700 128.411  1.00  0.00     0.058 C 
BRANCH  11  12
ATOM     12  C   UNL     1     104.370 103.293 128.936  1.00  0.00    -0.024 C 
ATOM     13  C   UNL     1     105.349 102.425 128.586  1.00  0.00    -0.077 C 
ATOM     14  C   UNL     1     105.295 101.035 129.168  1.00  0.00     0.039 C 
BRANCH  13  15
ATOM     15  C   UNL     1     106.496 102.782 127.655  1.00  0.00     0.034 C 
BRANCH  15  16
ATOM     16  C   UNL     1     106.442 102.011 126.321  1.00  0.00     0.032 CG0
ATOM     17  G   UNL     1     106.508 102.949 125.140  1.00  0.00     0.000 G0
ENDBRANCH  15  16
ENDBRANCH  13  15
ENDBRANCH  11  12
ENDBRANCH   1  11
TORSDOF 0
ENDMDL
MODEL 8
REMARK VINA RESULT:    -4.362      5.284      6.596
REMARK INTER + INTRA:          -6.176
REMARK INTER:                  -5.885
REMARK INTRA:                  -0.290
REMARK UNBOUND:                -0.029
REMARK SMILES CC1=CCC(=C(C)C)CCC(C)=CCC1
REMARK SMILES IDX 5 1 6 2 7 3 8 4 9 5 10 6 11 7 12 8 13 9 4 11 3 12 2 13 1 14
REMARK SMILES IDX 15 15 14 16
REMARK H PARENT
REMARK Flexibility Score: 60.00
ROOT
ATOM      1  C   UNL     1     104.639 108.920 126.976  1.00  0.00    -0.067 C 
ATOM      2  C   UNL     1     104.840 110.224 127.348  1.00  0.00    -0.077 C 
ATOM      3  C   UNL     1     104.943 111.336 126.325  1.00  0.00     0.039 C 
ATOM      4  C   UNL     1     104.962 110.616 128.807  1.00  0.00     0.039 C 
ENDROOT
BRANCH   1   5
ATOM      5  C   UNL     1     104.693 108.508 125.501  1.00  0.00     0.035 C 
BRANCH   5   6
ATOM      6  C   UNL     1     103.308 108.286 124.856  1.00  0.00     0.035 C 
BRANCH   6   7
ATOM      7  C   UNL     1     103.083 106.878 124.325  1.00  0.00    -0.077 C 
ATOM      8  C   UNL     1     103.848 106.432 123.103  1.00  0.00     0.039 C 
ATOM      9  C   UNL     1     102.226 105.998 124.889  1.00  0.00    -0.028 CG0
ATOM     10  G   UNL     1     101.397 106.239 126.126  1.00  0.00     0.000 G0
ENDBRANCH   6   7
ENDBRANCH   5   6
ENDBRANCH   1   5
BRANCH   1  11
ATOM     11  C   UNL     1     104.504 107.820 128.035  1.00  0.00     0.058 C 
BRANCH  11  12
ATOM     12  C   UNL     1     103.163 107.832 128.730  1.00  0.00    -0.024 C 
ATOM     13  C   UNL     1     102.117 107.019 128.445  1.00  0.00    -0.077 C 
ATOM     14  C   UNL     1     100.833 107.236 129.204  1.00  0.00     0.039 C 
BRANCH  13  15
ATOM     15  C   UNL     1     102.178 105.901 127.418  1.00  0.00     0.034 C 
BRANCH  15  16
ATOM     16  C   UNL     1     101.384 106.226 126.136  1.00  0.00     0.032 CG0
ATOM     17  G   UNL     1     102.224 106.014 124.900  1.00  0.00     0.000 G0
ENDBRANCH  15  16
ENDBRANCH  13  15
ENDBRANCH  11  12
ENDBRANCH   1  11
TORSDOF 0
ENDMDL
MODEL 9
REMARK VINA RESULT:    -4.354      2.470      5.138
REMARK INTER + INTRA:          -6.165
REMARK INTER:                  -5.857
REMARK INTRA:                  -0.308
REMARK UNBOUND:                -0.029
REMARK SMILES CC1=CCC(=C(C)C)CCC(C)=CCC1
REMARK SMILES IDX 5 1 6 2 7 3 8 4 9 5 10 6 11 7 12 8 13 9 4 11 3 12 2 13 1 14
REMARK SMILES IDX 15 15 14 16
REMARK H PARENT
REMARK Flexibility Score: 60.00
ROOT
ATOM      1  C   UNL     1     106.202 109.943 128.863  1.00  0.00    -0.067 C 
ATOM      2  C   UNL     1     106.179 111.267 129.218  1.00  0.00    -0.077 C 
ATOM      3  C   UNL     1     107.448 112.023 129.552  1.00  0.00     0.039 C 
ATOM      4  C   UNL     1     104.878 112.041 129.284  1.00  0.00     0.039 C 
ENDROOT
BRANCH   1   5
ATOM      5  C   UNL     1     107.495 109.125 128.968  1.00  0.00     0.035 C 
BRANCH   5   6
ATOM      6  C   UNL     1     108.162 108.821 127.609  1.00  0.00     0.035 C 
BRANCH   6   7
ATOM      7  C   UNL     1     108.498 107.353 127.391  1.00  0.00    -0.077 C 
ATOM      8  C   UNL     1     109.569 106.719 128.244  1.00  0.00     0.039 C 
ATOM      9  C   UNL     1     107.887 106.580 126.466  1.00  0.00    -0.028 CG0
ATOM     10  G   UNL     1     106.776 107.015 125.542  1.00  0.00     0.000 G0
ENDBRANCH   6   7
ENDBRANCH   5   6
ENDBRANCH   1   5
BRANCH   1  11
ATOM     11  C   UNL     1     104.906 109.212 128.496  1.00  0.00     0.058 C 
BRANCH  11  12
ATOM     12  C   UNL     1     104.519 109.388 127.047  1.00  0.00    -0.024 C 
ATOM     13  C   UNL     1     104.770 108.509 126.048  1.00  0.00    -0.077 C 
ATOM     14  C   UNL     1     104.367 108.902 124.649  1.00  0.00     0.039 C 
BRANCH  13  15
ATOM     15  C   UNL     1     105.419 107.152 126.266  1.00  0.00     0.034 C 
BRANCH  15  16
ATOM     16  C   UNL     1     106.765 107.010 125.527  1.00  0.00     0.032 CG0
ATOM     17  G   UNL     1     107.866 106.582 126.465  1.00  0.00     0.000 G0
ENDBRANCH  15  16
ENDBRANCH  13  15
ENDBRANCH  11  12
ENDBRANCH   1  11
TORSDOF 0
ENDMDL
