MODEL 1
REMARK VINA RESULT:    -4.142      0.000      0.000
REMARK INTER + INTRA:          -5.450
REMARK INTER:                  -4.747
REMARK INTRA:                  -0.703
REMARK UNBOUND:                -0.703
REMARK SMILES C=C(C)[C@@H]1CC[C@]2(C(=O)[O-])CC[C@@]3(C)[C@H](CC[C@@H]4[C@]5(C)CC[C@@H](O)C(C)(C)[C@H]5CC[C@@]43C)[C@H]12
REMARK SMILES IDX 7 1 6 2 33 3 11 4 5 5 15 6 4 7 12 8 16 9 13 10 17 11 31 12
REMARK SMILES IDX 14 13 18 14 30 15 32 16 19 17 29 18 21 19 20 20 28 21 22 22
REMARK SMILES IDX 25 23 23 24 26 25 27 26 8 27 9 28 10 29 2 30 3 31 1 32 24 33
REMARK H PARENT 24 34
REMARK Flexibility Score: inf
ROOT
ATOM      1  C   UNL     1    -130.796  39.516  17.529  1.00  0.00     0.014 C 
ATOM      2  C   UNL     1    -130.548  41.041  17.548  1.00  0.00     0.014 C 
ATOM      3  C   UNL     1    -130.192  39.062  16.165  1.00  0.00     0.012 C 
ATOM      4  C   UNL     1    -130.212  38.799  18.780  1.00  0.00     0.014 C 
ATOM      5  C   UNL     1    -130.461  41.498  16.086  1.00  0.00     0.009 C 
ATOM      6  C   UNL     1    -128.660  38.666  16.207  1.00  0.00     0.000 C 
ATOM      7  C   UNL     1    -130.574  40.229  15.218  1.00  0.00     0.018 C 
ATOM      8  C   UNL     1    -128.744  38.347  18.705  1.00  0.00     0.008 C 
ATOM      9  C   UNL     1    -127.702  39.866  16.241  1.00  0.00     0.005 C 
ATOM     10  C   UNL     1    -128.329  37.657  17.361  1.00  0.00    -0.024 C 
ATOM     11  C   UNL     1    -126.263  39.433  16.079  1.00  0.00     0.005 C 
ATOM     12  C   UNL     1    -126.750  37.232  17.380  1.00  0.00    -0.024 C 
ATOM     13  C   UNL     1    -129.228  36.384  17.154  1.00  0.00     0.012 C 
ATOM     14  C   UNL     1    -125.765  38.483  17.202  1.00  0.00     0.002 C 
ATOM     15  C   UNL     1    -126.445  36.209  16.235  1.00  0.00     0.008 C 
ATOM     16  C   UNL     1    -126.465  36.519  18.748  1.00  0.00     0.012 C 
ATOM     17  C   UNL     1    -124.205  38.108  17.007  1.00  0.00    -0.026 C 
ATOM     18  C   UNL     1    -124.966  35.819  16.074  1.00  0.00     0.005 C 
ATOM     19  C   UNL     1    -123.358  39.362  16.590  1.00  0.00     0.010 C 
ATOM     20  C   UNL     1    -123.630  37.613  18.379  1.00  0.00     0.012 C 
ATOM     21  C   UNL     1    -124.059  37.049  15.849  1.00  0.00     0.003 C 
ATOM     22  C   UNL     1    -121.895  39.051  16.235  1.00  0.00     0.033 C 
ATOM     23  C   UNL     1    -122.574  36.700  15.404  1.00  0.00    -0.006 C 
ATOM     24  C   UNL     1    -121.805  38.026  15.095  1.00  0.00     0.120 C 
ATOM     25  C   UNL     1    -122.606  35.880  14.083  1.00  0.00     0.014 C 
ATOM     26  C   UNL     1    -121.796  35.848  16.442  1.00  0.00     0.014 C 
ENDROOT
BRANCH   1  27
ATOM     27  C   UNL     1    -132.311  39.283  17.563  1.00  0.00     0.048 C 
ATOM     28  O   UNL     1    -133.060  40.100  18.165  1.00  0.00    -0.550 OA
ATOM     29  O   UNL     1    -132.885  38.141  17.011  1.00  0.00    -0.550 OA
ENDBRANCH   1  27
BRANCH   7  30
ATOM     30  C   UNL     1    -129.900  40.247  13.843  1.00  0.00    -0.077 C 
ATOM     31  C   UNL     1    -130.059  39.070  12.912  1.00  0.00     0.039 C 
ATOM     32  C   UNL     1    -129.319  41.354  13.346  1.00  0.00     0.008 C 
ENDBRANCH   7  30
BRANCH  24  33
ATOM     33  O   UNL     1    -120.452  37.759  14.818  1.00  0.00    -0.393 OA
ATOM     34  H   UNL     1    -120.431  37.051  14.122  1.00  0.00     0.210 HD
ENDBRANCH  24  33
TORSDOF 3
ENDMDL
MODEL 2
REMARK VINA RESULT:    -3.971      2.026      2.549
REMARK INTER + INTRA:          -5.255
REMARK INTER:                  -4.546
REMARK INTRA:                  -0.709
REMARK UNBOUND:                -0.703
REMARK SMILES C=C(C)[C@@H]1CC[C@]2(C(=O)[O-])CC[C@@]3(C)[C@H](CC[C@@H]4[C@]5(C)CC[C@@H](O)C(C)(C)[C@H]5CC[C@@]43C)[C@H]12
REMARK SMILES IDX 7 1 6 2 33 3 11 4 5 5 15 6 4 7 12 8 16 9 13 10 17 11 31 12
REMARK SMILES IDX 14 13 18 14 30 15 32 16 19 17 29 18 21 19 20 20 28 21 22 22
REMARK SMILES IDX 25 23 23 24 26 25 27 26 8 27 9 28 10 29 2 30 3 31 1 32 24 33
REMARK H PARENT 24 34
REMARK Flexibility Score: inf
ROOT
ATOM      1  C   UNL     1    -130.333  37.992  18.491  1.00  0.00     0.014 C 
ATOM      2  C   UNL     1    -130.592  39.422  19.018  1.00  0.00     0.014 C 
ATOM      3  C   UNL     1    -130.229  38.183  16.946  1.00  0.00     0.012 C 
ATOM      4  C   UNL     1    -129.096  37.325  19.157  1.00  0.00     0.014 C 
ATOM      5  C   UNL     1    -131.258  40.204  17.878  1.00  0.00     0.009 C 
ATOM      6  C   UNL     1    -128.775  38.491  16.403  1.00  0.00     0.000 C 
ATOM      7  C   UNL     1    -131.311  39.258  16.663  1.00  0.00     0.018 C 
ATOM      8  C   UNL     1    -127.727  37.585  18.507  1.00  0.00     0.008 C 
ATOM      9  C   UNL     1    -128.317  39.942  16.621  1.00  0.00     0.005 C 
ATOM     10  C   UNL     1    -127.702  37.483  16.943  1.00  0.00    -0.024 C 
ATOM     11  C   UNL     1    -127.014  40.225  15.910  1.00  0.00     0.005 C 
ATOM     12  C   UNL     1    -126.208  37.791  16.356  1.00  0.00    -0.024 C 
ATOM     13  C   UNL     1    -128.157  36.036  16.529  1.00  0.00     0.012 C 
ATOM     14  C   UNL     1    -125.830  39.348  16.399  1.00  0.00     0.002 C 
ATOM     15  C   UNL     1    -126.093  37.305  14.873  1.00  0.00     0.008 C 
ATOM     16  C   UNL     1    -125.181  36.970  17.211  1.00  0.00     0.012 C 
ATOM     17  C   UNL     1    -124.455  39.742  15.647  1.00  0.00    -0.026 C 
ATOM     18  C   UNL     1    -124.769  37.645  14.167  1.00  0.00     0.005 C 
ATOM     19  C   UNL     1    -124.294  41.299  15.518  1.00  0.00     0.010 C 
ATOM     20  C   UNL     1    -123.247  39.235  16.506  1.00  0.00     0.012 C 
ATOM     21  C   UNL     1    -124.470  39.159  14.182  1.00  0.00     0.003 C 
ATOM     22  C   UNL     1    -123.088  41.745  14.677  1.00  0.00     0.033 C 
ATOM     23  C   UNL     1    -123.269  39.604  13.240  1.00  0.00    -0.006 C 
ATOM     24  C   UNL     1    -123.154  41.163  13.257  1.00  0.00     0.120 C 
ATOM     25  C   UNL     1    -123.578  39.191  11.773  1.00  0.00     0.014 C 
ATOM     26  C   UNL     1    -121.910  38.953  13.614  1.00  0.00     0.014 C 
ENDROOT
BRANCH   1  27
ATOM     27  C   UNL     1    -131.544  37.127  18.857  1.00  0.00     0.048 C 
ATOM     28  O   UNL     1    -131.788  36.077  18.203  1.00  0.00    -0.550 OA
ATOM     29  O   UNL     1    -132.439  37.511  19.851  1.00  0.00    -0.550 OA
ENDBRANCH   1  27
BRANCH   7  30
ATOM     30  C   UNL     1    -131.301  39.892  15.268  1.00  0.00    -0.077 C 
ATOM     31  C   UNL     1    -131.448  39.021  14.045  1.00  0.00     0.039 C 
ATOM     32  C   UNL     1    -131.352  41.224  15.088  1.00  0.00     0.008 C 
ENDBRANCH   7  30
BRANCH  24  33
ATOM     33  O   UNL     1    -122.024  41.582  12.532  1.00  0.00    -0.393 OA
ATOM     34  H   UNL     1    -121.466  40.777  12.371  1.00  0.00     0.210 HD
ENDBRANCH  24  33
TORSDOF 3
ENDMDL
MODEL 3
REMARK VINA RESULT:    -3.929     10.265     14.649
REMARK INTER + INTRA:          -5.206
REMARK INTER:                  -4.500
REMARK INTRA:                  -0.706
REMARK UNBOUND:                -0.703
REMARK SMILES C=C(C)[C@@H]1CC[C@]2(C(=O)[O-])CC[C@@]3(C)[C@H](CC[C@@H]4[C@]5(C)CC[C@@H](O)C(C)(C)[C@H]5CC[C@@]43C)[C@H]12
REMARK SMILES IDX 7 1 6 2 33 3 11 4 5 5 15 6 4 7 12 8 16 9 13 10 17 11 31 12
REMARK SMILES IDX 14 13 18 14 30 15 32 16 19 17 29 18 21 19 20 20 28 21 22 22
REMARK SMILES IDX 25 23 23 24 26 25 27 26 8 27 9 28 10 29 2 30 3 31 1 32 24 33
REMARK H PARENT 24 34
REMARK Flexibility Score: inf
ROOT
ATOM      1  C   UNL     1    -120.222  38.484   2.180  1.00  0.00     0.014 C 
ATOM      2  C   UNL     1    -120.194  39.883   1.523  1.00  0.00     0.014 C 
ATOM      3  C   UNL     1    -120.339  38.796   3.704  1.00  0.00     0.012 C 
ATOM      4  C   UNL     1    -121.347  37.576   1.604  1.00  0.00     0.014 C 
ATOM      5  C   UNL     1    -119.646  40.858   2.574  1.00  0.00     0.009 C 
ATOM      6  C   UNL     1    -121.818  38.924   4.252  1.00  0.00     0.000 C 
ATOM      7  C   UNL     1    -119.435  40.045   3.866  1.00  0.00     0.018 C 
ATOM      8  C   UNL     1    -122.733  37.680   2.262  1.00  0.00     0.008 C 
ATOM      9  C   UNL     1    -122.498  40.261   3.919  1.00  0.00     0.005 C 
ATOM     10  C   UNL     1    -122.726  37.717   3.828  1.00  0.00    -0.024 C 
ATOM     11  C   UNL     1    -123.822  40.403   4.633  1.00  0.00     0.005 C 
ATOM     12  C   UNL     1    -124.244  37.844   4.422  1.00  0.00    -0.024 C 
ATOM     13  C   UNL     1    -122.047  36.401   4.357  1.00  0.00     0.012 C 
ATOM     14  C   UNL     1    -124.860  39.313   4.251  1.00  0.00     0.002 C 
ATOM     15  C   UNL     1    -124.268  37.482   5.944  1.00  0.00     0.008 C 
ATOM     16  C   UNL     1    -125.139  36.800   3.667  1.00  0.00     0.012 C 
ATOM     17  C   UNL     1    -126.272  39.557   4.998  1.00  0.00    -0.026 C 
ATOM     18  C   UNL     1    -125.621  37.676   6.648  1.00  0.00     0.005 C 
ATOM     19  C   UNL     1    -126.672  41.076   4.993  1.00  0.00     0.010 C 
ATOM     20  C   UNL     1    -127.395  38.794   4.215  1.00  0.00     0.012 C 
ATOM     21  C   UNL     1    -126.152  39.119   6.508  1.00  0.00     0.003 C 
ATOM     22  C   UNL     1    -127.924  41.405   5.821  1.00  0.00     0.033 C 
ATOM     23  C   UNL     1    -127.398  39.456   7.435  1.00  0.00    -0.006 C 
ATOM     24  C   UNL     1    -127.755  40.971   7.285  1.00  0.00     0.120 C 
ATOM     25  C   UNL     1    -127.014  39.230   8.925  1.00  0.00     0.014 C 
ATOM     26  C   UNL     1    -128.643  38.573   7.152  1.00  0.00     0.014 C 
ENDROOT
BRANCH   1  27
ATOM     27  C   UNL     1    -118.895  37.786   1.862  1.00  0.00     0.048 C 
ATOM     28  O   UNL     1    -118.485  36.847   2.598  1.00  0.00    -0.550 OA
ATOM     29  O   UNL     1    -118.078  38.215   0.820  1.00  0.00    -0.550 OA
ENDBRANCH   1  27
BRANCH   7  30
ATOM     30  C   UNL     1    -119.530  40.793   5.199  1.00  0.00    -0.077 C 
ATOM     31  C   UNL     1    -119.189  40.083   6.486  1.00  0.00     0.039 C 
ATOM     32  C   UNL     1    -119.728  42.123   5.261  1.00  0.00     0.008 C 
ENDBRANCH   7  30
BRANCH  24  33
ATOM     33  O   UNL     1    -128.929  41.275   7.997  1.00  0.00    -0.393 OA
ATOM     34  H   UNL     1    -129.678  41.255   7.346  1.00  0.00     0.210 HD
ENDBRANCH  24  33
TORSDOF 3
ENDMDL
MODEL 4
REMARK VINA RESULT:    -3.912      1.959      8.196
REMARK INTER + INTRA:          -5.187
REMARK INTER:                  -4.479
REMARK INTRA:                  -0.708
REMARK UNBOUND:                -0.703
REMARK SMILES C=C(C)[C@@H]1CC[C@]2(C(=O)[O-])CC[C@@]3(C)[C@H](CC[C@@H]4[C@]5(C)CC[C@@H](O)C(C)(C)[C@H]5CC[C@@]43C)[C@H]12
REMARK SMILES IDX 7 1 6 2 33 3 11 4 5 5 15 6 4 7 12 8 16 9 13 10 17 11 31 12
REMARK SMILES IDX 14 13 18 14 30 15 32 16 19 17 29 18 21 19 20 20 28 21 22 22
REMARK SMILES IDX 25 23 23 24 26 25 27 26 8 27 9 28 10 29 2 30 3 31 1 32 24 33
REMARK H PARENT 24 34
REMARK Flexibility Score: inf
ROOT
ATOM      1  C   UNL     1    -123.122  39.955  13.960  1.00  0.00     0.014 C 
ATOM      2  C   UNL     1    -122.658  40.661  15.254  1.00  0.00     0.014 C 
ATOM      3  C   UNL     1    -123.952  38.742  14.480  1.00  0.00     0.012 C 
ATOM      4  C   UNL     1    -123.883  40.912  12.998  1.00  0.00     0.014 C 
ATOM      5  C   UNL     1    -122.625  39.594  16.357  1.00  0.00     0.009 C 
ATOM      6  C   UNL     1    -125.493  39.028  14.704  1.00  0.00     0.000 C 
ATOM      7  C   UNL     1    -123.149  38.288  15.726  1.00  0.00     0.018 C 
ATOM      8  C   UNL     1    -125.399  41.055  13.211  1.00  0.00     0.008 C 
ATOM      9  C   UNL     1    -125.806  39.805  15.992  1.00  0.00     0.005 C 
ATOM     10  C   UNL     1    -126.166  39.712  13.464  1.00  0.00    -0.024 C 
ATOM     11  C   UNL     1    -127.294  39.873  16.250  1.00  0.00     0.005 C 
ATOM     12  C   UNL     1    -127.763  39.980  13.693  1.00  0.00    -0.024 C 
ATOM     13  C   UNL     1    -125.949  38.771  12.223  1.00  0.00     0.012 C 
ATOM     14  C   UNL     1    -128.091  40.600  15.133  1.00  0.00     0.002 C 
ATOM     15  C   UNL     1    -128.567  38.646  13.544  1.00  0.00     0.008 C 
ATOM     16  C   UNL     1    -128.248  40.960  12.568  1.00  0.00     0.012 C 
ATOM     17  C   UNL     1    -129.662  40.695  15.499  1.00  0.00    -0.026 C 
ATOM     18  C   UNL     1    -130.071  38.743  13.853  1.00  0.00     0.005 C 
ATOM     19  C   UNL     1    -129.882  41.070  17.008  1.00  0.00     0.010 C 
ATOM     20  C   UNL     1    -130.308  41.845  14.651  1.00  0.00     0.012 C 
ATOM     21  C   UNL     1    -130.343  39.291  15.271  1.00  0.00     0.003 C 
ATOM     22  C   UNL     1    -131.348  41.026  17.466  1.00  0.00     0.033 C 
ATOM     23  C   UNL     1    -131.852  39.159  15.751  1.00  0.00    -0.006 C 
ATOM     24  C   UNL     1    -131.963  39.637  17.235  1.00  0.00     0.120 C 
ATOM     25  C   UNL     1    -132.277  37.664  15.726  1.00  0.00     0.014 C 
ATOM     26  C   UNL     1    -132.860  39.928  14.855  1.00  0.00     0.014 C 
ENDROOT
BRANCH   1  27
ATOM     27  C   UNL     1    -121.874  39.483  13.205  1.00  0.00     0.048 C 
ATOM     28  O   UNL     1    -121.959  38.534  12.379  1.00  0.00    -0.550 OA
ATOM     29  O   UNL     1    -120.618  40.024  13.466  1.00  0.00    -0.550 OA
ENDBRANCH   1  27
BRANCH   7  30
ATOM     30  C   UNL     1    -123.831  37.277  16.653  1.00  0.00    -0.077 C 
ATOM     31  C   UNL     1    -124.264  35.936  16.112  1.00  0.00     0.039 C 
ATOM     32  C   UNL     1    -123.897  37.457  17.984  1.00  0.00     0.008 C 
ENDBRANCH   7  30
BRANCH  24  33
ATOM     33  O   UNL     1    -133.306  39.650  17.651  1.00  0.00    -0.393 OA
ATOM     34  H   UNL     1    -133.753  38.879  17.214  1.00  0.00     0.210 HD
ENDBRANCH  24  33
TORSDOF 3
ENDMDL
MODEL 5
REMARK VINA RESULT:    -3.877      1.774      7.877
REMARK INTER + INTRA:          -5.147
REMARK INTER:                  -4.443
REMARK INTRA:                  -0.704
REMARK UNBOUND:                -0.703
REMARK SMILES C=C(C)[C@@H]1CC[C@]2(C(=O)[O-])CC[C@@]3(C)[C@H](CC[C@@H]4[C@]5(C)CC[C@@H](O)C(C)(C)[C@H]5CC[C@@]43C)[C@H]12
REMARK SMILES IDX 7 1 6 2 33 3 11 4 5 5 15 6 4 7 12 8 16 9 13 10 17 11 31 12
REMARK SMILES IDX 14 13 18 14 30 15 32 16 19 17 29 18 21 19 20 20 28 21 22 22
REMARK SMILES IDX 25 23 23 24 26 25 27 26 8 27 9 28 10 29 2 30 3 31 1 32 24 33
REMARK H PARENT 24 34
REMARK Flexibility Score: inf
ROOT
ATOM      1  C   UNL     1    -123.315  39.777  14.616  1.00  0.00     0.014 C 
ATOM      2  C   UNL     1    -122.636  39.859  16.002  1.00  0.00     0.014 C 
ATOM      3  C   UNL     1    -124.099  38.430  14.669  1.00  0.00     0.012 C 
ATOM      4  C   UNL     1    -124.178  41.031  14.298  1.00  0.00     0.014 C 
ATOM      5  C   UNL     1    -122.475  38.418  16.506  1.00  0.00     0.009 C 
ATOM      6  C   UNL     1    -125.577  38.535  15.225  1.00  0.00     0.000 C 
ATOM      7  C   UNL     1    -123.134  37.504  15.453  1.00  0.00     0.018 C 
ATOM      8  C   UNL     1    -125.638  41.013  14.778  1.00  0.00     0.008 C 
ATOM      9  C   UNL     1    -125.665  38.656  16.754  1.00  0.00     0.005 C 
ATOM     10  C   UNL     1    -126.405  39.669  14.529  1.00  0.00    -0.024 C 
ATOM     11  C   UNL     1    -127.093  38.551  17.237  1.00  0.00     0.005 C 
ATOM     12  C   UNL     1    -127.939  39.753  15.089  1.00  0.00    -0.024 C 
ATOM     13  C   UNL     1    -126.411  39.376  12.984  1.00  0.00     0.012 C 
ATOM     14  C   UNL     1    -128.024  39.666  16.687  1.00  0.00     0.002 C 
ATOM     15  C   UNL     1    -128.803  38.592  14.494  1.00  0.00     0.008 C 
ATOM     16  C   UNL     1    -128.553  41.109  14.596  1.00  0.00     0.012 C 
ATOM     17  C   UNL     1    -129.518  39.536  17.290  1.00  0.00    -0.026 C 
ATOM     18  C   UNL     1    -130.238  38.491  15.037  1.00  0.00     0.005 C 
ATOM     19  C   UNL     1    -129.494  39.203  18.824  1.00  0.00     0.010 C 
ATOM     20  C   UNL     1    -130.243  40.918  17.141  1.00  0.00     0.012 C 
ATOM     21  C   UNL     1    -130.274  38.352  16.574  1.00  0.00     0.003 C 
ATOM     22  C   UNL     1    -130.876  38.911  19.431  1.00  0.00     0.033 C 
ATOM     23  C   UNL     1    -131.697  37.970  17.169  1.00  0.00    -0.006 C 
ATOM     24  C   UNL     1    -131.566  37.744  18.710  1.00  0.00     0.120 C 
ATOM     25  C   UNL     1    -132.173  36.622  16.555  1.00  0.00     0.014 C 
ATOM     26  C   UNL     1    -132.802  39.017  16.864  1.00  0.00     0.014 C 
ENDROOT
BRANCH   1  27
ATOM     27  C   UNL     1    -122.211  39.728  13.552  1.00  0.00     0.048 C 
ATOM     28  O   UNL     1    -121.111  40.308  13.760  1.00  0.00    -0.550 OA
ATOM     29  O   UNL     1    -122.419  39.123  12.316  1.00  0.00    -0.550 OA
ENDBRANCH   1  27
BRANCH   7  30
ATOM     30  C   UNL     1    -123.703  36.165  15.933  1.00  0.00    -0.077 C 
ATOM     31  C   UNL     1    -124.272  35.189  14.933  1.00  0.00     0.039 C 
ATOM     32  C   UNL     1    -123.550  35.735  17.198  1.00  0.00     0.008 C 
ENDBRANCH   7  30
BRANCH  24  33
ATOM     33  O   UNL     1    -132.830  37.525  19.287  1.00  0.00    -0.393 OA
ATOM     34  H   UNL     1    -133.009  38.290  19.894  1.00  0.00     0.210 HD
ENDBRANCH  24  33
TORSDOF 3
ENDMDL
MODEL 6
REMARK VINA RESULT:    -3.837      1.469      8.026
REMARK INTER + INTRA:          -5.101
REMARK INTER:                  -4.397
REMARK INTRA:                  -0.704
REMARK UNBOUND:                -0.703
REMARK SMILES C=C(C)[C@@H]1CC[C@]2(C(=O)[O-])CC[C@@]3(C)[C@H](CC[C@@H]4[C@]5(C)CC[C@@H](O)C(C)(C)[C@H]5CC[C@@]43C)[C@H]12
REMARK SMILES IDX 7 1 6 2 33 3 11 4 5 5 15 6 4 7 12 8 16 9 13 10 17 11 31 12
REMARK SMILES IDX 14 13 18 14 30 15 32 16 19 17 29 18 21 19 20 20 28 21 22 22
REMARK SMILES IDX 25 23 23 24 26 25 27 26 8 27 9 28 10 29 2 30 3 31 1 32 24 33
REMARK H PARENT 24 34
REMARK Flexibility Score: inf
ROOT
ATOM      1  C   UNL     1    -123.732  38.325  16.300  1.00  0.00     0.014 C 
ATOM      2  C   UNL     1    -123.521  38.378  17.830  1.00  0.00     0.014 C 
ATOM      3  C   UNL     1    -124.857  37.261  16.120  1.00  0.00     0.012 C 
ATOM      4  C   UNL     1    -124.042  39.722  15.691  1.00  0.00     0.014 C 
ATOM      5  C   UNL     1    -123.959  37.017  18.389  1.00  0.00     0.009 C 
ATOM      6  C   UNL     1    -126.334  37.831  16.158  1.00  0.00     0.000 C 
ATOM      7  C   UNL     1    -124.502  36.203  17.197  1.00  0.00     0.018 C 
ATOM      8  C   UNL     1    -125.515  40.162  15.665  1.00  0.00     0.008 C 
ATOM      9  C   UNL     1    -126.848  38.148  17.570  1.00  0.00     0.005 C 
ATOM     10  C   UNL     1    -126.531  39.060  15.204  1.00  0.00    -0.024 C 
ATOM     11  C   UNL     1    -128.319  38.496  17.559  1.00  0.00     0.005 C 
ATOM     12  C   UNL     1    -128.064  39.626  15.228  1.00  0.00    -0.024 C 
ATOM     13  C   UNL     1    -126.146  38.602  13.750  1.00  0.00     0.012 C 
ATOM     14  C   UNL     1    -128.659  39.752  16.711  1.00  0.00     0.002 C 
ATOM     15  C   UNL     1    -129.007  38.685  14.406  1.00  0.00     0.008 C 
ATOM     16  C   UNL     1    -128.065  41.032  14.533  1.00  0.00     0.012 C 
ATOM     17  C   UNL     1    -130.234  40.107  16.791  1.00  0.00    -0.026 C 
ATOM     18  C   UNL     1    -130.501  39.045  14.449  1.00  0.00     0.005 C 
ATOM     19  C   UNL     1    -130.784  39.961  18.255  1.00  0.00     0.010 C 
ATOM     20  C   UNL     1    -130.433  41.608  16.384  1.00  0.00     0.012 C 
ATOM     21  C   UNL     1    -131.048  39.101  15.891  1.00  0.00     0.003 C 
ATOM     22  C   UNL     1    -132.306  40.131  18.381  1.00  0.00     0.033 C 
ATOM     23  C   UNL     1    -132.632  39.196  15.993  1.00  0.00    -0.006 C 
ATOM     24  C   UNL     1    -133.055  39.123  17.497  1.00  0.00     0.120 C 
ATOM     25  C   UNL     1    -133.273  37.969  15.285  1.00  0.00     0.014 C 
ATOM     26  C   UNL     1    -133.225  40.463  15.322  1.00  0.00     0.014 C 
ENDROOT
BRANCH   1  27
ATOM     27  C   UNL     1    -122.422  37.852  15.659  1.00  0.00     0.048 C 
ATOM     28  O   UNL     1    -121.321  38.097  16.224  1.00  0.00    -0.550 OA
ATOM     29  O   UNL     1    -122.404  37.223  14.418  1.00  0.00    -0.550 OA
ENDBRANCH   1  27
BRANCH   7  30
ATOM     30  C   UNL     1    -125.562  35.137  17.490  1.00  0.00    -0.077 C 
ATOM     31  C   UNL     1    -126.048  34.236  16.381  1.00  0.00     0.039 C 
ATOM     32  C   UNL     1    -125.950  34.839  18.743  1.00  0.00     0.008 C 
ENDBRANCH   7  30
BRANCH  24  33
ATOM     33  O   UNL     1    -134.440  39.328  17.630  1.00  0.00    -0.393 OA
ATOM     34  H   UNL     1    -134.737  38.802  18.418  1.00  0.00     0.210 HD
ENDBRANCH  24  33
TORSDOF 3
ENDMDL
MODEL 7
REMARK VINA RESULT:    -3.738      9.763     12.023
REMARK INTER + INTRA:          -4.987
REMARK INTER:                  -4.284
REMARK INTRA:                  -0.704
REMARK UNBOUND:                -0.703
REMARK SMILES C=C(C)[C@@H]1CC[C@]2(C(=O)[O-])CC[C@@]3(C)[C@H](CC[C@@H]4[C@]5(C)CC[C@@H](O)C(C)(C)[C@H]5CC[C@@]43C)[C@H]12
REMARK SMILES IDX 7 1 6 2 33 3 11 4 5 5 15 6 4 7 12 8 16 9 13 10 17 11 31 12
REMARK SMILES IDX 14 13 18 14 30 15 32 16 19 17 29 18 21 19 20 20 28 21 22 22
REMARK SMILES IDX 25 23 23 24 26 25 27 26 8 27 9 28 10 29 2 30 3 31 1 32 24 33
REMARK H PARENT 24 34
REMARK Flexibility Score: inf
ROOT
ATOM      1  C   UNL     1    -127.123  40.089   6.703  1.00  0.00     0.014 C 
ATOM      2  C   UNL     1    -127.736  40.634   5.393  1.00  0.00     0.014 C 
ATOM      3  C   UNL     1    -126.310  38.842   6.238  1.00  0.00     0.012 C 
ATOM      4  C   UNL     1    -126.301  41.163   7.471  1.00  0.00     0.014 C 
ATOM      5  C   UNL     1    -127.844  39.450   4.424  1.00  0.00     0.009 C 
ATOM      6  C   UNL     1    -124.809  39.133   5.828  1.00  0.00     0.000 C 
ATOM      7  C   UNL     1    -127.218  38.235   5.137  1.00  0.00     0.018 C 
ATOM      8  C   UNL     1    -124.819  41.313   7.090  1.00  0.00     0.008 C 
ATOM      9  C   UNL     1    -124.650  39.766   4.437  1.00  0.00     0.005 C 
ATOM     10  C   UNL     1    -124.038  39.966   6.910  1.00  0.00    -0.024 C 
ATOM     11  C   UNL     1    -123.199  39.835   4.022  1.00  0.00     0.005 C 
ATOM     12  C   UNL     1    -122.482  40.238   6.491  1.00  0.00    -0.024 C 
ATOM     13  C   UNL     1    -124.102  39.166   8.262  1.00  0.00     0.012 C 
ATOM     14  C   UNL     1    -122.318  40.699   4.965  1.00  0.00     0.002 C 
ATOM     15  C   UNL     1    -121.624  38.946   6.702  1.00  0.00     0.008 C 
ATOM     16  C   UNL     1    -121.919  41.348   7.445  1.00  0.00     0.012 C 
ATOM     17  C   UNL     1    -120.794  40.784   4.433  1.00  0.00    -0.026 C 
ATOM     18  C   UNL     1    -120.163  39.039   6.233  1.00  0.00     0.005 C 
ATOM     19  C   UNL     1    -120.737  40.991   2.877  1.00  0.00     0.010 C 
ATOM     20  C   UNL     1    -120.105  42.035   5.078  1.00  0.00     0.012 C 
ATOM     21  C   UNL     1    -120.051  39.429   4.743  1.00  0.00     0.003 C 
ATOM     22  C   UNL     1    -119.323  40.926   2.279  1.00  0.00     0.033 C 
ATOM     23  C   UNL     1    -118.593  39.275   4.129  1.00  0.00    -0.006 C 
ATOM     24  C   UNL     1    -118.645  39.585   2.598  1.00  0.00     0.120 C 
ATOM     25  C   UNL     1    -118.121  37.801   4.275  1.00  0.00     0.014 C 
ATOM     26  C   UNL     1    -117.525  40.160   4.827  1.00  0.00     0.014 C 
ENDROOT
BRANCH   1  27
ATOM     27  C   UNL     1    -128.275  39.680   7.628  1.00  0.00     0.048 C 
ATOM     28  O   UNL     1    -129.376  40.292   7.571  1.00  0.00    -0.550 OA
ATOM     29  O   UNL     1    -128.115  38.694   8.598  1.00  0.00    -0.550 OA
ENDBRANCH   1  27
BRANCH   7  30
ATOM     30  C   UNL     1    -126.600  37.139   4.263  1.00  0.00    -0.077 C 
ATOM     31  C   UNL     1    -126.067  35.880   4.901  1.00  0.00     0.039 C 
ATOM     32  C   UNL     1    -126.678  37.166   2.920  1.00  0.00     0.008 C 
ENDBRANCH   7  30
BRANCH  24  33
ATOM     33  O   UNL     1    -117.351  39.578   2.048  1.00  0.00    -0.393 OA
ATOM     34  H   UNL     1    -116.760  40.052   2.688  1.00  0.00     0.210 HD
ENDBRANCH  24  33
TORSDOF 3
ENDMDL
MODEL 8
REMARK VINA RESULT:    -3.685      1.879      2.449
REMARK INTER + INTRA:          -4.927
REMARK INTER:                  -4.375
REMARK INTRA:                  -0.551
REMARK UNBOUND:                -0.703
REMARK SMILES C=C(C)[C@@H]1CC[C@]2(C(=O)[O-])CC[C@@]3(C)[C@H](CC[C@@H]4[C@]5(C)CC[C@@H](O)C(C)(C)[C@H]5CC[C@@]43C)[C@H]12
REMARK SMILES IDX 7 1 6 2 33 3 11 4 5 5 15 6 4 7 12 8 16 9 13 10 17 11 31 12
REMARK SMILES IDX 14 13 18 14 30 15 32 16 19 17 29 18 21 19 20 20 28 21 22 22
REMARK SMILES IDX 25 23 23 24 26 25 27 26 8 27 9 28 10 29 2 30 3 31 1 32 24 33
REMARK H PARENT 24 34
REMARK Flexibility Score: inf
ROOT
ATOM      1  C   UNL     1    -132.074  40.137  17.893  1.00  0.00     0.014 C 
ATOM      2  C   UNL     1    -132.012  41.681  17.872  1.00  0.00     0.014 C 
ATOM      3  C   UNL     1    -131.811  39.738  16.409  1.00  0.00     0.012 C 
ATOM      4  C   UNL     1    -131.095  39.513  18.928  1.00  0.00     0.014 C 
ATOM      5  C   UNL     1    -132.376  42.124  16.449  1.00  0.00     0.009 C 
ATOM      6  C   UNL     1    -130.288  39.526  16.030  1.00  0.00     0.000 C 
ATOM      7  C   UNL     1    -132.568  40.837  15.621  1.00  0.00     0.018 C 
ATOM      8  C   UNL     1    -129.659  39.237  18.452  1.00  0.00     0.008 C 
ATOM      9  C   UNL     1    -129.505  40.832  15.827  1.00  0.00     0.005 C 
ATOM     10  C   UNL     1    -129.542  38.580  17.034  1.00  0.00    -0.024 C 
ATOM     11  C   UNL     1    -128.122  40.569  15.276  1.00  0.00     0.005 C 
ATOM     12  C   UNL     1    -127.978  38.345  16.621  1.00  0.00    -0.024 C 
ATOM     13  C   UNL     1    -130.308  37.207  17.054  1.00  0.00     0.012 C 
ATOM     14  C   UNL     1    -127.232  39.702  16.207  1.00  0.00     0.002 C 
ATOM     15  C   UNL     1    -127.874  37.349  15.418  1.00  0.00     0.008 C 
ATOM     16  C   UNL     1    -127.254  37.692  17.849  1.00  0.00     0.012 C 
ATOM     17  C   UNL     1    -125.749  39.511  15.593  1.00  0.00    -0.026 C 
ATOM     18  C   UNL     1    -126.458  37.135  14.858  1.00  0.00     0.005 C 
ATOM     19  C   UNL     1    -125.199  40.850  14.985  1.00  0.00     0.010 C 
ATOM     20  C   UNL     1    -124.772  39.108  16.750  1.00  0.00     0.012 C 
ATOM     21  C   UNL     1    -125.797  38.459  14.419  1.00  0.00     0.003 C 
ATOM     22  C   UNL     1    -123.860  40.709  14.245  1.00  0.00     0.033 C 
ATOM     23  C   UNL     1    -124.455  38.282  13.584  1.00  0.00    -0.006 C 
ATOM     24  C   UNL     1    -123.960  39.685  13.104  1.00  0.00     0.120 C 
ATOM     25  C   UNL     1    -124.745  37.445  12.306  1.00  0.00     0.014 C 
ATOM     26  C   UNL     1    -123.332  37.544  14.360  1.00  0.00     0.014 C 
ENDROOT
BRANCH   1  27
ATOM     27  C   UNL     1    -133.486  39.727  18.329  1.00  0.00     0.048 C 
ATOM     28  O   UNL     1    -133.920  38.575  18.056  1.00  0.00    -0.550 OA
ATOM     29  O   UNL     1    -134.344  40.627  18.955  1.00  0.00    -0.550 OA
ENDBRANCH   1  27
BRANCH   7  30
ATOM     30  C   UNL     1    -132.296  40.915  14.115  1.00  0.00    -0.077 C 
ATOM     31  C   UNL     1    -131.557  42.100  13.545  1.00  0.00     0.039 C 
ATOM     32  C   UNL     1    -132.527  39.876  13.292  1.00  0.00     0.008 C 
ENDBRANCH   7  30
BRANCH  24  33
ATOM     33  O   UNL     1    -122.710  39.576  12.469  1.00  0.00    -0.393 OA
ATOM     34  H   UNL     1    -122.017  39.754  13.157  1.00  0.00     0.210 HD
ENDBRANCH  24  33
TORSDOF 3
ENDMDL
MODEL 9
REMARK VINA RESULT:    -3.666     11.101     13.777
REMARK INTER + INTRA:          -4.905
REMARK INTER:                  -4.205
REMARK INTRA:                  -0.700
REMARK UNBOUND:                -0.703
REMARK SMILES C=C(C)[C@@H]1CC[C@]2(C(=O)[O-])CC[C@@]3(C)[C@H](CC[C@@H]4[C@]5(C)CC[C@@H](O)C(C)(C)[C@H]5CC[C@@]43C)[C@H]12
REMARK SMILES IDX 7 1 6 2 33 3 11 4 5 5 15 6 4 7 12 8 16 9 13 10 17 11 31 12
REMARK SMILES IDX 14 13 18 14 30 15 32 16 19 17 29 18 21 19 20 20 28 21 22 22
REMARK SMILES IDX 25 23 23 24 26 25 27 26 8 27 9 28 10 29 2 30 3 31 1 32 24 33
REMARK H PARENT 24 34
REMARK Flexibility Score: inf
ROOT
ATOM      1  C   UNL     1    -126.297  37.617   4.057  1.00  0.00     0.014 C 
ATOM      2  C   UNL     1    -126.502  37.565   2.526  1.00  0.00     0.014 C 
ATOM      3  C   UNL     1    -125.000  36.781   4.283  1.00  0.00     0.012 C 
ATOM      4  C   UNL     1    -126.247  39.072   4.604  1.00  0.00     0.014 C 
ATOM      5  C   UNL     1    -125.823  36.282   2.028  1.00  0.00     0.009 C 
ATOM      6  C   UNL     1    -123.650  37.604   4.220  1.00  0.00     0.000 C 
ATOM      7  C   UNL     1    -125.153  35.631   3.254  1.00  0.00     0.018 C 
ATOM      8  C   UNL     1    -124.877  39.769   4.611  1.00  0.00     0.008 C 
ATOM      9  C   UNL     1    -123.190  37.947   2.795  1.00  0.00     0.005 C 
ATOM     10  C   UNL     1    -123.684  38.889   5.119  1.00  0.00    -0.024 C 
ATOM     11  C   UNL     1    -121.806  38.554   2.791  1.00  0.00     0.005 C 
ATOM     12  C   UNL     1    -122.276  39.719   5.070  1.00  0.00    -0.024 C 
ATOM     13  C   UNL     1    -123.991  38.433   6.592  1.00  0.00     0.012 C 
ATOM     14  C   UNL     1    -121.702  39.885   3.583  1.00  0.00     0.002 C 
ATOM     15  C   UNL     1    -121.187  38.999   5.932  1.00  0.00     0.008 C 
ATOM     16  C   UNL     1    -122.533  41.131   5.702  1.00  0.00     0.012 C 
ATOM     17  C   UNL     1    -120.216  40.514   3.486  1.00  0.00    -0.026 C 
ATOM     18  C   UNL     1    -119.781  39.619   5.873  1.00  0.00     0.005 C 
ATOM     19  C   UNL     1    -119.638  40.405   2.031  1.00  0.00     0.010 C 
ATOM     20  C   UNL     1    -120.292  42.042   3.827  1.00  0.00     0.012 C 
ATOM     21  C   UNL     1    -119.242  39.710   4.429  1.00  0.00     0.003 C 
ATOM     22  C   UNL     1    -118.170  40.841   1.897  1.00  0.00     0.033 C 
ATOM     23  C   UNL     1    -117.700  40.083   4.323  1.00  0.00    -0.006 C 
ATOM     24  C   UNL     1    -117.259  40.022   2.824  1.00  0.00     0.120 C 
ATOM     25  C   UNL     1    -116.855  39.022   5.084  1.00  0.00     0.014 C 
ATOM     26  C   UNL     1    -117.349  41.464   4.938  1.00  0.00     0.014 C 
ENDROOT
BRANCH   1  27
ATOM     27  C   UNL     1    -127.506  36.945   4.718  1.00  0.00     0.048 C 
ATOM     28  O   UNL     1    -128.603  36.875   4.100  1.00  0.00    -0.550 OA
ATOM     29  O   UNL     1    -127.452  36.475   6.027  1.00  0.00    -0.550 OA
ENDBRANCH   1  27
BRANCH   7  30
ATOM     30  C   UNL     1    -123.916  34.760   3.008  1.00  0.00    -0.077 C 
ATOM     31  C   UNL     1    -123.278  34.020   4.157  1.00  0.00     0.039 C 
ATOM     32  C   UNL     1    -123.478  34.475   1.768  1.00  0.00     0.008 C 
ENDBRANCH   7  30
BRANCH  24  33
ATOM     33  O   UNL     1    -115.933  40.466   2.681  1.00  0.00    -0.393 OA
ATOM     34  H   UNL     1    -115.729  40.467   1.710  1.00  0.00     0.210 HD
ENDBRANCH  24  33
TORSDOF 3
ENDMDL
