MODEL 1
REMARK VINA RESULT:    -7.619      0.000      0.000
REMARK INTER + INTRA:         -15.812
REMARK INTER:                 -14.300
REMARK INTRA:                  -1.512
REMARK UNBOUND:                -1.512
REMARK SMILES CCCCCCCCC=CCCCCCCCC(=O)[O-]
REMARK SMILES IDX 10 1 9 2 11 3 12 4 13 5 14 6 15 7 16 8 17 9 18 10 19 11
REMARK SMILES IDX 20 12 8 13 7 14 6 15 5 16 4 17 3 18 2 19 1 20
REMARK H PARENT
REMARK Flexibility Score: inf
ROOT
ATOM      1  C   UNL     1       4.052   0.566  -6.454  1.00  0.00    -0.031 C 
ATOM      2  C   UNL     1       4.345   0.416  -5.148  1.00  0.00    -0.031 C 
ENDROOT
BRANCH   1   3
ATOM      3  C   UNL     1       2.657   0.548  -7.025  1.00  0.00     0.027 C 
BRANCH   3   4
ATOM      4  C   UNL     1       2.086   1.971  -7.097  1.00  0.00     0.004 C 
BRANCH   4   5
ATOM      5  C   UNL     1       2.841   2.866  -8.094  1.00  0.00     0.000 C 
BRANCH   5   6
ATOM      6  C   UNL     1       3.447   4.112  -7.427  1.00  0.00     0.000 C 
BRANCH   6   7
ATOM      7  C   UNL     1       3.526   3.995  -5.894  1.00  0.00     0.000 C 
BRANCH   7   8
ATOM      8  C   UNL     1       4.911   4.291  -5.283  1.00  0.00     0.006 C 
BRANCH   8   9
ATOM      9  C   UNL     1       4.921   4.414  -3.751  1.00  0.00     0.053 C 
BRANCH   9  10
ATOM     10  C   UNL     1       5.856   5.484  -3.279  1.00  0.00     0.041 C 
ATOM     11  O   UNL     1       5.962   5.734  -2.050  1.00  0.00    -0.550 OA
ATOM     12  O   UNL     1       6.634   6.182  -4.194  1.00  0.00    -0.550 OA
ENDBRANCH   9  10
ENDBRANCH   8   9
ENDBRANCH   7   8
ENDBRANCH   6   7
ENDBRANCH   5   6
ENDBRANCH   4   5
ENDBRANCH   3   4
ENDBRANCH   1   3
BRANCH   2  13
ATOM     13  C   UNL     1       3.319   0.294  -4.049  1.00  0.00     0.027 C 
BRANCH  13  14
ATOM     14  C   UNL     1       3.657  -0.834  -3.054  1.00  0.00     0.004 C 
BRANCH  14  15
ATOM     15  C   UNL     1       5.166  -1.031  -2.830  1.00  0.00     0.000 C 
BRANCH  15  16
ATOM     16  C   UNL     1       5.583  -2.511  -2.817  1.00  0.00     0.000 C 
BRANCH  16  17
ATOM     17  C   UNL     1       4.414  -3.444  -2.436  1.00  0.00    -0.000 C 
BRANCH  17  18
ATOM     18  C   UNL     1       4.602  -4.893  -2.917  1.00  0.00    -0.000 C 
BRANCH  18  19
ATOM     19  C   UNL     1       3.276  -5.653  -3.057  1.00  0.00    -0.003 C 
ATOM     20  C   UNL     1       3.087  -6.172  -4.479  1.00  0.00     0.004 C 
ENDBRANCH  18  19
ENDBRANCH  17  18
ENDBRANCH  16  17
ENDBRANCH  15  16
ENDBRANCH  14  15
ENDBRANCH  13  14
ENDBRANCH   2  13
TORSDOF 15
ENDMDL
MODEL 2
REMARK VINA RESULT:    -7.608      3.652      4.760
REMARK INTER + INTRA:         -15.792
REMARK INTER:                 -14.098
REMARK INTRA:                  -1.694
REMARK UNBOUND:                -1.512
REMARK SMILES CCCCCCCCC=CCCCCCCCC(=O)[O-]
REMARK SMILES IDX 10 1 9 2 11 3 12 4 13 5 14 6 15 7 16 8 17 9 18 10 19 11
REMARK SMILES IDX 20 12 8 13 7 14 6 15 5 16 4 17 3 18 2 19 1 20
REMARK H PARENT
REMARK Flexibility Score: inf
ROOT
ATOM      1  C   UNL     1       3.130  -0.081  -4.120  1.00  0.00    -0.031 C 
ATOM      2  C   UNL     1       3.289  -0.637  -2.904  1.00  0.00    -0.031 C 
ENDROOT
BRANCH   1   3
ATOM      3  C   UNL     1       3.995   1.022  -4.677  1.00  0.00     0.027 C 
BRANCH   3   4
ATOM      4  C   UNL     1       4.487   0.660  -6.085  1.00  0.00     0.004 C 
BRANCH   4   5
ATOM      5  C   UNL     1       4.365   1.829  -7.077  1.00  0.00     0.000 C 
BRANCH   5   6
ATOM      6  C   UNL     1       3.145   1.693  -8.003  1.00  0.00     0.000 C 
BRANCH   6   7
ATOM      7  C   UNL     1       1.906   2.439  -7.476  1.00  0.00     0.000 C 
BRANCH   7   8
ATOM      8  C   UNL     1       0.890   1.567  -6.709  1.00  0.00     0.006 C 
BRANCH   8   9
ATOM      9  C   UNL     1       0.860   0.092  -7.139  1.00  0.00     0.053 C 
BRANCH   9  10
ATOM     10  C   UNL     1      -0.382  -0.603  -6.674  1.00  0.00     0.041 C 
ATOM     11  O   UNL     1      -0.741  -0.519  -5.470  1.00  0.00    -0.550 OA
ATOM     12  O   UNL     1      -1.161  -1.317  -7.576  1.00  0.00    -0.550 OA
ENDBRANCH   9  10
ENDBRANCH   8   9
ENDBRANCH   7   8
ENDBRANCH   6   7
ENDBRANCH   5   6
ENDBRANCH   4   5
ENDBRANCH   3   4
ENDBRANCH   1   3
BRANCH   2  13
ATOM     13  C   UNL     1       4.409  -0.302  -1.950  1.00  0.00     0.027 C 
BRANCH  13  14
ATOM     14  C   UNL     1       5.369  -1.489  -1.734  1.00  0.00     0.004 C 
BRANCH  14  15
ATOM     15  C   UNL     1       5.305  -2.548  -2.847  1.00  0.00     0.000 C 
BRANCH  15  16
ATOM     16  C   UNL     1       5.848  -3.917  -2.406  1.00  0.00     0.000 C 
BRANCH  16  17
ATOM     17  C   UNL     1       4.891  -5.071  -2.774  1.00  0.00    -0.000 C 
BRANCH  17  18
ATOM     18  C   UNL     1       3.404  -4.687  -2.687  1.00  0.00    -0.000 C 
BRANCH  18  19
ATOM     19  C   UNL     1       2.478  -5.739  -3.313  1.00  0.00    -0.003 C 
ATOM     20  C   UNL     1       3.107  -6.351  -4.562  1.00  0.00     0.004 C 
ENDBRANCH  18  19
ENDBRANCH  17  18
ENDBRANCH  16  17
ENDBRANCH  15  16
ENDBRANCH  14  15
ENDBRANCH  13  14
ENDBRANCH   2  13
TORSDOF 15
ENDMDL
MODEL 3
REMARK VINA RESULT:    -7.559      4.006      8.283
REMARK INTER + INTRA:         -15.699
REMARK INTER:                 -14.155
REMARK INTRA:                  -1.544
REMARK UNBOUND:                -1.512
REMARK SMILES CCCCCCCCC=CCCCCCCCC(=O)[O-]
REMARK SMILES IDX 10 1 9 2 11 3 12 4 13 5 14 6 15 7 16 8 17 9 18 10 19 11
REMARK SMILES IDX 20 12 8 13 7 14 6 15 5 16 4 17 3 18 2 19 1 20
REMARK H PARENT
REMARK Flexibility Score: inf
ROOT
ATOM      1  C   UNL     1       2.959   0.402  -6.230  1.00  0.00    -0.031 C 
ATOM      2  C   UNL     1       2.891   0.487  -7.572  1.00  0.00    -0.031 C 
ENDROOT
BRANCH   1   3
ATOM      3  C   UNL     1       4.242   0.323  -5.441  1.00  0.00     0.027 C 
BRANCH   3   4
ATOM      4  C   UNL     1       3.982   0.629  -3.960  1.00  0.00     0.004 C 
BRANCH   4   5
ATOM      5  C   UNL     1       3.908  -0.639  -3.093  1.00  0.00     0.000 C 
BRANCH   5   6
ATOM      6  C   UNL     1       5.289  -1.092  -2.591  1.00  0.00     0.000 C 
BRANCH   6   7
ATOM      7  C   UNL     1       5.553  -2.589  -2.832  1.00  0.00     0.000 C 
BRANCH   7   8
ATOM      8  C   UNL     1       4.352  -3.520  -2.564  1.00  0.00     0.006 C 
BRANCH   8   9
ATOM      9  C   UNL     1       4.580  -4.988  -2.956  1.00  0.00     0.053 C 
BRANCH   9  10
ATOM     10  C   UNL     1       3.305  -5.669  -3.348  1.00  0.00     0.041 C 
ATOM     11  O   UNL     1       3.175  -6.148  -4.506  1.00  0.00    -0.550 OA
ATOM     12  O   UNL     1       2.275  -5.805  -2.427  1.00  0.00    -0.550 OA
ENDBRANCH   9  10
ENDBRANCH   8   9
ENDBRANCH   7   8
ENDBRANCH   6   7
ENDBRANCH   5   6
ENDBRANCH   4   5
ENDBRANCH   3   4
ENDBRANCH   1   3
BRANCH   2  13
ATOM     13  C   UNL     1       4.088   0.603  -8.484  1.00  0.00     0.027 C 
BRANCH  13  14
ATOM     14  C   UNL     1       4.297   2.042  -8.996  1.00  0.00     0.004 C 
BRANCH  14  15
ATOM     15  C   UNL     1       4.780   3.021  -7.912  1.00  0.00     0.000 C 
BRANCH  15  16
ATOM     16  C   UNL     1       3.651   3.904  -7.355  1.00  0.00     0.000 C 
BRANCH  16  17
ATOM     17  C   UNL     1       3.633   3.923  -5.812  1.00  0.00    -0.000 C 
BRANCH  17  18
ATOM     18  C   UNL     1       5.031   4.051  -5.183  1.00  0.00    -0.000 C 
BRANCH  18  19
ATOM     19  C   UNL     1       5.007   4.733  -3.807  1.00  0.00    -0.003 C 
ATOM     20  C   UNL     1       6.265   5.568  -3.586  1.00  0.00     0.004 C 
ENDBRANCH  18  19
ENDBRANCH  17  18
ENDBRANCH  16  17
ENDBRANCH  15  16
ENDBRANCH  14  15
ENDBRANCH  13  14
ENDBRANCH   2  13
TORSDOF 15
ENDMDL
MODEL 4
REMARK VINA RESULT:    -7.535      1.400      2.245
REMARK INTER + INTRA:         -15.655
REMARK INTER:                 -14.241
REMARK INTRA:                  -1.414
REMARK UNBOUND:                -1.512
REMARK SMILES CCCCCCCCC=CCCCCCCCC(=O)[O-]
REMARK SMILES IDX 10 1 9 2 11 3 12 4 13 5 14 6 15 7 16 8 17 9 18 10 19 11
REMARK SMILES IDX 20 12 8 13 7 14 6 15 5 16 4 17 3 18 2 19 1 20
REMARK H PARENT
REMARK Flexibility Score: inf
ROOT
ATOM      1  C   UNL     1       3.703   0.350  -5.090  1.00  0.00    -0.031 C 
ATOM      2  C   UNL     1       4.425   0.062  -3.990  1.00  0.00    -0.031 C 
ENDROOT
BRANCH   1   3
ATOM      3  C   UNL     1       2.198   0.312  -5.160  1.00  0.00     0.027 C 
BRANCH   3   4
ATOM      4  C   UNL     1       1.724   0.465  -6.612  1.00  0.00     0.004 C 
BRANCH   4   5
ATOM      5  C   UNL     1       0.475   1.352  -6.741  1.00  0.00     0.000 C 
BRANCH   5   6
ATOM      6  C   UNL     1       0.811   2.784  -7.189  1.00  0.00     0.000 C 
BRANCH   6   7
ATOM      7  C   UNL     1       2.015   2.846  -8.147  1.00  0.00     0.000 C 
BRANCH   7   8
ATOM      8  C   UNL     1       3.273   3.534  -7.577  1.00  0.00     0.006 C 
BRANCH   8   9
ATOM      9  C   UNL     1       3.219   3.817  -6.068  1.00  0.00     0.053 C 
BRANCH   9  10
ATOM     10  C   UNL     1       4.586   3.880  -5.459  1.00  0.00     0.041 C 
ATOM     11  O   UNL     1       5.599   3.580  -6.146  1.00  0.00    -0.550 OA
ATOM     12  O   UNL     1       4.745   4.302  -4.145  1.00  0.00    -0.550 OA
ENDBRANCH   9  10
ENDBRANCH   8   9
ENDBRANCH   7   8
ENDBRANCH   6   7
ENDBRANCH   5   6
ENDBRANCH   4   5
ENDBRANCH   3   4
ENDBRANCH   1   3
BRANCH   2  13
ATOM     13  C   UNL     1       3.834  -0.258  -2.638  1.00  0.00     0.027 C 
BRANCH  13  14
ATOM     14  C   UNL     1       4.795  -1.081  -1.759  1.00  0.00     0.004 C 
BRANCH  14  15
ATOM     15  C   UNL     1       5.899  -1.801  -2.552  1.00  0.00     0.000 C 
BRANCH  15  16
ATOM     16  C   UNL     1       5.811  -3.332  -2.449  1.00  0.00     0.000 C 
BRANCH  16  17
ATOM     17  C   UNL     1       4.359  -3.843  -2.556  1.00  0.00    -0.000 C 
BRANCH  17  18
ATOM     18  C   UNL     1       4.239  -5.218  -3.235  1.00  0.00    -0.000 C 
BRANCH  18  19
ATOM     19  C   UNL     1       2.785  -5.688  -3.380  1.00  0.00    -0.003 C 
ATOM     20  C   UNL     1       2.645  -6.699  -4.514  1.00  0.00     0.004 C 
ENDBRANCH  18  19
ENDBRANCH  17  18
ENDBRANCH  16  17
ENDBRANCH  15  16
ENDBRANCH  14  15
ENDBRANCH  13  14
ENDBRANCH   2  13
TORSDOF 15
ENDMDL
MODEL 5
REMARK VINA RESULT:    -7.466      4.019      8.232
REMARK INTER + INTRA:         -15.526
REMARK INTER:                 -13.591
REMARK INTRA:                  -1.935
REMARK UNBOUND:                -1.512
REMARK SMILES CCCCCCCCC=CCCCCCCCC(=O)[O-]
REMARK SMILES IDX 10 1 9 2 11 3 12 4 13 5 14 6 15 7 16 8 17 9 18 10 19 11
REMARK SMILES IDX 20 12 8 13 7 14 6 15 5 16 4 17 3 18 2 19 1 20
REMARK H PARENT
REMARK Flexibility Score: inf
ROOT
ATOM      1  C   UNL     1       2.302   0.629  -5.311  1.00  0.00    -0.031 C 
ATOM      2  C   UNL     1       1.676   0.577  -6.501  1.00  0.00    -0.031 C 
ENDROOT
BRANCH   1   3
ATOM      3  C   UNL     1       3.717   0.168  -5.067  1.00  0.00     0.027 C 
BRANCH   3   4
ATOM      4  C   UNL     1       4.115   0.406  -3.603  1.00  0.00     0.004 C 
BRANCH   4   5
ATOM      5  C   UNL     1       4.149  -0.890  -2.777  1.00  0.00     0.000 C 
BRANCH   5   6
ATOM      6  C   UNL     1       5.582  -1.373  -2.495  1.00  0.00     0.000 C 
BRANCH   6   7
ATOM      7  C   UNL     1       5.724  -2.905  -2.569  1.00  0.00     0.000 C 
BRANCH   7   8
ATOM      8  C   UNL     1       4.394  -3.687  -2.594  1.00  0.00     0.006 C 
BRANCH   8   9
ATOM      9  C   UNL     1       4.519  -5.146  -3.061  1.00  0.00     0.053 C 
BRANCH   9  10
ATOM     10  C   UNL     1       3.183  -5.762  -3.342  1.00  0.00     0.041 C 
ATOM     11  O   UNL     1       2.276  -5.730  -2.469  1.00  0.00    -0.550 OA
ATOM     12  O   UNL     1       2.929  -6.341  -4.579  1.00  0.00    -0.550 OA
ENDBRANCH   9  10
ENDBRANCH   8   9
ENDBRANCH   7   8
ENDBRANCH   6   7
ENDBRANCH   5   6
ENDBRANCH   4   5
ENDBRANCH   3   4
ENDBRANCH   1   3
BRANCH   2  13
ATOM     13  C   UNL     1       2.322   0.130  -7.790  1.00  0.00     0.027 C 
BRANCH  13  14
ATOM     14  C   UNL     1       2.984   1.297  -8.548  1.00  0.00     0.004 C 
BRANCH  14  15
ATOM     15  C   UNL     1       2.285   2.651  -8.335  1.00  0.00     0.000 C 
BRANCH  15  16
ATOM     16  C   UNL     1       3.249   3.761  -7.885  1.00  0.00     0.000 C 
BRANCH  16  17
ATOM     17  C   UNL     1       4.704   3.258  -7.770  1.00  0.00    -0.000 C 
BRANCH  17  18
ATOM     18  C   UNL     1       5.247   3.273  -6.330  1.00  0.00    -0.000 C 
BRANCH  18  19
ATOM     19  C   UNL     1       4.263   3.892  -5.327  1.00  0.00    -0.003 C 
ATOM     20  C   UNL     1       4.997   4.452  -4.112  1.00  0.00     0.004 C 
ENDBRANCH  18  19
ENDBRANCH  17  18
ENDBRANCH  16  17
ENDBRANCH  15  16
ENDBRANCH  14  15
ENDBRANCH  13  14
ENDBRANCH   2  13
TORSDOF 15
ENDMDL
MODEL 6
REMARK VINA RESULT:    -7.461      4.173      7.792
REMARK INTER + INTRA:         -15.516
REMARK INTER:                 -13.872
REMARK INTRA:                  -1.644
REMARK UNBOUND:                -1.512
REMARK SMILES CCCCCCCCC=CCCCCCCCC(=O)[O-]
REMARK SMILES IDX 10 1 9 2 11 3 12 4 13 5 14 6 15 7 16 8 17 9 18 10 19 11
REMARK SMILES IDX 20 12 8 13 7 14 6 15 5 16 4 17 3 18 2 19 1 20
REMARK H PARENT
REMARK Flexibility Score: inf
ROOT
ATOM      1  C   UNL     1       4.172   2.036  -4.757  1.00  0.00    -0.031 C 
ATOM      2  C   UNL     1       4.562   2.919  -5.696  1.00  0.00    -0.031 C 
ENDROOT
BRANCH   1   3
ATOM      3  C   UNL     1       4.120   0.542  -4.956  1.00  0.00     0.027 C 
BRANCH   3   4
ATOM      4  C   UNL     1       3.271  -0.117  -3.860  1.00  0.00     0.004 C 
BRANCH   4   5
ATOM      5  C   UNL     1       4.115  -0.638  -2.686  1.00  0.00     0.000 C 
BRANCH   5   6
ATOM      6  C   UNL     1       5.385  -1.371  -3.150  1.00  0.00     0.000 C 
BRANCH   6   7
ATOM      7  C   UNL     1       5.543  -2.761  -2.508  1.00  0.00     0.000 C 
BRANCH   7   8
ATOM      8  C   UNL     1       4.276  -3.641  -2.525  1.00  0.00     0.006 C 
BRANCH   8   9
ATOM      9  C   UNL     1       4.495  -5.068  -3.049  1.00  0.00     0.053 C 
BRANCH   9  10
ATOM     10  C   UNL     1       3.205  -5.741  -3.404  1.00  0.00     0.041 C 
ATOM     11  O   UNL     1       2.277  -5.817  -2.555  1.00  0.00    -0.550 OA
ATOM     12  O   UNL     1       3.013  -6.253  -4.680  1.00  0.00    -0.550 OA
ENDBRANCH   9  10
ENDBRANCH   8   9
ENDBRANCH   7   8
ENDBRANCH   6   7
ENDBRANCH   5   6
ENDBRANCH   4   5
ENDBRANCH   3   4
ENDBRANCH   1   3
BRANCH   2  13
ATOM     13  C   UNL     1       5.089   2.542  -7.059  1.00  0.00     0.027 C 
BRANCH  13  14
ATOM     14  C   UNL     1       4.219   3.106  -8.200  1.00  0.00     0.004 C 
BRANCH  14  15
ATOM     15  C   UNL     1       2.890   3.713  -7.723  1.00  0.00     0.000 C 
BRANCH  15  16
ATOM     16  C   UNL     1       1.661   2.934  -8.219  1.00  0.00     0.000 C 
BRANCH  16  17
ATOM     17  C   UNL     1       0.819   2.370  -7.054  1.00  0.00    -0.000 C 
BRANCH  17  18
ATOM     18  C   UNL     1       1.136   0.901  -6.723  1.00  0.00    -0.000 C 
BRANCH  18  19
ATOM     19  C   UNL     1      -0.118   0.017  -6.669  1.00  0.00    -0.003 C 
ATOM     20  C   UNL     1      -0.313  -0.576  -5.276  1.00  0.00     0.004 C 
ENDBRANCH  18  19
ENDBRANCH  17  18
ENDBRANCH  16  17
ENDBRANCH  15  16
ENDBRANCH  14  15
ENDBRANCH  13  14
ENDBRANCH   2  13
TORSDOF 15
ENDMDL
MODEL 7
REMARK VINA RESULT:    -7.327      3.531      7.363
REMARK INTER + INTRA:         -15.264
REMARK INTER:                 -13.273
REMARK INTRA:                  -1.991
REMARK UNBOUND:                -1.512
REMARK SMILES CCCCCCCCC=CCCCCCCCC(=O)[O-]
REMARK SMILES IDX 10 1 9 2 11 3 12 4 13 5 14 6 15 7 16 8 17 9 18 10 19 11
REMARK SMILES IDX 20 12 8 13 7 14 6 15 5 16 4 17 3 18 2 19 1 20
REMARK H PARENT
REMARK Flexibility Score: inf
ROOT
ATOM      1  C   UNL     1       2.773   0.233  -7.845  1.00  0.00    -0.031 C 
ATOM      2  C   UNL     1       3.324   0.955  -8.840  1.00  0.00    -0.031 C 
ENDROOT
BRANCH   1   3
ATOM      3  C   UNL     1       1.703   0.740  -6.911  1.00  0.00     0.027 C 
BRANCH   3   4
ATOM      4  C   UNL     1       2.141   0.569  -5.450  1.00  0.00     0.004 C 
BRANCH   4   5
ATOM      5  C   UNL     1       3.642   0.269  -5.309  1.00  0.00     0.000 C 
BRANCH   5   6
ATOM      6  C   UNL     1       4.157   0.490  -3.877  1.00  0.00     0.000 C 
BRANCH   6   7
ATOM      7  C   UNL     1       3.635  -0.564  -2.883  1.00  0.00     0.000 C 
BRANCH   7   8
ATOM      8  C   UNL     1       4.717  -1.245  -2.019  1.00  0.00     0.006 C 
BRANCH   8   9
ATOM      9  C   UNL     1       5.611  -2.238  -2.778  1.00  0.00     0.053 C 
BRANCH   9  10
ATOM     10  C   UNL     1       5.204  -3.659  -2.535  1.00  0.00     0.041 C 
ATOM     11  O   UNL     1       4.001  -4.005  -2.675  1.00  0.00    -0.550 OA
ATOM     12  O   UNL     1       6.157  -4.607  -2.188  1.00  0.00    -0.550 OA
ENDBRANCH   9  10
ENDBRANCH   8   9
ENDBRANCH   7   8
ENDBRANCH   6   7
ENDBRANCH   5   6
ENDBRANCH   4   5
ENDBRANCH   3   4
ENDBRANCH   1   3
BRANCH   2  13
ATOM     13  C   UNL     1       2.894   2.349  -9.225  1.00  0.00     0.027 C 
BRANCH  13  14
ATOM     14  C   UNL     1       3.768   3.435  -8.568  1.00  0.00     0.004 C 
BRANCH  14  15
ATOM     15  C   UNL     1       5.165   2.942  -8.157  1.00  0.00     0.000 C 
BRANCH  15  16
ATOM     16  C   UNL     1       5.492   3.222  -6.681  1.00  0.00     0.000 C 
BRANCH  16  17
ATOM     17  C   UNL     1       4.256   3.702  -5.891  1.00  0.00    -0.000 C 
BRANCH  17  18
ATOM     18  C   UNL     1       4.597   4.269  -4.503  1.00  0.00    -0.000 C 
BRANCH  18  19
ATOM     19  C   UNL     1       5.989   4.912  -4.445  1.00  0.00    -0.003 C 
ATOM     20  C   UNL     1       6.109   5.858  -3.254  1.00  0.00     0.004 C 
ENDBRANCH  18  19
ENDBRANCH  17  18
ENDBRANCH  16  17
ENDBRANCH  15  16
ENDBRANCH  14  15
ENDBRANCH  13  14
ENDBRANCH   2  13
TORSDOF 15
ENDMDL
MODEL 8
REMARK VINA RESULT:    -7.301      4.379      7.962
REMARK INTER + INTRA:         -15.216
REMARK INTER:                 -13.510
REMARK INTRA:                  -1.706
REMARK UNBOUND:                -1.512
REMARK SMILES CCCCCCCCC=CCCCCCCCC(=O)[O-]
REMARK SMILES IDX 10 1 9 2 11 3 12 4 13 5 14 6 15 7 16 8 17 9 18 10 19 11
REMARK SMILES IDX 20 12 8 13 7 14 6 15 5 16 4 17 3 18 2 19 1 20
REMARK H PARENT
REMARK Flexibility Score: inf
ROOT
ATOM      1  C   UNL     1       1.988   0.107  -4.759  1.00  0.00    -0.031 C 
ATOM      2  C   UNL     1       0.952   0.187  -5.614  1.00  0.00    -0.031 C 
ENDROOT
BRANCH   1   3
ATOM      3  C   UNL     1       3.409   0.485  -5.096  1.00  0.00     0.027 C 
BRANCH   3   4
ATOM      4  C   UNL     1       4.305   0.370  -3.855  1.00  0.00     0.004 C 
BRANCH   4   5
ATOM      5  C   UNL     1       3.803  -0.684  -2.854  1.00  0.00     0.000 C 
BRANCH   5   6
ATOM      6  C   UNL     1       4.948  -1.339  -2.063  1.00  0.00     0.000 C 
BRANCH   6   7
ATOM      7  C   UNL     1       5.294  -2.751  -2.568  1.00  0.00     0.000 C 
BRANCH   7   8
ATOM      8  C   UNL     1       4.170  -3.797  -2.417  1.00  0.00     0.006 C 
BRANCH   8   9
ATOM      9  C   UNL     1       4.388  -5.090  -3.218  1.00  0.00     0.053 C 
BRANCH   9  10
ATOM     10  C   UNL     1       3.124  -5.881  -3.362  1.00  0.00     0.041 C 
ATOM     11  O   UNL     1       2.912  -6.549  -4.409  1.00  0.00    -0.550 OA
ATOM     12  O   UNL     1       2.197  -5.908  -2.328  1.00  0.00    -0.550 OA
ENDBRANCH   9  10
ENDBRANCH   8   9
ENDBRANCH   7   8
ENDBRANCH   6   7
ENDBRANCH   5   6
ENDBRANCH   4   5
ENDBRANCH   3   4
ENDBRANCH   1   3
BRANCH   2  13
ATOM     13  C   UNL     1       1.038   0.750  -7.012  1.00  0.00     0.027 C 
BRANCH  13  14
ATOM     14  C   UNL     1       1.000   2.290  -7.027  1.00  0.00     0.004 C 
BRANCH  14  15
ATOM     15  C   UNL     1       2.039   2.927  -7.964  1.00  0.00     0.000 C 
BRANCH  15  16
ATOM     16  C   UNL     1       3.330   3.340  -7.238  1.00  0.00     0.000 C 
BRANCH  16  17
ATOM     17  C   UNL     1       4.594   2.804  -7.945  1.00  0.00    -0.000 C 
BRANCH  17  18
ATOM     18  C   UNL     1       4.296   1.737  -9.011  1.00  0.00    -0.000 C 
BRANCH  18  19
ATOM     19  C   UNL     1       4.328   0.308  -8.451  1.00  0.00    -0.003 C 
ATOM     20  C   UNL     1       3.578  -0.658  -9.365  1.00  0.00     0.004 C 
ENDBRANCH  18  19
ENDBRANCH  17  18
ENDBRANCH  16  17
ENDBRANCH  15  16
ENDBRANCH  14  15
ENDBRANCH  13  14
ENDBRANCH   2  13
TORSDOF 15
ENDMDL
MODEL 9
REMARK VINA RESULT:    -7.244      1.837      2.697
REMARK INTER + INTRA:         -15.108
REMARK INTER:                 -13.878
REMARK INTRA:                  -1.230
REMARK UNBOUND:                -1.512
REMARK SMILES CCCCCCCCC=CCCCCCCCC(=O)[O-]
REMARK SMILES IDX 10 1 9 2 11 3 12 4 13 5 14 6 15 7 16 8 17 9 18 10 19 11
REMARK SMILES IDX 20 12 8 13 7 14 6 15 5 16 4 17 3 18 2 19 1 20
REMARK H PARENT
REMARK Flexibility Score: inf
ROOT
ATOM      1  C   UNL     1       3.481   0.760  -5.378  1.00  0.00    -0.031 C 
ATOM      2  C   UNL     1       4.063   0.270  -4.267  1.00  0.00    -0.031 C 
ENDROOT
BRANCH   1   3
ATOM      3  C   UNL     1       2.034   0.552  -5.749  1.00  0.00     0.027 C 
BRANCH   3   4
ATOM      4  C   UNL     1       1.838   0.726  -7.262  1.00  0.00     0.004 C 
BRANCH   4   5
ATOM      5  C   UNL     1       2.658  -0.278  -8.088  1.00  0.00     0.000 C 
BRANCH   5   6
ATOM      6  C   UNL     1       3.929   0.348  -8.686  1.00  0.00     0.000 C 
BRANCH   6   7
ATOM      7  C   UNL     1       3.666   1.701  -9.372  1.00  0.00     0.000 C 
BRANCH   7   8
ATOM      8  C   UNL     1       4.602   2.850  -8.941  1.00  0.00     0.006 C 
BRANCH   8   9
ATOM      9  C   UNL     1       5.279   2.645  -7.577  1.00  0.00     0.053 C 
BRANCH   9  10
ATOM     10  C   UNL     1       4.756   3.593  -6.542  1.00  0.00     0.041 C 
ATOM     11  O   UNL     1       5.516   4.018  -5.632  1.00  0.00    -0.550 OA
ATOM     12  O   UNL     1       3.440   4.033  -6.602  1.00  0.00    -0.550 OA
ENDBRANCH   9  10
ENDBRANCH   8   9
ENDBRANCH   7   8
ENDBRANCH   6   7
ENDBRANCH   5   6
ENDBRANCH   4   5
ENDBRANCH   3   4
ENDBRANCH   1   3
BRANCH   2  13
ATOM     13  C   UNL     1       3.336  -0.488  -3.183  1.00  0.00     0.027 C 
BRANCH  13  14
ATOM     14  C   UNL     1       4.303  -1.172  -2.197  1.00  0.00     0.004 C 
BRANCH  14  15
ATOM     15  C   UNL     1       5.542  -1.787  -2.870  1.00  0.00     0.000 C 
BRANCH  15  16
ATOM     16  C   UNL     1       5.730  -3.276  -2.534  1.00  0.00     0.000 C 
BRANCH  16  17
ATOM     17  C   UNL     1       4.394  -4.048  -2.535  1.00  0.00    -0.000 C 
BRANCH  17  18
ATOM     18  C   UNL     1       4.397  -5.281  -3.455  1.00  0.00    -0.000 C 
BRANCH  18  19
ATOM     19  C   UNL     1       2.995  -5.863  -3.679  1.00  0.00    -0.003 C 
ATOM     20  C   UNL     1       2.156  -5.782  -2.407  1.00  0.00     0.004 C 
ENDBRANCH  18  19
ENDBRANCH  17  18
ENDBRANCH  16  17
ENDBRANCH  15  16
ENDBRANCH  14  15
ENDBRANCH  13  14
ENDBRANCH   2  13
TORSDOF 15
ENDMDL
