MODEL 1
REMARK VINA RESULT:    -3.678      0.000      0.000
REMARK INTER + INTRA:          -4.911
REMARK INTER:                  -4.430
REMARK INTRA:                  -0.481
REMARK UNBOUND:                -0.481
REMARK SMILES NC(=O)C[C@@H]([NH3+])C(=O)[O-]
REMARK SMILES IDX 4 1 5 2 6 3 7 7 8 8 9 9 2 10 3 11 1 12
REMARK H PARENT 6 4 6 5 6 6 1 13 1 14
REMARK Flexibility Score: inf
ROOT
ATOM      1  C   UNL     1      65.116  -3.956   3.912  1.00  0.00     0.171 C 
ENDROOT
BRANCH   1   2
ATOM      2  C   UNL     1      65.522  -2.595   4.511  1.00  0.00     0.237 C 
BRANCH   2   3
ATOM      3  N   UNL     1      66.644  -2.017   3.760  1.00  0.00    -0.350 N 
ATOM      4  H   UNL     1      67.494  -1.978   4.368  1.00  0.00     0.345 HD
ATOM      5  H   UNL     1      66.857  -2.593   2.912  1.00  0.00     0.345 HD
ATOM      6  H   UNL     1      66.408  -1.042   3.465  1.00  0.00     0.345 HD
ENDBRANCH   2   3
BRANCH   2   7
ATOM      7  C   UNL     1      64.358  -1.639   4.524  1.00  0.00     0.100 C 
ATOM      8  O   UNL     1      64.183  -0.856   5.496  1.00  0.00    -0.544 OA
ATOM      9  O   UNL     1      63.476  -1.605   3.451  1.00  0.00    -0.544 OA
ENDBRANCH   2   7
ENDBRANCH   1   2
BRANCH   1  10
ATOM     10  C   UNL     1      65.625  -4.117   2.507  1.00  0.00     0.223 C 
ATOM     11  O   UNL     1      66.770  -4.603   2.309  1.00  0.00    -0.275 OA
ATOM     12  N   UNL     1      64.806  -3.759   1.394  1.00  0.00    -0.369 N 
ATOM     13  H   UNL     1      65.158  -3.886   0.420  1.00  0.00     0.159 HD
ATOM     14  H   UNL     1      63.847  -3.373   1.540  1.00  0.00     0.159 HD
ENDBRANCH   1  10
TORSDOF 4
ENDMDL
MODEL 2
REMARK VINA RESULT:    -3.647      1.993      2.366
REMARK INTER + INTRA:          -4.874
REMARK INTER:                  -4.386
REMARK INTRA:                  -0.488
REMARK UNBOUND:                -0.481
REMARK SMILES NC(=O)C[C@@H]([NH3+])C(=O)[O-]
REMARK SMILES IDX 4 1 5 2 6 3 7 7 8 8 9 9 2 10 3 11 1 12
REMARK H PARENT 6 4 6 5 6 6 1 13 1 14
REMARK Flexibility Score: inf
ROOT
ATOM      1  C   UNL     1      65.272  -3.370   4.651  1.00  0.00     0.171 C 
ENDROOT
BRANCH   1   2
ATOM      2  C   UNL     1      66.439  -2.462   5.087  1.00  0.00     0.237 C 
BRANCH   2   3
ATOM      3  N   UNL     1      66.857  -1.593   3.978  1.00  0.00    -0.350 N 
ATOM      4  H   UNL     1      66.014  -1.233   3.474  1.00  0.00     0.345 HD
ATOM      5  H   UNL     1      67.415  -0.782   4.333  1.00  0.00     0.345 HD
ATOM      6  H   UNL     1      67.435  -2.139   3.299  1.00  0.00     0.345 HD
ENDBRANCH   2   3
BRANCH   2   7
ATOM      7  C   UNL     1      66.061  -1.630   6.285  1.00  0.00     0.100 C 
ATOM      8  O   UNL     1      66.809  -1.591   7.299  1.00  0.00    -0.544 OA
ATOM      9  O   UNL     1      64.889  -0.885   6.271  1.00  0.00    -0.544 OA
ENDBRANCH   2   7
ENDBRANCH   1   2
BRANCH   1  10
ATOM     10  C   UNL     1      64.517  -2.782   3.492  1.00  0.00     0.223 C 
ATOM     11  O   UNL     1      64.792  -3.146   2.318  1.00  0.00    -0.275 OA
ATOM     12  N   UNL     1      63.464  -1.844   3.713  1.00  0.00    -0.369 N 
ATOM     13  H   UNL     1      62.932  -1.450   2.906  1.00  0.00     0.159 HD
ATOM     14  H   UNL     1      63.210  -1.546   4.681  1.00  0.00     0.159 HD
ENDBRANCH   1  10
TORSDOF 4
ENDMDL
MODEL 3
REMARK VINA RESULT:    -3.604      1.801      3.573
REMARK INTER + INTRA:          -4.823
REMARK INTER:                  -4.349
REMARK INTRA:                  -0.475
REMARK UNBOUND:                -0.481
REMARK SMILES NC(=O)C[C@@H]([NH3+])C(=O)[O-]
REMARK SMILES IDX 4 1 5 2 6 3 7 7 8 8 9 9 2 10 3 11 1 12
REMARK H PARENT 6 4 6 5 6 6 1 13 1 14
REMARK Flexibility Score: inf
ROOT
ATOM      1  C   UNL     1      66.031  -3.290   4.694  1.00  0.00     0.171 C 
ENDROOT
BRANCH   1   2
ATOM      2  C   UNL     1      64.800  -3.415   3.774  1.00  0.00     0.237 C 
BRANCH   2   3
ATOM      3  N   UNL     1      63.913  -2.257   3.943  1.00  0.00    -0.350 N 
ATOM      4  H   UNL     1      64.483  -1.396   4.113  1.00  0.00     0.345 HD
ATOM      5  H   UNL     1      63.324  -2.113   3.090  1.00  0.00     0.345 HD
ATOM      6  H   UNL     1      63.291  -2.405   4.771  1.00  0.00     0.345 HD
ENDBRANCH   2   3
BRANCH   2   7
ATOM      7  C   UNL     1      65.213  -3.548   2.330  1.00  0.00     0.100 C 
ATOM      8  O   UNL     1      64.359  -3.446   1.408  1.00  0.00    -0.544 OA
ATOM      9  O   UNL     1      66.546  -3.766   2.007  1.00  0.00    -0.544 OA
ENDBRANCH   2   7
ENDBRANCH   1   2
BRANCH   1  10
ATOM     10  C   UNL     1      66.469  -1.861   4.843  1.00  0.00     0.223 C 
ATOM     11  O   UNL     1      66.057  -1.180   5.820  1.00  0.00    -0.275 OA
ATOM     12  N   UNL     1      67.378  -1.279   3.909  1.00  0.00    -0.369 N 
ATOM     13  H   UNL     1      67.691  -0.290   4.025  1.00  0.00     0.159 HD
ATOM     14  H   UNL     1      67.744  -1.835   3.105  1.00  0.00     0.159 HD
ENDBRANCH   1  10
TORSDOF 4
ENDMDL
MODEL 4
REMARK VINA RESULT:    -3.462      1.960      2.226
REMARK INTER + INTRA:          -4.651
REMARK INTER:                  -4.393
REMARK INTRA:                  -0.258
REMARK UNBOUND:                -0.481
REMARK SMILES NC(=O)C[C@@H]([NH3+])C(=O)[O-]
REMARK SMILES IDX 4 1 5 2 6 3 7 7 8 8 9 9 2 10 3 11 1 12
REMARK H PARENT 6 4 6 5 6 6 1 13 1 14
REMARK Flexibility Score: inf
ROOT
ATOM      1  C   UNL     1      65.316  -3.740   3.374  1.00  0.00     0.171 C 
ENDROOT
BRANCH   1   2
ATOM      2  C   UNL     1      65.037  -2.329   3.927  1.00  0.00     0.237 C 
BRANCH   2   3
ATOM      3  N   UNL     1      63.591  -2.088   4.018  1.00  0.00    -0.350 N 
ATOM      4  H   UNL     1      63.163  -2.755   4.699  1.00  0.00     0.345 HD
ATOM      5  H   UNL     1      63.398  -1.108   4.332  1.00  0.00     0.345 HD
ATOM      6  H   UNL     1      63.147  -2.245   3.084  1.00  0.00     0.345 HD
ENDBRANCH   2   3
BRANCH   2   7
ATOM      7  C   UNL     1      65.682  -2.138   5.276  1.00  0.00     0.100 C 
ATOM      8  O   UNL     1      65.532  -1.059   5.911  1.00  0.00    -0.544 OA
ATOM      9  O   UNL     1      66.434  -3.163   5.836  1.00  0.00    -0.544 OA
ENDBRANCH   2   7
ENDBRANCH   1   2
BRANCH   1  10
ATOM     10  C   UNL     1      65.149  -3.792   1.882  1.00  0.00     0.223 C 
ATOM     11  O   UNL     1      64.106  -3.324   1.352  1.00  0.00    -0.275 OA
ATOM     12  N   UNL     1      66.180  -4.333   1.055  1.00  0.00    -0.369 N 
ATOM     13  H   UNL     1      66.066  -4.354   0.018  1.00  0.00     0.159 HD
ATOM     14  H   UNL     1      67.058  -4.709   1.476  1.00  0.00     0.159 HD
ENDBRANCH   1  10
TORSDOF 4
ENDMDL
MODEL 5
REMARK VINA RESULT:    -3.410      1.311      3.803
REMARK INTER + INTRA:          -4.589
REMARK INTER:                  -4.159
REMARK INTRA:                  -0.430
REMARK UNBOUND:                -0.481
REMARK SMILES NC(=O)C[C@@H]([NH3+])C(=O)[O-]
REMARK SMILES IDX 4 1 5 2 6 3 7 7 8 8 9 9 2 10 3 11 1 12
REMARK H PARENT 6 4 6 5 6 6 1 13 1 14
REMARK Flexibility Score: inf
ROOT
ATOM      1  C   UNL     1      65.094  -3.831   3.824  1.00  0.00     0.171 C 
ENDROOT
BRANCH   1   2
ATOM      2  C   UNL     1      65.797  -4.186   2.499  1.00  0.00     0.237 C 
BRANCH   2   3
ATOM      3  N   UNL     1      64.942  -3.839   1.355  1.00  0.00    -0.350 N 
ATOM      4  H   UNL     1      65.068  -4.544   0.593  1.00  0.00     0.345 HD
ATOM      5  H   UNL     1      63.935  -3.819   1.639  1.00  0.00     0.345 HD
ATOM      6  H   UNL     1      65.214  -2.901   0.981  1.00  0.00     0.345 HD
ENDBRANCH   2   3
BRANCH   2   7
ATOM      7  C   UNL     1      67.126  -3.486   2.385  1.00  0.00     0.100 C 
ATOM      8  O   UNL     1      67.545  -3.082   1.267  1.00  0.00    -0.544 OA
ATOM      9  O   UNL     1      67.894  -3.267   3.523  1.00  0.00    -0.544 OA
ENDBRANCH   2   7
ENDBRANCH   1   2
BRANCH   1  10
ATOM     10  C   UNL     1      64.721  -2.377   3.881  1.00  0.00     0.223 C 
ATOM     11  O   UNL     1      63.709  -1.966   3.252  1.00  0.00    -0.275 OA
ATOM     12  N   UNL     1      65.480  -1.463   4.673  1.00  0.00    -0.369 N 
ATOM     13  H   UNL     1      65.208  -0.457   4.722  1.00  0.00     0.159 HD
ATOM     14  H   UNL     1      66.309  -1.791   5.216  1.00  0.00     0.159 HD
ENDBRANCH   1  10
TORSDOF 4
ENDMDL
MODEL 6
REMARK VINA RESULT:    -3.328     13.542     14.490
REMARK INTER + INTRA:          -4.491
REMARK INTER:                  -4.328
REMARK INTRA:                  -0.163
REMARK UNBOUND:                -0.481
REMARK SMILES NC(=O)C[C@@H]([NH3+])C(=O)[O-]
REMARK SMILES IDX 4 1 5 2 6 3 7 7 8 8 9 9 2 10 3 11 1 12
REMARK H PARENT 6 4 6 5 6 6 1 13 1 14
REMARK Flexibility Score: inf
ROOT
ATOM      1  C   UNL     1      60.300  10.045  -3.462  1.00  0.00     0.171 C 
ENDROOT
BRANCH   1   2
ATOM      2  C   UNL     1      61.433   9.075  -3.071  1.00  0.00     0.237 C 
BRANCH   2   3
ATOM      3  N   UNL     1      62.741   9.643  -3.424  1.00  0.00    -0.350 N 
ATOM      4  H   UNL     1      63.422   9.469  -2.651  1.00  0.00     0.345 HD
ATOM      5  H   UNL     1      63.106   9.212  -4.305  1.00  0.00     0.345 HD
ATOM      6  H   UNL     1      62.654  10.677  -3.556  1.00  0.00     0.345 HD
ENDBRANCH   2   3
BRANCH   2   7
ATOM      7  C   UNL     1      61.386   8.751  -1.601  1.00  0.00     0.100 C 
ATOM      8  O   UNL     1      61.558   9.654  -0.739  1.00  0.00    -0.544 OA
ATOM      9  O   UNL     1      61.134   7.449  -1.185  1.00  0.00    -0.544 OA
ENDBRANCH   2   7
ENDBRANCH   1   2
BRANCH   1  10
ATOM     10  C   UNL     1      58.952   9.389  -3.367  1.00  0.00     0.223 C 
ATOM     11  O   UNL     1      58.617   8.522  -4.218  1.00  0.00    -0.275 OA
ATOM     12  N   UNL     1      58.063   9.711  -2.297  1.00  0.00    -0.369 N 
ATOM     13  H   UNL     1      57.133   9.241  -2.227  1.00  0.00     0.159 HD
ATOM     14  H   UNL     1      58.332  10.412  -1.573  1.00  0.00     0.159 HD
ENDBRANCH   1  10
TORSDOF 4
ENDMDL
MODEL 7
REMARK VINA RESULT:    -3.279      1.490      1.968
REMARK INTER + INTRA:          -4.431
REMARK INTER:                  -4.160
REMARK INTRA:                  -0.270
REMARK UNBOUND:                -0.481
REMARK SMILES NC(=O)C[C@@H]([NH3+])C(=O)[O-]
REMARK SMILES IDX 4 1 5 2 6 3 7 7 8 8 9 9 2 10 3 11 1 12
REMARK H PARENT 6 4 6 5 6 6 1 13 1 14
REMARK Flexibility Score: inf
ROOT
ATOM      1  C   UNL     1      65.362  -3.817   1.978  1.00  0.00     0.171 C 
ENDROOT
BRANCH   1   2
ATOM      2  C   UNL     1      65.194  -3.708   3.507  1.00  0.00     0.237 C 
BRANCH   2   3
ATOM      3  N   UNL     1      66.478  -3.938   4.183  1.00  0.00    -0.350 N 
ATOM      4  H   UNL     1      67.228  -3.376   3.718  1.00  0.00     0.345 HD
ATOM      5  H   UNL     1      66.420  -3.662   5.191  1.00  0.00     0.345 HD
ATOM      6  H   UNL     1      66.738  -4.948   4.115  1.00  0.00     0.345 HD
ENDBRANCH   2   3
BRANCH   2   7
ATOM      7  C   UNL     1      64.634  -2.365   3.896  1.00  0.00     0.100 C 
ATOM      8  O   UNL     1      63.655  -1.873   3.272  1.00  0.00    -0.544 OA
ATOM      9  O   UNL     1      65.184  -1.667   4.964  1.00  0.00    -0.544 OA
ENDBRANCH   2   7
ENDBRANCH   1   2
BRANCH   1  10
ATOM     10  C   UNL     1      65.834  -5.184   1.569  1.00  0.00     0.223 C 
ATOM     11  O   UNL     1      65.647  -6.165   2.337  1.00  0.00    -0.275 OA
ATOM     12  N   UNL     1      66.457  -5.387   0.301  1.00  0.00    -0.369 N 
ATOM     13  H   UNL     1      66.770  -6.341   0.015  1.00  0.00     0.159 HD
ATOM     14  H   UNL     1      66.603  -4.588  -0.355  1.00  0.00     0.159 HD
ENDBRANCH   1  10
TORSDOF 4
ENDMDL
MODEL 8
REMARK VINA RESULT:    -3.252      1.726      3.531
REMARK INTER + INTRA:          -4.399
REMARK INTER:                  -4.119
REMARK INTRA:                  -0.280
REMARK UNBOUND:                -0.481
REMARK SMILES NC(=O)C[C@@H]([NH3+])C(=O)[O-]
REMARK SMILES IDX 4 1 5 2 6 3 7 7 8 8 9 9 2 10 3 11 1 12
REMARK H PARENT 6 4 6 5 6 6 1 13 1 14
REMARK Flexibility Score: inf
ROOT
ATOM      1  C   UNL     1      65.090  -3.197   4.388  1.00  0.00     0.171 C 
ENDROOT
BRANCH   1   2
ATOM      2  C   UNL     1      66.030  -3.192   3.167  1.00  0.00     0.237 C 
BRANCH   2   3
ATOM      3  N   UNL     1      67.295  -3.866   3.489  1.00  0.00    -0.350 N 
ATOM      4  H   UNL     1      67.304  -4.137   4.499  1.00  0.00     0.345 HD
ATOM      5  H   UNL     1      67.417  -4.725   2.903  1.00  0.00     0.345 HD
ATOM      6  H   UNL     1      68.097  -3.216   3.319  1.00  0.00     0.345 HD
ENDBRANCH   2   3
BRANCH   2   7
ATOM      7  C   UNL     1      65.379  -3.849   1.977  1.00  0.00     0.100 C 
ATOM      8  O   UNL     1      65.859  -4.906   1.486  1.00  0.00    -0.544 OA
ATOM      9  O   UNL     1      64.229  -3.299   1.425  1.00  0.00    -0.544 OA
ENDBRANCH   2   7
ENDBRANCH   1   2
BRANCH   1  10
ATOM     10  C   UNL     1      64.419  -1.866   4.576  1.00  0.00     0.223 C 
ATOM     11  O   UNL     1      64.779  -1.112   5.519  1.00  0.00    -0.275 OA
ATOM     12  N   UNL     1      63.405  -1.431   3.671  1.00  0.00    -0.369 N 
ATOM     13  H   UNL     1      62.952  -0.499   3.796  1.00  0.00     0.159 HD
ATOM     14  H   UNL     1      63.108  -2.035   2.872  1.00  0.00     0.159 HD
ENDBRANCH   1  10
TORSDOF 4
ENDMDL
MODEL 9
REMARK VINA RESULT:    -3.242      2.604      3.958
REMARK INTER + INTRA:          -4.386
REMARK INTER:                  -4.162
REMARK INTRA:                  -0.225
REMARK UNBOUND:                -0.481
REMARK SMILES NC(=O)C[C@@H]([NH3+])C(=O)[O-]
REMARK SMILES IDX 4 1 5 2 6 3 7 7 8 8 9 9 2 10 3 11 1 12
REMARK H PARENT 6 4 6 5 6 6 1 13 1 14
REMARK Flexibility Score: inf
ROOT
ATOM      1  C   UNL     1      65.963  -2.372   3.994  1.00  0.00     0.171 C 
ENDROOT
BRANCH   1   2
ATOM      2  C   UNL     1      67.283  -1.663   4.359  1.00  0.00     0.237 C 
BRANCH   2   3
ATOM      3  N   UNL     1      67.992  -2.408   5.408  1.00  0.00    -0.350 N 
ATOM      4  H   UNL     1      67.687  -3.408   5.400  1.00  0.00     0.345 HD
ATOM      5  H   UNL     1      69.027  -2.366   5.255  1.00  0.00     0.345 HD
ATOM      6  H   UNL     1      67.765  -2.003   6.345  1.00  0.00     0.345 HD
ENDBRANCH   2   3
BRANCH   2   7
ATOM      7  C   UNL     1      68.165  -1.501   3.148  1.00  0.00     0.100 C 
ATOM      8  O   UNL     1      68.145  -2.357   2.222  1.00  0.00    -0.544 OA
ATOM      9  O   UNL     1      68.995  -0.393   3.038  1.00  0.00    -0.544 OA
ENDBRANCH   2   7
ENDBRANCH   1   2
BRANCH   1  10
ATOM     10  C   UNL     1      64.806  -1.827   4.782  1.00  0.00     0.223 C 
ATOM     11  O   UNL     1      65.022  -1.128   5.809  1.00  0.00    -0.275 OA
ATOM     12  N   UNL     1      63.463  -2.061   4.357  1.00  0.00    -0.369 N 
ATOM     13  H   UNL     1      62.663  -1.667   4.899  1.00  0.00     0.159 HD
ATOM     14  H   UNL     1      63.267  -2.621   3.498  1.00  0.00     0.159 HD
ENDBRANCH   1  10
TORSDOF 4
ENDMDL
