MODEL 1
REMARK VINA RESULT:    -3.621      0.000      0.000
REMARK INTER + INTRA:          -3.464
REMARK INTER:                  -4.467
REMARK INTRA:                   1.004
REMARK UNBOUND:                 1.004
REMARK SMILES C=C1[C@H]2CC[C@@H]3[C@H]2C(C)(C)CCC[C@]13C
REMARK SMILES IDX 14 1 6 2 7 3 3 4 2 5 1 6 4 7 5 8 15 9 8 10 9 11 10 12 11 13
REMARK SMILES IDX 13 15 12 16
REMARK H PARENT
REMARK Flexibility Score: 80.00
ROOT
ATOM      1  C   UNL     1     136.570 133.240 134.735  1.00  0.00    -0.008 C 
ATOM      2  C   UNL     1     138.024 132.739 135.088  1.00  0.00     0.003 C 
ATOM      3  C   UNL     1     138.667 133.920 135.854  1.00  0.00     0.006 C 
ATOM      4  C   UNL     1     137.517 134.043 136.846  1.00  0.00     0.019 C 
ATOM      5  C   UNL     1     136.329 134.134 135.930  1.00  0.00    -0.068 C 
ATOM      6  C   UNL     1     135.209 134.816 136.201  1.00  0.00     0.009 C 
ATOM      7  C   UNL     1     137.503 132.620 137.451  1.00  0.00     0.008 C 
ATOM      8  C   UNL     1     137.952 131.729 136.265  1.00  0.00     0.005 C 
ATOM      9  C   UNL     1     135.505 132.111 134.694  1.00  0.00     0.016 C 
ENDROOT
BRANCH   3  10
ATOM     10  C   UNL     1     139.149 135.209 135.086  1.00  0.00    -0.032 C 
ATOM     11  C   UNL     1     140.490 134.882 134.375  1.00  0.00     0.011 C 
ATOM     12  C   UNL     1     139.455 136.321 136.119  1.00  0.00     0.011 C 
BRANCH  10  13
ATOM     13  C   UNL     1     138.139 135.801 134.063  1.00  0.00     0.007 CG0
ATOM     14  G   UNL     1     137.701 134.828 132.967  1.00  0.00     0.000 G0
ENDBRANCH  10  13
ENDBRANCH   3  10
BRANCH   1  15
ATOM     15  C   UNL     1     136.480 134.000 133.379  1.00  0.00     0.011 C 
BRANCH  15  16
ATOM     16  C   UNL     1     137.686 134.844 132.974  1.00  0.00     0.001 CG0
ATOM     17  G   UNL     1     138.135 135.811 134.071  1.00  0.00     0.000 G0
ENDBRANCH  15  16
ENDBRANCH   1  15
TORSDOF 0
ENDMDL
MODEL 2
REMARK VINA RESULT:    -3.615      1.539      3.642
REMARK INTER + INTRA:          -3.457
REMARK INTER:                  -4.479
REMARK INTRA:                   1.022
REMARK UNBOUND:                 1.004
REMARK SMILES C=C1[C@H]2CC[C@@H]3[C@H]2C(C)(C)CCC[C@]13C
REMARK SMILES IDX 14 1 6 2 7 3 3 4 2 5 1 6 4 7 5 8 15 9 8 10 9 11 10 12 11 13
REMARK SMILES IDX 13 15 12 16
REMARK H PARENT
REMARK Flexibility Score: 80.00
ROOT
ATOM      1  C   UNL     1     137.907 134.341 134.933  1.00  0.00    -0.008 C 
ATOM      2  C   UNL     1     137.426 134.094 136.416  1.00  0.00     0.003 C 
ATOM      3  C   UNL     1     136.119 133.279 136.270  1.00  0.00     0.006 C 
ATOM      4  C   UNL     1     136.750 132.227 135.366  1.00  0.00     0.019 C 
ATOM      5  C   UNL     1     137.377 133.075 134.297  1.00  0.00    -0.068 C 
ATOM      6  C   UNL     1     137.529 132.703 133.019  1.00  0.00     0.009 C 
ATOM      7  C   UNL     1     137.901 131.723 136.267  1.00  0.00     0.008 C 
ATOM      8  C   UNL     1     138.301 132.989 137.067  1.00  0.00     0.005 C 
ATOM      9  C   UNL     1     139.449 134.410 134.772  1.00  0.00     0.016 C 
ENDROOT
BRANCH   3  10
ATOM     10  C   UNL     1     134.784 133.976 135.807  1.00  0.00    -0.032 C 
ATOM     11  C   UNL     1     134.214 134.785 137.004  1.00  0.00     0.011 C 
ATOM     12  C   UNL     1     133.739 132.883 135.472  1.00  0.00     0.011 C 
BRANCH  10  13
ATOM     13  C   UNL     1     134.901 134.894 134.557  1.00  0.00     0.007 CG0
ATOM     14  G   UNL     1     135.899 136.043 134.705  1.00  0.00     0.000 G0
ENDBRANCH  10  13
ENDBRANCH   3  10
BRANCH   1  15
ATOM     15  C   UNL     1     137.324 135.634 134.291  1.00  0.00     0.011 C 
BRANCH  15  16
ATOM     16  C   UNL     1     135.907 136.033 134.695  1.00  0.00     0.001 CG0
ATOM     17  G   UNL     1     134.900 134.890 134.549  1.00  0.00     0.000 G0
ENDBRANCH  15  16
ENDBRANCH   1  15
TORSDOF 0
ENDMDL
MODEL 3
REMARK VINA RESULT:    -3.574      2.237      4.565
REMARK INTER + INTRA:          -3.406
REMARK INTER:                  -4.411
REMARK INTRA:                   1.005
REMARK UNBOUND:                 1.004
REMARK SMILES C=C1[C@H]2CC[C@@H]3[C@H]2C(C)(C)CCC[C@]13C
REMARK SMILES IDX 14 1 6 2 7 3 3 4 2 5 1 6 4 7 5 8 15 9 8 10 9 11 10 12 11 13
REMARK SMILES IDX 13 15 12 16
REMARK H PARENT
REMARK Flexibility Score: 80.00
ROOT
ATOM      1  C   UNL     1     136.295 132.963 135.775  1.00  0.00    -0.008 C 
ATOM      2  C   UNL     1     134.966 132.368 135.166  1.00  0.00     0.003 C 
ATOM      3  C   UNL     1     134.311 133.557 134.425  1.00  0.00     0.006 C 
ATOM      4  C   UNL     1     135.566 133.893 133.630  1.00  0.00     0.019 C 
ATOM      5  C   UNL     1     136.599 133.999 134.715  1.00  0.00    -0.068 C 
ATOM      6  C   UNL     1     137.665 134.808 134.677  1.00  0.00     0.009 C 
ATOM      7  C   UNL     1     135.818 132.551 132.905  1.00  0.00     0.008 C 
ATOM      8  C   UNL     1     135.310 131.500 133.925  1.00  0.00     0.005 C 
ATOM      9  C   UNL     1     137.461 131.943 135.868  1.00  0.00     0.016 C 
ENDROOT
BRANCH   3  10
ATOM     10  C   UNL     1     133.590 134.706 135.228  1.00  0.00    -0.032 C 
ATOM     11  C   UNL     1     132.205 134.181 135.695  1.00  0.00     0.011 C 
ATOM     12  C   UNL     1     133.315 135.890 134.270  1.00  0.00     0.011 C 
BRANCH  10  13
ATOM     13  C   UNL     1     134.376 135.274 136.443  1.00  0.00     0.007 CG0
ATOM     14  G   UNL     1     134.769 134.230 137.490  1.00  0.00     0.000 G0
ENDBRANCH  10  13
ENDBRANCH   3  10
BRANCH   1  15
ATOM     15  C   UNL     1     136.114 133.580 137.193  1.00  0.00     0.011 C 
BRANCH  15  16
ATOM     16  C   UNL     1     134.773 134.245 137.496  1.00  0.00     0.001 CG0
ATOM     17  G   UNL     1     134.375 135.290 136.453  1.00  0.00     0.000 G0
ENDBRANCH  15  16
ENDBRANCH   1  15
TORSDOF 0
ENDMDL
MODEL 4
REMARK VINA RESULT:    -3.574      3.520      4.988
REMARK INTER + INTRA:          -3.406
REMARK INTER:                  -4.422
REMARK INTRA:                   1.016
REMARK UNBOUND:                 1.004
REMARK SMILES C=C1[C@H]2CC[C@@H]3[C@H]2C(C)(C)CCC[C@]13C
REMARK SMILES IDX 14 1 6 2 7 3 3 4 2 5 1 6 4 7 5 8 15 9 8 10 9 11 10 12 11 13
REMARK SMILES IDX 13 15 12 16
REMARK H PARENT
REMARK Flexibility Score: 80.00
ROOT
ATOM      1  C   UNL     1     138.334 136.971 137.126  1.00  0.00    -0.008 C 
ATOM      2  C   UNL     1     138.885 136.903 135.649  1.00  0.00     0.003 C 
ATOM      3  C   UNL     1     138.820 138.362 135.142  1.00  0.00     0.006 C 
ATOM      4  C   UNL     1     139.581 138.925 136.335  1.00  0.00     0.019 C 
ATOM      5  C   UNL     1     138.801 138.363 137.490  1.00  0.00    -0.068 C 
ATOM      6  C   UNL     1     138.652 138.968 138.675  1.00  0.00     0.009 C 
ATOM      7  C   UNL     1     140.895 138.114 136.249  1.00  0.00     0.008 C 
ATOM      8  C   UNL     1     140.430 136.750 135.679  1.00  0.00     0.005 C 
ATOM      9  C   UNL     1     138.970 135.931 138.087  1.00  0.00     0.016 C 
ENDROOT
BRANCH   3  10
ATOM     10  C   UNL     1     137.442 139.015 134.744  1.00  0.00    -0.032 C 
ATOM     11  C   UNL     1     137.022 138.462 133.354  1.00  0.00     0.011 C 
ATOM     12  C   UNL     1     137.642 140.541 134.571  1.00  0.00     0.011 C 
BRANCH  10  13
ATOM     13  C   UNL     1     136.284 138.818 135.762  1.00  0.00     0.007 CG0
ATOM     14  G   UNL     1     135.958 137.358 136.078  1.00  0.00     0.000 G0
ENDBRANCH  10  13
ENDBRANCH   3  10
BRANCH   1  15
ATOM     15  C   UNL     1     136.790 136.803 137.229  1.00  0.00     0.011 C 
BRANCH  15  16
ATOM     16  C   UNL     1     135.951 137.368 136.085  1.00  0.00     0.001 CG0
ATOM     17  G   UNL     1     136.289 138.823 135.759  1.00  0.00     0.000 G0
ENDBRANCH  15  16
ENDBRANCH   1  15
TORSDOF 0
ENDMDL
MODEL 5
REMARK VINA RESULT:    -3.568      3.859      5.410
REMARK INTER + INTRA:          -3.399
REMARK INTER:                  -4.439
REMARK INTRA:                   1.041
REMARK UNBOUND:                 1.004
REMARK SMILES C=C1[C@H]2CC[C@@H]3[C@H]2C(C)(C)CCC[C@]13C
REMARK SMILES IDX 14 1 6 2 7 3 3 4 2 5 1 6 4 7 5 8 15 9 8 10 9 11 10 12 11 13
REMARK SMILES IDX 13 15 12 16
REMARK H PARENT
REMARK Flexibility Score: 80.00
ROOT
ATOM      1  C   UNL     1     134.752 138.369 134.763  1.00  0.00    -0.008 C 
ATOM      2  C   UNL     1     135.206 138.492 136.270  1.00  0.00     0.003 C 
ATOM      3  C   UNL     1     136.525 139.298 136.214  1.00  0.00     0.006 C 
ATOM      4  C   UNL     1     135.926 140.427 135.384  1.00  0.00     0.019 C 
ATOM      5  C   UNL     1     135.310 139.674 134.239  1.00  0.00    -0.068 C 
ATOM      6  C   UNL     1     135.189 140.148 132.993  1.00  0.00     0.009 C 
ATOM      7  C   UNL     1     134.763 140.873 136.300  1.00  0.00     0.008 C 
ATOM      8  C   UNL     1     134.331 139.554 136.989  1.00  0.00     0.005 C 
ATOM      9  C   UNL     1     133.212 138.335 134.567  1.00  0.00     0.016 C 
ENDROOT
BRANCH   3  10
ATOM     10  C   UNL     1     137.861 138.621 135.723  1.00  0.00    -0.032 C 
ATOM     11  C   UNL     1     138.392 137.706 136.860  1.00  0.00     0.011 C 
ATOM     12  C   UNL     1     138.928 139.722 135.505  1.00  0.00     0.011 C 
BRANCH  10  13
ATOM     13  C   UNL     1     137.760 137.814 134.398  1.00  0.00     0.007 CG0
ATOM     14  G   UNL     1     136.743 136.672 134.427  1.00  0.00     0.000 G0
ENDBRANCH  10  13
ENDBRANCH   3  10
BRANCH   1  15
ATOM     15  C   UNL     1     135.333 137.123 134.032  1.00  0.00     0.011 C 
BRANCH  15  16
ATOM     16  C   UNL     1     136.735 136.673 134.433  1.00  0.00     0.001 CG0
ATOM     17  G   UNL     1     137.760 137.807 134.396  1.00  0.00     0.000 G0
ENDBRANCH  15  16
ENDBRANCH   1  15
TORSDOF 0
ENDMDL
MODEL 6
REMARK VINA RESULT:    -3.560      4.220      6.312
REMARK INTER + INTRA:          -3.389
REMARK INTER:                  -4.407
REMARK INTRA:                   1.017
REMARK UNBOUND:                 1.004
REMARK SMILES C=C1[C@H]2CC[C@@H]3[C@H]2C(C)(C)CCC[C@]13C
REMARK SMILES IDX 14 1 6 2 7 3 3 4 2 5 1 6 4 7 5 8 15 9 8 10 9 11 10 12 11 13
REMARK SMILES IDX 13 15 12 16
REMARK H PARENT
REMARK Flexibility Score: 80.00
ROOT
ATOM      1  C   UNL     1     136.084 139.500 134.758  1.00  0.00    -0.008 C 
ATOM      2  C   UNL     1     134.591 139.934 135.024  1.00  0.00     0.003 C 
ATOM      3  C   UNL     1     133.990 138.774 135.851  1.00  0.00     0.006 C 
ATOM      4  C   UNL     1     135.106 138.792 136.888  1.00  0.00     0.019 C 
ATOM      5  C   UNL     1     136.331 138.709 136.023  1.00  0.00    -0.068 C 
ATOM      6  C   UNL     1     137.479 138.119 136.381  1.00  0.00     0.009 C 
ATOM      7  C   UNL     1     135.013 140.252 137.388  1.00  0.00     0.008 C 
ATOM      8  C   UNL     1     134.558 141.028 136.126  1.00  0.00     0.005 C 
ATOM      9  C   UNL     1     137.082 140.686 134.672  1.00  0.00     0.016 C 
ENDROOT
BRANCH   3  10
ATOM     10  C   UNL     1     133.614 137.406 135.164  1.00  0.00    -0.032 C 
ATOM     11  C   UNL     1     132.287 137.601 134.381  1.00  0.00     0.011 C 
ATOM     12  C   UNL     1     133.330 136.355 136.264  1.00  0.00     0.011 C 
BRANCH  10  13
ATOM     13  C   UNL     1     134.697 136.804 134.225  1.00  0.00     0.007 CG0
ATOM     14  G   UNL     1     135.124 137.721 133.078  1.00  0.00     0.000 G0
ENDBRANCH  10  13
ENDBRANCH   3  10
BRANCH   1  15
ATOM     15  C   UNL     1     136.271 138.652 133.465  1.00  0.00     0.011 C 
BRANCH  15  16
ATOM     16  C   UNL     1     135.126 137.722 133.072  1.00  0.00     0.001 CG0
ATOM     17  G   UNL     1     134.688 136.800 134.212  1.00  0.00     0.000 G0
ENDBRANCH  15  16
ENDBRANCH   1  15
TORSDOF 0
ENDMDL
MODEL 7
REMARK VINA RESULT:    -3.529      1.874      4.374
REMARK INTER + INTRA:          -3.350
REMARK INTER:                  -4.372
REMARK INTRA:                   1.022
REMARK UNBOUND:                 1.004
REMARK SMILES C=C1[C@H]2CC[C@@H]3[C@H]2C(C)(C)CCC[C@]13C
REMARK SMILES IDX 14 1 6 2 7 3 3 4 2 5 1 6 4 7 5 8 15 9 8 10 9 11 10 12 11 13
REMARK SMILES IDX 13 15 12 16
REMARK H PARENT
REMARK Flexibility Score: 80.00
ROOT
ATOM      1  C   UNL     1     137.992 137.833 135.675  1.00  0.00    -0.008 C 
ATOM      2  C   UNL     1     138.653 137.154 136.936  1.00  0.00     0.003 C 
ATOM      3  C   UNL     1     139.445 135.955 136.362  1.00  0.00     0.006 C 
ATOM      4  C   UNL     1     140.186 136.799 135.333  1.00  0.00     0.019 C 
ATOM      5  C   UNL     1     139.055 137.511 134.647  1.00  0.00    -0.068 C 
ATOM      6  C   UNL     1     139.057 137.885 133.361  1.00  0.00     0.009 C 
ATOM      7  C   UNL     1     140.874 137.837 136.250  1.00  0.00     0.008 C 
ATOM      8  C   UNL     1     139.861 138.007 137.411  1.00  0.00     0.005 C 
ATOM      9  C   UNL     1     137.826 139.372 135.799  1.00  0.00     0.016 C 
ENDROOT
BRANCH   3  10
ATOM     10  C   UNL     1     138.697 134.654 135.881  1.00  0.00    -0.032 C 
ATOM     11  C   UNL     1     138.268 133.845 137.136  1.00  0.00     0.011 C 
ATOM     12  C   UNL     1     139.695 133.763 135.101  1.00  0.00     0.011 C 
BRANCH  10  13
ATOM     13  C   UNL     1     137.470 134.885 134.956  1.00  0.00     0.007 CG0
ATOM     14  G   UNL     1     136.379 135.772 135.558  1.00  0.00     0.000 G0
ENDBRANCH  10  13
ENDBRANCH   3  10
BRANCH   1  15
ATOM     15  C   UNL     1     136.596 137.251 135.307  1.00  0.00     0.011 C 
BRANCH  15  16
ATOM     16  C   UNL     1     136.377 135.761 135.552  1.00  0.00     0.001 CG0
ATOM     17  G   UNL     1     137.482 134.889 134.954  1.00  0.00     0.000 G0
ENDBRANCH  15  16
ENDBRANCH   1  15
TORSDOF 0
ENDMDL
MODEL 8
REMARK VINA RESULT:    -3.515      3.651      5.746
REMARK INTER + INTRA:          -3.334
REMARK INTER:                  -4.333
REMARK INTRA:                   0.999
REMARK UNBOUND:                 1.004
REMARK SMILES C=C1[C@H]2CC[C@@H]3[C@H]2C(C)(C)CCC[C@]13C
REMARK SMILES IDX 14 1 6 2 7 3 3 4 2 5 1 6 4 7 5 8 15 9 8 10 9 11 10 12 11 13
REMARK SMILES IDX 13 15 12 16
REMARK H PARENT
REMARK Flexibility Score: 80.00
ROOT
ATOM      1  C   UNL     1     136.467 139.494 135.886  1.00  0.00    -0.008 C 
ATOM      2  C   UNL     1     137.791 140.080 135.259  1.00  0.00     0.003 C 
ATOM      3  C   UNL     1     138.460 138.872 134.563  1.00  0.00     0.006 C 
ATOM      4  C   UNL     1     137.210 138.495 133.778  1.00  0.00     0.019 C 
ATOM      5  C   UNL     1     136.175 138.419 134.864  1.00  0.00    -0.068 C 
ATOM      6  C   UNL     1     135.117 137.598 134.852  1.00  0.00     0.009 C 
ATOM      7  C   UNL     1     136.947 139.809 133.005  1.00  0.00     0.008 C 
ATOM      8  C   UNL     1     137.443 140.900 133.987  1.00  0.00     0.005 C 
ATOM      9  C   UNL     1     135.291 140.506 135.941  1.00  0.00     0.016 C 
ENDROOT
BRANCH   3  10
ATOM     10  C   UNL     1     139.190 137.760 135.409  1.00  0.00    -0.032 C 
ATOM     11  C   UNL     1     140.570 138.313 135.855  1.00  0.00     0.011 C 
ATOM     12  C   UNL     1     139.474 136.543 134.494  1.00  0.00     0.011 C 
BRANCH  10  13
ATOM     13  C   UNL     1     138.408 137.231 136.644  1.00  0.00     0.007 CG0
ATOM     14  G   UNL     1     138.003 138.310 137.649  1.00  0.00     0.000 G0
ENDBRANCH  10  13
ENDBRANCH   3  10
BRANCH   1  15
ATOM     15  C   UNL     1     136.650 138.930 137.326  1.00  0.00     0.011 C 
BRANCH  15  16
ATOM     16  C   UNL     1     137.997 138.293 137.657  1.00  0.00     0.001 CG0
ATOM     17  G   UNL     1     138.418 137.226 136.646  1.00  0.00     0.000 G0
ENDBRANCH  15  16
ENDBRANCH   1  15
TORSDOF 0
ENDMDL
MODEL 9
REMARK VINA RESULT:    -3.389      2.152      4.670
REMARK INTER + INTRA:          -3.177
REMARK INTER:                  -4.200
REMARK INTRA:                   1.022
REMARK UNBOUND:                 1.004
REMARK SMILES C=C1[C@H]2CC[C@@H]3[C@H]2C(C)(C)CCC[C@]13C
REMARK SMILES IDX 14 1 6 2 7 3 3 4 2 5 1 6 4 7 5 8 15 9 8 10 9 11 10 12 11 13
REMARK SMILES IDX 13 15 12 16
REMARK H PARENT
REMARK Flexibility Score: 80.00
ROOT
ATOM      1  C   UNL     1     138.419 138.210 136.022  1.00  0.00    -0.008 C 
ATOM      2  C   UNL     1     137.383 137.724 137.108  1.00  0.00     0.003 C 
ATOM      3  C   UNL     1     138.005 136.431 137.688  1.00  0.00     0.006 C 
ATOM      4  C   UNL     1     139.348 137.084 137.988  1.00  0.00     0.019 C 
ATOM      5  C   UNL     1     139.692 137.705 136.664  1.00  0.00    -0.068 C 
ATOM      6  C   UNL     1     140.937 137.871 136.200  1.00  0.00     0.009 C 
ATOM      7  C   UNL     1     138.908 138.238 138.919  1.00  0.00     0.008 C 
ATOM      8  C   UNL     1     137.505 138.613 138.375  1.00  0.00     0.005 C 
ATOM      9  C   UNL     1     138.485 139.752 135.857  1.00  0.00     0.016 C 
ENDROOT
BRANCH   3  10
ATOM     10  C   UNL     1     137.981 135.088 136.864  1.00  0.00    -0.032 C 
ATOM     11  C   UNL     1     136.547 134.496 136.936  1.00  0.00     0.011 C 
ATOM     12  C   UNL     1     138.918 134.064 137.550  1.00  0.00     0.011 C 
BRANCH  10  13
ATOM     13  C   UNL     1     138.432 135.199 135.381  1.00  0.00     0.007 CG0
ATOM     14  G   UNL     1     137.622 136.189 134.543  1.00  0.00     0.000 G0
ENDBRANCH  10  13
ENDBRANCH   3  10
BRANCH   1  15
ATOM     15  C   UNL     1     138.173 137.610 134.606  1.00  0.00     0.011 C 
BRANCH  15  16
ATOM     16  C   UNL     1     137.625 136.187 134.540  1.00  0.00     0.001 CG0
ATOM     17  G   UNL     1     138.434 135.196 135.378  1.00  0.00     0.000 G0
ENDBRANCH  15  16
ENDBRANCH   1  15
TORSDOF 0
ENDMDL
