MODEL 1
REMARK VINA RESULT:    -4.208      0.000      0.000
REMARK INTER + INTRA:          -5.445
REMARK INTER:                  -5.192
REMARK INTRA:                  -0.253
REMARK UNBOUND:                -0.253
REMARK SMILES CCCCC=CC(C)=O
REMARK SMILES IDX 4 1 3 2 2 3 1 4 5 5 6 6 7 7 9 8 8 9
REMARK H PARENT
REMARK Flexibility Score: inf
ROOT
ATOM      1  C   UNL     1      -1.906  27.112  52.987  1.00  0.00     0.027 C 
ENDROOT
BRANCH   1   2
ATOM      2  C   UNL     1      -1.705  27.739  51.602  1.00  0.00     0.004 C 
BRANCH   2   3
ATOM      3  C   UNL     1      -1.894  29.259  51.655  1.00  0.00    -0.003 C 
ATOM      4  C   UNL     1      -0.686  29.986  51.069  1.00  0.00     0.004 C 
ENDBRANCH   2   3
ENDBRANCH   1   2
BRANCH   1   5
ATOM      5  C   UNL     1      -0.621  26.545  53.518  1.00  0.00    -0.023 C 
ATOM      6  C   UNL     1       0.298  27.325  54.101  1.00  0.00     0.042 C 
BRANCH   6   7
ATOM      7  C   UNL     1       1.580  26.815  54.628  1.00  0.00     0.152 C 
ATOM      8  O   UNL     1       1.826  26.954  55.855  1.00  0.00    -0.295 OA
ATOM      9  C   UNL     1       2.597  26.141  53.756  1.00  0.00     0.093 C 
ENDBRANCH   6   7
ENDBRANCH   1   5
TORSDOF 4
ENDMDL
MODEL 2
REMARK VINA RESULT:    -4.131      2.773      4.748
REMARK INTER + INTRA:          -5.350
REMARK INTER:                  -5.104
REMARK INTRA:                  -0.246
REMARK UNBOUND:                -0.253
REMARK SMILES CCCCC=CC(C)=O
REMARK SMILES IDX 4 1 3 2 2 3 1 4 5 5 6 6 7 7 9 8 8 9
REMARK H PARENT
REMARK Flexibility Score: inf
ROOT
ATOM      1  C   UNL     1      -1.064  26.411  53.094  1.00  0.00     0.027 C 
ENDROOT
BRANCH   1   2
ATOM      2  C   UNL     1       0.286  26.271  53.809  1.00  0.00     0.004 C 
BRANCH   2   3
ATOM      3  C   UNL     1       1.061  27.594  53.780  1.00  0.00    -0.003 C 
ATOM      4  C   UNL     1       2.552  27.355  53.555  1.00  0.00     0.004 C 
ENDBRANCH   2   3
ENDBRANCH   1   2
BRANCH   1   5
ATOM      5  C   UNL     1      -1.092  27.631  52.218  1.00  0.00    -0.023 C 
ATOM      6  C   UNL     1      -2.222  28.320  52.018  1.00  0.00     0.042 C 
BRANCH   6   7
ATOM      7  C   UNL     1      -2.300  29.518  51.157  1.00  0.00     0.152 C 
ATOM      8  O   UNL     1      -3.435  29.928  50.797  1.00  0.00    -0.295 OA
ATOM      9  C   UNL     1      -1.081  30.258  50.697  1.00  0.00     0.093 C 
ENDBRANCH   6   7
ENDBRANCH   1   5
TORSDOF 4
ENDMDL
MODEL 3
REMARK VINA RESULT:    -4.004      2.687      4.423
REMARK INTER + INTRA:          -5.194
REMARK INTER:                  -4.954
REMARK INTRA:                  -0.240
REMARK UNBOUND:                -0.253
REMARK SMILES CCCCC=CC(C)=O
REMARK SMILES IDX 4 1 3 2 2 3 1 4 5 5 6 6 7 7 9 8 8 9
REMARK H PARENT
REMARK Flexibility Score: inf
ROOT
ATOM      1  C   UNL     1      -0.960  27.474  52.998  1.00  0.00     0.027 C 
ENDROOT
BRANCH   1   2
ATOM      2  C   UNL     1       0.026  26.427  53.530  1.00  0.00     0.004 C 
BRANCH   2   3
ATOM      3  C   UNL     1       1.414  27.041  53.745  1.00  0.00    -0.003 C 
ATOM      4  C   UNL     1       1.845  26.934  55.205  1.00  0.00     0.004 C 
ENDBRANCH   2   3
ENDBRANCH   1   2
BRANCH   1   5
ATOM      5  C   UNL     1      -1.955  27.869  54.052  1.00  0.00    -0.023 C 
ATOM      6  C   UNL     1      -1.580  28.539  55.149  1.00  0.00     0.042 C 
BRANCH   6   7
ATOM      7  C   UNL     1      -2.519  28.938  56.217  1.00  0.00     0.152 C 
ATOM      8  O   UNL     1      -2.204  28.708  57.414  1.00  0.00    -0.295 OA
ATOM      9  C   UNL     1      -3.830  29.605  55.926  1.00  0.00     0.093 C 
ENDBRANCH   6   7
ENDBRANCH   1   5
TORSDOF 4
ENDMDL
MODEL 4
REMARK VINA RESULT:    -3.922      1.981      3.041
REMARK INTER + INTRA:          -5.092
REMARK INTER:                  -4.822
REMARK INTRA:                  -0.270
REMARK UNBOUND:                -0.253
REMARK SMILES CCCCC=CC(C)=O
REMARK SMILES IDX 4 1 3 2 2 3 1 4 5 5 6 6 7 7 9 8 8 9
REMARK H PARENT
REMARK Flexibility Score: inf
ROOT
ATOM      1  C   UNL     1      -0.747  30.747  51.561  1.00  0.00     0.027 C 
ENDROOT
BRANCH   1   2
ATOM      2  C   UNL     1      -1.669  30.277  50.429  1.00  0.00     0.004 C 
BRANCH   2   3
ATOM      3  C   UNL     1      -1.233  30.869  49.084  1.00  0.00    -0.003 C 
ATOM      4  C   UNL     1       0.124  30.319  48.654  1.00  0.00     0.004 C 
ENDBRANCH   2   3
ENDBRANCH   1   2
BRANCH   1   5
ATOM      5  C   UNL     1      -0.258  29.587  52.380  1.00  0.00    -0.023 C 
ATOM      6  C   UNL     1      -0.825  28.378  52.286  1.00  0.00     0.042 C 
BRANCH   6   7
ATOM      7  C   UNL     1      -0.386  27.211  53.080  1.00  0.00     0.152 C 
ATOM      8  O   UNL     1      -1.202  26.272  53.272  1.00  0.00    -0.295 OA
ATOM      9  C   UNL     1       0.991  27.108  53.662  1.00  0.00     0.093 C 
ENDBRANCH   6   7
ENDBRANCH   1   5
TORSDOF 4
ENDMDL
MODEL 5
REMARK VINA RESULT:    -3.922      1.830      3.160
REMARK INTER + INTRA:          -5.092
REMARK INTER:                  -4.905
REMARK INTRA:                  -0.187
REMARK UNBOUND:                -0.253
REMARK SMILES CCCCC=CC(C)=O
REMARK SMILES IDX 4 1 3 2 2 3 1 4 5 5 6 6 7 7 9 8 8 9
REMARK H PARENT
REMARK Flexibility Score: inf
ROOT
ATOM      1  C   UNL     1      -1.524  30.100  50.692  1.00  0.00     0.027 C 
ENDROOT
BRANCH   1   2
ATOM      2  C   UNL     1      -0.194  30.336  49.965  1.00  0.00     0.004 C 
BRANCH   2   3
ATOM      3  C   UNL     1      -0.412  30.468  48.453  1.00  0.00    -0.003 C 
ATOM      4  C   UNL     1      -1.664  31.283  48.145  1.00  0.00     0.004 C 
ENDBRANCH   2   3
ENDBRANCH   1   2
BRANCH   1   5
ATOM      5  C   UNL     1      -1.437  28.915  51.611  1.00  0.00    -0.023 C 
ATOM      6  C   UNL     1      -0.455  28.802  52.513  1.00  0.00     0.042 C 
BRANCH   6   7
ATOM      7  C   UNL     1      -0.323  27.650  53.429  1.00  0.00     0.152 C 
ATOM      8  O   UNL     1       0.351  27.794  54.484  1.00  0.00    -0.295 OA
ATOM      9  C   UNL     1      -0.958  26.322  53.148  1.00  0.00     0.093 C 
ENDBRANCH   6   7
ENDBRANCH   1   5
TORSDOF 4
ENDMDL
MODEL 6
REMARK VINA RESULT:    -3.894      3.697      5.609
REMARK INTER + INTRA:          -5.058
REMARK INTER:                  -4.871
REMARK INTRA:                  -0.187
REMARK UNBOUND:                -0.253
REMARK SMILES CCCCC=CC(C)=O
REMARK SMILES IDX 4 1 3 2 2 3 1 4 5 5 6 6 7 7 9 8 8 9
REMARK H PARENT
REMARK Flexibility Score: inf
ROOT
ATOM      1  C   UNL     1      -0.486  29.988  52.600  1.00  0.00     0.027 C 
ENDROOT
BRANCH   1   2
ATOM      2  C   UNL     1      -1.468  28.853  52.913  1.00  0.00     0.004 C 
BRANCH   2   3
ATOM      3  C   UNL     1      -1.098  27.579  52.145  1.00  0.00    -0.003 C 
ATOM      4  C   UNL     1      -0.978  26.383  53.085  1.00  0.00     0.004 C 
ENDBRANCH   2   3
ENDBRANCH   1   2
BRANCH   1   5
ATOM      5  C   UNL     1      -0.251  30.111  51.122  1.00  0.00    -0.023 C 
ATOM      6  C   UNL     1      -1.136  30.718  50.322  1.00  0.00     0.042 C 
BRANCH   6   7
ATOM      7  C   UNL     1      -0.953  30.853  48.863  1.00  0.00     0.152 C 
ATOM      8  O   UNL     1      -1.781  31.544  48.212  1.00  0.00    -0.295 OA
ATOM      9  C   UNL     1       0.179  30.197  48.130  1.00  0.00     0.093 C 
ENDBRANCH   6   7
ENDBRANCH   1   5
TORSDOF 4
ENDMDL
MODEL 7
REMARK VINA RESULT:    -3.761      2.145      2.884
REMARK INTER + INTRA:          -4.893
REMARK INTER:                  -4.605
REMARK INTRA:                  -0.288
REMARK UNBOUND:                -0.253
REMARK SMILES CCCCC=CC(C)=O
REMARK SMILES IDX 4 1 3 2 2 3 1 4 5 5 6 6 7 7 9 8 8 9
REMARK H PARENT
REMARK Flexibility Score: inf
ROOT
ATOM      1  C   UNL     1      -1.671  28.964  53.548  1.00  0.00     0.027 C 
ENDROOT
BRANCH   1   2
ATOM      2  C   UNL     1      -2.543  28.152  54.514  1.00  0.00     0.004 C 
BRANCH   2   3
ATOM      3  C   UNL     1      -3.153  29.054  55.593  1.00  0.00    -0.003 C 
ATOM      4  C   UNL     1      -2.375  28.953  56.902  1.00  0.00     0.004 C 
ENDBRANCH   2   3
ENDBRANCH   1   2
BRANCH   1   5
ATOM      5  C   UNL     1      -0.213  28.660  53.746  1.00  0.00    -0.023 C 
ATOM      6  C   UNL     1       0.188  27.587  54.440  1.00  0.00     0.042 C 
BRANCH   6   7
ATOM      7  C   UNL     1       1.609  27.254  54.670  1.00  0.00     0.152 C 
ATOM      8  O   UNL     1       1.960  26.870  55.817  1.00  0.00    -0.295 OA
ATOM      9  C   UNL     1       2.644  27.358  53.590  1.00  0.00     0.093 C 
ENDBRANCH   6   7
ENDBRANCH   1   5
TORSDOF 4
ENDMDL
MODEL 8
REMARK VINA RESULT:    -3.732      2.644      3.587
REMARK INTER + INTRA:          -4.858
REMARK INTER:                  -4.599
REMARK INTRA:                  -0.259
REMARK UNBOUND:                -0.253
REMARK SMILES CCCCC=CC(C)=O
REMARK SMILES IDX 4 1 3 2 2 3 1 4 5 5 6 6 7 7 9 8 8 9
REMARK H PARENT
REMARK Flexibility Score: inf
ROOT
ATOM      1  C   UNL     1      -0.848  27.475  52.920  1.00  0.00     0.027 C 
ENDROOT
BRANCH   1   2
ATOM      2  C   UNL     1      -1.325  27.873  51.518  1.00  0.00     0.004 C 
BRANCH   2   3
ATOM      3  C   UNL     1      -2.596  28.728  51.593  1.00  0.00    -0.003 C 
ATOM      4  C   UNL     1      -2.336  30.147  51.097  1.00  0.00     0.004 C 
ENDBRANCH   2   3
ENDBRANCH   1   2
BRANCH   1   5
ATOM      5  C   UNL     1      -1.869  27.830  53.963  1.00  0.00    -0.023 C 
ATOM      6  C   UNL     1      -1.541  28.544  55.047  1.00  0.00     0.042 C 
BRANCH   6   7
ATOM      7  C   UNL     1      -2.508  28.906  56.103  1.00  0.00     0.152 C 
ATOM      8  O   UNL     1      -2.215  28.652  57.302  1.00  0.00    -0.295 OA
ATOM      9  C   UNL     1      -3.821  29.563  55.801  1.00  0.00     0.093 C 
ENDBRANCH   6   7
ENDBRANCH   1   5
TORSDOF 4
ENDMDL
MODEL 9
REMARK VINA RESULT:    -3.693      1.772      2.517
REMARK INTER + INTRA:          -4.810
REMARK INTER:                  -4.625
REMARK INTRA:                  -0.185
REMARK UNBOUND:                -0.253
REMARK SMILES CCCCC=CC(C)=O
REMARK SMILES IDX 4 1 3 2 2 3 1 4 5 5 6 6 7 7 9 8 8 9
REMARK H PARENT
REMARK Flexibility Score: inf
ROOT
ATOM      1  C   UNL     1      -0.303  30.332  52.329  1.00  0.00     0.027 C 
ENDROOT
BRANCH   1   2
ATOM      2  C   UNL     1      -0.930  30.728  50.987  1.00  0.00     0.004 C 
BRANCH   2   3
ATOM      3  C   UNL     1      -2.284  30.037  50.788  1.00  0.00    -0.003 C 
ATOM      4  C   UNL     1      -3.390  30.761  51.553  1.00  0.00     0.004 C 
ENDBRANCH   2   3
ENDBRANCH   1   2
BRANCH   1   5
ATOM      5  C   UNL     1      -0.352  28.844  52.533  1.00  0.00    -0.023 C 
ATOM      6  C   UNL     1       0.434  28.238  53.432  1.00  0.00     0.042 C 
BRANCH   6   7
ATOM      7  C   UNL     1       0.429  26.778  53.660  1.00  0.00     0.152 C 
ATOM      8  O   UNL     1      -0.593  26.120  53.332  1.00  0.00    -0.295 OA
ATOM      9  C   UNL     1       1.594  26.056  54.267  1.00  0.00     0.093 C 
ENDBRANCH   6   7
ENDBRANCH   1   5
TORSDOF 4
ENDMDL
