MODEL 1
REMARK VINA RESULT:    -5.051      0.000      0.000
REMARK INTER + INTRA:          -5.199
REMARK INTER:                  -5.199
REMARK INTRA:                   0.000
REMARK UNBOUND:                 0.000
REMARK SMILES Oc1ccc2[nH]ccc2c1
REMARK SMILES IDX 3 1 4 2 5 3 9 4 8 5 7 6 6 7 10 8 2 9 1 11
REMARK H PARENT 6 10 1 12
REMARK Flexibility Score: inf
ROOT
ATOM      1  C   UNL     1     -15.747  -7.604 -42.058  1.00  0.00     0.048 A 
ATOM      2  C   UNL     1     -15.038  -7.026 -43.128  1.00  0.00     0.030 A 
ATOM      3  C   UNL     1     -15.415  -5.751 -43.543  1.00  0.00     0.046 A 
ATOM      4  C   UNL     1     -16.438  -5.069 -42.939  1.00  0.00     0.003 A 
ATOM      5  C   UNL     1     -16.555  -3.853 -43.575  1.00  0.00     0.028 A 
ATOM      6  C   UNL     1     -15.571  -3.860 -44.559  1.00  0.00     0.083 A 
ATOM      7  N   UNL     1     -14.876  -5.022 -44.535  1.00  0.00    -0.361 N 
ATOM      8  C   UNL     1     -17.159  -5.612 -41.879  1.00  0.00     0.056 A 
ATOM      9  C   UNL     1     -16.804  -6.903 -41.433  1.00  0.00     0.116 A 
ATOM     10  H   UNL     1     -14.085  -5.292 -45.161  1.00  0.00     0.166 HD
ENDROOT
BRANCH   9  11
ATOM     11  O   UNL     1     -17.489  -7.499 -40.376  1.00  0.00    -0.508 OA
ATOM     12  H   UNL     1     -18.204  -6.998 -39.861  1.00  0.00     0.293 HD
ENDBRANCH   9  11
TORSDOF 1
ENDMDL
MODEL 2
REMARK VINA RESULT:    -4.938      1.155      2.014
REMARK INTER + INTRA:          -5.083
REMARK INTER:                  -5.083
REMARK INTRA:                   0.000
REMARK UNBOUND:                 0.000
REMARK SMILES Oc1ccc2[nH]ccc2c1
REMARK SMILES IDX 3 1 4 2 5 3 9 4 8 5 7 6 6 7 10 8 2 9 1 11
REMARK H PARENT 6 10 1 12
REMARK Flexibility Score: inf
ROOT
ATOM      1  C   UNL     1     -16.851  -6.541 -41.408  1.00  0.00     0.048 A 
ATOM      2  C   UNL     1     -17.113  -5.251 -41.906  1.00  0.00     0.030 A 
ATOM      3  C   UNL     1     -16.372  -4.814 -43.002  1.00  0.00     0.046 A 
ATOM      4  C   UNL     1     -15.417  -5.604 -43.587  1.00  0.00     0.003 A 
ATOM      5  C   UNL     1     -14.875  -4.889 -44.632  1.00  0.00     0.028 A 
ATOM      6  C   UNL     1     -15.547  -3.670 -44.626  1.00  0.00     0.083 A 
ATOM      7  N   UNL     1     -16.460  -3.630 -43.628  1.00  0.00    -0.361 N 
ATOM      8  C   UNL     1     -15.134  -6.885 -43.119  1.00  0.00     0.056 A 
ATOM      9  C   UNL     1     -15.866  -7.358 -42.010  1.00  0.00     0.116 A 
ATOM     10  H   UNL     1     -17.100  -2.838 -43.397  1.00  0.00     0.166 HD
ENDROOT
BRANCH   9  11
ATOM     11  O   UNL     1     -15.627  -8.632 -41.497  1.00  0.00    -0.508 OA
ATOM     12  H   UNL     1     -15.675  -9.455 -42.086  1.00  0.00     0.293 HD
ENDBRANCH   9  11
TORSDOF 1
ENDMDL
MODEL 3
REMARK VINA RESULT:    -4.906      1.274      1.729
REMARK INTER + INTRA:          -5.050
REMARK INTER:                  -5.050
REMARK INTRA:                   0.000
REMARK UNBOUND:                 0.000
REMARK SMILES Oc1ccc2[nH]ccc2c1
REMARK SMILES IDX 3 1 4 2 5 3 9 4 8 5 7 6 6 7 10 8 2 9 1 11
REMARK H PARENT 6 10 1 12
REMARK Flexibility Score: inf
ROOT
ATOM      1  C   UNL     1     -15.017  -7.142 -43.133  1.00  0.00     0.048 A 
ATOM      2  C   UNL     1     -15.204  -5.917 -43.801  1.00  0.00     0.030 A 
ATOM      3  C   UNL     1     -16.224  -5.081 -43.352  1.00  0.00     0.046 A 
ATOM      4  C   UNL     1     -17.025  -5.425 -42.295  1.00  0.00     0.003 A 
ATOM      5  C   UNL     1     -17.921  -4.396 -42.106  1.00  0.00     0.028 A 
ATOM      6  C   UNL     1     -17.608  -3.455 -43.083  1.00  0.00     0.083 A 
ATOM      7  N   UNL     1     -16.570  -3.879 -43.841  1.00  0.00    -0.361 N 
ATOM      8  C   UNL     1     -16.866  -6.628 -41.613  1.00  0.00     0.056 A 
ATOM      9  C   UNL     1     -15.843  -7.500 -42.042  1.00  0.00     0.116 A 
ATOM     10  H   UNL     1     -16.132  -3.372 -44.643  1.00  0.00     0.166 HD
ENDROOT
BRANCH   9  11
ATOM     11  O   UNL     1     -15.637  -8.718 -41.399  1.00  0.00    -0.508 OA
ATOM     12  H   UNL     1     -15.111  -9.465 -41.838  1.00  0.00     0.293 HD
ENDBRANCH   9  11
TORSDOF 1
ENDMDL
MODEL 4
REMARK VINA RESULT:    -4.837     11.214     12.132
REMARK INTER + INTRA:          -4.978
REMARK INTER:                  -4.978
REMARK INTRA:                   0.000
REMARK UNBOUND:                 0.000
REMARK SMILES Oc1ccc2[nH]ccc2c1
REMARK SMILES IDX 3 1 4 2 5 3 9 4 8 5 7 6 6 7 10 8 2 9 1 11
REMARK H PARENT 6 10 1 12
REMARK Flexibility Score: inf
ROOT
ATOM      1  C   UNL     1     -25.400   0.648 -49.201  1.00  0.00     0.048 A 
ATOM      2  C   UNL     1     -24.127   0.766 -49.790  1.00  0.00     0.030 A 
ATOM      3  C   UNL     1     -23.472  -0.406 -50.161  1.00  0.00     0.046 A 
ATOM      4  C   UNL     1     -24.036  -1.639 -49.967  1.00  0.00     0.003 A 
ATOM      5  C   UNL     1     -23.144  -2.578 -50.437  1.00  0.00     0.028 A 
ATOM      6  C   UNL     1     -22.056  -1.846 -50.904  1.00  0.00     0.083 A 
ATOM      7  N   UNL     1     -22.262  -0.519 -50.733  1.00  0.00    -0.361 N 
ATOM      8  C   UNL     1     -25.293  -1.790 -49.388  1.00  0.00     0.056 A 
ATOM      9  C   UNL     1     -25.984  -0.623 -49.000  1.00  0.00     0.116 A 
ATOM     10  H   UNL     1     -21.610   0.254 -50.994  1.00  0.00     0.166 HD
ENDROOT
BRANCH   9  11
ATOM     11  O   UNL     1     -27.246  -0.711 -48.415  1.00  0.00    -0.508 OA
ATOM     12  H   UNL     1     -27.378  -1.142 -47.507  1.00  0.00     0.293 HD
ENDBRANCH   9  11
TORSDOF 1
ENDMDL
MODEL 5
REMARK VINA RESULT:    -4.833      5.069      6.235
REMARK INTER + INTRA:          -4.974
REMARK INTER:                  -4.974
REMARK INTRA:                   0.000
REMARK UNBOUND:                 0.000
REMARK SMILES Oc1ccc2[nH]ccc2c1
REMARK SMILES IDX 3 1 4 2 5 3 9 4 8 5 7 6 6 7 10 8 2 9 1 11
REMARK H PARENT 6 10 1 12
REMARK Flexibility Score: inf
ROOT
ATOM      1  C   UNL     1     -17.806  -2.491 -42.775  1.00  0.00     0.048 A 
ATOM      2  C   UNL     1     -18.469  -3.225 -41.774  1.00  0.00     0.030 A 
ATOM      3  C   UNL     1     -19.088  -2.513 -40.748  1.00  0.00     0.046 A 
ATOM      4  C   UNL     1     -19.060  -1.144 -40.703  1.00  0.00     0.003 A 
ATOM      5  C   UNL     1     -19.755  -0.755 -39.579  1.00  0.00     0.028 A 
ATOM      6  C   UNL     1     -20.179  -1.939 -38.985  1.00  0.00     0.083 A 
ATOM      7  N   UNL     1     -19.769  -3.011 -39.703  1.00  0.00    -0.361 N 
ATOM      8  C   UNL     1     -18.413  -0.389 -41.678  1.00  0.00     0.056 A 
ATOM      9  C   UNL     1     -17.776  -1.078 -42.731  1.00  0.00     0.116 A 
ATOM     10  H   UNL     1     -19.948  -4.016 -39.485  1.00  0.00     0.166 HD
ENDROOT
BRANCH   9  11
ATOM     11  O   UNL     1     -17.112  -0.377 -43.735  1.00  0.00    -0.508 OA
ATOM     12  H   UNL     1     -16.108  -0.446 -43.853  1.00  0.00     0.293 HD
ENDBRANCH   9  11
TORSDOF 1
ENDMDL
MODEL 6
REMARK VINA RESULT:    -4.766      4.739      5.510
REMARK INTER + INTRA:          -4.905
REMARK INTER:                  -4.905
REMARK INTRA:                   0.000
REMARK UNBOUND:                 0.000
REMARK SMILES Oc1ccc2[nH]ccc2c1
REMARK SMILES IDX 3 1 4 2 5 3 9 4 8 5 7 6 6 7 10 8 2 9 1 11
REMARK H PARENT 6 10 1 12
REMARK Flexibility Score: inf
ROOT
ATOM      1  C   UNL     1     -19.688  -2.588 -40.063  1.00  0.00     0.048 A 
ATOM      2  C   UNL     1     -18.950  -3.060 -41.165  1.00  0.00     0.030 A 
ATOM      3  C   UNL     1     -18.252  -2.128 -41.928  1.00  0.00     0.046 A 
ATOM      4  C   UNL     1     -18.272  -0.791 -41.628  1.00  0.00     0.003 A 
ATOM      5  C   UNL     1     -17.490  -0.148 -42.561  1.00  0.00     0.028 A 
ATOM      6  C   UNL     1     -17.023  -1.154 -43.402  1.00  0.00     0.083 A 
ATOM      7  N   UNL     1     -17.492  -2.362 -43.010  1.00  0.00    -0.361 N 
ATOM      8  C   UNL     1     -18.991  -0.291 -40.545  1.00  0.00     0.056 A 
ATOM      9  C   UNL     1     -19.711  -1.208 -39.751  1.00  0.00     0.116 A 
ATOM     10  H   UNL     1     -17.299  -3.284 -43.461  1.00  0.00     0.166 HD
ENDROOT
BRANCH   9  11
ATOM     11  O   UNL     1     -20.449  -0.767 -38.655  1.00  0.00    -0.508 OA
ATOM     12  H   UNL     1     -20.564  -1.343 -37.829  1.00  0.00     0.293 HD
ENDBRANCH   9  11
TORSDOF 1
ENDMDL
MODEL 7
REMARK VINA RESULT:    -4.729     11.436     12.156
REMARK INTER + INTRA:          -4.867
REMARK INTER:                  -4.867
REMARK INTRA:                   0.000
REMARK UNBOUND:                 0.000
REMARK SMILES Oc1ccc2[nH]ccc2c1
REMARK SMILES IDX 3 1 4 2 5 3 9 4 8 5 7 6 6 7 10 8 2 9 1 11
REMARK H PARENT 6 10 1 12
REMARK Flexibility Score: inf
ROOT
ATOM      1  C   UNL     1     -25.778  -0.752 -48.938  1.00  0.00     0.048 A 
ATOM      2  C   UNL     1     -25.008  -1.823 -49.429  1.00  0.00     0.030 A 
ATOM      3  C   UNL     1     -23.811  -1.521 -50.073  1.00  0.00     0.046 A 
ATOM      4  C   UNL     1     -23.383  -0.229 -50.230  1.00  0.00     0.003 A 
ATOM      5  C   UNL     1     -22.179  -0.273 -50.898  1.00  0.00     0.028 A 
ATOM      6  C   UNL     1     -21.932  -1.625 -51.117  1.00  0.00     0.083 A 
ATOM      7  N   UNL     1     -22.932  -2.383 -50.611  1.00  0.00    -0.361 N 
ATOM      8  C   UNL     1     -24.120   0.853 -49.756  1.00  0.00     0.056 A 
ATOM      9  C   UNL     1     -25.339   0.583 -49.099  1.00  0.00     0.116 A 
ATOM     10  H   UNL     1     -23.002  -3.425 -50.636  1.00  0.00     0.166 HD
ENDROOT
BRANCH   9  11
ATOM     11  O   UNL     1     -26.120   1.624 -48.603  1.00  0.00    -0.508 OA
ATOM     12  H   UNL     1     -27.102   1.493 -48.390  1.00  0.00     0.293 HD
ENDBRANCH   9  11
TORSDOF 1
ENDMDL
MODEL 8
REMARK VINA RESULT:    -4.599      3.955      5.120
REMARK INTER + INTRA:          -4.733
REMARK INTER:                  -4.733
REMARK INTRA:                   0.000
REMARK UNBOUND:                 0.000
REMARK SMILES Oc1ccc2[nH]ccc2c1
REMARK SMILES IDX 3 1 4 2 5 3 9 4 8 5 7 6 6 7 10 8 2 9 1 11
REMARK H PARENT 6 10 1 12
REMARK Flexibility Score: inf
ROOT
ATOM      1  C   UNL     1     -19.666  -1.064 -40.464  1.00  0.00     0.048 A 
ATOM      2  C   UNL     1     -18.590  -0.464 -41.145  1.00  0.00     0.030 A 
ATOM      3  C   UNL     1     -17.837  -1.262 -42.003  1.00  0.00     0.046 A 
ATOM      4  C   UNL     1     -18.122  -2.590 -42.188  1.00  0.00     0.003 A 
ATOM      5  C   UNL     1     -17.203  -3.087 -43.086  1.00  0.00     0.028 A 
ATOM      6  C   UNL     1     -16.387  -2.007 -43.408  1.00  0.00     0.083 A 
ATOM      7  N   UNL     1     -16.778  -0.894 -42.743  1.00  0.00    -0.361 N 
ATOM      8  C   UNL     1     -19.178  -3.214 -41.530  1.00  0.00     0.056 A 
ATOM      9  C   UNL     1     -19.962  -2.434 -40.653  1.00  0.00     0.116 A 
ATOM     10  H   UNL     1     -16.344   0.054 -42.798  1.00  0.00     0.166 HD
ENDROOT
BRANCH   9  11
ATOM     11  O   UNL     1     -21.032  -3.004 -39.967  1.00  0.00    -0.508 OA
ATOM     12  H   UNL     1     -20.983  -3.189 -38.971  1.00  0.00     0.293 HD
ENDBRANCH   9  11
TORSDOF 1
ENDMDL
MODEL 9
REMARK VINA RESULT:    -4.545     11.814     13.053
REMARK INTER + INTRA:          -4.678
REMARK INTER:                  -4.678
REMARK INTRA:                   0.000
REMARK UNBOUND:                 0.000
REMARK SMILES Oc1ccc2[nH]ccc2c1
REMARK SMILES IDX 3 1 4 2 5 3 9 4 8 5 7 6 6 7 10 8 2 9 1 11
REMARK H PARENT 6 10 1 12
REMARK Flexibility Score: inf
ROOT
ATOM      1  C   UNL     1     -21.977   2.762 -50.732  1.00  0.00     0.048 A 
ATOM      2  C   UNL     1     -21.234   1.673 -50.237  1.00  0.00     0.030 A 
ATOM      3  C   UNL     1     -20.542   0.888 -51.156  1.00  0.00     0.046 A 
ATOM      4  C   UNL     1     -20.573   1.154 -52.499  1.00  0.00     0.003 A 
ATOM      5  C   UNL     1     -19.795   0.205 -53.125  1.00  0.00     0.028 A 
ATOM      6  C   UNL     1     -19.320  -0.610 -52.101  1.00  0.00     0.083 A 
ATOM      7  N   UNL     1     -19.779  -0.188 -50.900  1.00  0.00    -0.361 N 
ATOM      8  C   UNL     1     -21.297   2.222 -53.021  1.00  0.00     0.056 A 
ATOM      9  C   UNL     1     -22.011   3.039 -52.118  1.00  0.00     0.116 A 
ATOM     10  H   UNL     1     -19.579  -0.615 -49.968  1.00  0.00     0.166 HD
ENDROOT
BRANCH   9  11
ATOM     11  O   UNL     1     -22.754   4.122 -52.581  1.00  0.00    -0.508 OA
ATOM     12  H   UNL     1     -22.550   4.559 -53.473  1.00  0.00     0.293 HD
ENDBRANCH   9  11
TORSDOF 1
ENDMDL
