MODEL 1
REMARK VINA RESULT:    -3.722      0.000      0.000
REMARK INTER + INTRA:          -4.708
REMARK INTER:                  -4.484
REMARK INTRA:                  -0.224
REMARK UNBOUND:                -0.224
REMARK SMILES OCC(O)CO
REMARK SMILES IDX 3 1 5 2 6 3 2 5 1 6 4 8
REMARK H PARENT 6 4 1 7 4 9
REMARK Flexibility Score: inf
ROOT
ATOM      1  C   UNL     1       0.979 -15.133 -14.382  1.00  0.00     0.165 C 
ENDROOT
BRANCH   1   2
ATOM      2  C   UNL     1       0.581 -15.387 -12.923  1.00  0.00     0.190 C 
BRANCH   2   3
ATOM      3  O   UNL     1       1.137 -14.407 -12.087  1.00  0.00    -0.394 OA
ATOM      4  H   UNL     1       1.899 -14.007 -12.582  1.00  0.00     0.210 HD
ENDBRANCH   2   3
ENDBRANCH   1   2
BRANCH   1   5
ATOM      5  C   UNL     1       0.341 -13.836 -14.896  1.00  0.00     0.190 C 
BRANCH   5   6
ATOM      6  O   UNL     1       1.105 -12.735 -14.489  1.00  0.00    -0.394 OA
ATOM      7  H   UNL     1       1.981 -12.824 -14.947  1.00  0.00     0.210 HD
ENDBRANCH   5   6
ENDBRANCH   1   5
BRANCH   1   8
ATOM      8  O   UNL     1       0.560 -16.216 -15.173  1.00  0.00    -0.388 OA
ATOM      9  H   UNL     1      -0.238 -16.606 -14.729  1.00  0.00     0.211 HD
ENDBRANCH   1   8
TORSDOF 5
ENDMDL
MODEL 2
REMARK VINA RESULT:    -3.712      1.373      2.230
REMARK INTER + INTRA:          -4.695
REMARK INTER:                  -4.474
REMARK INTRA:                  -0.221
REMARK UNBOUND:                -0.224
REMARK SMILES OCC(O)CO
REMARK SMILES IDX 3 1 5 2 6 3 2 5 1 6 4 8
REMARK H PARENT 6 4 1 7 4 9
REMARK Flexibility Score: inf
ROOT
ATOM      1  C   UNL     1       0.104 -13.655 -14.402  1.00  0.00     0.165 C 
ENDROOT
BRANCH   1   2
ATOM      2  C   UNL     1       0.588 -14.791 -13.493  1.00  0.00     0.190 C 
BRANCH   2   3
ATOM      3  O   UNL     1       1.861 -15.227 -13.892  1.00  0.00    -0.394 OA
ATOM      4  H   UNL     1       2.326 -15.541 -13.073  1.00  0.00     0.210 HD
ENDBRANCH   2   3
ENDBRANCH   1   2
BRANCH   1   5
ATOM      5  C   UNL     1      -0.283 -14.199 -15.783  1.00  0.00     0.190 C 
BRANCH   5   6
ATOM      6  O   UNL     1       0.871 -14.538 -16.501  1.00  0.00    -0.394 OA
ATOM      7  H   UNL     1       1.619 -14.054 -16.065  1.00  0.00     0.210 HD
ENDBRANCH   5   6
ENDBRANCH   1   5
BRANCH   1   8
ATOM      8  O   UNL     1       1.127 -12.701 -14.536  1.00  0.00    -0.388 OA
ATOM      9  H   UNL     1       1.724 -12.804 -13.750  1.00  0.00     0.211 HD
ENDBRANCH   1   8
TORSDOF 5
ENDMDL
MODEL 3
REMARK VINA RESULT:    -3.686      1.380      3.426
REMARK INTER + INTRA:          -4.664
REMARK INTER:                  -4.452
REMARK INTRA:                  -0.211
REMARK UNBOUND:                -0.224
REMARK SMILES OCC(O)CO
REMARK SMILES IDX 3 1 5 2 6 3 2 5 1 6 4 8
REMARK H PARENT 6 4 1 7 4 9
REMARK Flexibility Score: inf
ROOT
ATOM      1  C   UNL     1       0.865 -14.283 -15.285  1.00  0.00     0.165 C 
ENDROOT
BRANCH   1   2
ATOM      2  C   UNL     1      -0.486 -14.263 -16.010  1.00  0.00     0.190 C 
BRANCH   2   3
ATOM      3  O   UNL     1      -0.531 -15.269 -16.987  1.00  0.00    -0.394 OA
ATOM      4  H   UNL     1      -0.348 -16.128 -16.523  1.00  0.00     0.210 HD
ENDBRANCH   2   3
ENDBRANCH   1   2
BRANCH   1   5
ATOM      5  C   UNL     1       0.904 -15.415 -14.250  1.00  0.00     0.190 C 
BRANCH   5   6
ATOM      6  O   UNL     1       0.727 -16.649 -14.888  1.00  0.00    -0.394 OA
ATOM      7  H   UNL     1      -0.155 -16.990 -14.587  1.00  0.00     0.210 HD
ENDBRANCH   5   6
ENDBRANCH   1   5
BRANCH   1   8
ATOM      8  O   UNL     1       1.067 -13.048 -14.647  1.00  0.00    -0.388 OA
ATOM      9  H   UNL     1       0.774 -13.157 -13.705  1.00  0.00     0.211 HD
ENDBRANCH   1   8
TORSDOF 5
ENDMDL
MODEL 4
REMARK VINA RESULT:    -3.674      1.534      2.332
REMARK INTER + INTRA:          -4.649
REMARK INTER:                  -4.642
REMARK INTRA:                  -0.007
REMARK UNBOUND:                -0.224
REMARK SMILES OCC(O)CO
REMARK SMILES IDX 3 1 5 2 6 3 2 5 1 6 4 8
REMARK H PARENT 6 4 1 7 4 9
REMARK Flexibility Score: inf
ROOT
ATOM      1  C   UNL     1       0.730 -14.824 -15.414  1.00  0.00     0.165 C 
ENDROOT
BRANCH   1   2
ATOM      2  C   UNL     1       0.631 -13.944 -14.162  1.00  0.00     0.190 C 
BRANCH   2   3
ATOM      3  O   UNL     1       1.100 -12.650 -14.436  1.00  0.00    -0.394 OA
ATOM      4  H   UNL     1       1.055 -12.532 -15.420  1.00  0.00     0.210 HD
ENDBRANCH   2   3
ENDBRANCH   1   2
BRANCH   1   5
ATOM      5  C   UNL     1      -0.381 -14.469 -16.410  1.00  0.00     0.190 C 
BRANCH   5   6
ATOM      6  O   UNL     1       0.008 -14.830 -17.706  1.00  0.00    -0.394 OA
ATOM      7  H   UNL     1       0.967 -14.587 -17.783  1.00  0.00     0.210 HD
ENDBRANCH   5   6
ENDBRANCH   1   5
BRANCH   1   8
ATOM      8  O   UNL     1       0.623 -16.174 -15.041  1.00  0.00    -0.388 OA
ATOM      9  H   UNL     1      -0.312 -16.452 -15.228  1.00  0.00     0.211 HD
ENDBRANCH   1   8
TORSDOF 5
ENDMDL
MODEL 5
REMARK VINA RESULT:    -3.631      0.719      2.308
REMARK INTER + INTRA:          -4.598
REMARK INTER:                  -4.383
REMARK INTRA:                  -0.215
REMARK UNBOUND:                -0.224
REMARK SMILES OCC(O)CO
REMARK SMILES IDX 3 1 5 2 6 3 2 5 1 6 4 8
REMARK H PARENT 6 4 1 7 4 9
REMARK Flexibility Score: inf
ROOT
ATOM      1  C   UNL     1       0.408 -14.625 -13.239  1.00  0.00     0.165 C 
ENDROOT
BRANCH   1   2
ATOM      2  C   UNL     1       1.182 -15.429 -14.290  1.00  0.00     0.190 C 
BRANCH   2   3
ATOM      3  O   UNL     1       0.400 -15.608 -15.441  1.00  0.00    -0.394 OA
ATOM      4  H   UNL     1       0.343 -16.586 -15.601  1.00  0.00     0.210 HD
ENDBRANCH   2   3
ENDBRANCH   1   2
BRANCH   1   5
ATOM      5  C   UNL     1       0.111 -13.211 -13.754  1.00  0.00     0.190 C 
BRANCH   5   6
ATOM      6  O   UNL     1       1.146 -12.784 -14.594  1.00  0.00    -0.394 OA
ATOM      7  H   UNL     1       1.741 -13.568 -14.720  1.00  0.00     0.210 HD
ENDBRANCH   5   6
ENDBRANCH   1   5
BRANCH   1   8
ATOM      8  O   UNL     1       1.168 -14.552 -12.059  1.00  0.00    -0.388 OA
ATOM      9  H   UNL     1       0.622 -14.960 -11.337  1.00  0.00     0.211 HD
ENDBRANCH   1   8
TORSDOF 5
ENDMDL
MODEL 6
REMARK VINA RESULT:    -3.606      1.849      3.137
REMARK INTER + INTRA:          -4.568
REMARK INTER:                  -4.346
REMARK INTRA:                  -0.222
REMARK UNBOUND:                -0.224
REMARK SMILES OCC(O)CO
REMARK SMILES IDX 3 1 5 2 6 3 2 5 1 6 4 8
REMARK H PARENT 6 4 1 7 4 9
REMARK Flexibility Score: inf
ROOT
ATOM      1  C   UNL     1       0.080 -13.769 -14.488  1.00  0.00     0.165 C 
ENDROOT
BRANCH   1   2
ATOM      2  C   UNL     1       0.629 -14.923 -15.336  1.00  0.00     0.190 C 
BRANCH   2   3
ATOM      3  O   UNL     1      -0.246 -15.210 -16.394  1.00  0.00    -0.394 OA
ATOM      4  H   UNL     1      -0.209 -14.437 -17.015  1.00  0.00     0.210 HD
ENDBRANCH   2   3
ENDBRANCH   1   2
BRANCH   1   5
ATOM      5  C   UNL     1      -1.259 -13.276 -15.052  1.00  0.00     0.190 C 
BRANCH   5   6
ATOM      6  O   UNL     1      -2.302 -14.075 -14.567  1.00  0.00    -0.394 OA
ATOM      7  H   UNL     1      -3.142 -13.648 -14.877  1.00  0.00     0.210 HD
ENDBRANCH   5   6
ENDBRANCH   1   5
BRANCH   1   8
ATOM      8  O   UNL     1       1.010 -12.716 -14.481  1.00  0.00    -0.388 OA
ATOM      9  H   UNL     1       1.011 -12.325 -15.393  1.00  0.00     0.211 HD
ENDBRANCH   1   8
TORSDOF 5
ENDMDL
MODEL 7
REMARK VINA RESULT:    -3.474     16.262     17.080
REMARK INTER + INTRA:          -4.409
REMARK INTER:                  -4.187
REMARK INTRA:                  -0.222
REMARK UNBOUND:                -0.224
REMARK SMILES OCC(O)CO
REMARK SMILES IDX 3 1 5 2 6 3 2 5 1 6 4 8
REMARK H PARENT 6 4 1 7 4 9
REMARK Flexibility Score: inf
ROOT
ATOM      1  C   UNL     1       6.294 -12.522 -29.762  1.00  0.00     0.165 C 
ENDROOT
BRANCH   1   2
ATOM      2  C   UNL     1       5.878 -11.505 -28.692  1.00  0.00     0.190 C 
BRANCH   2   3
ATOM      3  O   UNL     1       4.726 -10.815 -29.096  1.00  0.00    -0.394 OA
ATOM      4  H   UNL     1       5.028  -9.950 -29.479  1.00  0.00     0.210 HD
ENDBRANCH   2   3
ENDBRANCH   1   2
BRANCH   1   5
ATOM      5  C   UNL     1       6.534 -11.822 -31.105  1.00  0.00     0.190 C 
BRANCH   5   6
ATOM      6  O   UNL     1       5.345 -11.791 -31.845  1.00  0.00    -0.394 OA
ATOM      7  H   UNL     1       5.201 -12.717 -32.172  1.00  0.00     0.210 HD
ENDBRANCH   5   6
ENDBRANCH   1   5
BRANCH   1   8
ATOM      8  O   UNL     1       5.281 -13.486 -29.902  1.00  0.00    -0.388 OA
ATOM      9  H   UNL     1       4.427 -13.049 -29.648  1.00  0.00     0.211 HD
ENDBRANCH   1   8
TORSDOF 5
ENDMDL
MODEL 8
REMARK VINA RESULT:    -3.403     16.624     17.360
REMARK INTER + INTRA:          -4.323
REMARK INTER:                  -4.099
REMARK INTRA:                  -0.223
REMARK UNBOUND:                -0.224
REMARK SMILES OCC(O)CO
REMARK SMILES IDX 3 1 5 2 6 3 2 5 1 6 4 8
REMARK H PARENT 6 4 1 7 4 9
REMARK Flexibility Score: inf
ROOT
ATOM      1  C   UNL     1       6.229 -11.491 -30.871  1.00  0.00     0.165 C 
ENDROOT
BRANCH   1   2
ATOM      2  C   UNL     1       6.378 -12.622 -29.846  1.00  0.00     0.190 C 
BRANCH   2   3
ATOM      3  O   UNL     1       5.270 -13.480 -29.901  1.00  0.00    -0.394 OA
ATOM      4  H   UNL     1       5.213 -13.816 -30.834  1.00  0.00     0.210 HD
ENDBRANCH   2   3
ENDBRANCH   1   2
BRANCH   1   5
ATOM      5  C   UNL     1       5.504 -10.292 -30.247  1.00  0.00     0.190 C 
BRANCH   5   6
ATOM      6  O   UNL     1       4.714 -10.720 -29.173  1.00  0.00    -0.394 OA
ATOM      7  H   UNL     1       5.044 -10.230 -28.376  1.00  0.00     0.210 HD
ENDBRANCH   5   6
ENDBRANCH   1   5
BRANCH   1   8
ATOM      8  O   UNL     1       5.503 -11.962 -31.978  1.00  0.00    -0.388 OA
ATOM      9  H   UNL     1       5.029 -11.181 -32.368  1.00  0.00     0.211 HD
ENDBRANCH   1   8
TORSDOF 5
ENDMDL
MODEL 9
REMARK VINA RESULT:    -3.377     16.784     17.785
REMARK INTER + INTRA:          -4.292
REMARK INTER:                  -4.069
REMARK INTRA:                  -0.223
REMARK UNBOUND:                -0.224
REMARK SMILES OCC(O)CO
REMARK SMILES IDX 3 1 5 2 6 3 2 5 1 6 4 8
REMARK H PARENT 6 4 1 7 4 9
REMARK Flexibility Score: inf
ROOT
ATOM      1  C   UNL     1       6.003 -10.807 -29.685  1.00  0.00     0.165 C 
ENDROOT
BRANCH   1   2
ATOM      2  C   UNL     1       6.234  -9.538 -30.517  1.00  0.00     0.190 C 
BRANCH   2   3
ATOM      3  O   UNL     1       5.026  -9.094 -31.075  1.00  0.00    -0.394 OA
ATOM      4  H   UNL     1       5.258  -8.391 -31.737  1.00  0.00     0.210 HD
ENDBRANCH   2   3
ENDBRANCH   1   2
BRANCH   1   5
ATOM      5  C   UNL     1       6.128 -12.057 -30.566  1.00  0.00     0.190 C 
BRANCH   5   6
ATOM      6  O   UNL     1       5.379 -11.891 -31.737  1.00  0.00    -0.394 OA
ATOM      7  H   UNL     1       5.297 -10.912 -31.876  1.00  0.00     0.210 HD
ENDBRANCH   5   6
ENDBRANCH   1   5
BRANCH   1   8
ATOM      8  O   UNL     1       4.722 -10.756 -29.110  1.00  0.00    -0.388 OA
ATOM      9  H   UNL     1       4.405  -9.819 -29.189  1.00  0.00     0.211 HD
ENDBRANCH   1   8
TORSDOF 5
ENDMDL
