MODEL 1
REMARK VINA RESULT:    -6.725      0.000      0.000
REMARK INTER + INTRA:          -7.512
REMARK INTER:                  -7.512
REMARK INTRA:                   0.000
REMARK UNBOUND:                 0.000
REMARK SMILES Oc1cc(O)c2c(ccc3ccc(O)c(O)c32)c1
REMARK SMILES IDX 9 1 8 2 7 3 18 4 2 5 3 6 4 7 6 8 17 9 10 10 11 11 12 12
REMARK SMILES IDX 13 13 15 14 16 15 1 17 5 19 14 21
REMARK H PARENT 16 16 1 18 5 20 14 22
REMARK Flexibility Score: inf
ROOT
ATOM      1  C   UNL     1      45.667  46.342  35.126  1.00  0.00     0.009 A 
ATOM      2  C   UNL     1      45.927  47.693  35.314  1.00  0.00     0.009 A 
ATOM      3  C   UNL     1      47.062  48.281  34.746  1.00  0.00    -0.010 A 
ATOM      4  C   UNL     1      47.343  49.629  35.015  1.00  0.00     0.055 A 
ATOM      5  C   UNL     1      48.530  50.205  34.572  1.00  0.00     0.119 A 
ATOM      6  C   UNL     1      49.475  49.420  33.909  1.00  0.00     0.093 A 
ATOM      7  C   UNL     1      49.224  48.066  33.649  1.00  0.00     0.127 A 
ATOM      8  C   UNL     1      47.949  47.506  33.944  1.00  0.00     0.035 A 
ATOM      9  C   UNL     1      47.551  46.180  33.569  1.00  0.00     0.039 A 
ATOM     10  C   UNL     1      46.458  45.583  34.257  1.00  0.00    -0.014 A 
ATOM     11  C   UNL     1      46.132  44.238  34.035  1.00  0.00     0.013 A 
ATOM     12  C   UNL     1      46.840  43.490  33.102  1.00  0.00     0.051 A 
ATOM     13  C   UNL     1      47.816  44.091  32.308  1.00  0.00     0.158 A 
ATOM     14  C   UNL     1      48.113  45.464  32.475  1.00  0.00     0.166 A 
ENDROOT
BRANCH  14  15
ATOM     15  O   UNL     1      48.849  46.144  31.501  1.00  0.00    -0.504 OA
ATOM     16  H   UNL     1      48.740  47.128  31.299  1.00  0.00     0.293 HD
ENDBRANCH  14  15
BRANCH   5  17
ATOM     17  O   UNL     1      48.779  51.552  34.830  1.00  0.00    -0.508 OA
ATOM     18  H   UNL     1      49.699  51.956  34.693  1.00  0.00     0.293 HD
ENDBRANCH   5  17
BRANCH   7  19
ATOM     19  O   UNL     1      50.278  47.273  33.196  1.00  0.00    -0.507 OA
ATOM     20  H   UNL     1      51.219  47.636  33.098  1.00  0.00     0.293 HD
ENDBRANCH   7  19
BRANCH  13  21
ATOM     21  O   UNL     1      48.465  43.296  31.361  1.00  0.00    -0.504 OA
ATOM     22  H   UNL     1      48.469  42.285  31.391  1.00  0.00     0.293 HD
ENDBRANCH  13  21
TORSDOF 4
ENDMDL
MODEL 2
REMARK VINA RESULT:    -6.725      3.551      5.973
REMARK INTER + INTRA:          -7.511
REMARK INTER:                  -7.511
REMARK INTRA:                   0.000
REMARK UNBOUND:                 0.000
REMARK SMILES Oc1cc(O)c2c(ccc3ccc(O)c(O)c32)c1
REMARK SMILES IDX 9 1 8 2 7 3 18 4 2 5 3 6 4 7 6 8 17 9 10 10 11 11 12 12
REMARK SMILES IDX 13 13 15 14 16 15 1 17 5 19 14 21
REMARK H PARENT 16 16 1 18 5 20 14 22
REMARK Flexibility Score: inf
ROOT
ATOM      1  C   UNL     1      49.545  50.556  35.027  1.00  0.00     0.009 A 
ATOM      2  C   UNL     1      48.222  50.184  34.827  1.00  0.00     0.009 A 
ATOM      3  C   UNL     1      47.713  49.027  35.428  1.00  0.00    -0.010 A 
ATOM      4  C   UNL     1      46.396  48.632  35.148  1.00  0.00     0.055 A 
ATOM      5  C   UNL     1      45.906  47.421  35.627  1.00  0.00     0.119 A 
ATOM      6  C   UNL     1      46.750  46.565  36.338  1.00  0.00     0.093 A 
ATOM      7  C   UNL     1      48.075  46.931  36.610  1.00  0.00     0.127 A 
ATOM      8  C   UNL     1      48.540  48.235  36.276  1.00  0.00     0.035 A 
ATOM      9  C   UNL     1      49.822  48.749  36.656  1.00  0.00     0.039 A 
ATOM     10  C   UNL     1      50.346  49.860  35.938  1.00  0.00    -0.014 A 
ATOM     11  C   UNL     1      51.657  50.297  36.168  1.00  0.00     0.013 A 
ATOM     12  C   UNL     1      52.440  49.686  37.140  1.00  0.00     0.051 A 
ATOM     13  C   UNL     1      51.902  48.695  37.961  1.00  0.00     0.158 A 
ATOM     14  C   UNL     1      50.560  48.286  37.783  1.00  0.00     0.166 A 
ENDROOT
BRANCH  14  15
ATOM     15  O   UNL     1      49.920  47.535  38.773  1.00  0.00    -0.504 OA
ATOM     16  H   UNL     1      49.013  47.106  38.656  1.00  0.00     0.293 HD
ENDBRANCH  14  15
BRANCH   5  17
ATOM     17  O   UNL     1      44.588  47.057  35.357  1.00  0.00    -0.508 OA
ATOM     18  H   UNL     1      44.082  47.447  34.570  1.00  0.00     0.293 HD
ENDBRANCH   5  17
BRANCH   7  19
ATOM     19  O   UNL     1      48.939  45.960  37.116  1.00  0.00    -0.507 OA
ATOM     20  H   UNL     1      48.829  44.977  36.896  1.00  0.00     0.293 HD
ENDBRANCH   7  19
BRANCH  13  21
ATOM     21  O   UNL     1      52.726  48.145  38.945  1.00  0.00    -0.504 OA
ATOM     22  H   UNL     1      53.422  47.436  38.756  1.00  0.00     0.293 HD
ENDBRANCH  13  21
TORSDOF 4
ENDMDL
MODEL 3
REMARK VINA RESULT:    -6.134      3.503      4.787
REMARK INTER + INTRA:          -6.851
REMARK INTER:                  -6.851
REMARK INTRA:                   0.000
REMARK UNBOUND:                 0.000
REMARK SMILES Oc1cc(O)c2c(ccc3ccc(O)c(O)c32)c1
REMARK SMILES IDX 9 1 8 2 7 3 18 4 2 5 3 6 4 7 6 8 17 9 10 10 11 11 12 12
REMARK SMILES IDX 13 13 15 14 16 15 1 17 5 19 14 21
REMARK H PARENT 16 16 1 18 5 20 14 22
REMARK Flexibility Score: inf
ROOT
ATOM      1  C   UNL     1      48.340  50.478  34.829  1.00  0.00     0.009 A 
ATOM      2  C   UNL     1      49.680  50.756  35.063  1.00  0.00     0.009 A 
ATOM      3  C   UNL     1      50.425  49.964  35.942  1.00  0.00    -0.010 A 
ATOM      4  C   UNL     1      51.756  50.312  36.219  1.00  0.00     0.055 A 
ATOM      5  C   UNL     1      52.480  49.621  37.186  1.00  0.00     0.119 A 
ATOM      6  C   UNL     1      51.858  48.615  37.928  1.00  0.00     0.093 A 
ATOM      7  C   UNL     1      50.523  48.266  37.683  1.00  0.00     0.127 A 
ATOM      8  C   UNL     1      49.823  48.845  36.586  1.00  0.00     0.035 A 
ATOM      9  C   UNL     1      48.516  48.433  36.164  1.00  0.00     0.039 A 
ATOM     10  C   UNL     1      47.753  49.325  35.361  1.00  0.00    -0.014 A 
ATOM     11  C   UNL     1      46.417  49.036  35.056  1.00  0.00     0.013 A 
ATOM     12  C   UNL     1      45.840  47.848  35.489  1.00  0.00     0.051 A 
ATOM     13  C   UNL     1      46.608  46.889  36.149  1.00  0.00     0.158 A 
ATOM     14  C   UNL     1      47.975  47.138  36.408  1.00  0.00     0.166 A 
ENDROOT
BRANCH  14  15
ATOM     15  O   UNL     1      48.820  46.090  36.781  1.00  0.00    -0.504 OA
ATOM     16  H   UNL     1      48.517  45.283  37.308  1.00  0.00     0.293 HD
ENDBRANCH  14  15
BRANCH   5  17
ATOM     17  O   UNL     1      53.807  49.967  37.430  1.00  0.00    -0.508 OA
ATOM     18  H   UNL     1      54.546  49.273  37.422  1.00  0.00     0.293 HD
ENDBRANCH   5  17
BRANCH   7  19
ATOM     19  O   UNL     1      49.881  47.426  38.592  1.00  0.00    -0.507 OA
ATOM     20  H   UNL     1      48.884  47.480  38.761  1.00  0.00     0.293 HD
ENDBRANCH   7  19
BRANCH  13  21
ATOM     21  O   UNL     1      45.981  45.698  36.524  1.00  0.00    -0.504 OA
ATOM     22  H   UNL     1      45.953  44.875  35.937  1.00  0.00     0.293 HD
ENDBRANCH  13  21
TORSDOF 4
ENDMDL
MODEL 4
REMARK VINA RESULT:    -6.019      0.918      4.946
REMARK INTER + INTRA:          -6.723
REMARK INTER:                  -6.723
REMARK INTRA:                   0.000
REMARK UNBOUND:                 0.000
REMARK SMILES Oc1cc(O)c2c(ccc3ccc(O)c(O)c32)c1
REMARK SMILES IDX 9 1 8 2 7 3 18 4 2 5 3 6 4 7 6 8 17 9 10 10 11 11 12 12
REMARK SMILES IDX 13 13 15 14 16 15 1 17 5 19 14 21
REMARK H PARENT 16 16 1 18 5 20 14 22
REMARK Flexibility Score: inf
ROOT
ATOM      1  C   UNL     1      45.889  46.255  34.986  1.00  0.00     0.009 A 
ATOM      2  C   UNL     1      46.267  45.021  34.474  1.00  0.00     0.009 A 
ATOM      3  C   UNL     1      47.316  44.927  33.554  1.00  0.00    -0.010 A 
ATOM      4  C   UNL     1      47.628  43.678  32.994  1.00  0.00     0.055 A 
ATOM      5  C   UNL     1      48.577  43.575  31.982  1.00  0.00     0.119 A 
ATOM      6  C   UNL     1      49.179  44.729  31.478  1.00  0.00     0.093 A 
ATOM      7  C   UNL     1      48.867  45.989  32.007  1.00  0.00     0.127 A 
ATOM      8  C   UNL     1      48.028  46.094  33.153  1.00  0.00     0.035 A 
ATOM      9  C   UNL     1      47.783  47.320  33.856  1.00  0.00     0.039 A 
ATOM     10  C   UNL     1      46.637  47.401  34.695  1.00  0.00    -0.014 A 
ATOM     11  C   UNL     1      46.272  48.622  35.277  1.00  0.00     0.013 A 
ATOM     12  C   UNL     1      47.056  49.753  35.085  1.00  0.00     0.051 A 
ATOM     13  C   UNL     1      48.263  49.668  34.391  1.00  0.00     0.158 A 
ATOM     14  C   UNL     1      48.678  48.428  33.852  1.00  0.00     0.166 A 
ENDROOT
BRANCH  14  15
ATOM     15  O   UNL     1      50.000  48.254  33.433  1.00  0.00    -0.504 OA
ATOM     16  H   UNL     1      50.327  48.468  32.502  1.00  0.00     0.293 HD
ENDBRANCH  14  15
BRANCH   5  17
ATOM     17  O   UNL     1      48.888  42.323  31.456  1.00  0.00    -0.508 OA
ATOM     18  H   UNL     1      48.181  41.605  31.343  1.00  0.00     0.293 HD
ENDBRANCH   5  17
BRANCH   7  19
ATOM     19  O   UNL     1      49.313  47.122  31.327  1.00  0.00    -0.507 OA
ATOM     20  H   UNL     1      49.587  47.967  31.814  1.00  0.00     0.293 HD
ENDBRANCH   7  19
BRANCH  13  21
ATOM     21  O   UNL     1      49.025  50.830  34.265  1.00  0.00    -0.504 OA
ATOM     22  H   UNL     1      48.787  51.704  34.716  1.00  0.00     0.293 HD
ENDBRANCH  13  21
TORSDOF 4
ENDMDL
MODEL 5
REMARK VINA RESULT:    -5.986      4.009      5.408
REMARK INTER + INTRA:          -6.686
REMARK INTER:                  -6.686
REMARK INTRA:                   0.000
REMARK UNBOUND:                 0.000
REMARK SMILES Oc1cc(O)c2c(ccc3ccc(O)c(O)c32)c1
REMARK SMILES IDX 9 1 8 2 7 3 18 4 2 5 3 6 4 7 6 8 17 9 10 10 11 11 12 12
REMARK SMILES IDX 13 13 15 14 16 15 1 17 5 19 14 21
REMARK H PARENT 16 16 1 18 5 20 14 22
REMARK Flexibility Score: inf
ROOT
ATOM      1  C   UNL     1      49.624  50.294  35.337  1.00  0.00     0.009 A 
ATOM      2  C   UNL     1      50.853  50.068  35.942  1.00  0.00     0.009 A 
ATOM      3  C   UNL     1      50.999  49.053  36.894  1.00  0.00    -0.010 A 
ATOM      4  C   UNL     1      52.231  48.896  37.545  1.00  0.00     0.055 A 
ATOM      5  C   UNL     1      52.367  47.983  38.587  1.00  0.00     0.119 A 
ATOM      6  C   UNL     1      51.255  47.263  39.025  1.00  0.00     0.093 A 
ATOM      7  C   UNL     1      50.009  47.420  38.402  1.00  0.00     0.127 A 
ATOM      8  C   UNL     1      49.892  48.221  37.231  1.00  0.00     0.035 A 
ATOM      9  C   UNL     1      48.701  48.311  36.439  1.00  0.00     0.039 A 
ATOM     10  C   UNL     1      48.551  49.425  35.567  1.00  0.00    -0.014 A 
ATOM     11  C   UNL     1      47.342  49.639  34.893  1.00  0.00     0.013 A 
ATOM     12  C   UNL     1      46.295  48.735  35.026  1.00  0.00     0.051 A 
ATOM     13  C   UNL     1      46.466  47.558  35.755  1.00  0.00     0.158 A 
ATOM     14  C   UNL     1      47.703  47.296  36.389  1.00  0.00     0.166 A 
ENDROOT
BRANCH  14  15
ATOM     15  O   UNL     1      47.994  46.010  36.853  1.00  0.00    -0.504 OA
ATOM     16  H   UNL     1      48.278  45.805  37.800  1.00  0.00     0.293 HD
ENDBRANCH  14  15
BRANCH   5  17
ATOM     17  O   UNL     1      53.605  47.826  39.206  1.00  0.00    -0.508 OA
ATOM     18  H   UNL     1      54.373  47.353  38.744  1.00  0.00     0.293 HD
ENDBRANCH   5  17
BRANCH   7  19
ATOM     19  O   UNL     1      48.888  46.860  39.014  1.00  0.00    -0.507 OA
ATOM     20  H   UNL     1      48.182  47.429  39.464  1.00  0.00     0.293 HD
ENDBRANCH   7  19
BRANCH  13  21
ATOM     21  O   UNL     1      45.390  46.670  35.820  1.00  0.00    -0.504 OA
ATOM     22  H   UNL     1      44.468  46.885  35.464  1.00  0.00     0.293 HD
ENDBRANCH  13  21
TORSDOF 4
ENDMDL
MODEL 6
REMARK VINA RESULT:    -5.860      9.767     11.895
REMARK INTER + INTRA:          -6.545
REMARK INTER:                  -6.545
REMARK INTRA:                   0.000
REMARK UNBOUND:                 0.000
REMARK SMILES Oc1cc(O)c2c(ccc3ccc(O)c(O)c32)c1
REMARK SMILES IDX 9 1 8 2 7 3 18 4 2 5 3 6 4 7 6 8 17 9 10 10 11 11 12 12
REMARK SMILES IDX 13 13 15 14 16 15 1 17 5 19 14 21
REMARK H PARENT 16 16 1 18 5 20 14 22
REMARK Flexibility Score: inf
ROOT
ATOM      1  C   UNL     1      44.060  54.220  35.774  1.00  0.00     0.009 A 
ATOM      2  C   UNL     1      43.626  54.396  34.467  1.00  0.00     0.009 A 
ATOM      3  C   UNL     1      43.100  55.624  34.054  1.00  0.00    -0.010 A 
ATOM      4  C   UNL     1      42.597  55.752  32.750  1.00  0.00     0.055 A 
ATOM      5  C   UNL     1      41.951  56.919  32.354  1.00  0.00     0.119 A 
ATOM      6  C   UNL     1      41.748  57.945  33.278  1.00  0.00     0.093 A 
ATOM      7  C   UNL     1      42.222  57.830  34.592  1.00  0.00     0.127 A 
ATOM      8  C   UNL     1      43.031  56.718  34.964  1.00  0.00     0.035 A 
ATOM      9  C   UNL     1      43.689  56.597  36.232  1.00  0.00     0.039 A 
ATOM     10  C   UNL     1      44.105  55.305  36.657  1.00  0.00    -0.014 A 
ATOM     11  C   UNL     1      44.610  55.113  37.949  1.00  0.00     0.013 A 
ATOM     12  C   UNL     1      44.759  56.193  38.812  1.00  0.00     0.051 A 
ATOM     13  C   UNL     1      44.499  57.490  38.371  1.00  0.00     0.158 A 
ATOM     14  C   UNL     1      44.050  57.707  37.047  1.00  0.00     0.166 A 
ENDROOT
BRANCH  14  15
ATOM     15  O   UNL     1      44.081  58.992  36.500  1.00  0.00    -0.504 OA
ATOM     16  H   UNL     1      43.549  59.271  35.688  1.00  0.00     0.293 HD
ENDBRANCH  14  15
BRANCH   5  17
ATOM     17  O   UNL     1      41.479  57.034  31.048  1.00  0.00    -0.508 OA
ATOM     18  H   UNL     1      40.642  56.552  30.742  1.00  0.00     0.293 HD
ENDBRANCH   5  17
BRANCH   7  19
ATOM     19  O   UNL     1      41.800  58.768  35.532  1.00  0.00    -0.507 OA
ATOM     20  H   UNL     1      42.380  59.039  36.318  1.00  0.00     0.293 HD
ENDBRANCH   7  19
BRANCH  13  21
ATOM     21  O   UNL     1      44.705  58.537  39.271  1.00  0.00    -0.504 OA
ATOM     22  H   UNL     1      44.541  58.457  40.266  1.00  0.00     0.293 HD
ENDBRANCH  13  21
TORSDOF 4
ENDMDL
MODEL 7
REMARK VINA RESULT:    -5.856      8.186     10.849
REMARK INTER + INTRA:          -6.540
REMARK INTER:                  -6.540
REMARK INTRA:                   0.000
REMARK UNBOUND:                 0.000
REMARK SMILES Oc1cc(O)c2c(ccc3ccc(O)c(O)c32)c1
REMARK SMILES IDX 9 1 8 2 7 3 18 4 2 5 3 6 4 7 6 8 17 9 10 10 11 11 12 12
REMARK SMILES IDX 13 13 15 14 16 15 1 17 5 19 14 21
REMARK H PARENT 16 16 1 18 5 20 14 22
REMARK Flexibility Score: inf
ROOT
ATOM      1  C   UNL     1      44.362  53.184  34.997  1.00  0.00     0.009 A 
ATOM      2  C   UNL     1      43.507  52.362  34.275  1.00  0.00     0.009 A 
ATOM      3  C   UNL     1      42.123  52.435  34.468  1.00  0.00    -0.010 A 
ATOM      4  C   UNL     1      41.287  51.542  33.782  1.00  0.00     0.055 A 
ATOM      5  C   UNL     1      39.922  51.504  34.052  1.00  0.00     0.119 A 
ATOM      6  C   UNL     1      39.392  52.318  35.055  1.00  0.00     0.093 A 
ATOM      7  C   UNL     1      40.213  53.202  35.767  1.00  0.00     0.127 A 
ATOM      8  C   UNL     1      41.575  53.374  35.389  1.00  0.00     0.035 A 
ATOM      9  C   UNL     1      42.443  54.366  35.953  1.00  0.00     0.039 A 
ATOM     10  C   UNL     1      43.848  54.187  35.826  1.00  0.00    -0.014 A 
ATOM     11  C   UNL     1      44.735  55.043  36.492  1.00  0.00     0.013 A 
ATOM     12  C   UNL     1      44.250  56.110  37.240  1.00  0.00     0.051 A 
ATOM     13  C   UNL     1      42.886  56.397  37.260  1.00  0.00     0.158 A 
ATOM     14  C   UNL     1      41.983  55.580  36.541  1.00  0.00     0.166 A 
ENDROOT
BRANCH  14  15
ATOM     15  O   UNL     1      40.680  56.021  36.298  1.00  0.00    -0.504 OA
ATOM     16  H   UNL     1      40.122  56.525  36.972  1.00  0.00     0.293 HD
ENDBRANCH  14  15
BRANCH   5  17
ATOM     17  O   UNL     1      39.105  50.625  33.343  1.00  0.00    -0.508 OA
ATOM     18  H   UNL     1      38.825  50.816  32.388  1.00  0.00     0.293 HD
ENDBRANCH   5  17
BRANCH   7  19
ATOM     19  O   UNL     1      39.691  53.820  36.903  1.00  0.00    -0.507 OA
ATOM     20  H   UNL     1      38.835  54.361  36.874  1.00  0.00     0.293 HD
ENDBRANCH   7  19
BRANCH  13  21
ATOM     21  O   UNL     1      42.464  57.505  37.999  1.00  0.00    -0.504 OA
ATOM     22  H   UNL     1      43.085  58.249  38.289  1.00  0.00     0.293 HD
ENDBRANCH  13  21
TORSDOF 4
ENDMDL
MODEL 8
REMARK VINA RESULT:    -5.803      1.956      2.974
REMARK INTER + INTRA:          -6.481
REMARK INTER:                  -6.481
REMARK INTRA:                   0.000
REMARK UNBOUND:                 0.000
REMARK SMILES Oc1cc(O)c2c(ccc3ccc(O)c(O)c32)c1
REMARK SMILES IDX 9 1 8 2 7 3 18 4 2 5 3 6 4 7 6 8 17 9 10 10 11 11 12 12
REMARK SMILES IDX 13 13 15 14 16 15 1 17 5 19 14 21
REMARK H PARENT 16 16 1 18 5 20 14 22
REMARK Flexibility Score: inf
ROOT
ATOM      1  C   UNL     1      49.266  46.344  31.469  1.00  0.00     0.009 A 
ATOM      2  C   UNL     1      49.595  47.608  31.939  1.00  0.00     0.009 A 
ATOM      3  C   UNL     1      48.935  48.146  33.049  1.00  0.00    -0.010 A 
ATOM      4  C   UNL     1      49.232  49.454  33.456  1.00  0.00     0.055 A 
ATOM      5  C   UNL     1      48.500  50.061  34.473  1.00  0.00     0.119 A 
ATOM      6  C   UNL     1      47.423  49.385  35.048  1.00  0.00     0.093 A 
ATOM      7  C   UNL     1      47.095  48.084  34.641  1.00  0.00     0.127 A 
ATOM      8  C   UNL     1      47.935  47.389  33.726  1.00  0.00     0.035 A 
ATOM      9  C   UNL     1      47.768  46.008  33.377  1.00  0.00     0.039 A 
ATOM     10  C   UNL     1      48.369  45.536  32.176  1.00  0.00    -0.014 A 
ATOM     11  C   UNL     1      48.105  44.241  31.715  1.00  0.00     0.013 A 
ATOM     12  C   UNL     1      47.297  43.384  32.452  1.00  0.00     0.051 A 
ATOM     13  C   UNL     1      46.817  43.768  33.704  1.00  0.00     0.158 A 
ATOM     14  C   UNL     1      47.127  45.051  34.214  1.00  0.00     0.166 A 
ENDROOT
BRANCH  14  15
ATOM     15  O   UNL     1      46.923  45.334  35.567  1.00  0.00    -0.504 OA
ATOM     16  H   UNL     1      46.145  45.875  35.917  1.00  0.00     0.293 HD
ENDBRANCH  14  15
BRANCH   5  17
ATOM     17  O   UNL     1      48.827  51.354  34.878  1.00  0.00    -0.508 OA
ATOM     18  H   UNL     1      48.120  52.074  34.973  1.00  0.00     0.293 HD
ENDBRANCH   5  17
BRANCH   7  19
ATOM     19  O   UNL     1      45.886  47.541  35.073  1.00  0.00    -0.507 OA
ATOM     20  H   UNL     1      45.042  47.599  34.516  1.00  0.00     0.293 HD
ENDBRANCH   7  19
BRANCH  13  21
ATOM     21  O   UNL     1      46.042  42.849  34.415  1.00  0.00    -0.504 OA
ATOM     22  H   UNL     1      46.435  42.138  35.018  1.00  0.00     0.293 HD
ENDBRANCH  13  21
TORSDOF 4
ENDMDL
MODEL 9
REMARK VINA RESULT:    -5.669      8.451      9.872
REMARK INTER + INTRA:          -6.331
REMARK INTER:                  -6.331
REMARK INTRA:                   0.000
REMARK UNBOUND:                 0.000
REMARK SMILES Oc1cc(O)c2c(ccc3ccc(O)c(O)c32)c1
REMARK SMILES IDX 9 1 8 2 7 3 18 4 2 5 3 6 4 7 6 8 17 9 10 10 11 11 12 12
REMARK SMILES IDX 13 13 15 14 16 15 1 17 5 19 14 21
REMARK H PARENT 16 16 1 18 5 20 14 22
REMARK Flexibility Score: inf
ROOT
ATOM      1  C   UNL     1      43.549  52.376  34.241  1.00  0.00     0.009 A 
ATOM      2  C   UNL     1      44.389  53.160  35.019  1.00  0.00     0.009 A 
ATOM      3  C   UNL     1      43.864  54.164  35.839  1.00  0.00    -0.010 A 
ATOM      4  C   UNL     1      44.740  54.992  36.556  1.00  0.00     0.055 A 
ATOM      5  C   UNL     1      44.253  56.080  37.276  1.00  0.00     0.119 A 
ATOM      6  C   UNL     1      42.891  56.383  37.234  1.00  0.00     0.093 A 
ATOM      7  C   UNL     1      42.001  55.582  36.506  1.00  0.00     0.127 A 
ATOM      8  C   UNL     1      42.456  54.373  35.906  1.00  0.00     0.035 A 
ATOM      9  C   UNL     1      41.591  53.415  35.282  1.00  0.00     0.039 A 
ATOM     10  C   UNL     1      42.160  52.485  34.368  1.00  0.00    -0.014 A 
ATOM     11  C   UNL     1      41.336  51.636  33.618  1.00  0.00     0.013 A 
ATOM     12  C   UNL     1      39.958  51.655  33.799  1.00  0.00     0.051 A 
ATOM     13  C   UNL     1      39.387  52.449  34.793  1.00  0.00     0.158 A 
ATOM     14  C   UNL     1      40.212  53.265  35.603  1.00  0.00     0.166 A 
ENDROOT
BRANCH  14  15
ATOM     15  O   UNL     1      39.707  53.819  36.782  1.00  0.00    -0.504 OA
ATOM     16  H   UNL     1      39.902  54.760  37.090  1.00  0.00     0.293 HD
ENDBRANCH  14  15
BRANCH   5  17
ATOM     17  O   UNL     1      45.137  56.877  38.000  1.00  0.00    -0.508 OA
ATOM     18  H   UNL     1      46.131  56.881  37.801  1.00  0.00     0.293 HD
ENDBRANCH   5  17
BRANCH   7  19
ATOM     19  O   UNL     1      40.703  56.048  36.306  1.00  0.00    -0.507 OA
ATOM     20  H   UNL     1      40.495  57.036  36.223  1.00  0.00     0.293 HD
ENDBRANCH   7  19
BRANCH  13  21
ATOM     21  O   UNL     1      38.001  52.396  34.954  1.00  0.00    -0.504 OA
ATOM     22  H   UNL     1      37.418  53.218  35.036  1.00  0.00     0.293 HD
ENDBRANCH  13  21
TORSDOF 4
ENDMDL
