MODEL 1
REMARK VINA RESULT:    -4.569      0.000      0.000
REMARK INTER + INTRA:          -4.569
REMARK INTER:                  -4.569
REMARK INTRA:                   0.000
REMARK UNBOUND:                 0.000
REMARK SMILES CC1=CC(=O)[C@H]2C[C@@H]1C2(C)C
REMARK SMILES IDX 1 1 2 2 3 3 4 4 5 5 6 6 7 7 8 8 9 9 10 10 11 11
REMARK H PARENT
REMARK Flexibility Score: inf
ROOT
ATOM      1  C   UNL     1      29.313  -5.501  51.375  1.00  0.00     0.040 C 
ATOM      2  C   UNL     1      28.203  -4.577  51.763  1.00  0.00    -0.066 C 
ATOM      3  C   UNL     1      28.253  -3.246  51.474  1.00  0.00     0.047 C 
ATOM      4  C   UNL     1      27.094  -2.421  51.943  1.00  0.00     0.159 C 
ATOM      5  O   UNL     1      27.043  -1.175  51.772  1.00  0.00    -0.295 OA
ATOM      6  C   UNL     1      25.980  -3.198  52.646  1.00  0.00     0.067 C 
ATOM      7  C   UNL     1      25.755  -4.432  51.747  1.00  0.00     0.021 C 
ATOM      8  C   UNL     1      26.941  -5.084  52.493  1.00  0.00     0.022 C 
ATOM      9  C   UNL     1      26.625  -4.148  53.695  1.00  0.00    -0.019 C 
ATOM     10  C   UNL     1      25.578  -4.759  54.660  1.00  0.00     0.012 C 
ATOM     11  C   UNL     1      27.815  -3.614  54.543  1.00  0.00     0.012 C 
ENDROOT
TORSDOF 0
ENDMDL
MODEL 2
REMARK VINA RESULT:    -4.531      1.718      2.724
REMARK INTER + INTRA:          -4.531
REMARK INTER:                  -4.531
REMARK INTRA:                   0.000
REMARK UNBOUND:                 0.000
REMARK SMILES CC1=CC(=O)[C@H]2C[C@@H]1C2(C)C
REMARK SMILES IDX 1 1 2 2 3 3 4 4 5 5 6 6 7 7 8 8 9 9 10 10 11 11
REMARK H PARENT
REMARK Flexibility Score: inf
ROOT
ATOM      1  C   UNL     1      27.661  -1.059  52.500  1.00  0.00     0.040 C 
ATOM      2  C   UNL     1      27.186  -2.476  52.457  1.00  0.00    -0.066 C 
ATOM      3  C   UNL     1      26.515  -2.968  51.378  1.00  0.00     0.047 C 
ATOM      4  C   UNL     1      26.064  -4.394  51.471  1.00  0.00     0.159 C 
ATOM      5  O   UNL     1      25.402  -4.951  50.557  1.00  0.00    -0.295 OA
ATOM      6  C   UNL     1      26.462  -5.124  52.754  1.00  0.00     0.067 C 
ATOM      7  C   UNL     1      27.948  -4.754  52.955  1.00  0.00     0.021 C 
ATOM      8  C   UNL     1      27.444  -3.455  53.624  1.00  0.00     0.022 C 
ATOM      9  C   UNL     1      26.128  -4.210  53.968  1.00  0.00    -0.019 C 
ATOM     10  C   UNL     1      26.217  -4.966  55.317  1.00  0.00     0.012 C 
ATOM     11  C   UNL     1      24.794  -3.410  53.945  1.00  0.00     0.012 C 
ENDROOT
TORSDOF 0
ENDMDL
MODEL 3
REMARK VINA RESULT:    -4.430      1.943      3.533
REMARK INTER + INTRA:          -4.430
REMARK INTER:                  -4.430
REMARK INTRA:                   0.000
REMARK UNBOUND:                 0.000
REMARK SMILES CC1=CC(=O)[C@H]2C[C@@H]1C2(C)C
REMARK SMILES IDX 1 1 2 2 3 3 4 4 5 5 6 6 7 7 8 8 9 9 10 10 11 11
REMARK H PARENT
REMARK Flexibility Score: inf
ROOT
ATOM      1  C   UNL     1      24.609  -4.009  55.240  1.00  0.00     0.040 C 
ATOM      2  C   UNL     1      25.594  -4.172  54.127  1.00  0.00    -0.066 C 
ATOM      3  C   UNL     1      26.482  -5.205  54.111  1.00  0.00     0.047 C 
ATOM      4  C   UNL     1      27.438  -5.241  52.958  1.00  0.00     0.159 C 
ATOM      5  O   UNL     1      28.330  -6.122  52.851  1.00  0.00    -0.295 OA
ATOM      6  C   UNL     1      27.255  -4.131  51.922  1.00  0.00     0.067 C 
ATOM      7  C   UNL     1      25.731  -4.087  51.680  1.00  0.00     0.021 C 
ATOM      8  C   UNL     1      25.645  -3.191  52.936  1.00  0.00     0.022 C 
ATOM      9  C   UNL     1      27.120  -2.774  52.670  1.00  0.00    -0.019 C 
ATOM     10  C   UNL     1      27.226  -1.560  51.713  1.00  0.00     0.012 C 
ATOM     11  C   UNL     1      28.041  -2.510  53.895  1.00  0.00     0.012 C 
ENDROOT
TORSDOF 0
ENDMDL
MODEL 4
REMARK VINA RESULT:    -4.386      1.764      3.209
REMARK INTER + INTRA:          -4.386
REMARK INTER:                  -4.386
REMARK INTRA:                   0.000
REMARK UNBOUND:                 0.000
REMARK SMILES CC1=CC(=O)[C@H]2C[C@@H]1C2(C)C
REMARK SMILES IDX 1 1 2 2 3 3 4 4 5 5 6 6 7 7 8 8 9 9 10 10 11 11
REMARK H PARENT
REMARK Flexibility Score: inf
ROOT
ATOM      1  C   UNL     1      26.776  -0.920  52.134  1.00  0.00     0.040 C 
ATOM      2  C   UNL     1      26.610  -2.370  52.459  1.00  0.00    -0.066 C 
ATOM      3  C   UNL     1      25.960  -2.775  53.586  1.00  0.00     0.047 C 
ATOM      4  C   UNL     1      25.888  -4.254  53.815  1.00  0.00     0.159 C 
ATOM      5  O   UNL     1      25.348  -4.751  54.838  1.00  0.00    -0.295 OA
ATOM      6  C   UNL     1      26.517  -5.117  52.721  1.00  0.00     0.067 C 
ATOM      7  C   UNL     1      25.997  -4.498  51.406  1.00  0.00     0.021 C 
ATOM      8  C   UNL     1      27.151  -3.478  51.530  1.00  0.00     0.022 C 
ATOM      9  C   UNL     1      27.918  -4.536  52.376  1.00  0.00    -0.019 C 
ATOM     10  C   UNL     1      28.756  -5.498  51.498  1.00  0.00     0.012 C 
ATOM     11  C   UNL     1      28.817  -4.033  53.542  1.00  0.00     0.012 C 
ENDROOT
TORSDOF 0
ENDMDL
MODEL 5
REMARK VINA RESULT:    -4.334      0.913      3.200
REMARK INTER + INTRA:          -4.334
REMARK INTER:                  -4.334
REMARK INTRA:                   0.000
REMARK UNBOUND:                 0.000
REMARK SMILES CC1=CC(=O)[C@H]2C[C@@H]1C2(C)C
REMARK SMILES IDX 1 1 2 2 3 3 4 4 5 5 6 6 7 7 8 8 9 9 10 10 11 11
REMARK H PARENT
REMARK Flexibility Score: inf
ROOT
ATOM      1  C   UNL     1      24.592  -4.009  55.013  1.00  0.00     0.040 C 
ATOM      2  C   UNL     1      25.665  -3.558  54.074  1.00  0.00    -0.066 C 
ATOM      3  C   UNL     1      25.616  -2.335  53.475  1.00  0.00     0.047 C 
ATOM      4  C   UNL     1      26.734  -2.013  52.531  1.00  0.00     0.159 C 
ATOM      5  O   UNL     1      26.781  -0.932  51.888  1.00  0.00    -0.295 OA
ATOM      6  C   UNL     1      27.812  -3.090  52.403  1.00  0.00     0.067 C 
ATOM      7  C   UNL     1      28.107  -3.505  53.860  1.00  0.00     0.021 C 
ATOM      8  C   UNL     1      26.886  -4.445  53.748  1.00  0.00     0.022 C 
ATOM      9  C   UNL     1      27.115  -4.467  52.210  1.00  0.00    -0.019 C 
ATOM     10  C   UNL     1      28.108  -5.575  51.777  1.00  0.00     0.012 C 
ATOM     11  C   UNL     1      25.869  -4.541  51.281  1.00  0.00     0.012 C 
ENDROOT
TORSDOF 0
ENDMDL
MODEL 6
REMARK VINA RESULT:    -4.245      1.683      2.405
REMARK INTER + INTRA:          -4.245
REMARK INTER:                  -4.245
REMARK INTRA:                   0.000
REMARK UNBOUND:                 0.000
REMARK SMILES CC1=CC(=O)[C@H]2C[C@@H]1C2(C)C
REMARK SMILES IDX 1 1 2 2 3 3 4 4 5 5 6 6 7 7 8 8 9 9 10 10 11 11
REMARK H PARENT
REMARK Flexibility Score: inf
ROOT
ATOM      1  C   UNL     1      25.705  -4.751  50.989  1.00  0.00     0.040 C 
ATOM      2  C   UNL     1      26.101  -3.999  52.220  1.00  0.00    -0.066 C 
ATOM      3  C   UNL     1      27.387  -3.597  52.424  1.00  0.00     0.047 C 
ATOM      4  C   UNL     1      27.662  -2.881  53.711  1.00  0.00     0.159 C 
ATOM      5  O   UNL     1      28.815  -2.495  54.032  1.00  0.00    -0.295 OA
ATOM      6  C   UNL     1      26.443  -2.653  54.606  1.00  0.00     0.067 C 
ATOM      7  C   UNL     1      25.353  -2.144  53.639  1.00  0.00     0.021 C 
ATOM      8  C   UNL     1      25.073  -3.628  53.311  1.00  0.00     0.022 C 
ATOM      9  C   UNL     1      25.649  -3.987  54.710  1.00  0.00    -0.019 C 
ATOM     10  C   UNL     1      24.570  -3.946  55.821  1.00  0.00     0.012 C 
ATOM     11  C   UNL     1      26.449  -5.313  54.858  1.00  0.00     0.012 C 
ENDROOT
TORSDOF 0
ENDMDL
MODEL 7
REMARK VINA RESULT:    -4.235      1.744      2.510
REMARK INTER + INTRA:          -4.235
REMARK INTER:                  -4.235
REMARK INTRA:                   0.000
REMARK UNBOUND:                 0.000
REMARK SMILES CC1=CC(=O)[C@H]2C[C@@H]1C2(C)C
REMARK SMILES IDX 1 1 2 2 3 3 4 4 5 5 6 6 7 7 8 8 9 9 10 10 11 11
REMARK H PARENT
REMARK Flexibility Score: inf
ROOT
ATOM      1  C   UNL     1      29.477  -4.445  53.491  1.00  0.00     0.040 C 
ATOM      2  C   UNL     1      28.032  -4.256  53.155  1.00  0.00    -0.066 C 
ATOM      3  C   UNL     1      27.500  -4.753  52.004  1.00  0.00     0.047 C 
ATOM      4  C   UNL     1      26.047  -4.470  51.768  1.00  0.00     0.159 C 
ATOM      5  O   UNL     1      25.451  -4.842  50.724  1.00  0.00    -0.295 OA
ATOM      6  C   UNL     1      25.342  -3.696  52.882  1.00  0.00     0.067 C 
ATOM      7  C   UNL     1      25.808  -4.392  54.179  1.00  0.00     0.021 C 
ATOM      8  C   UNL     1      27.070  -3.504  54.100  1.00  0.00     0.022 C 
ATOM      9  C   UNL     1      26.230  -2.483  53.280  1.00  0.00    -0.019 C 
ATOM     10  C   UNL     1      25.480  -1.474  54.186  1.00  0.00     0.012 C 
ATOM     11  C   UNL     1      26.942  -1.685  52.150  1.00  0.00     0.012 C 
ENDROOT
TORSDOF 0
ENDMDL
MODEL 8
REMARK VINA RESULT:    -4.149     12.759     14.539
REMARK INTER + INTRA:          -4.149
REMARK INTER:                  -4.149
REMARK INTRA:                   0.000
REMARK UNBOUND:                 0.000
REMARK SMILES CC1=CC(=O)[C@H]2C[C@@H]1C2(C)C
REMARK SMILES IDX 1 1 2 2 3 3 4 4 5 5 6 6 7 7 8 8 9 9 10 10 11 11
REMARK H PARENT
REMARK Flexibility Score: inf
ROOT
ATOM      1  C   UNL     1      16.786  -1.391  58.310  1.00  0.00     0.040 C 
ATOM      2  C   UNL     1      16.028  -1.586  59.585  1.00  0.00    -0.066 C 
ATOM      3  C   UNL     1      15.043  -0.723  59.963  1.00  0.00     0.047 C 
ATOM      4  C   UNL     1      14.380  -1.008  61.276  1.00  0.00     0.159 C 
ATOM      5  O   UNL     1      13.484  -0.264  61.753  1.00  0.00    -0.295 OA
ATOM      6  C   UNL     1      14.869  -2.265  61.997  1.00  0.00     0.067 C 
ATOM      7  C   UNL     1      14.919  -3.341  60.890  1.00  0.00     0.021 C 
ATOM      8  C   UNL     1      16.311  -2.777  60.525  1.00  0.00     0.022 C 
ATOM      9  C   UNL     1      16.425  -2.266  61.990  1.00  0.00    -0.019 C 
ATOM     10  C   UNL     1      17.019  -3.333  62.943  1.00  0.00     0.012 C 
ATOM     11  C   UNL     1      17.165  -0.921  62.244  1.00  0.00     0.012 C 
ENDROOT
TORSDOF 0
ENDMDL
MODEL 9
REMARK VINA RESULT:    -4.103      1.561      3.216
REMARK INTER + INTRA:          -4.103
REMARK INTER:                  -4.103
REMARK INTRA:                   0.000
REMARK UNBOUND:                 0.000
REMARK SMILES CC1=CC(=O)[C@H]2C[C@@H]1C2(C)C
REMARK SMILES IDX 1 1 2 2 3 3 4 4 5 5 6 6 7 7 8 8 9 9 10 10 11 11
REMARK H PARENT
REMARK Flexibility Score: inf
ROOT
ATOM      1  C   UNL     1      26.126  -5.867  56.079  1.00  0.00     0.040 C 
ATOM      2  C   UNL     1      26.562  -4.829  55.094  1.00  0.00    -0.066 C 
ATOM      3  C   UNL     1      26.886  -3.566  55.489  1.00  0.00     0.047 C 
ATOM      4  C   UNL     1      27.277  -2.611  54.404  1.00  0.00     0.159 C 
ATOM      5  O   UNL     1      27.560  -1.407  54.637  1.00  0.00    -0.295 OA
ATOM      6  C   UNL     1      27.305  -3.200  52.993  1.00  0.00     0.067 C 
ATOM      7  C   UNL     1      28.042  -4.546  53.160  1.00  0.00     0.021 C 
ATOM      8  C   UNL     1      26.681  -5.140  53.586  1.00  0.00     0.022 C 
ATOM      9  C   UNL     1      25.995  -4.009  52.768  1.00  0.00    -0.019 C 
ATOM     10  C   UNL     1      25.790  -4.397  51.282  1.00  0.00     0.012 C 
ATOM     11  C   UNL     1      24.661  -3.418  53.305  1.00  0.00     0.012 C 
ENDROOT
TORSDOF 0
ENDMDL
