MODEL 1
REMARK VINA RESULT:    -2.500      0.000      0.000
REMARK INTER + INTRA:          -2.500
REMARK INTER:                  -2.500
REMARK INTRA:                   0.000
REMARK UNBOUND:                 0.000
REMARK SMILES CC(=O)[O-]
REMARK SMILES IDX 1 1 2 2 3 3 4 4
REMARK H PARENT
REMARK Flexibility Score: inf
ROOT
ATOM      1  C   UNL     1       3.910 -33.606  21.658  1.00  0.00     0.063 C 
ATOM      2  C   UNL     1       4.913 -34.004  22.687  1.00  0.00     0.038 C 
ATOM      3  O   UNL     1       5.593 -33.126  23.278  1.00  0.00    -0.550 OA
ATOM      4  O   UNL     1       5.060 -35.340  23.036  1.00  0.00    -0.550 OA
ENDROOT
TORSDOF 0
ENDMDL
MODEL 2
REMARK VINA RESULT:    -2.457      7.132      7.622
REMARK INTER + INTRA:          -2.457
REMARK INTER:                  -2.457
REMARK INTRA:                   0.000
REMARK UNBOUND:                 0.000
REMARK SMILES CC(=O)[O-]
REMARK SMILES IDX 1 1 2 2 3 3 4 4
REMARK H PARENT
REMARK Flexibility Score: inf
ROOT
ATOM      1  C   UNL     1       3.461 -37.226  14.843  1.00  0.00     0.063 C 
ATOM      2  C   UNL     1       2.747 -36.863  16.101  1.00  0.00     0.038 C 
ATOM      3  O   UNL     1       1.753 -36.092  16.062  1.00  0.00    -0.550 OA
ATOM      4  O   UNL     1       3.142 -37.418  17.311  1.00  0.00    -0.550 OA
ENDROOT
TORSDOF 0
ENDMDL
MODEL 3
REMARK VINA RESULT:    -2.440      1.424      2.239
REMARK INTER + INTRA:          -2.440
REMARK INTER:                  -2.440
REMARK INTRA:                   0.000
REMARK UNBOUND:                 0.000
REMARK SMILES CC(=O)[O-]
REMARK SMILES IDX 1 1 2 2 3 3 4 4
REMARK H PARENT
REMARK Flexibility Score: inf
ROOT
ATOM      1  C   UNL     1       5.733 -33.486  23.258  1.00  0.00     0.063 C 
ATOM      2  C   UNL     1       4.708 -34.178  22.426  1.00  0.00     0.038 C 
ATOM      3  O   UNL     1       4.644 -35.435  22.419  1.00  0.00    -0.550 OA
ATOM      4  O   UNL     1       3.784 -33.437  21.701  1.00  0.00    -0.550 OA
ENDROOT
TORSDOF 0
ENDMDL
MODEL 4
REMARK VINA RESULT:    -2.434      1.373      1.740
REMARK INTER + INTRA:          -2.434
REMARK INTER:                  -2.434
REMARK INTRA:                   0.000
REMARK UNBOUND:                 0.000
REMARK SMILES CC(=O)[O-]
REMARK SMILES IDX 1 1 2 2 3 3 4 4
REMARK H PARENT
REMARK Flexibility Score: inf
ROOT
ATOM      1  C   UNL     1       5.750 -33.462  23.264  1.00  0.00     0.063 C 
ATOM      2  C   UNL     1       4.712 -34.090  22.398  1.00  0.00     0.038 C 
ATOM      3  O   UNL     1       3.928 -33.368  21.728  1.00  0.00    -0.550 OA
ATOM      4  O   UNL     1       4.641 -35.472  22.285  1.00  0.00    -0.550 OA
ENDROOT
TORSDOF 0
ENDMDL
MODEL 5
REMARK VINA RESULT:    -2.380      2.345      2.501
REMARK INTER + INTRA:          -2.380
REMARK INTER:                  -2.380
REMARK INTRA:                   0.000
REMARK UNBOUND:                 0.000
REMARK SMILES CC(=O)[O-]
REMARK SMILES IDX 1 1 2 2 3 3 4 4
REMARK H PARENT
REMARK Flexibility Score: inf
ROOT
ATOM      1  C   UNL     1       3.885 -33.692  21.504  1.00  0.00     0.063 C 
ATOM      2  C   UNL     1       5.002 -34.200  20.658  1.00  0.00     0.038 C 
ATOM      3  O   UNL     1       4.965 -34.053  19.409  1.00  0.00    -0.550 OA
ATOM      4  O   UNL     1       6.113 -34.788  21.250  1.00  0.00    -0.550 OA
ENDROOT
TORSDOF 0
ENDMDL
MODEL 6
REMARK VINA RESULT:    -2.377      5.709      6.153
REMARK INTER + INTRA:          -2.377
REMARK INTER:                  -2.377
REMARK INTRA:                   0.000
REMARK UNBOUND:                 0.000
REMARK SMILES CC(=O)[O-]
REMARK SMILES IDX 1 1 2 2 3 3 4 4
REMARK H PARENT
REMARK Flexibility Score: inf
ROOT
ATOM      1  C   UNL     1       2.774 -36.952  16.663  1.00  0.00     0.063 C 
ATOM      2  C   UNL     1       2.825 -37.376  18.092  1.00  0.00     0.038 C 
ATOM      3  O   UNL     1       3.916 -37.351  18.719  1.00  0.00    -0.550 OA
ATOM      4  O   UNL     1       1.660 -37.746  18.750  1.00  0.00    -0.550 OA
ENDROOT
TORSDOF 0
ENDMDL
MODEL 7
REMARK VINA RESULT:    -2.354     10.529     10.913
REMARK INTER + INTRA:          -2.354
REMARK INTER:                  -2.354
REMARK INTRA:                   0.000
REMARK UNBOUND:                 0.000
REMARK SMILES CC(=O)[O-]
REMARK SMILES IDX 1 1 2 2 3 3 4 4
REMARK H PARENT
REMARK Flexibility Score: inf
ROOT
ATOM      1  C   UNL     1       5.420 -27.137  29.532  1.00  0.00     0.063 C 
ATOM      2  C   UNL     1       5.015 -25.702  29.550  1.00  0.00     0.038 C 
ATOM      3  O   UNL     1       5.631 -24.864  28.841  1.00  0.00    -0.550 OA
ATOM      4  O   UNL     1       3.921 -25.296  30.304  1.00  0.00    -0.550 OA
ENDROOT
TORSDOF 0
ENDMDL
MODEL 8
REMARK VINA RESULT:    -2.345      3.485      3.999
REMARK INTER + INTRA:          -2.345
REMARK INTER:                  -2.345
REMARK INTRA:                   0.000
REMARK UNBOUND:                 0.000
REMARK SMILES CC(=O)[O-]
REMARK SMILES IDX 1 1 2 2 3 3 4 4
REMARK H PARENT
REMARK Flexibility Score: inf
ROOT
ATOM      1  C   UNL     1       4.987 -37.630  23.594  1.00  0.00     0.063 C 
ATOM      2  C   UNL     1       4.973 -36.860  24.870  1.00  0.00     0.038 C 
ATOM      3  O   UNL     1       4.262 -37.248  25.833  1.00  0.00    -0.550 OA
ATOM      4  O   UNL     1       5.787 -35.745  25.020  1.00  0.00    -0.550 OA
ENDROOT
TORSDOF 0
ENDMDL
MODEL 9
REMARK VINA RESULT:    -2.328      5.682      6.211
REMARK INTER + INTRA:          -2.328
REMARK INTER:                  -2.328
REMARK INTRA:                   0.000
REMARK UNBOUND:                 0.000
REMARK SMILES CC(=O)[O-]
REMARK SMILES IDX 1 1 2 2 3 3 4 4
REMARK H PARENT
REMARK Flexibility Score: inf
ROOT
ATOM      1  C   UNL     1       1.629 -37.685  18.733  1.00  0.00     0.063 C 
ATOM      2  C   UNL     1       2.943 -37.393  18.093  1.00  0.00     0.038 C 
ATOM      3  O   UNL     1       3.960 -37.186  18.806  1.00  0.00    -0.550 OA
ATOM      4  O   UNL     1       3.062 -37.403  16.710  1.00  0.00    -0.550 OA
ENDROOT
TORSDOF 0
ENDMDL
