MODEL 1
REMARK VINA RESULT:    -5.117      0.000      0.000
REMARK INTER + INTRA:          -6.364
REMARK INTER:                  -6.164
REMARK INTRA:                  -0.199
REMARK UNBOUND:                -0.199
REMARK SMILES C=CCc1ccc(O)c(OC)c1
REMARK SMILES IDX 9 1 7 2 6 3 5 4 4 5 12 6 10 7 11 8 8 9 3 11 2 12 1 13
REMARK H PARENT 8 10
REMARK Flexibility Score: inf
ROOT
ATOM      1  C   UNL     1     130.659 137.111 130.080  1.00  0.00     0.160 A 
ATOM      2  C   UNL     1     131.153 137.008 128.771  1.00  0.00     0.157 A 
ATOM      3  C   UNL     1     131.077 135.789 128.084  1.00  0.00     0.050 A 
ATOM      4  C   UNL     1     130.508 134.671 128.696  1.00  0.00     0.008 A 
ATOM      5  C   UNL     1     130.001 134.760 130.000  1.00  0.00    -0.040 A 
ATOM      6  C   UNL     1     130.085 135.978 130.692  1.00  0.00     0.054 A 
ENDROOT
BRANCH   1   7
ATOM      7  O   UNL     1     130.759 138.348 130.737  1.00  0.00    -0.493 OA
ATOM      8  C   UNL     1     129.944 138.745 131.835  1.00  0.00     0.278 C 
ENDBRANCH   1   7
BRANCH   2   9
ATOM      9  O   UNL     1     131.719 138.126 128.159  1.00  0.00    -0.504 OA
ATOM     10  H   UNL     1     132.705 138.159 127.926  1.00  0.00     0.293 HD
ENDBRANCH   2   9
BRANCH   5  11
ATOM     11  C   UNL     1     129.417 133.543 130.668  1.00  0.00     0.062 C 
BRANCH  11  12
ATOM     12  C   UNL     1     128.457 133.940 131.755  1.00  0.00    -0.030 C 
ATOM     13  C   UNL     1     127.195 133.501 131.771  1.00  0.00     0.004 C 
ENDBRANCH  11  12
ENDBRANCH   5  11
TORSDOF 4
ENDMDL
MODEL 2
REMARK VINA RESULT:    -5.106     11.527     13.279
REMARK INTER + INTRA:          -6.350
REMARK INTER:                  -6.148
REMARK INTRA:                  -0.203
REMARK UNBOUND:                -0.199
REMARK SMILES C=CCc1ccc(O)c(OC)c1
REMARK SMILES IDX 9 1 7 2 6 3 5 4 4 5 12 6 10 7 11 8 8 9 3 11 2 12 1 13
REMARK H PARENT 8 10
REMARK Flexibility Score: inf
ROOT
ATOM      1  C   UNL     1     128.241 122.350 129.962  1.00  0.00     0.160 A 
ATOM      2  C   UNL     1     127.779 122.449 128.641  1.00  0.00     0.157 A 
ATOM      3  C   UNL     1     127.885 123.662 127.949  1.00  0.00     0.050 A 
ATOM      4  C   UNL     1     128.452 124.778 128.566  1.00  0.00     0.008 A 
ATOM      5  C   UNL     1     128.928 124.693 129.882  1.00  0.00    -0.040 A 
ATOM      6  C   UNL     1     128.814 123.480 130.580  1.00  0.00     0.054 A 
ENDROOT
BRANCH   1   7
ATOM      7  O   UNL     1     128.112 121.119 130.626  1.00  0.00    -0.493 OA
ATOM      8  C   UNL     1     128.963 120.677 131.678  1.00  0.00     0.278 C 
ENDBRANCH   1   7
BRANCH   2   9
ATOM      9  O   UNL     1     127.214 121.334 128.025  1.00  0.00    -0.504 OA
ATOM     10  H   UNL     1     126.933 121.352 127.051  1.00  0.00     0.293 HD
ENDBRANCH   2   9
BRANCH   5  11
ATOM     11  C   UNL     1     129.510 125.907 130.555  1.00  0.00     0.062 C 
BRANCH  11  12
ATOM     12  C   UNL     1     130.348 125.511 131.739  1.00  0.00    -0.030 C 
ATOM     13  C   UNL     1     131.680 125.605 131.719  1.00  0.00     0.004 C 
ENDBRANCH  11  12
ENDBRANCH   5  11
TORSDOF 4
ENDMDL
MODEL 3
REMARK VINA RESULT:    -5.083      1.377      2.898
REMARK INTER + INTRA:          -6.322
REMARK INTER:                  -6.101
REMARK INTRA:                  -0.221
REMARK UNBOUND:                -0.199
REMARK SMILES C=CCc1ccc(O)c(OC)c1
REMARK SMILES IDX 9 1 7 2 6 3 5 4 4 5 12 6 10 7 11 8 8 9 3 11 2 12 1 13
REMARK H PARENT 8 10
REMARK Flexibility Score: inf
ROOT
ATOM      1  C   UNL     1     131.472 138.366 129.905  1.00  0.00     0.160 A 
ATOM      2  C   UNL     1     130.886 138.820 131.096  1.00  0.00     0.157 A 
ATOM      3  C   UNL     1     130.070 137.965 131.848  1.00  0.00     0.050 A 
ATOM      4  C   UNL     1     129.834 136.658 131.419  1.00  0.00     0.008 A 
ATOM      5  C   UNL     1     130.420 136.186 130.235  1.00  0.00    -0.040 A 
ATOM      6  C   UNL     1     131.231 137.045 129.477  1.00  0.00     0.054 A 
ENDROOT
BRANCH   1   7
ATOM      7  O   UNL     1     132.279 139.254 129.176  1.00  0.00    -0.493 OA
ATOM      8  C   UNL     1     131.992 139.706 127.857  1.00  0.00     0.278 C 
ENDBRANCH   1   7
BRANCH   2   9
ATOM      9  O   UNL     1     131.123 140.125 131.526  1.00  0.00    -0.504 OA
ATOM     10  H   UNL     1     131.744 140.323 132.302  1.00  0.00     0.293 HD
ENDBRANCH   2   9
BRANCH   5  11
ATOM     11  C   UNL     1     130.139 134.786 129.759  1.00  0.00     0.062 C 
BRANCH  11  12
ATOM     12  C   UNL     1     129.397 134.005 130.808  1.00  0.00    -0.030 C 
ATOM     13  C   UNL     1     128.911 132.785 130.561  1.00  0.00     0.004 C 
ENDBRANCH  11  12
ENDBRANCH   5  11
TORSDOF 4
ENDMDL
MODEL 4
REMARK VINA RESULT:    -4.912      2.322      3.864
REMARK INTER + INTRA:          -6.116
REMARK INTER:                  -5.903
REMARK INTRA:                  -0.213
REMARK UNBOUND:                -0.199
REMARK SMILES C=CCc1ccc(O)c(OC)c1
REMARK SMILES IDX 9 1 7 2 6 3 5 4 4 5 12 6 10 7 11 8 8 9 3 11 2 12 1 13
REMARK H PARENT 8 10
REMARK Flexibility Score: inf
ROOT
ATOM      1  C   UNL     1     131.127 136.949 129.356  1.00  0.00     0.160 A 
ATOM      2  C   UNL     1     131.607 138.265 129.309  1.00  0.00     0.157 A 
ATOM      3  C   UNL     1     131.812 138.982 130.495  1.00  0.00     0.050 A 
ATOM      4  C   UNL     1     131.542 138.391 131.731  1.00  0.00     0.008 A 
ATOM      5  C   UNL     1     131.071 137.072 131.795  1.00  0.00    -0.040 A 
ATOM      6  C   UNL     1     130.857 136.356 130.607  1.00  0.00     0.054 A 
ENDROOT
BRANCH   1   7
ATOM      7  O   UNL     1     130.928 136.265 128.146  1.00  0.00    -0.493 OA
ATOM      8  C   UNL     1     130.644 134.874 128.043  1.00  0.00     0.278 C 
ENDBRANCH   1   7
BRANCH   2   9
ATOM      9  O   UNL     1     131.878 138.855 128.075  1.00  0.00    -0.504 OA
ATOM     10  H   UNL     1     132.826 139.062 127.784  1.00  0.00     0.293 HD
ENDBRANCH   2   9
BRANCH   5  11
ATOM     11  C   UNL     1     130.751 136.448 133.128  1.00  0.00     0.062 C 
BRANCH  11  12
ATOM     12  C   UNL     1     130.999 137.422 134.246  1.00  0.00    -0.030 C 
ATOM     13  C   UNL     1     131.256 137.010 135.491  1.00  0.00     0.004 C 
ENDBRANCH  11  12
ENDBRANCH   5  11
TORSDOF 4
ENDMDL
MODEL 5
REMARK VINA RESULT:    -4.783      1.669      2.018
REMARK INTER + INTRA:          -5.961
REMARK INTER:                  -5.703
REMARK INTRA:                  -0.258
REMARK UNBOUND:                -0.199
REMARK SMILES C=CCc1ccc(O)c(OC)c1
REMARK SMILES IDX 9 1 7 2 6 3 5 4 4 5 12 6 10 7 11 8 8 9 3 11 2 12 1 13
REMARK H PARENT 8 10
REMARK Flexibility Score: inf
ROOT
ATOM      1  C   UNL     1     131.208 137.409 130.603  1.00  0.00     0.160 A 
ATOM      2  C   UNL     1     131.168 137.008 129.259  1.00  0.00     0.157 A 
ATOM      3  C   UNL     1     130.722 135.724 128.922  1.00  0.00     0.050 A 
ATOM      4  C   UNL     1     130.312 134.836 129.918  1.00  0.00     0.008 A 
ATOM      5  C   UNL     1     130.335 135.226 131.265  1.00  0.00    -0.040 A 
ATOM      6  C   UNL     1     130.791 136.510 131.605  1.00  0.00     0.054 A 
ENDROOT
BRANCH   1   7
ATOM      7  O   UNL     1     131.668 138.702 130.902  1.00  0.00    -0.493 OA
ATOM      8  C   UNL     1     130.825 139.803 131.223  1.00  0.00     0.278 C 
ENDBRANCH   1   7
BRANCH   2   9
ATOM      9  O   UNL     1     131.577 137.895 128.264  1.00  0.00    -0.504 OA
ATOM     10  H   UNL     1     132.556 138.012 128.028  1.00  0.00     0.293 HD
ENDBRANCH   2   9
BRANCH   5  11
ATOM     11  C   UNL     1     129.922 134.256 132.339  1.00  0.00     0.062 C 
BRANCH  11  12
ATOM     12  C   UNL     1     130.951 134.199 133.433  1.00  0.00    -0.030 C 
ATOM     13  C   UNL     1     132.058 133.459 133.317  1.00  0.00     0.004 C 
ENDBRANCH  11  12
ENDBRANCH   5  11
TORSDOF 4
ENDMDL
MODEL 6
REMARK VINA RESULT:    -4.764      1.792      2.955
REMARK INTER + INTRA:          -5.938
REMARK INTER:                  -5.735
REMARK INTRA:                  -0.203
REMARK UNBOUND:                -0.199
REMARK SMILES C=CCc1ccc(O)c(OC)c1
REMARK SMILES IDX 9 1 7 2 6 3 5 4 4 5 12 6 10 7 11 8 8 9 3 11 2 12 1 13
REMARK H PARENT 8 10
REMARK Flexibility Score: inf
ROOT
ATOM      1  C   UNL     1     131.114 137.404 130.560  1.00  0.00     0.160 A 
ATOM      2  C   UNL     1     131.041 136.856 131.849  1.00  0.00     0.157 A 
ATOM      3  C   UNL     1     130.727 135.502 132.020  1.00  0.00     0.050 A 
ATOM      4  C   UNL     1     130.487 134.689 130.911  1.00  0.00     0.008 A 
ATOM      5  C   UNL     1     130.567 135.219 129.615  1.00  0.00    -0.040 A 
ATOM      6  C   UNL     1     130.872 136.578 129.443  1.00  0.00     0.054 A 
ENDROOT
BRANCH   1   7
ATOM      7  O   UNL     1     131.426 138.767 130.429  1.00  0.00    -0.493 OA
ATOM      8  C   UNL     1     132.033 139.348 129.280  1.00  0.00     0.278 C 
ENDBRANCH   1   7
BRANCH   2   9
ATOM      9  O   UNL     1     131.281 137.668 132.956  1.00  0.00    -0.504 OA
ATOM     10  H   UNL     1     132.202 137.733 133.375  1.00  0.00     0.293 HD
ENDBRANCH   2   9
BRANCH   5  11
ATOM     11  C   UNL     1     130.277 134.346 128.423  1.00  0.00     0.062 C 
BRANCH  11  12
ATOM     12  C   UNL     1     130.339 132.892 128.798  1.00  0.00    -0.030 C 
ATOM     13  C   UNL     1     129.272 132.094 128.693  1.00  0.00     0.004 C 
ENDBRANCH  11  12
ENDBRANCH   5  11
TORSDOF 4
ENDMDL
MODEL 7
REMARK VINA RESULT:    -4.730     12.681     14.528
REMARK INTER + INTRA:          -5.898
REMARK INTER:                  -5.709
REMARK INTRA:                  -0.189
REMARK UNBOUND:                -0.199
REMARK SMILES C=CCc1ccc(O)c(OC)c1
REMARK SMILES IDX 9 1 7 2 6 3 5 4 4 5 12 6 10 7 11 8 8 9 3 11 2 12 1 13
REMARK H PARENT 8 10
REMARK Flexibility Score: inf
ROOT
ATOM      1  C   UNL     1     127.492 121.982 129.058  1.00  0.00     0.160 A 
ATOM      2  C   UNL     1     127.138 120.625 129.068  1.00  0.00     0.157 A 
ATOM      3  C   UNL     1     127.125 119.909 130.272  1.00  0.00     0.050 A 
ATOM      4  C   UNL     1     127.462 120.542 131.470  1.00  0.00     0.008 A 
ATOM      5  C   UNL     1     127.808 121.901 131.479  1.00  0.00    -0.040 A 
ATOM      6  C   UNL     1     127.830 122.615 130.271  1.00  0.00     0.054 A 
ENDROOT
BRANCH   1   7
ATOM      7  O   UNL     1     127.500 122.663 127.830  1.00  0.00    -0.493 OA
ATOM      8  C   UNL     1     127.998 123.983 127.645  1.00  0.00     0.278 C 
ENDBRANCH   1   7
BRANCH   2   9
ATOM      9  O   UNL     1     126.801 119.993 127.871  1.00  0.00    -0.504 OA
ATOM     10  H   UNL     1     125.843 119.964 127.539  1.00  0.00     0.293 HD
ENDBRANCH   2   9
BRANCH   5  11
ATOM     11  C   UNL     1     128.200 122.572 132.769  1.00  0.00     0.062 C 
BRANCH  11  12
ATOM     12  C   UNL     1     127.974 124.055 132.689  1.00  0.00    -0.030 C 
ATOM     13  C   UNL     1     127.501 124.750 133.728  1.00  0.00     0.004 C 
ENDBRANCH  11  12
ENDBRANCH   5  11
TORSDOF 4
ENDMDL
MODEL 8
REMARK VINA RESULT:    -4.729      9.188     11.243
REMARK INTER + INTRA:          -5.896
REMARK INTER:                  -5.682
REMARK INTRA:                  -0.214
REMARK UNBOUND:                -0.199
REMARK SMILES C=CCc1ccc(O)c(OC)c1
REMARK SMILES IDX 9 1 7 2 6 3 5 4 4 5 12 6 10 7 11 8 8 9 3 11 2 12 1 13
REMARK H PARENT 8 10
REMARK Flexibility Score: inf
ROOT
ATOM      1  C   UNL     1     121.062 135.197 133.339  1.00  0.00     0.160 A 
ATOM      2  C   UNL     1     120.599 134.974 134.644  1.00  0.00     0.157 A 
ATOM      3  C   UNL     1     119.629 135.817 135.201  1.00  0.00     0.050 A 
ATOM      4  C   UNL     1     119.115 136.884 134.461  1.00  0.00     0.008 A 
ATOM      5  C   UNL     1     119.560 137.115 133.151  1.00  0.00    -0.040 A 
ATOM      6  C   UNL     1     120.539 136.275 132.596  1.00  0.00     0.054 A 
ENDROOT
BRANCH   1   7
ATOM      7  O   UNL     1     122.040 134.334 132.819  1.00  0.00    -0.493 OA
ATOM      8  C   UNL     1     121.770 133.250 131.936  1.00  0.00     0.278 C 
ENDBRANCH   1   7
BRANCH   2   9
ATOM      9  O   UNL     1     121.111 133.907 135.383  1.00  0.00    -0.504 OA
ATOM     10  H   UNL     1     121.991 133.982 135.881  1.00  0.00     0.293 HD
ENDBRANCH   2   9
BRANCH   5  11
ATOM     11  C   UNL     1     119.027 138.284 132.368  1.00  0.00     0.062 C 
BRANCH  11  12
ATOM     12  C   UNL     1     120.070 138.816 131.426  1.00  0.00    -0.030 C 
ATOM     13  C   UNL     1     119.805 139.030 130.134  1.00  0.00     0.004 C 
ENDBRANCH  11  12
ENDBRANCH   5  11
TORSDOF 4
ENDMDL
MODEL 9
REMARK VINA RESULT:    -4.663     11.932     13.969
REMARK INTER + INTRA:          -5.817
REMARK INTER:                  -5.603
REMARK INTRA:                  -0.213
REMARK UNBOUND:                -0.199
REMARK SMILES C=CCc1ccc(O)c(OC)c1
REMARK SMILES IDX 9 1 7 2 6 3 5 4 4 5 12 6 10 7 11 8 8 9 3 11 2 12 1 13
REMARK H PARENT 8 10
REMARK Flexibility Score: inf
ROOT
ATOM      1  C   UNL     1     127.565 121.658 130.350  1.00  0.00     0.160 A 
ATOM      2  C   UNL     1     127.614 122.065 131.692  1.00  0.00     0.157 A 
ATOM      3  C   UNL     1     127.983 123.377 132.015  1.00  0.00     0.050 A 
ATOM      4  C   UNL     1     128.302 124.288 131.006  1.00  0.00     0.008 A 
ATOM      5  C   UNL     1     128.247 123.899 129.660  1.00  0.00    -0.040 A 
ATOM      6  C   UNL     1     127.886 122.582 129.336  1.00  0.00     0.054 A 
ENDROOT
BRANCH   1   7
ATOM      7  O   UNL     1     127.197 120.332 130.066  1.00  0.00    -0.493 OA
ATOM      8  C   UNL     1     126.751 119.875 128.794  1.00  0.00     0.278 C 
ENDBRANCH   1   7
BRANCH   2   9
ATOM      9  O   UNL     1     127.295 121.155 132.699  1.00  0.00    -0.504 OA
ATOM     10  H   UNL     1     126.734 120.331 132.511  1.00  0.00     0.293 HD
ENDBRANCH   2   9
BRANCH   5  11
ATOM     11  C   UNL     1     128.622 124.875 128.577  1.00  0.00     0.062 C 
BRANCH  11  12
ATOM     12  C   UNL     1     128.858 126.244 129.150  1.00  0.00    -0.030 C 
ATOM     13  C   UNL     1     129.595 127.156 128.509  1.00  0.00     0.004 C 
ENDBRANCH  11  12
ENDBRANCH   5  11
TORSDOF 4
ENDMDL
