MODEL 1
REMARK VINA RESULT:    -3.972      0.000      0.000
REMARK INTER + INTRA:          -4.635
REMARK INTER:                  -4.553
REMARK INTRA:                  -0.082
REMARK UNBOUND:                -0.082
REMARK SMILES COc1cc(C(=O)[O-])ccc1O
REMARK SMILES IDX 5 1 9 2 4 3 10 4 3 5 11 6 6 7 7 8 8 9 2 10 1 11 12 12
REMARK H PARENT 12 13
REMARK Flexibility Score: inf
ROOT
ATOM      1  C   UNL     1      19.598  39.650   4.496  1.00  0.00     0.001 A 
ATOM      2  C   UNL     1      20.367  39.930   3.355  1.00  0.00     0.014 A 
ATOM      3  C   UNL     1      19.970  38.577   5.326  1.00  0.00     0.060 A 
ATOM      4  C   UNL     1      21.487  39.153   3.051  1.00  0.00     0.051 A 
ATOM      5  C   UNL     1      21.100  37.790   5.023  1.00  0.00     0.161 A 
ATOM      6  C   UNL     1      21.857  38.088   3.876  1.00  0.00     0.157 A 
ENDROOT
BRANCH   1   7
ATOM      7  C   UNL     1      18.412  40.476   4.815  1.00  0.00     0.072 C 
ATOM      8  O   UNL     1      17.534  40.056   5.615  1.00  0.00    -0.545 OA
ATOM      9  O   UNL     1      18.250  41.730   4.234  1.00  0.00    -0.545 OA
ENDBRANCH   1   7
BRANCH   5  10
ATOM     10  O   UNL     1      21.496  36.714   5.833  1.00  0.00    -0.493 OA
ATOM     11  C   UNL     1      21.257  36.625   7.234  1.00  0.00     0.278 C 
ENDBRANCH   5  10
BRANCH   6  12
ATOM     12  O   UNL     1      22.981  37.335   3.538  1.00  0.00    -0.504 OA
ATOM     13  H   UNL     1      22.960  36.323   3.489  1.00  0.00     0.293 HD
ENDBRANCH   6  12
TORSDOF 3
ENDMDL
MODEL 2
REMARK VINA RESULT:    -3.838      1.765      2.414
REMARK INTER + INTRA:          -4.481
REMARK INTER:                  -4.402
REMARK INTRA:                  -0.079
REMARK UNBOUND:                -0.082
REMARK SMILES COc1cc(C(=O)[O-])ccc1O
REMARK SMILES IDX 5 1 9 2 4 3 10 4 3 5 11 6 6 7 7 8 8 9 2 10 1 11 12 12
REMARK H PARENT 12 13
REMARK Flexibility Score: inf
ROOT
ATOM      1  C   UNL     1      19.999  39.183   4.848  1.00  0.00     0.001 A 
ATOM      2  C   UNL     1      20.581  38.093   4.181  1.00  0.00     0.014 A 
ATOM      3  C   UNL     1      20.068  39.242   6.252  1.00  0.00     0.060 A 
ATOM      4  C   UNL     1      21.221  37.082   4.903  1.00  0.00     0.051 A 
ATOM      5  C   UNL     1      20.714  38.224   6.985  1.00  0.00     0.161 A 
ATOM      6  C   UNL     1      21.290  37.141   6.297  1.00  0.00     0.157 A 
ENDROOT
BRANCH   1   7
ATOM      7  C   UNL     1      19.323  40.251   4.079  1.00  0.00     0.072 C 
ATOM      8  O   UNL     1      18.376  40.907   4.589  1.00  0.00    -0.545 OA
ATOM      9  O   UNL     1      19.724  40.546   2.781  1.00  0.00    -0.545 OA
ENDBRANCH   1   7
BRANCH   5  10
ATOM     10  O   UNL     1      20.798  38.258   8.386  1.00  0.00    -0.493 OA
ATOM     11  C   UNL     1      19.982  39.065   9.228  1.00  0.00     0.278 C 
ENDBRANCH   5  10
BRANCH   6  12
ATOM     12  O   UNL     1      21.936  36.114   6.982  1.00  0.00    -0.504 OA
ATOM     13  H   UNL     1      22.029  36.112   7.992  1.00  0.00     0.293 HD
ENDBRANCH   6  12
TORSDOF 3
ENDMDL
MODEL 3
REMARK VINA RESULT:    -3.762     10.724     12.149
REMARK INTER + INTRA:          -4.393
REMARK INTER:                  -4.291
REMARK INTRA:                  -0.102
REMARK UNBOUND:                -0.082
REMARK SMILES COc1cc(C(=O)[O-])ccc1O
REMARK SMILES IDX 5 1 9 2 4 3 10 4 3 5 11 6 6 7 7 8 8 9 2 10 1 11 12 12
REMARK H PARENT 12 13
REMARK Flexibility Score: inf
ROOT
ATOM      1  C   UNL     1      19.845  40.637  -5.596  1.00  0.00     0.001 A 
ATOM      2  C   UNL     1      20.855  41.610  -5.668  1.00  0.00     0.014 A 
ATOM      3  C   UNL     1      19.295  40.133  -6.789  1.00  0.00     0.060 A 
ATOM      4  C   UNL     1      21.308  42.069  -6.907  1.00  0.00     0.051 A 
ATOM      5  C   UNL     1      19.750  40.593  -8.043  1.00  0.00     0.161 A 
ATOM      6  C   UNL     1      20.762  41.567  -8.092  1.00  0.00     0.157 A 
ENDROOT
BRANCH   1   7
ATOM      7  C   UNL     1      19.369  40.154  -4.281  1.00  0.00     0.072 C 
ATOM      8  O   UNL     1      18.848  39.013  -4.167  1.00  0.00    -0.545 OA
ATOM      9  O   UNL     1      19.490  40.955  -3.151  1.00  0.00    -0.545 OA
ENDBRANCH   1   7
BRANCH   5  10
ATOM     10  O   UNL     1      19.220  40.107  -9.249  1.00  0.00    -0.493 OA
ATOM     11  C   UNL     1      17.968  40.502  -9.801  1.00  0.00     0.278 C 
ENDBRANCH   5  10
BRANCH   6  12
ATOM     12  O   UNL     1      21.240  42.050  -9.309  1.00  0.00    -0.504 OA
ATOM     13  H   UNL     1      20.640  42.519  -9.977  1.00  0.00     0.293 HD
ENDBRANCH   6  12
TORSDOF 3
ENDMDL
MODEL 4
REMARK VINA RESULT:    -3.695      9.655     11.169
REMARK INTER + INTRA:          -4.317
REMARK INTER:                  -4.221
REMARK INTRA:                  -0.096
REMARK UNBOUND:                -0.082
REMARK SMILES COc1cc(C(=O)[O-])ccc1O
REMARK SMILES IDX 5 1 9 2 4 3 10 4 3 5 11 6 6 7 7 8 8 9 2 10 1 11 12 12
REMARK H PARENT 12 13
REMARK Flexibility Score: inf
ROOT
ATOM      1  C   UNL     1      20.395  40.989  -6.801  1.00  0.00     0.001 A 
ATOM      2  C   UNL     1      19.305  40.225  -6.354  1.00  0.00     0.014 A 
ATOM      3  C   UNL     1      21.217  41.628  -5.854  1.00  0.00     0.060 A 
ATOM      4  C   UNL     1      19.041  40.101  -4.989  1.00  0.00     0.051 A 
ATOM      5  C   UNL     1      20.954  41.506  -4.473  1.00  0.00     0.161 A 
ATOM      6  C   UNL     1      19.857  40.736  -4.048  1.00  0.00     0.157 A 
ENDROOT
BRANCH   1   7
ATOM      7  C   UNL     1      20.671  41.117  -8.249  1.00  0.00     0.072 C 
ATOM      8  O   UNL     1      20.656  40.104  -8.997  1.00  0.00    -0.545 OA
ATOM      9  O   UNL     1      20.952  42.361  -8.805  1.00  0.00    -0.545 OA
ENDBRANCH   1   7
BRANCH   5  10
ATOM     10  O   UNL     1      21.757  42.131  -3.506  1.00  0.00    -0.493 OA
ATOM     11  C   UNL     1      22.949  41.576  -2.960  1.00  0.00     0.278 C 
ENDBRANCH   5  10
BRANCH   6  12
ATOM     12  O   UNL     1      19.561  40.589  -2.694  1.00  0.00    -0.504 OA
ATOM     13  H   UNL     1      20.017  41.143  -1.978  1.00  0.00     0.293 HD
ENDBRANCH   6  12
TORSDOF 3
ENDMDL
MODEL 5
REMARK VINA RESULT:    -3.682      1.431      3.004
REMARK INTER + INTRA:          -4.302
REMARK INTER:                  -4.224
REMARK INTRA:                  -0.078
REMARK UNBOUND:                -0.082
REMARK SMILES COc1cc(C(=O)[O-])ccc1O
REMARK SMILES IDX 5 1 9 2 4 3 10 4 3 5 11 6 6 7 7 8 8 9 2 10 1 11 12 12
REMARK H PARENT 12 13
REMARK Flexibility Score: inf
ROOT
ATOM      1  C   UNL     1      19.447  39.362   5.479  1.00  0.00     0.001 A 
ATOM      2  C   UNL     1      20.264  38.416   6.119  1.00  0.00     0.014 A 
ATOM      3  C   UNL     1      19.697  39.680   4.131  1.00  0.00     0.060 A 
ATOM      4  C   UNL     1      21.308  37.800   5.426  1.00  0.00     0.051 A 
ATOM      5  C   UNL     1      20.750  39.059   3.427  1.00  0.00     0.161 A 
ATOM      6  C   UNL     1      21.555  38.115   4.087  1.00  0.00     0.157 A 
ENDROOT
BRANCH   1   7
ATOM      7  C   UNL     1      18.342  40.012   6.217  1.00  0.00     0.072 C 
ATOM      8  O   UNL     1      18.518  40.443   7.387  1.00  0.00    -0.545 OA
ATOM      9  O   UNL     1      17.091  40.158   5.626  1.00  0.00    -0.545 OA
ENDBRANCH   1   7
BRANCH   5  10
ATOM     10  O   UNL     1      21.020  39.357   2.082  1.00  0.00    -0.493 OA
ATOM     11  C   UNL     1      20.079  39.913   1.170  1.00  0.00     0.278 C 
ENDBRANCH   5  10
BRANCH   6  12
ATOM     12  O   UNL     1      22.607  37.479   3.429  1.00  0.00    -0.504 OA
ATOM     13  H   UNL     1      22.497  36.577   2.979  1.00  0.00     0.293 HD
ENDBRANCH   6  12
TORSDOF 3
ENDMDL
MODEL 6
REMARK VINA RESULT:    -3.674      1.952      4.222
REMARK INTER + INTRA:          -4.292
REMARK INTER:                  -4.209
REMARK INTRA:                  -0.084
REMARK UNBOUND:                -0.082
REMARK SMILES COc1cc(C(=O)[O-])ccc1O
REMARK SMILES IDX 5 1 9 2 4 3 10 4 3 5 11 6 6 7 7 8 8 9 2 10 1 11 12 12
REMARK H PARENT 12 13
REMARK Flexibility Score: inf
ROOT
ATOM      1  C   UNL     1      20.892  37.834   6.807  1.00  0.00     0.001 A 
ATOM      2  C   UNL     1      21.411  36.964   5.835  1.00  0.00     0.014 A 
ATOM      3  C   UNL     1      20.076  38.906   6.399  1.00  0.00     0.060 A 
ATOM      4  C   UNL     1      21.120  37.160   4.483  1.00  0.00     0.051 A 
ATOM      5  C   UNL     1      19.779  39.107   5.035  1.00  0.00     0.161 A 
ATOM      6  C   UNL     1      20.309  38.223   4.079  1.00  0.00     0.157 A 
ENDROOT
BRANCH   1   7
ATOM      7  C   UNL     1      21.202  37.623   8.238  1.00  0.00     0.072 C 
ATOM      8  O   UNL     1      20.551  38.227   9.132  1.00  0.00    -0.545 OA
ATOM      9  O   UNL     1      22.219  36.753   8.616  1.00  0.00    -0.545 OA
ENDBRANCH   1   7
BRANCH   5  10
ATOM     10  O   UNL     1      18.967  40.167   4.600  1.00  0.00    -0.493 OA
ATOM     11  C   UNL     1      17.831  40.659   5.304  1.00  0.00     0.278 C 
ENDBRANCH   5  10
BRANCH   6  12
ATOM     12  O   UNL     1      20.042  38.386   2.720  1.00  0.00    -0.504 OA
ATOM     13  H   UNL     1      20.213  39.260   2.236  1.00  0.00     0.293 HD
ENDBRANCH   6  12
TORSDOF 3
ENDMDL
MODEL 7
REMARK VINA RESULT:    -3.639      2.420      4.231
REMARK INTER + INTRA:          -4.252
REMARK INTER:                  -4.157
REMARK INTRA:                  -0.095
REMARK UNBOUND:                -0.082
REMARK SMILES COc1cc(C(=O)[O-])ccc1O
REMARK SMILES IDX 5 1 9 2 4 3 10 4 3 5 11 6 6 7 7 8 8 9 2 10 1 11 12 12
REMARK H PARENT 12 13
REMARK Flexibility Score: inf
ROOT
ATOM      1  C   UNL     1      21.065  37.811   5.917  1.00  0.00     0.001 A 
ATOM      2  C   UNL     1      20.814  39.013   6.598  1.00  0.00     0.014 A 
ATOM      3  C   UNL     1      21.304  36.641   6.662  1.00  0.00     0.060 A 
ATOM      4  C   UNL     1      20.801  39.045   7.994  1.00  0.00     0.051 A 
ATOM      5  C   UNL     1      21.292  36.669   8.072  1.00  0.00     0.161 A 
ATOM      6  C   UNL     1      21.038  37.883   8.733  1.00  0.00     0.157 A 
ENDROOT
BRANCH   1   7
ATOM      7  C   UNL     1      21.078  37.781   4.438  1.00  0.00     0.072 C 
ATOM      8  O   UNL     1      20.002  37.837   3.786  1.00  0.00    -0.545 OA
ATOM      9  O   UNL     1      22.281  37.691   3.746  1.00  0.00    -0.545 OA
ENDBRANCH   1   7
BRANCH   5  10
ATOM     10  O   UNL     1      21.526  35.517   8.839  1.00  0.00    -0.493 OA
ATOM     11  C   UNL     1      22.816  35.022   9.185  1.00  0.00     0.278 C 
ENDBRANCH   5  10
BRANCH   6  12
ATOM     12  O   UNL     1      21.017  37.956  10.125  1.00  0.00    -0.504 OA
ATOM     13  H   UNL     1      21.697  38.495  10.648  1.00  0.00     0.293 HD
ENDBRANCH   6  12
TORSDOF 3
ENDMDL
MODEL 8
REMARK VINA RESULT:    -3.619      2.177      2.926
REMARK INTER + INTRA:          -4.230
REMARK INTER:                  -4.137
REMARK INTRA:                  -0.094
REMARK UNBOUND:                -0.082
REMARK SMILES COc1cc(C(=O)[O-])ccc1O
REMARK SMILES IDX 5 1 9 2 4 3 10 4 3 5 11 6 6 7 7 8 8 9 2 10 1 11 12 12
REMARK H PARENT 12 13
REMARK Flexibility Score: inf
ROOT
ATOM      1  C   UNL     1      19.699  39.355   7.414  1.00  0.00     0.001 A 
ATOM      2  C   UNL     1      19.617  39.421   6.014  1.00  0.00     0.014 A 
ATOM      3  C   UNL     1      20.520  38.376   8.005  1.00  0.00     0.060 A 
ATOM      4  C   UNL     1      20.341  38.529   5.220  1.00  0.00     0.051 A 
ATOM      5  C   UNL     1      21.252  37.473   7.207  1.00  0.00     0.161 A 
ATOM      6  C   UNL     1      21.156  37.557   5.807  1.00  0.00     0.157 A 
ENDROOT
BRANCH   1   7
ATOM      7  C   UNL     1      18.931  40.303   8.251  1.00  0.00     0.072 C 
ATOM      8  O   UNL     1      18.798  41.506   7.900  1.00  0.00    -0.545 OA
ATOM      9  O   UNL     1      18.344  39.878   9.438  1.00  0.00    -0.545 OA
ENDBRANCH   1   7
BRANCH   5  10
ATOM     10  O   UNL     1      22.079  36.487   7.770  1.00  0.00    -0.493 OA
ATOM     11  C   UNL     1      21.623  35.427   8.604  1.00  0.00     0.278 C 
ENDBRANCH   5  10
BRANCH   6  12
ATOM     12  O   UNL     1      21.862  36.684   4.981  1.00  0.00    -0.504 OA
ATOM     13  H   UNL     1      21.892  36.797   3.975  1.00  0.00     0.293 HD
ENDBRANCH   6  12
TORSDOF 3
ENDMDL
MODEL 9
REMARK VINA RESULT:    -3.612      2.008      3.292
REMARK INTER + INTRA:          -4.222
REMARK INTER:                  -4.130
REMARK INTRA:                  -0.091
REMARK UNBOUND:                -0.082
REMARK SMILES COc1cc(C(=O)[O-])ccc1O
REMARK SMILES IDX 5 1 9 2 4 3 10 4 3 5 11 6 6 7 7 8 8 9 2 10 1 11 12 12
REMARK H PARENT 12 13
REMARK Flexibility Score: inf
ROOT
ATOM      1  C   UNL     1      19.356  39.607   6.998  1.00  0.00     0.001 A 
ATOM      2  C   UNL     1      20.239  38.839   7.773  1.00  0.00     0.014 A 
ATOM      3  C   UNL     1      19.311  39.402   5.607  1.00  0.00     0.060 A 
ATOM      4  C   UNL     1      21.060  37.884   7.171  1.00  0.00     0.051 A 
ATOM      5  C   UNL     1      20.138  38.438   4.994  1.00  0.00     0.161 A 
ATOM      6  C   UNL     1      21.015  37.679   5.789  1.00  0.00     0.157 A 
ENDROOT
BRANCH   1   7
ATOM      7  C   UNL     1      18.487  40.618   7.641  1.00  0.00     0.072 C 
ATOM      8  O   UNL     1      18.910  41.787   7.851  1.00  0.00    -0.545 OA
ATOM      9  O   UNL     1      17.190  40.292   8.023  1.00  0.00    -0.545 OA
ENDBRANCH   1   7
BRANCH   5  10
ATOM     10  O   UNL     1      20.114  38.212   3.609  1.00  0.00    -0.493 OA
ATOM     11  C   UNL     1      20.536  39.152   2.627  1.00  0.00     0.278 C 
ENDBRANCH   5  10
BRANCH   6  12
ATOM     12  O   UNL     1      21.850  36.717   5.224  1.00  0.00    -0.504 OA
ATOM     13  H   UNL     1      22.617  36.961   4.608  1.00  0.00     0.293 HD
ENDBRANCH   6  12
TORSDOF 3
ENDMDL
