MODEL 1
REMARK VINA RESULT:    -5.190      0.000      0.000
REMARK INTER + INTRA:          -5.995
REMARK INTER:                  -5.949
REMARK INTRA:                  -0.046
REMARK UNBOUND:                -0.046
REMARK SMILES O=C([O-])c1cc(O)c(O)c(O)c1
REMARK SMILES IDX 4 1 5 2 12 3 6 4 10 5 8 6 2 7 1 8 3 9 7 10 11 12 9 14
REMARK H PARENT 7 11 11 13 9 15
REMARK Flexibility Score: inf
ROOT
ATOM      1  C   UNL     1      11.750  39.007   0.547  1.00  0.00     0.005 A 
ATOM      2  C   UNL     1      11.165  38.971   1.823  1.00  0.00     0.060 A 
ATOM      3  C   UNL     1      12.805  39.899   0.309  1.00  0.00     0.060 A 
ATOM      4  C   UNL     1      11.619  39.807   2.848  1.00  0.00     0.162 A 
ATOM      5  C   UNL     1      13.271  40.742   1.321  1.00  0.00     0.162 A 
ATOM      6  C   UNL     1      12.685  40.705   2.600  1.00  0.00     0.200 A 
ENDROOT
BRANCH   1   7
ATOM      7  C   UNL     1      11.264  38.118  -0.532  1.00  0.00     0.072 C 
ATOM      8  O   UNL     1      10.072  38.191  -0.934  1.00  0.00    -0.545 OA
ATOM      9  O   UNL     1      12.117  37.191  -1.120  1.00  0.00    -0.545 OA
ENDBRANCH   1   7
BRANCH   4  10
ATOM     10  O   UNL     1      10.986  39.713   4.090  1.00  0.00    -0.504 OA
ATOM     11  H   UNL     1      11.127  38.955   4.743  1.00  0.00     0.293 HD
ENDBRANCH   4  10
BRANCH   5  12
ATOM     12  O   UNL     1      14.324  41.613   1.036  1.00  0.00    -0.504 OA
ATOM     13  H   UNL     1      14.552  41.895   0.091  1.00  0.00     0.293 HD
ENDBRANCH   5  12
BRANCH   6  14
ATOM     14  O   UNL     1      13.180  41.565   3.584  1.00  0.00    -0.502 OA
ATOM     15  H   UNL     1      13.159  41.368   4.573  1.00  0.00     0.293 HD
ENDBRANCH   6  14
TORSDOF 4
ENDMDL
MODEL 2
REMARK VINA RESULT:    -5.172      0.106      2.447
REMARK INTER + INTRA:          -5.974
REMARK INTER:                  -5.928
REMARK INTRA:                  -0.046
REMARK UNBOUND:                -0.046
REMARK SMILES O=C([O-])c1cc(O)c(O)c(O)c1
REMARK SMILES IDX 4 1 5 2 12 3 6 4 10 5 8 6 2 7 1 8 3 9 7 10 11 12 9 14
REMARK H PARENT 7 11 11 13 9 15
REMARK Flexibility Score: inf
ROOT
ATOM      1  C   UNL     1      11.805  39.070   0.579  1.00  0.00     0.005 A 
ATOM      2  C   UNL     1      12.868  39.951   0.326  1.00  0.00     0.060 A 
ATOM      3  C   UNL     1      11.220  39.059   1.853  1.00  0.00     0.060 A 
ATOM      4  C   UNL     1      13.347  40.809   1.323  1.00  0.00     0.162 A 
ATOM      5  C   UNL     1      11.686  39.908   2.861  1.00  0.00     0.162 A 
ATOM      6  C   UNL     1      12.752  40.791   2.607  1.00  0.00     0.200 A 
ENDROOT
BRANCH   1   7
ATOM      7  C   UNL     1      11.304  38.167  -0.481  1.00  0.00     0.072 C 
ATOM      8  O   UNL     1      10.117  38.261  -0.895  1.00  0.00    -0.545 OA
ATOM      9  O   UNL     1      12.135  37.201  -1.035  1.00  0.00    -0.545 OA
ENDBRANCH   1   7
BRANCH   4  10
ATOM     10  O   UNL     1      14.408  41.656   0.994  1.00  0.00    -0.504 OA
ATOM     11  H   UNL     1      14.868  41.667   0.095  1.00  0.00     0.293 HD
ENDBRANCH   4  10
BRANCH   5  12
ATOM     12  O   UNL     1      11.073  39.861   4.113  1.00  0.00    -0.504 OA
ATOM     13  H   UNL     1      10.684  40.685   4.557  1.00  0.00     0.293 HD
ENDBRANCH   5  12
BRANCH   6  14
ATOM     14  O   UNL     1      13.188  41.623   3.642  1.00  0.00    -0.502 OA
ATOM     15  H   UNL     1      13.223  41.350   4.612  1.00  0.00     0.293 HD
ENDBRANCH   6  14
TORSDOF 4
ENDMDL
MODEL 3
REMARK VINA RESULT:    -5.137      1.448      4.455
REMARK INTER + INTRA:          -5.934
REMARK INTER:                  -5.887
REMARK INTRA:                  -0.046
REMARK UNBOUND:                -0.046
REMARK SMILES O=C([O-])c1cc(O)c(O)c(O)c1
REMARK SMILES IDX 4 1 5 2 12 3 6 4 10 5 8 6 2 7 1 8 3 9 7 10 11 12 9 14
REMARK H PARENT 7 11 11 13 9 15
REMARK Flexibility Score: inf
ROOT
ATOM      1  C   UNL     1      11.934  39.774   1.787  1.00  0.00     0.005 A 
ATOM      2  C   UNL     1      11.369  39.977   0.518  1.00  0.00     0.060 A 
ATOM      3  C   UNL     1      12.674  38.607   2.022  1.00  0.00     0.060 A 
ATOM      4  C   UNL     1      11.534  39.036  -0.504  1.00  0.00     0.162 A 
ATOM      5  C   UNL     1      12.849  37.656   1.013  1.00  0.00     0.162 A 
ATOM      6  C   UNL     1      12.282  37.860  -0.259  1.00  0.00     0.200 A 
ENDROOT
BRANCH   1   7
ATOM      7  C   UNL     1      11.755  40.774   2.862  1.00  0.00     0.072 C 
ATOM      8  O   UNL     1      10.603  41.059   3.287  1.00  0.00    -0.545 OA
ATOM      9  O   UNL     1      12.855  41.414   3.422  1.00  0.00    -0.545 OA
ENDBRANCH   1   7
BRANCH   4  10
ATOM     10  O   UNL     1      10.941  39.310  -1.739  1.00  0.00    -0.504 OA
ATOM     11  H   UNL     1      11.422  39.737  -2.517  1.00  0.00     0.293 HD
ENDBRANCH   4  10
BRANCH   5  12
ATOM     12  O   UNL     1      13.594  36.510   1.294  1.00  0.00    -0.504 OA
ATOM     13  H   UNL     1      14.600  36.534   1.411  1.00  0.00     0.293 HD
ENDBRANCH   5  12
BRANCH   6  14
ATOM     14  O   UNL     1      12.481  36.885  -1.240  1.00  0.00    -0.502 OA
ATOM     15  H   UNL     1      13.349  36.390  -1.381  1.00  0.00     0.293 HD
ENDBRANCH   6  14
TORSDOF 4
ENDMDL
MODEL 4
REMARK VINA RESULT:    -5.089      1.435      4.299
REMARK INTER + INTRA:          -5.879
REMARK INTER:                  -5.833
REMARK INTRA:                  -0.047
REMARK UNBOUND:                -0.046
REMARK SMILES O=C([O-])c1cc(O)c(O)c(O)c1
REMARK SMILES IDX 4 1 5 2 12 3 6 4 10 5 8 6 2 7 1 8 3 9 7 10 11 12 9 14
REMARK H PARENT 7 11 11 13 9 15
REMARK Flexibility Score: inf
ROOT
ATOM      1  C   UNL     1      11.853  39.750   1.759  1.00  0.00     0.005 A 
ATOM      2  C   UNL     1      12.635  38.609   1.997  1.00  0.00     0.060 A 
ATOM      3  C   UNL     1      11.271  39.923   0.495  1.00  0.00     0.060 A 
ATOM      4  C   UNL     1      12.837  37.652   0.997  1.00  0.00     0.162 A 
ATOM      5  C   UNL     1      11.463  38.977  -0.516  1.00  0.00     0.162 A 
ATOM      6  C   UNL     1      12.246  37.833  -0.276  1.00  0.00     0.200 A 
ENDROOT
BRANCH   1   7
ATOM      7  C   UNL     1      11.643  40.758   2.822  1.00  0.00     0.072 C 
ATOM      8  O   UNL     1      10.479  41.052   3.205  1.00  0.00    -0.545 OA
ATOM      9  O   UNL     1      12.727  41.395   3.414  1.00  0.00    -0.545 OA
ENDBRANCH   1   7
BRANCH   4  10
ATOM     10  O   UNL     1      13.628  36.543   1.311  1.00  0.00    -0.504 OA
ATOM     11  H   UNL     1      14.250  36.087   0.660  1.00  0.00     0.293 HD
ENDBRANCH   4  10
BRANCH   5  12
ATOM     12  O   UNL     1      10.863  39.192  -1.757  1.00  0.00    -0.504 OA
ATOM     13  H   UNL     1      10.030  38.695  -2.049  1.00  0.00     0.293 HD
ENDBRANCH   5  12
BRANCH   6  14
ATOM     14  O   UNL     1      12.414  36.912  -1.314  1.00  0.00    -0.502 OA
ATOM     15  H   UNL     1      13.156  36.230  -1.354  1.00  0.00     0.293 HD
ENDBRANCH   6  14
TORSDOF 4
ENDMDL
MODEL 5
REMARK VINA RESULT:    -4.987      2.451      4.297
REMARK INTER + INTRA:          -5.762
REMARK INTER:                  -5.716
REMARK INTRA:                  -0.046
REMARK UNBOUND:                -0.046
REMARK SMILES O=C([O-])c1cc(O)c(O)c(O)c1
REMARK SMILES IDX 4 1 5 2 12 3 6 4 10 5 8 6 2 7 1 8 3 9 7 10 11 12 9 14
REMARK H PARENT 7 11 11 13 9 15
REMARK Flexibility Score: inf
ROOT
ATOM      1  C   UNL     1      10.675  39.778  -1.845  1.00  0.00     0.005 A 
ATOM      2  C   UNL     1      10.626  38.442  -2.273  1.00  0.00     0.060 A 
ATOM      3  C   UNL     1      11.472  40.108  -0.739  1.00  0.00     0.060 A 
ATOM      4  C   UNL     1      11.356  37.446  -1.614  1.00  0.00     0.162 A 
ATOM      5  C   UNL     1      12.207  39.127  -0.069  1.00  0.00     0.162 A 
ATOM      6  C   UNL     1      12.158  37.787  -0.499  1.00  0.00     0.200 A 
ENDROOT
BRANCH   1   7
ATOM      7  C   UNL     1       9.901  40.825  -2.547  1.00  0.00     0.072 C 
ATOM      8  O   UNL     1       8.943  41.408  -1.971  1.00  0.00    -0.545 OA
ATOM      9  O   UNL     1      10.219  41.184  -3.852  1.00  0.00    -0.545 OA
ENDBRANCH   1   7
BRANCH   4  10
ATOM     10  O   UNL     1      11.254  36.140  -2.099  1.00  0.00    -0.504 OA
ATOM     11  H   UNL     1      10.557  35.833  -2.761  1.00  0.00     0.293 HD
ENDBRANCH   4  10
BRANCH   5  12
ATOM     12  O   UNL     1      12.986  39.503   1.025  1.00  0.00    -0.504 OA
ATOM     13  H   UNL     1      13.959  39.772   0.931  1.00  0.00     0.293 HD
ENDBRANCH   5  12
BRANCH   6  14
ATOM     14  O   UNL     1      12.908  36.837   0.199  1.00  0.00    -0.502 OA
ATOM     15  H   UNL     1      13.898  36.913   0.376  1.00  0.00     0.293 HD
ENDBRANCH   6  14
TORSDOF 4
ENDMDL
MODEL 6
REMARK VINA RESULT:    -4.977      2.412      4.351
REMARK INTER + INTRA:          -5.751
REMARK INTER:                  -5.706
REMARK INTRA:                  -0.045
REMARK UNBOUND:                -0.046
REMARK SMILES O=C([O-])c1cc(O)c(O)c(O)c1
REMARK SMILES IDX 4 1 5 2 12 3 6 4 10 5 8 6 2 7 1 8 3 9 7 10 11 12 9 14
REMARK H PARENT 7 11 11 13 9 15
REMARK Flexibility Score: inf
ROOT
ATOM      1  C   UNL     1      10.725  39.838  -1.829  1.00  0.00     0.005 A 
ATOM      2  C   UNL     1      11.527  40.169  -0.725  1.00  0.00     0.060 A 
ATOM      3  C   UNL     1      10.662  38.501  -2.247  1.00  0.00     0.060 A 
ATOM      4  C   UNL     1      12.256  39.188  -0.044  1.00  0.00     0.162 A 
ATOM      5  C   UNL     1      11.384  37.509  -1.579  1.00  0.00     0.162 A 
ATOM      6  C   UNL     1      12.188  37.840  -0.472  1.00  0.00     0.200 A 
ENDROOT
BRANCH   1   7
ATOM      7  C   UNL     1       9.956  40.881  -2.544  1.00  0.00     0.072 C 
ATOM      8  O   UNL     1       8.968  41.438  -1.995  1.00  0.00    -0.545 OA
ATOM      9  O   UNL     1      10.313  41.263  -3.832  1.00  0.00    -0.545 OA
ENDBRANCH   1   7
BRANCH   4  10
ATOM     10  O   UNL     1      13.031  39.595   1.045  1.00  0.00    -0.504 OA
ATOM     11  H   UNL     1      13.070  40.543   1.390  1.00  0.00     0.293 HD
ENDBRANCH   4  10
BRANCH   5  12
ATOM     12  O   UNL     1      11.290  36.192  -2.031  1.00  0.00    -0.504 OA
ATOM     13  H   UNL     1      11.996  35.496  -1.823  1.00  0.00     0.293 HD
ENDBRANCH   5  12
BRANCH   6  14
ATOM     14  O   UNL     1      12.894  36.818   0.168  1.00  0.00    -0.502 OA
ATOM     15  H   UNL     1      12.553  35.875   0.275  1.00  0.00     0.293 HD
ENDBRANCH   6  14
TORSDOF 4
ENDMDL
MODEL 7
REMARK VINA RESULT:    -4.886      2.135      3.731
REMARK INTER + INTRA:          -5.647
REMARK INTER:                  -5.595
REMARK INTRA:                  -0.052
REMARK UNBOUND:                -0.046
REMARK SMILES O=C([O-])c1cc(O)c(O)c(O)c1
REMARK SMILES IDX 4 1 5 2 12 3 6 4 10 5 8 6 2 7 1 8 3 9 7 10 11 12 9 14
REMARK H PARENT 7 11 11 13 9 15
REMARK Flexibility Score: inf
ROOT
ATOM      1  C   UNL     1      10.413  39.448   3.756  1.00  0.00     0.005 A 
ATOM      2  C   UNL     1      10.824  40.654   4.345  1.00  0.00     0.060 A 
ATOM      3  C   UNL     1      11.123  38.956   2.651  1.00  0.00     0.060 A 
ATOM      4  C   UNL     1      11.922  41.363   3.847  1.00  0.00     0.162 A 
ATOM      5  C   UNL     1      12.222  39.651   2.140  1.00  0.00     0.162 A 
ATOM      6  C   UNL     1      12.634  40.860   2.732  1.00  0.00     0.200 A 
ENDROOT
BRANCH   1   7
ATOM      7  C   UNL     1       9.251  38.704   4.288  1.00  0.00     0.072 C 
ATOM      8  O   UNL     1       8.696  37.804   3.601  1.00  0.00    -0.545 OA
ATOM      9  O   UNL     1       8.753  38.985   5.555  1.00  0.00    -0.545 OA
ENDBRANCH   1   7
BRANCH   4  10
ATOM     10  O   UNL     1      12.269  42.555   4.488  1.00  0.00    -0.504 OA
ATOM     11  H   UNL     1      12.935  42.619   5.244  1.00  0.00     0.293 HD
ENDBRANCH   4  10
BRANCH   5  12
ATOM     12  O   UNL     1      12.897  39.122   1.039  1.00  0.00    -0.504 OA
ATOM     13  H   UNL     1      13.855  39.368   0.822  1.00  0.00     0.293 HD
ENDBRANCH   5  12
BRANCH   6  14
ATOM     14  O   UNL     1      13.738  41.524   2.190  1.00  0.00    -0.502 OA
ATOM     15  H   UNL     1      13.889  41.660   1.202  1.00  0.00     0.293 HD
ENDBRANCH   6  14
TORSDOF 4
ENDMDL
MODEL 8
REMARK VINA RESULT:    -4.827      2.092      5.248
REMARK INTER + INTRA:          -5.579
REMARK INTER:                  -5.530
REMARK INTRA:                  -0.049
REMARK UNBOUND:                -0.046
REMARK SMILES O=C([O-])c1cc(O)c(O)c(O)c1
REMARK SMILES IDX 4 1 5 2 12 3 6 4 10 5 8 6 2 7 1 8 3 9 7 10 11 12 9 14
REMARK H PARENT 7 11 11 13 9 15
REMARK Flexibility Score: inf
ROOT
ATOM      1  C   UNL     1      12.138  39.301  -0.225  1.00  0.00     0.005 A 
ATOM      2  C   UNL     1      11.848  40.255  -1.213  1.00  0.00     0.060 A 
ATOM      3  C   UNL     1      11.939  37.943  -0.512  1.00  0.00     0.060 A 
ATOM      4  C   UNL     1      11.366  39.869  -2.468  1.00  0.00     0.162 A 
ATOM      5  C   UNL     1      11.457  37.540  -1.760  1.00  0.00     0.162 A 
ATOM      6  C   UNL     1      11.167  38.497  -2.751  1.00  0.00     0.200 A 
ENDROOT
BRANCH   1   7
ATOM      7  C   UNL     1      12.648  39.717   1.100  1.00  0.00     0.072 C 
ATOM      8  O   UNL     1      13.509  40.631   1.197  1.00  0.00    -0.545 OA
ATOM      9  O   UNL     1      12.184  39.105   2.259  1.00  0.00    -0.545 OA
ENDBRANCH   1   7
BRANCH   4  10
ATOM     10  O   UNL     1      11.101  40.877  -3.399  1.00  0.00    -0.504 OA
ATOM     11  H   UNL     1      11.794  41.519  -3.753  1.00  0.00     0.293 HD
ENDBRANCH   4  10
BRANCH   5  12
ATOM     12  O   UNL     1      11.275  36.177  -2.000  1.00  0.00    -0.504 OA
ATOM     13  H   UNL     1      10.361  35.740  -1.971  1.00  0.00     0.293 HD
ENDBRANCH   5  12
BRANCH   6  14
ATOM     14  O   UNL     1      10.687  38.051  -3.986  1.00  0.00    -0.502 OA
ATOM     15  H   UNL     1      11.258  37.610  -4.691  1.00  0.00     0.293 HD
ENDBRANCH   6  14
TORSDOF 4
ENDMDL
MODEL 9
REMARK VINA RESULT:    -4.813      2.136      4.967
REMARK INTER + INTRA:          -5.562
REMARK INTER:                  -5.514
REMARK INTRA:                  -0.049
REMARK UNBOUND:                -0.046
REMARK SMILES O=C([O-])c1cc(O)c(O)c(O)c1
REMARK SMILES IDX 4 1 5 2 12 3 6 4 10 5 8 6 2 7 1 8 3 9 7 10 11 12 9 14
REMARK H PARENT 7 11 11 13 9 15
REMARK Flexibility Score: inf
ROOT
ATOM      1  C   UNL     1      12.142  39.294  -0.315  1.00  0.00     0.005 A 
ATOM      2  C   UNL     1      11.938  37.929  -0.576  1.00  0.00     0.060 A 
ATOM      3  C   UNL     1      11.856  40.228  -1.321  1.00  0.00     0.060 A 
ATOM      4  C   UNL     1      11.459  37.496  -1.817  1.00  0.00     0.162 A 
ATOM      5  C   UNL     1      11.377  39.813  -2.567  1.00  0.00     0.162 A 
ATOM      6  C   UNL     1      11.173  38.445  -2.828  1.00  0.00     0.200 A 
ENDROOT
BRANCH   1   7
ATOM      7  C   UNL     1      12.649  39.744   1.000  1.00  0.00     0.072 C 
ATOM      8  O   UNL     1      12.208  39.235   2.065  1.00  0.00    -0.545 OA
ATOM      9  O   UNL     1      13.621  40.735   1.080  1.00  0.00    -0.545 OA
ENDBRANCH   1   7
BRANCH   4  10
ATOM     10  O   UNL     1      11.282  36.122  -2.000  1.00  0.00    -0.504 OA
ATOM     11  H   UNL     1      11.846  35.414  -1.554  1.00  0.00     0.293 HD
ENDBRANCH   4  10
BRANCH   5  12
ATOM     12  O   UNL     1      11.107  40.779  -3.537  1.00  0.00    -0.504 OA
ATOM     13  H   UNL     1      11.760  40.997  -4.280  1.00  0.00     0.293 HD
ENDBRANCH   5  12
BRANCH   6  14
ATOM     14  O   UNL     1      10.693  38.072  -4.086  1.00  0.00    -0.502 OA
ATOM     15  H   UNL     1       9.893  37.476  -4.235  1.00  0.00     0.293 HD
ENDBRANCH   6  14
TORSDOF 4
ENDMDL
