MODEL 1
REMARK VINA RESULT:    -4.562      0.000      0.000
REMARK INTER + INTRA:          -5.182
REMARK INTER:                  -5.096
REMARK INTRA:                  -0.087
REMARK UNBOUND:                -0.087
REMARK SMILES CCc1ccc(O)cc1O
REMARK SMILES IDX 3 1 9 2 8 3 6 4 5 5 4 6 2 7 1 8 10 9 7 11
REMARK H PARENT 10 10 7 12
REMARK Flexibility Score: inf
ROOT
ATOM      1  C   UNL     1      26.910 -39.981  -1.149  1.00  0.00    -0.006 A 
ATOM      2  C   UNL     1      26.247 -40.068   0.101  1.00  0.00     0.122 A 
ATOM      3  C   UNL     1      25.905 -38.896   0.788  1.00  0.00     0.092 A 
ATOM      4  C   UNL     1      26.226 -37.643   0.263  1.00  0.00     0.119 A 
ATOM      5  C   UNL     1      26.896 -37.553  -0.960  1.00  0.00     0.047 A 
ATOM      6  C   UNL     1      27.240 -38.712  -1.659  1.00  0.00     0.011 A 
ENDROOT
BRANCH   1   7
ATOM      7  C   UNL     1      27.314 -41.207  -1.933  1.00  0.00     0.036 C 
ATOM      8  C   UNL     1      26.824 -41.120  -3.375  1.00  0.00     0.009 C 
ENDBRANCH   1   7
BRANCH   2   9
ATOM      9  O   UNL     1      25.917 -41.291   0.690  1.00  0.00    -0.508 OA
ATOM     10  H   UNL     1      25.646 -41.391   1.659  1.00  0.00     0.293 HD
ENDBRANCH   2   9
BRANCH   4  11
ATOM     11  O   UNL     1      25.876 -36.492   0.968  1.00  0.00    -0.508 OA
ATOM     12  H   UNL     1      26.469 -36.118   1.699  1.00  0.00     0.293 HD
ENDBRANCH   4  11
TORSDOF 3
ENDMDL
MODEL 2
REMARK VINA RESULT:    -4.553      1.663      3.735
REMARK INTER + INTRA:          -5.172
REMARK INTER:                  -5.087
REMARK INTRA:                  -0.085
REMARK UNBOUND:                -0.087
REMARK SMILES CCc1ccc(O)cc1O
REMARK SMILES IDX 3 1 9 2 8 3 6 4 5 5 4 6 2 7 1 8 10 9 7 11
REMARK H PARENT 10 10 7 12
REMARK Flexibility Score: inf
ROOT
ATOM      1  C   UNL     1      26.635 -39.137  -0.400  1.00  0.00    -0.006 A 
ATOM      2  C   UNL     1      26.384 -40.528  -0.287  1.00  0.00     0.122 A 
ATOM      3  C   UNL     1      26.572 -41.359  -1.398  1.00  0.00     0.092 A 
ATOM      4  C   UNL     1      26.987 -40.830  -2.622  1.00  0.00     0.119 A 
ATOM      5  C   UNL     1      27.217 -39.456  -2.743  1.00  0.00     0.047 A 
ATOM      6  C   UNL     1      27.037 -38.616  -1.642  1.00  0.00     0.011 A 
ENDROOT
BRANCH   1   7
ATOM      7  C   UNL     1      26.440 -38.188   0.759  1.00  0.00     0.036 C 
ATOM      8  C   UNL     1      26.538 -36.736   0.298  1.00  0.00     0.009 C 
ENDBRANCH   1   7
BRANCH   2   9
ATOM      9  O   UNL     1      25.947 -41.116   0.903  1.00  0.00    -0.508 OA
ATOM     10  H   UNL     1      24.973 -41.263   1.130  1.00  0.00     0.293 HD
ENDBRANCH   2   9
BRANCH   4  11
ATOM     11  O   UNL     1      27.166 -41.678  -3.714  1.00  0.00    -0.508 OA
ATOM     12  H   UNL     1      26.400 -42.223  -4.091  1.00  0.00     0.293 HD
ENDBRANCH   4  11
TORSDOF 3
ENDMDL
MODEL 3
REMARK VINA RESULT:    -4.501      2.074      4.457
REMARK INTER + INTRA:          -5.113
REMARK INTER:                  -5.013
REMARK INTRA:                  -0.100
REMARK UNBOUND:                -0.087
REMARK SMILES CCc1ccc(O)cc1O
REMARK SMILES IDX 3 1 9 2 8 3 6 4 5 5 4 6 2 7 1 8 10 9 7 11
REMARK H PARENT 10 10 7 12
REMARK Flexibility Score: inf
ROOT
ATOM      1  C   UNL     1      26.480 -39.650  -0.308  1.00  0.00    -0.006 A 
ATOM      2  C   UNL     1      27.552 -39.775  -1.228  1.00  0.00     0.122 A 
ATOM      3  C   UNL     1      28.079 -41.041  -1.510  1.00  0.00     0.092 A 
ATOM      4  C   UNL     1      27.572 -42.181  -0.883  1.00  0.00     0.119 A 
ATOM      5  C   UNL     1      26.529 -42.060   0.039  1.00  0.00     0.047 A 
ATOM      6  C   UNL     1      25.990 -40.804   0.328  1.00  0.00     0.011 A 
ENDROOT
BRANCH   1   7
ATOM      7  C   UNL     1      25.875 -38.312   0.047  1.00  0.00     0.036 C 
ATOM      8  C   UNL     1      26.322 -37.861   1.435  1.00  0.00     0.009 C 
ENDBRANCH   1   7
BRANCH   2   9
ATOM      9  O   UNL     1      28.117 -38.672  -1.873  1.00  0.00    -0.508 OA
ATOM     10  H   UNL     1      29.100 -38.442  -1.830  1.00  0.00     0.293 HD
ENDBRANCH   2   9
BRANCH   4  11
ATOM     11  O   UNL     1      28.116 -43.429  -1.180  1.00  0.00    -0.508 OA
ATOM     12  H   UNL     1      29.012 -43.719  -0.807  1.00  0.00     0.293 HD
ENDBRANCH   4  11
TORSDOF 3
ENDMDL
MODEL 4
REMARK VINA RESULT:    -4.085     11.808     13.284
REMARK INTER + INTRA:          -4.649
REMARK INTER:                  -4.565
REMARK INTRA:                  -0.084
REMARK UNBOUND:                -0.087
REMARK SMILES CCc1ccc(O)cc1O
REMARK SMILES IDX 3 1 9 2 8 3 6 4 5 5 4 6 2 7 1 8 10 9 7 11
REMARK H PARENT 10 10 7 12
REMARK Flexibility Score: inf
ROOT
ATOM      1  C   UNL     1      27.891 -36.688  11.843  1.00  0.00    -0.006 A 
ATOM      2  C   UNL     1      28.545 -36.296  10.648  1.00  0.00     0.122 A 
ATOM      3  C   UNL     1      29.654 -35.443  10.712  1.00  0.00     0.092 A 
ATOM      4  C   UNL     1      30.112 -34.959  11.939  1.00  0.00     0.119 A 
ATOM      5  C   UNL     1      29.457 -35.327  13.118  1.00  0.00     0.047 A 
ATOM      6  C   UNL     1      28.353 -36.181  13.071  1.00  0.00     0.011 A 
ENDROOT
BRANCH   1   7
ATOM      7  C   UNL     1      26.685 -37.597  11.840  1.00  0.00     0.036 C 
ATOM      8  C   UNL     1      26.710 -38.542  13.037  1.00  0.00     0.009 C 
ENDBRANCH   1   7
BRANCH   2   9
ATOM      9  O   UNL     1      28.124 -36.728   9.388  1.00  0.00    -0.508 OA
ATOM     10  H   UNL     1      28.709 -36.705   8.564  1.00  0.00     0.293 HD
ENDBRANCH   2   9
BRANCH   4  11
ATOM     11  O   UNL     1      31.216 -34.109  11.975  1.00  0.00    -0.508 OA
ATOM     12  H   UNL     1      32.131 -34.418  11.671  1.00  0.00     0.293 HD
ENDBRANCH   4  11
TORSDOF 3
ENDMDL
MODEL 5
REMARK VINA RESULT:    -3.995     22.617     23.357
REMARK INTER + INTRA:          -4.549
REMARK INTER:                  -4.456
REMARK INTRA:                  -0.093
REMARK UNBOUND:                -0.087
REMARK SMILES CCc1ccc(O)cc1O
REMARK SMILES IDX 3 1 9 2 8 3 6 4 5 5 4 6 2 7 1 8 10 9 7 11
REMARK H PARENT 10 10 7 12
REMARK Flexibility Score: inf
ROOT
ATOM      1  C   UNL     1      44.879 -33.128  12.213  1.00  0.00    -0.006 A 
ATOM      2  C   UNL     1      44.427 -32.884  10.892  1.00  0.00     0.122 A 
ATOM      3  C   UNL     1      44.564 -31.605  10.337  1.00  0.00     0.092 A 
ATOM      4  C   UNL     1      45.124 -30.563  11.078  1.00  0.00     0.119 A 
ATOM      5  C   UNL     1      45.552 -30.794  12.388  1.00  0.00     0.047 A 
ATOM      6  C   UNL     1      45.427 -32.065  12.953  1.00  0.00     0.011 A 
ENDROOT
BRANCH   1   7
ATOM      7  C   UNL     1      44.751 -34.481  12.871  1.00  0.00     0.036 C 
ATOM      8  C   UNL     1      46.122 -35.105  13.110  1.00  0.00     0.009 C 
ENDBRANCH   1   7
BRANCH   2   9
ATOM      9  O   UNL     1      43.839 -33.879  10.106  1.00  0.00    -0.508 OA
ATOM     10  H   UNL     1      44.367 -34.567   9.587  1.00  0.00     0.293 HD
ENDBRANCH   2   9
BRANCH   4  11
ATOM     11  O   UNL     1      45.246 -29.299  10.503  1.00  0.00    -0.508 OA
ATOM     12  H   UNL     1      46.152 -28.869  10.357  1.00  0.00     0.293 HD
ENDBRANCH   4  11
TORSDOF 3
ENDMDL
MODEL 6
REMARK VINA RESULT:    -3.988      1.392      2.952
REMARK INTER + INTRA:          -4.540
REMARK INTER:                  -4.455
REMARK INTRA:                  -0.085
REMARK UNBOUND:                -0.087
REMARK SMILES CCc1ccc(O)cc1O
REMARK SMILES IDX 3 1 9 2 8 3 6 4 5 5 4 6 2 7 1 8 10 9 7 11
REMARK H PARENT 10 10 7 12
REMARK Flexibility Score: inf
ROOT
ATOM      1  C   UNL     1      26.605 -40.095  -1.360  1.00  0.00    -0.006 A 
ATOM      2  C   UNL     1      26.298 -39.163  -0.336  1.00  0.00     0.122 A 
ATOM      3  C   UNL     1      26.065 -39.617   0.968  1.00  0.00     0.092 A 
ATOM      4  C   UNL     1      26.114 -40.980   1.267  1.00  0.00     0.119 A 
ATOM      5  C   UNL     1      26.396 -41.903   0.257  1.00  0.00     0.047 A 
ATOM      6  C   UNL     1      26.635 -41.465  -1.047  1.00  0.00     0.011 A 
ENDROOT
BRANCH   1   7
ATOM      7  C   UNL     1      26.855 -39.669  -2.788  1.00  0.00     0.036 C 
ATOM      8  C   UNL     1      26.613 -40.825  -3.753  1.00  0.00     0.009 C 
ENDBRANCH   1   7
BRANCH   2   9
ATOM      9  O   UNL     1      26.213 -37.789  -0.575  1.00  0.00    -0.508 OA
ATOM     10  H   UNL     1      27.019 -37.181  -0.638  1.00  0.00     0.293 HD
ENDBRANCH   2   9
BRANCH   4  11
ATOM     11  O   UNL     1      25.876 -41.406   2.573  1.00  0.00    -0.508 OA
ATOM     12  H   UNL     1      25.622 -40.754   3.305  1.00  0.00     0.293 HD
ENDBRANCH   4  11
TORSDOF 3
ENDMDL
MODEL 7
REMARK VINA RESULT:    -3.904     22.493     23.397
REMARK INTER + INTRA:          -4.448
REMARK INTER:                  -4.350
REMARK INTRA:                  -0.097
REMARK UNBOUND:                -0.087
REMARK SMILES CCc1ccc(O)cc1O
REMARK SMILES IDX 3 1 9 2 8 3 6 4 5 5 4 6 2 7 1 8 10 9 7 11
REMARK H PARENT 10 10 7 12
REMARK Flexibility Score: inf
ROOT
ATOM      1  C   UNL     1      44.035 -31.919  11.992  1.00  0.00    -0.006 A 
ATOM      2  C   UNL     1      45.334 -32.026  12.550  1.00  0.00     0.122 A 
ATOM      3  C   UNL     1      45.861 -33.290  12.844  1.00  0.00     0.092 A 
ATOM      4  C   UNL     1      45.113 -34.446  12.610  1.00  0.00     0.119 A 
ATOM      5  C   UNL     1      43.825 -34.344  12.078  1.00  0.00     0.047 A 
ATOM      6  C   UNL     1      43.288 -33.091  11.776  1.00  0.00     0.011 A 
ENDROOT
BRANCH   1   7
ATOM      7  C   UNL     1      43.407 -30.586  11.663  1.00  0.00     0.036 C 
ATOM      8  C   UNL     1      43.393 -30.345  10.156  1.00  0.00     0.009 C 
ENDBRANCH   1   7
BRANCH   2   9
ATOM      9  O   UNL     1      46.124 -30.908  12.827  1.00  0.00    -0.508 OA
ATOM     10  H   UNL     1      46.290 -30.558  13.761  1.00  0.00     0.293 HD
ENDBRANCH   2   9
BRANCH   4  11
ATOM     11  O   UNL     1      45.660 -35.692  12.913  1.00  0.00    -0.508 OA
ATOM     12  H   UNL     1      45.413 -36.521  12.386  1.00  0.00     0.293 HD
ENDBRANCH   4  11
TORSDOF 3
ENDMDL
MODEL 8
REMARK VINA RESULT:    -3.847      1.753      4.131
REMARK INTER + INTRA:          -4.383
REMARK INTER:                  -4.298
REMARK INTRA:                  -0.085
REMARK UNBOUND:                -0.087
REMARK SMILES CCc1ccc(O)cc1O
REMARK SMILES IDX 3 1 9 2 8 3 6 4 5 5 4 6 2 7 1 8 10 9 7 11
REMARK H PARENT 10 10 7 12
REMARK Flexibility Score: inf
ROOT
ATOM      1  C   UNL     1      26.179 -38.542   0.933  1.00  0.00    -0.006 A 
ATOM      2  C   UNL     1      26.537 -37.524   0.014  1.00  0.00     0.122 A 
ATOM      3  C   UNL     1      26.818 -37.858  -1.317  1.00  0.00     0.092 A 
ATOM      4  C   UNL     1      26.768 -39.186  -1.744  1.00  0.00     0.119 A 
ATOM      5  C   UNL     1      26.435 -40.196  -0.836  1.00  0.00     0.047 A 
ATOM      6  C   UNL     1      26.148 -39.877   0.493  1.00  0.00     0.011 A 
ENDROOT
BRANCH   1   7
ATOM      7  C   UNL     1      25.875 -38.248   2.383  1.00  0.00     0.036 C 
ATOM      8  C   UNL     1      25.879 -39.528   3.213  1.00  0.00     0.009 C 
ENDBRANCH   1   7
BRANCH   2   9
ATOM      9  O   UNL     1      26.625 -36.179   0.383  1.00  0.00    -0.508 OA
ATOM     10  H   UNL     1      25.870 -35.517   0.273  1.00  0.00     0.293 HD
ENDBRANCH   2   9
BRANCH   4  11
ATOM     11  O   UNL     1      27.054 -39.492  -3.074  1.00  0.00    -0.508 OA
ATOM     12  H   UNL     1      26.322 -39.562  -3.770  1.00  0.00     0.293 HD
ENDBRANCH   4  11
TORSDOF 3
ENDMDL
