MODEL 1
REMARK VINA RESULT:    -0.571      0.000      0.000
REMARK INTER + INTRA:          -1.368
REMARK INTER:                  -0.705
REMARK INTRA:                  -0.664
REMARK UNBOUND:                -0.664
REMARK SMILES CC(C)=CCC[C@@H](C)c1ccc(C)cc1
REMARK SMILES IDX 6 1 7 2 8 3 9 4 13 5 12 6 11 7 14 8 10 9 15 10 5 11 4 12
REMARK SMILES IDX 2 13 1 14 3 15
REMARK H PARENT
REMARK Flexibility Score: inf
ROOT
ATOM      1  C   UNL     1      31.622  22.197  34.031  1.00  0.00     0.012 C 
ENDROOT
BRANCH   1   2
ATOM      2  C   UNL     1      31.516  20.664  33.869  1.00  0.00     0.016 C 
ATOM      3  C   UNL     1      32.123  19.909  35.063  1.00  0.00     0.013 C 
BRANCH   2   4
ATOM      4  C   UNL     1      30.069  20.252  33.667  1.00  0.00    -0.045 A 
ATOM      5  C   UNL     1      25.949  19.071  33.133  1.00  0.00     0.044 C 
ATOM      6  C   UNL     1      27.387  19.463  33.295  1.00  0.00    -0.051 A 
ATOM      7  C   UNL     1      28.203  18.787  34.214  1.00  0.00     0.004 A 
ATOM      8  C   UNL     1      27.909  20.551  32.582  1.00  0.00     0.004 A 
ATOM      9  C   UNL     1      29.535  19.174  34.394  1.00  0.00     0.004 A 
ATOM     10  C   UNL     1      29.240  20.939  32.760  1.00  0.00     0.004 A 
ENDBRANCH   2   4
ENDBRANCH   1   2
BRANCH   1  11
ATOM     11  C   UNL     1      31.655  22.636  35.503  1.00  0.00     0.028 C 
BRANCH  11  12
ATOM     12  C   UNL     1      30.712  23.791  35.734  1.00  0.00    -0.028 C 
ATOM     13  C   UNL     1      30.865  24.720  36.704  1.00  0.00    -0.080 C 
ATOM     14  C   UNL     1      32.055  24.719  37.635  1.00  0.00     0.039 C 
ATOM     15  C   UNL     1      29.818  25.797  36.838  1.00  0.00     0.039 C 
ENDBRANCH  11  12
ENDBRANCH   1  11
TORSDOF 4
ENDMDL
MODEL 2
REMARK VINA RESULT:     0.071      7.801      9.642
REMARK INTER + INTRA:          -0.576
REMARK INTER:                  -0.043
REMARK INTRA:                  -0.533
REMARK UNBOUND:                -0.664
REMARK SMILES CC(C)=CCC[C@@H](C)c1ccc(C)cc1
REMARK SMILES IDX 6 1 7 2 8 3 9 4 13 5 12 6 11 7 14 8 10 9 15 10 5 11 4 12
REMARK SMILES IDX 2 13 1 14 3 15
REMARK H PARENT
REMARK Flexibility Score: inf
ROOT
ATOM      1  C   UNL     1      21.602  23.241  37.134  1.00  0.00     0.012 C 
ENDROOT
BRANCH   1   2
ATOM      2  C   UNL     1      21.236  22.136  36.118  1.00  0.00     0.016 C 
ATOM      3  C   UNL     1      21.612  22.522  34.678  1.00  0.00     0.013 C 
BRANCH   2   4
ATOM      4  C   UNL     1      21.898  20.825  36.501  1.00  0.00    -0.045 A 
ATOM      5  C   UNL     1      23.815  17.104  37.567  1.00  0.00     0.044 C 
ATOM      6  C   UNL     1      23.125  18.380  37.188  1.00  0.00    -0.051 A 
ATOM      7  C   UNL     1      23.324  18.940  35.917  1.00  0.00     0.004 A 
ATOM      8  C   UNL     1      22.331  19.060  38.122  1.00  0.00     0.004 A 
ATOM      9  C   UNL     1      22.711  20.149  35.574  1.00  0.00     0.004 A 
ATOM     10  C   UNL     1      21.716  20.268  37.781  1.00  0.00     0.004 A 
ENDBRANCH   2   4
ENDBRANCH   1   2
BRANCH   1  11
ATOM     11  C   UNL     1      21.182  24.642  36.663  1.00  0.00     0.028 C 
BRANCH  11  12
ATOM     12  C   UNL     1      19.923  25.085  37.367  1.00  0.00    -0.028 C 
ATOM     13  C   UNL     1      19.054  25.996  36.876  1.00  0.00    -0.080 C 
ATOM     14  C   UNL     1      19.239  26.631  35.517  1.00  0.00     0.039 C 
ATOM     15  C   UNL     1      17.856  26.368  37.712  1.00  0.00     0.039 C 
ENDBRANCH  11  12
ENDBRANCH   1  11
TORSDOF 4
ENDMDL
MODEL 3
REMARK VINA RESULT:     0.143      7.680      9.478
REMARK INTER + INTRA:          -0.487
REMARK INTER:                   0.037
REMARK INTRA:                  -0.525
REMARK UNBOUND:                -0.664
REMARK SMILES CC(C)=CCC[C@@H](C)c1ccc(C)cc1
REMARK SMILES IDX 6 1 7 2 8 3 9 4 13 5 12 6 11 7 14 8 10 9 15 10 5 11 4 12
REMARK SMILES IDX 2 13 1 14 3 15
REMARK H PARENT
REMARK Flexibility Score: inf
ROOT
ATOM      1  C   UNL     1      21.724  23.026  37.135  1.00  0.00     0.012 C 
ENDROOT
BRANCH   1   2
ATOM      2  C   UNL     1      21.317  21.902  36.155  1.00  0.00     0.016 C 
ATOM      3  C   UNL     1      21.629  22.263  34.693  1.00  0.00     0.013 C 
BRANCH   2   4
ATOM      4  C   UNL     1      22.000  20.600  36.532  1.00  0.00    -0.045 A 
ATOM      5  C   UNL     1      23.908  16.882  37.624  1.00  0.00     0.044 C 
ATOM      6  C   UNL     1      23.269  18.187  37.257  1.00  0.00    -0.051 A 
ATOM      7  C   UNL     1      22.329  18.779  38.115  1.00  0.00     0.004 A 
ATOM      8  C   UNL     1      23.552  18.793  36.025  1.00  0.00     0.004 A 
ATOM      9  C   UNL     1      21.705  19.978  37.759  1.00  0.00     0.004 A 
ATOM     10  C   UNL     1      22.930  19.992  35.667  1.00  0.00     0.004 A 
ENDBRANCH   2   4
ENDBRANCH   1   2
BRANCH   1  11
ATOM     11  C   UNL     1      21.322  24.422  36.633  1.00  0.00     0.028 C 
BRANCH  11  12
ATOM     12  C   UNL     1      20.102  24.920  37.369  1.00  0.00    -0.028 C 
ATOM     13  C   UNL     1      19.253  25.858  36.893  1.00  0.00    -0.080 C 
ATOM     14  C   UNL     1      19.420  26.469  35.522  1.00  0.00     0.039 C 
ATOM     15  C   UNL     1      18.096  26.284  37.760  1.00  0.00     0.039 C 
ENDBRANCH  11  12
ENDBRANCH   1  11
TORSDOF 4
ENDMDL
MODEL 4
REMARK VINA RESULT:     0.260      0.882      1.593
REMARK INTER + INTRA:          -0.343
REMARK INTER:                   0.270
REMARK INTRA:                  -0.613
REMARK UNBOUND:                -0.664
REMARK SMILES CC(C)=CCC[C@@H](C)c1ccc(C)cc1
REMARK SMILES IDX 6 1 7 2 8 3 9 4 13 5 12 6 11 7 14 8 10 9 15 10 5 11 4 12
REMARK SMILES IDX 2 13 1 14 3 15
REMARK H PARENT
REMARK Flexibility Score: inf
ROOT
ATOM      1  C   UNL     1      32.081  20.490  34.998  1.00  0.00     0.012 C 
ENDROOT
BRANCH   1   2
ATOM      2  C   UNL     1      31.650  19.314  34.092  1.00  0.00     0.016 C 
ATOM      3  C   UNL     1      32.124  17.956  34.637  1.00  0.00     0.013 C 
BRANCH   2   4
ATOM      4  C   UNL     1      30.143  19.311  33.910  1.00  0.00    -0.045 A 
ATOM      5  C   UNL     1      25.851  19.287  33.430  1.00  0.00     0.044 C 
ATOM      6  C   UNL     1      27.344  19.278  33.572  1.00  0.00    -0.051 A 
ATOM      7  C   UNL     1      27.971  18.316  34.377  1.00  0.00     0.004 A 
ATOM      8  C   UNL     1      28.119  20.272  32.957  1.00  0.00     0.004 A 
ATOM      9  C   UNL     1      29.359  18.327  34.540  1.00  0.00     0.004 A 
ATOM     10  C   UNL     1      29.507  20.285  33.118  1.00  0.00     0.004 A 
ENDBRANCH   2   4
ENDBRANCH   1   2
BRANCH   1  11
ATOM     11  C   UNL     1      32.124  21.830  34.248  1.00  0.00     0.028 C 
BRANCH  11  12
ATOM     12  C   UNL     1      32.086  22.985  35.219  1.00  0.00    -0.028 C 
ATOM     13  C   UNL     1      30.955  23.597  35.633  1.00  0.00    -0.080 C 
ATOM     14  C   UNL     1      29.586  23.136  35.191  1.00  0.00     0.039 C 
ATOM     15  C   UNL     1      31.076  24.765  36.578  1.00  0.00     0.039 C 
ENDBRANCH  11  12
ENDBRANCH   1  11
TORSDOF 4
ENDMDL
MODEL 5
REMARK VINA RESULT:     1.769      8.918     11.436
REMARK INTER + INTRA:           1.519
REMARK INTER:                   1.182
REMARK INTRA:                   0.337
REMARK UNBOUND:                -0.664
REMARK SMILES CC(C)=CCC[C@@H](C)c1ccc(C)cc1
REMARK SMILES IDX 6 1 7 2 8 3 9 4 13 5 12 6 11 7 14 8 10 9 15 10 5 11 4 12
REMARK SMILES IDX 2 13 1 14 3 15
REMARK H PARENT
REMARK Flexibility Score: inf
ROOT
ATOM      1  C   UNL     1      21.107  23.965  33.882  1.00  0.00     0.012 C 
ENDROOT
BRANCH   1   2
ATOM      2  C   UNL     1      20.807  25.480  33.825  1.00  0.00     0.016 C 
ATOM      3  C   UNL     1      20.223  25.907  32.468  1.00  0.00     0.013 C 
BRANCH   2   4
ATOM      4  C   UNL     1      19.869  25.877  34.950  1.00  0.00    -0.045 A 
ATOM      5  C   UNL     1      17.166  27.002  38.125  1.00  0.00     0.044 C 
ATOM      6  C   UNL     1      18.120  26.637  37.028  1.00  0.00    -0.051 A 
ATOM      7  C   UNL     1      17.846  27.004  35.702  1.00  0.00     0.004 A 
ATOM      8  C   UNL     1      19.258  25.867  37.307  1.00  0.00     0.004 A 
ATOM      9  C   UNL     1      18.716  26.633  34.672  1.00  0.00     0.004 A 
ATOM     10  C   UNL     1      20.129  25.495  36.280  1.00  0.00     0.004 A 
ENDBRANCH   2   4
ENDBRANCH   1   2
BRANCH   1  11
ATOM     11  C   UNL     1      21.582  23.507  35.270  1.00  0.00     0.028 C 
BRANCH  11  12
ATOM     12  C   UNL     1      21.918  22.036  35.258  1.00  0.00    -0.028 C 
ATOM     13  C   UNL     1      21.997  21.262  36.363  1.00  0.00    -0.080 C 
ATOM     14  C   UNL     1      21.695  21.799  37.742  1.00  0.00     0.039 C 
ATOM     15  C   UNL     1      22.383  19.814  36.198  1.00  0.00     0.039 C 
ENDBRANCH  11  12
ENDBRANCH   1  11
TORSDOF 4
ENDMDL
