MODEL 1
REMARK VINA RESULT:    -7.432      0.000      0.000
REMARK INTER + INTRA:          -8.240
REMARK INTER:                  -8.084
REMARK INTRA:                  -0.156
REMARK UNBOUND:                -0.156
REMARK SMILES C[C@H]1[C@H]2C3=CC[C@@H]4[C@@]5(C)CC[C@@H](O)C(C)(C)[C@H]5CC[C@@]4(C)[C@]3(C)CC[C@@]2(C(=O)[O-])CC[C@@H]1C
REMARK SMILES IDX 26 1 30 2 25 3 3 4 31 5 24 6 4 7 2 8 32 9 22 10 5 11 1 12
REMARK SMILES IDX 33 13 23 14 20 15 6 16 7 17 19 18 21 19 8 20 18 21 17 22
REMARK SMILES IDX 10 23 9 24 14 25 11 26 12 27 15 28 16 29 27 30 28 31 29 32
REMARK SMILES IDX 13 33
REMARK H PARENT 13 34
REMARK Flexibility Score: inf
ROOT
ATOM      1  C   UNL     1      22.905  35.352  27.173  1.00  0.00     0.017 C 
ATOM      2  C   UNL     1      24.403  35.186  27.533  1.00  0.00     0.014 C 
ATOM      3  C   UNL     1      22.112  34.081  27.573  1.00  0.00     0.014 C 
ATOM      4  C   UNL     1      22.770  35.652  25.638  1.00  0.00     0.030 C 
ATOM      5  C   UNL     1      25.109  34.036  26.799  1.00  0.00     0.004 C 
ATOM      6  C   UNL     1      20.627  34.196  27.210  1.00  0.00     0.013 C 
ATOM      7  C   UNL     1      21.313  35.501  25.128  1.00  0.00    -0.063 C 
ATOM      8  C   UNL     1      23.919  35.031  24.734  1.00  0.00    -0.003 C 
ATOM      9  C   UNL     1      24.610  33.777  25.355  1.00  0.00    -0.011 C 
ATOM     10  C   UNL     1      20.355  34.410  25.681  1.00  0.00    -0.006 C 
ATOM     11  C   UNL     1      20.904  36.379  24.175  1.00  0.00    -0.027 C 
ATOM     12  C   UNL     1      23.502  34.812  23.263  1.00  0.00     0.008 C 
ATOM     13  C   UNL     1      25.785  33.259  24.504  1.00  0.00     0.008 C 
ATOM     14  C   UNL     1      20.725  33.067  24.973  1.00  0.00     0.017 C 
ATOM     15  C   UNL     1      18.804  34.823  25.432  1.00  0.00    -0.020 C 
ATOM     16  C   UNL     1      19.501  36.511  23.652  1.00  0.00     0.032 C 
ATOM     17  C   UNL     1      18.629  35.271  23.929  1.00  0.00     0.006 C 
ATOM     18  C   UNL     1      17.857  33.623  25.738  1.00  0.00     0.008 C 
ATOM     19  C   UNL     1      18.418  36.000  26.389  1.00  0.00     0.012 C 
ATOM     20  C   UNL     1      17.159  35.356  23.303  1.00  0.00    -0.025 C 
ATOM     21  C   UNL     1      16.419  33.822  25.265  1.00  0.00     0.005 C 
ATOM     22  C   UNL     1      16.268  34.128  23.749  1.00  0.00     0.003 C 
ATOM     23  C   UNL     1      17.293  35.388  21.737  1.00  0.00     0.010 C 
ATOM     24  C   UNL     1      16.396  36.667  23.694  1.00  0.00     0.012 C 
ATOM     25  C   UNL     1      16.223  32.899  22.740  1.00  0.00    -0.006 C 
ATOM     26  C   UNL     1      16.051  34.876  21.004  1.00  0.00     0.033 C 
ATOM     27  C   UNL     1      15.683  33.414  21.348  1.00  0.00     0.120 C 
ATOM     28  C   UNL     1      15.218  31.828  23.246  1.00  0.00     0.014 C 
ATOM     29  C   UNL     1      17.582  32.165  22.563  1.00  0.00     0.014 C 
ENDROOT
BRANCH   1  30
ATOM     30  C   UNL     1      22.377  36.519  28.012  1.00  0.00     0.048 C 
ATOM     31  O   UNL     1      22.357  36.466  29.271  1.00  0.00    -0.550 OA
ATOM     32  O   UNL     1      21.972  37.696  27.389  1.00  0.00    -0.550 OA
ENDBRANCH   1  30
BRANCH  27  33
ATOM     33  O   UNL     1      16.087  32.561  20.302  1.00  0.00    -0.393 OA
ATOM     34  H   UNL     1      16.666  33.093  19.696  1.00  0.00     0.210 HD
ENDBRANCH  27  33
TORSDOF 2
ENDMDL
MODEL 2
REMARK VINA RESULT:    -7.409      6.382     10.512
REMARK INTER + INTRA:          -8.214
REMARK INTER:                  -8.064
REMARK INTRA:                  -0.150
REMARK UNBOUND:                -0.156
REMARK SMILES C[C@H]1[C@H]2C3=CC[C@@H]4[C@@]5(C)CC[C@@H](O)C(C)(C)[C@H]5CC[C@@]4(C)[C@]3(C)CC[C@@]2(C(=O)[O-])CC[C@@H]1C
REMARK SMILES IDX 26 1 30 2 25 3 3 4 31 5 24 6 4 7 2 8 32 9 22 10 5 11 1 12
REMARK SMILES IDX 33 13 23 14 20 15 6 16 7 17 19 18 21 19 8 20 18 21 17 22
REMARK SMILES IDX 10 23 9 24 14 25 11 26 12 27 15 28 16 29 27 30 28 31 29 32
REMARK SMILES IDX 13 33
REMARK H PARENT 13 34
REMARK Flexibility Score: inf
ROOT
ATOM      1  C   UNL     1      28.655  30.115  18.921  1.00  0.00     0.017 C 
ATOM      2  C   UNL     1      28.598  28.859  18.016  1.00  0.00     0.014 C 
ATOM      3  C   UNL     1      29.511  29.829  20.182  1.00  0.00     0.014 C 
ATOM      4  C   UNL     1      27.195  30.545  19.304  1.00  0.00     0.030 C 
ATOM      5  C   UNL     1      27.939  27.634  18.668  1.00  0.00     0.004 C 
ATOM      6  C   UNL     1      29.573  31.043  21.117  1.00  0.00     0.013 C 
ATOM      7  C   UNL     1      27.163  31.574  20.465  1.00  0.00    -0.063 C 
ATOM      8  C   UNL     1      26.145  29.356  19.366  1.00  0.00    -0.003 C 
ATOM      9  C   UNL     1      26.780  27.958  19.645  1.00  0.00    -0.011 C 
ATOM     10  C   UNL     1      28.174  31.518  21.644  1.00  0.00    -0.006 C 
ATOM     11  C   UNL     1      26.211  32.541  20.400  1.00  0.00    -0.027 C 
ATOM     12  C   UNL     1      24.929  29.646  20.273  1.00  0.00     0.008 C 
ATOM     13  C   UNL     1      25.751  26.813  19.598  1.00  0.00     0.008 C 
ATOM     14  C   UNL     1      27.673  30.414  22.630  1.00  0.00     0.017 C 
ATOM     15  C   UNL     1      28.301  32.967  22.366  1.00  0.00    -0.020 C 
ATOM     16  C   UNL     1      26.096  33.718  21.327  1.00  0.00     0.032 C 
ATOM     17  C   UNL     1      26.853  33.522  22.656  1.00  0.00     0.006 C 
ATOM     18  C   UNL     1      29.098  32.852  23.700  1.00  0.00     0.008 C 
ATOM     19  C   UNL     1      29.072  33.952  21.424  1.00  0.00     0.012 C 
ATOM     20  C   UNL     1      26.669  34.727  23.693  1.00  0.00    -0.025 C 
ATOM     21  C   UNL     1      29.026  34.095  24.583  1.00  0.00     0.005 C 
ATOM     22  C   UNL     1      27.587  34.540  24.966  1.00  0.00     0.003 C 
ATOM     23  C   UNL     1      25.156  34.783  24.118  1.00  0.00     0.010 C 
ATOM     24  C   UNL     1      26.991  36.129  23.074  1.00  0.00     0.012 C 
ATOM     25  C   UNL     1      26.901  33.846  26.222  1.00  0.00    -0.006 C 
ATOM     26  C   UNL     1      24.927  35.431  25.485  1.00  0.00     0.033 C 
ATOM     27  C   UNL     1      25.648  34.708  26.647  1.00  0.00     0.120 C 
ATOM     28  C   UNL     1      27.876  33.843  27.431  1.00  0.00     0.014 C 
ATOM     29  C   UNL     1      26.493  32.363  25.993  1.00  0.00     0.014 C 
ENDROOT
BRANCH   1  30
ATOM     30  C   UNL     1      29.359  31.209  18.113  1.00  0.00     0.048 C 
ATOM     31  O   UNL     1      28.730  32.212  17.682  1.00  0.00    -0.550 OA
ATOM     32  O   UNL     1      30.732  31.142  17.900  1.00  0.00    -0.550 OA
ENDBRANCH   1  30
BRANCH  27  33
ATOM     33  O   UNL     1      24.722  33.932  27.373  1.00  0.00    -0.393 OA
ATOM     34  H   UNL     1      24.893  32.981  27.146  1.00  0.00     0.210 HD
ENDBRANCH  27  33
TORSDOF 2
ENDMDL
MODEL 3
REMARK VINA RESULT:    -7.352      3.867      6.416
REMARK INTER + INTRA:          -8.153
REMARK INTER:                  -7.990
REMARK INTRA:                  -0.163
REMARK UNBOUND:                -0.156
REMARK SMILES C[C@H]1[C@H]2C3=CC[C@@H]4[C@@]5(C)CC[C@@H](O)C(C)(C)[C@H]5CC[C@@]4(C)[C@]3(C)CC[C@@]2(C(=O)[O-])CC[C@@H]1C
REMARK SMILES IDX 26 1 30 2 25 3 3 4 31 5 24 6 4 7 2 8 32 9 22 10 5 11 1 12
REMARK SMILES IDX 33 13 23 14 20 15 6 16 7 17 19 18 21 19 8 20 18 21 17 22
REMARK SMILES IDX 10 23 9 24 14 25 11 26 12 27 15 28 16 29 27 30 28 31 29 32
REMARK SMILES IDX 13 33
REMARK H PARENT 13 34
REMARK Flexibility Score: inf
ROOT
ATOM      1  C   UNL     1      17.702  37.354  22.680  1.00  0.00     0.017 C 
ATOM      2  C   UNL     1      17.776  38.843  23.099  1.00  0.00     0.014 C 
ATOM      3  C   UNL     1      16.232  36.948  22.397  1.00  0.00     0.014 C 
ATOM      4  C   UNL     1      18.335  36.465  23.808  1.00  0.00     0.030 C 
ATOM      5  C   UNL     1      17.021  39.178  24.394  1.00  0.00     0.004 C 
ATOM      6  C   UNL     1      16.113  35.471  22.001  1.00  0.00     0.013 C 
ATOM      7  C   UNL     1      18.007  34.959  23.634  1.00  0.00    -0.063 C 
ATOM      8  C   UNL     1      18.216  37.064  25.274  1.00  0.00    -0.003 C 
ATOM      9  C   UNL     1      17.025  38.055  25.462  1.00  0.00    -0.011 C 
ATOM     10  C   UNL     1      16.635  34.471  23.092  1.00  0.00    -0.006 C 
ATOM     11  C   UNL     1      18.984  34.077  23.969  1.00  0.00    -0.027 C 
ATOM     12  C   UNL     1      18.282  35.998  26.389  1.00  0.00     0.008 C 
ATOM     13  C   UNL     1      16.995  38.696  26.862  1.00  0.00     0.008 C 
ATOM     14  C   UNL     1      15.618  34.539  24.277  1.00  0.00     0.017 C 
ATOM     15  C   UNL     1      16.755  32.973  22.477  1.00  0.00    -0.020 C 
ATOM     16  C   UNL     1      18.938  32.592  23.739  1.00  0.00     0.032 C 
ATOM     17  C   UNL     1      17.511  32.055  23.514  1.00  0.00     0.006 C 
ATOM     18  C   UNL     1      15.343  32.382  22.182  1.00  0.00     0.008 C 
ATOM     19  C   UNL     1      17.550  33.025  21.129  1.00  0.00     0.012 C 
ATOM     20  C   UNL     1      17.432  30.464  23.355  1.00  0.00    -0.025 C 
ATOM     21  C   UNL     1      15.341  30.887  21.873  1.00  0.00     0.005 C 
ATOM     22  C   UNL     1      15.972  29.992  22.977  1.00  0.00     0.003 C 
ATOM     23  C   UNL     1      17.877  29.813  24.715  1.00  0.00     0.010 C 
ATOM     24  C   UNL     1      18.412  29.902  22.270  1.00  0.00     0.012 C 
ATOM     25  C   UNL     1      15.048  29.545  24.192  1.00  0.00    -0.006 C 
ATOM     26  C   UNL     1      17.309  28.409  24.938  1.00  0.00     0.033 C 
ATOM     27  C   UNL     1      15.763  28.358  24.952  1.00  0.00     0.120 C 
ATOM     28  C   UNL     1      13.697  28.991  23.662  1.00  0.00     0.014 C 
ATOM     29  C   UNL     1      14.688  30.690  25.180  1.00  0.00     0.014 C 
ENDROOT
BRANCH   1  30
ATOM     30  C   UNL     1      18.486  37.225  21.371  1.00  0.00     0.048 C 
ATOM     31  O   UNL     1      18.043  37.702  20.292  1.00  0.00    -0.550 OA
ATOM     32  O   UNL     1      19.745  36.633  21.369  1.00  0.00    -0.550 OA
ENDBRANCH   1  30
BRANCH  27  33
ATOM     33  O   UNL     1      15.301  28.256  26.279  1.00  0.00    -0.393 OA
ATOM     34  H   UNL     1      15.141  27.294  26.462  1.00  0.00     0.210 HD
ENDBRANCH  27  33
TORSDOF 2
ENDMDL
MODEL 4
REMARK VINA RESULT:    -7.286      5.378      9.180
REMARK INTER + INTRA:          -8.080
REMARK INTER:                  -8.029
REMARK INTRA:                  -0.051
REMARK UNBOUND:                -0.156
REMARK SMILES C[C@H]1[C@H]2C3=CC[C@@H]4[C@@]5(C)CC[C@@H](O)C(C)(C)[C@H]5CC[C@@]4(C)[C@]3(C)CC[C@@]2(C(=O)[O-])CC[C@@H]1C
REMARK SMILES IDX 26 1 30 2 25 3 3 4 31 5 24 6 4 7 2 8 32 9 22 10 5 11 1 12
REMARK SMILES IDX 33 13 23 14 20 15 6 16 7 17 19 18 21 19 8 20 18 21 17 22
REMARK SMILES IDX 10 23 9 24 14 25 11 26 12 27 15 28 16 29 27 30 28 31 29 32
REMARK SMILES IDX 13 33
REMARK H PARENT 13 34
REMARK Flexibility Score: inf
ROOT
ATOM      1  C   UNL     1      15.842  31.809  22.668  1.00  0.00     0.017 C 
ATOM      2  C   UNL     1      15.508  33.294  22.953  1.00  0.00     0.014 C 
ATOM      3  C   UNL     1      14.905  30.881  23.484  1.00  0.00     0.014 C 
ATOM      4  C   UNL     1      17.351  31.542  23.008  1.00  0.00     0.030 C 
ATOM      5  C   UNL     1      15.709  33.721  24.415  1.00  0.00     0.004 C 
ATOM      6  C   UNL     1      15.220  29.399  23.246  1.00  0.00     0.013 C 
ATOM      7  C   UNL     1      17.687  30.029  23.074  1.00  0.00    -0.063 C 
ATOM      8  C   UNL     1      17.949  32.464  24.153  1.00  0.00    -0.003 C 
ATOM      9  C   UNL     1      16.882  33.020  25.146  1.00  0.00    -0.011 C 
ATOM     10  C   UNL     1      16.682  28.984  23.634  1.00  0.00    -0.006 C 
ATOM     11  C   UNL     1      18.906  29.651  22.607  1.00  0.00    -0.027 C 
ATOM     12  C   UNL     1      19.167  31.848  24.875  1.00  0.00     0.008 C 
ATOM     13  C   UNL     1      17.477  33.991  26.183  1.00  0.00     0.008 C 
ATOM     14  C   UNL     1      16.764  29.055  25.194  1.00  0.00     0.017 C 
ATOM     15  C   UNL     1      17.019  27.498  23.073  1.00  0.00    -0.020 C 
ATOM     16  C   UNL     1      19.377  28.234  22.436  1.00  0.00     0.032 C 
ATOM     17  C   UNL     1      18.561  27.219  23.260  1.00  0.00     0.006 C 
ATOM     18  C   UNL     1      16.191  26.419  23.835  1.00  0.00     0.008 C 
ATOM     19  C   UNL     1      16.641  27.416  21.556  1.00  0.00     0.012 C 
ATOM     20  C   UNL     1      19.102  25.716  23.162  1.00  0.00    -0.025 C 
ATOM     21  C   UNL     1      16.644  24.984  23.577  1.00  0.00     0.005 C 
ATOM     22  C   UNL     1      18.138  24.704  23.901  1.00  0.00     0.003 C 
ATOM     23  C   UNL     1      20.536  25.667  23.804  1.00  0.00     0.010 C 
ATOM     24  C   UNL     1      19.277  25.218  21.687  1.00  0.00     0.012 C 
ATOM     25  C   UNL     1      18.522  24.349  25.403  1.00  0.00    -0.006 C 
ATOM     26  C   UNL     1      20.928  24.282  24.325  1.00  0.00     0.033 C 
ATOM     27  C   UNL     1      19.977  23.735  25.416  1.00  0.00     0.120 C 
ATOM     28  C   UNL     1      17.567  23.256  25.956  1.00  0.00     0.014 C 
ATOM     29  C   UNL     1      18.426  25.547  26.390  1.00  0.00     0.014 C 
ENDROOT
BRANCH   1  30
ATOM     30  C   UNL     1      15.560  31.572  21.181  1.00  0.00     0.048 C 
ATOM     31  O   UNL     1      14.430  31.184  20.781  1.00  0.00    -0.550 OA
ATOM     32  O   UNL     1      16.541  31.852  20.234  1.00  0.00    -0.550 OA
ENDBRANCH   1  30
BRANCH  27  33
ATOM     33  O   UNL     1      20.575  23.874  26.683  1.00  0.00    -0.393 OA
ATOM     34  H   UNL     1      19.852  23.803  27.360  1.00  0.00     0.210 HD
ENDBRANCH  27  33
TORSDOF 2
ENDMDL
MODEL 5
REMARK VINA RESULT:    -7.147      2.946      7.771
REMARK INTER + INTRA:          -7.930
REMARK INTER:                  -7.766
REMARK INTRA:                  -0.163
REMARK UNBOUND:                -0.156
REMARK SMILES C[C@H]1[C@H]2C3=CC[C@@H]4[C@@]5(C)CC[C@@H](O)C(C)(C)[C@H]5CC[C@@]4(C)[C@]3(C)CC[C@@]2(C(=O)[O-])CC[C@@H]1C
REMARK SMILES IDX 26 1 30 2 25 3 3 4 31 5 24 6 4 7 2 8 32 9 22 10 5 11 1 12
REMARK SMILES IDX 33 13 23 14 20 15 6 16 7 17 19 18 21 19 8 20 18 21 17 22
REMARK SMILES IDX 10 23 9 24 14 25 11 26 12 27 15 28 16 29 27 30 28 31 29 32
REMARK SMILES IDX 13 33
REMARK H PARENT 13 34
REMARK Flexibility Score: inf
ROOT
ATOM      1  C   UNL     1      16.715  29.341  22.268  1.00  0.00     0.017 C 
ATOM      2  C   UNL     1      16.107  27.923  22.397  1.00  0.00     0.014 C 
ATOM      3  C   UNL     1      17.992  29.459  23.140  1.00  0.00     0.014 C 
ATOM      4  C   UNL     1      15.639  30.407  22.680  1.00  0.00     0.030 C 
ATOM      5  C   UNL     1      15.647  27.554  23.816  1.00  0.00     0.004 C 
ATOM      6  C   UNL     1      18.612  30.859  23.058  1.00  0.00     0.013 C 
ATOM      7  C   UNL     1      16.251  31.815  22.904  1.00  0.00    -0.063 C 
ATOM      8  C   UNL     1      14.578  29.904  23.748  1.00  0.00    -0.003 C 
ATOM      9  C   UNL     1      15.085  28.735  24.648  1.00  0.00    -0.011 C 
ATOM     10  C   UNL     1      17.659  32.012  23.531  1.00  0.00    -0.006 C 
ATOM     11  C   UNL     1      15.500  32.878  22.514  1.00  0.00    -0.027 C 
ATOM     12  C   UNL     1      13.930  31.043  24.565  1.00  0.00     0.008 C 
ATOM     13  C   UNL     1      14.001  28.201  25.604  1.00  0.00     0.008 C 
ATOM     14  C   UNL     1      17.503  31.851  25.078  1.00  0.00     0.017 C 
ATOM     15  C   UNL     1      18.274  33.459  23.128  1.00  0.00    -0.020 C 
ATOM     16  C   UNL     1      15.954  34.310  22.497  1.00  0.00     0.032 C 
ATOM     17  C   UNL     1      17.184  34.569  23.390  1.00  0.00     0.006 C 
ATOM     18  C   UNL     1      19.553  33.769  23.964  1.00  0.00     0.008 C 
ATOM     19  C   UNL     1      18.676  33.451  21.614  1.00  0.00     0.012 C 
ATOM     20  C   UNL     1      17.629  36.105  23.455  1.00  0.00    -0.025 C 
ATOM     21  C   UNL     1      20.035  35.213  23.862  1.00  0.00     0.005 C 
ATOM     22  C   UNL     1      18.979  36.283  24.258  1.00  0.00     0.003 C 
ATOM     23  C   UNL     1      16.476  36.922  24.144  1.00  0.00     0.010 C 
ATOM     24  C   UNL     1      17.826  36.751  22.042  1.00  0.00     0.012 C 
ATOM     25  C   UNL     1      18.828  36.647  25.799  1.00  0.00    -0.006 C 
ATOM     26  C   UNL     1      16.953  38.215  24.809  1.00  0.00     0.033 C 
ATOM     27  C   UNL     1      18.010  37.993  25.917  1.00  0.00     0.120 C 
ATOM     28  C   UNL     1      20.225  36.913  26.426  1.00  0.00     0.014 C 
ATOM     29  C   UNL     1      18.174  35.531  26.662  1.00  0.00     0.014 C 
ENDROOT
BRANCH   1  30
ATOM     30  C   UNL     1      17.129  29.511  20.803  1.00  0.00     0.048 C 
ATOM     31  O   UNL     1      18.070  28.837  20.305  1.00  0.00    -0.550 OA
ATOM     32  O   UNL     1      16.417  30.373  19.975  1.00  0.00    -0.550 OA
ENDBRANCH   1  30
BRANCH  27  33
ATOM     33  O   UNL     1      17.404  38.107  27.184  1.00  0.00    -0.393 OA
ATOM     34  H   UNL     1      16.860  37.289  27.325  1.00  0.00     0.210 HD
ENDBRANCH  27  33
TORSDOF 2
ENDMDL
MODEL 6
REMARK VINA RESULT:    -7.134      4.123      7.082
REMARK INTER + INTRA:          -7.916
REMARK INTER:                  -7.827
REMARK INTRA:                  -0.089
REMARK UNBOUND:                -0.156
REMARK SMILES C[C@H]1[C@H]2C3=CC[C@@H]4[C@@]5(C)CC[C@@H](O)C(C)(C)[C@H]5CC[C@@]4(C)[C@]3(C)CC[C@@]2(C(=O)[O-])CC[C@@H]1C
REMARK SMILES IDX 26 1 30 2 25 3 3 4 31 5 24 6 4 7 2 8 32 9 22 10 5 11 1 12
REMARK SMILES IDX 33 13 23 14 20 15 6 16 7 17 19 18 21 19 8 20 18 21 17 22
REMARK SMILES IDX 10 23 9 24 14 25 11 26 12 27 15 28 16 29 27 30 28 31 29 32
REMARK SMILES IDX 13 33
REMARK H PARENT 13 34
REMARK Flexibility Score: inf
ROOT
ATOM      1  C   UNL     1      15.642  29.875  24.383  1.00  0.00     0.017 C 
ATOM      2  C   UNL     1      15.237  28.382  24.311  1.00  0.00     0.014 C 
ATOM      3  C   UNL     1      14.514  30.766  23.803  1.00  0.00     0.014 C 
ATOM      4  C   UNL     1      16.992  30.084  23.609  1.00  0.00     0.030 C 
ATOM      5  C   UNL     1      15.012  27.851  22.887  1.00  0.00     0.004 C 
ATOM      6  C   UNL     1      14.887  32.253  23.833  1.00  0.00     0.013 C 
ATOM      7  C   UNL     1      17.299  31.581  23.341  1.00  0.00    -0.063 C 
ATOM      8  C   UNL     1      17.237  29.072  22.410  1.00  0.00    -0.003 C 
ATOM      9  C   UNL     1      15.929  28.474  21.804  1.00  0.00    -0.011 C 
ATOM     10  C   UNL     1      16.179  32.607  23.017  1.00  0.00    -0.006 C 
ATOM     11  C   UNL     1      18.602  31.961  23.414  1.00  0.00    -0.027 C 
ATOM     12  C   UNL     1      18.200  29.610  21.329  1.00  0.00     0.008 C 
ATOM     13  C   UNL     1      16.201  27.421  20.713  1.00  0.00     0.008 C 
ATOM     14  C   UNL     1      15.812  32.429  21.508  1.00  0.00     0.017 C 
ATOM     15  C   UNL     1      16.665  34.119  23.351  1.00  0.00    -0.020 C 
ATOM     16  C   UNL     1      19.105  33.375  23.341  1.00  0.00     0.032 C 
ATOM     17  C   UNL     1      18.090  34.350  22.713  1.00  0.00     0.006 C 
ATOM     18  C   UNL     1      15.657  35.163  22.781  1.00  0.00     0.008 C 
ATOM     19  C   UNL     1      16.737  34.313  24.903  1.00  0.00     0.012 C 
ATOM     20  C   UNL     1      18.641  35.844  22.546  1.00  0.00    -0.025 C 
ATOM     21  C   UNL     1      16.168  36.602  22.795  1.00  0.00     0.005 C 
ATOM     22  C   UNL     1      17.509  36.825  22.040  1.00  0.00     0.003 C 
ATOM     23  C   UNL     1      19.832  35.816  21.520  1.00  0.00     0.010 C 
ATOM     24  C   UNL     1      19.230  36.437  23.870  1.00  0.00     0.012 C 
ATOM     25  C   UNL     1      17.449  37.068  20.470  1.00  0.00    -0.006 C 
ATOM     26  C   UNL     1      20.063  37.153  20.811  1.00  0.00     0.033 C 
ATOM     27  C   UNL     1      18.841  37.647  20.000  1.00  0.00     0.120 C 
ATOM     28  C   UNL     1      16.378  38.142  20.134  1.00  0.00     0.014 C 
ATOM     29  C   UNL     1      17.071  35.808  19.639  1.00  0.00     0.014 C 
ENDROOT
BRANCH   1  30
ATOM     30  C   UNL     1      15.798  30.219  25.867  1.00  0.00     0.048 C 
ATOM     31  O   UNL     1      16.846  30.763  26.307  1.00  0.00    -0.550 OA
ATOM     32  O   UNL     1      14.743  29.996  26.746  1.00  0.00    -0.550 OA
ENDBRANCH   1  30
BRANCH  27  33
ATOM     33  O   UNL     1      19.052  37.407  18.628  1.00  0.00    -0.393 OA
ATOM     34  H   UNL     1      18.534  36.595  18.388  1.00  0.00     0.210 HD
ENDBRANCH  27  33
TORSDOF 2
ENDMDL
MODEL 7
REMARK VINA RESULT:    -7.099      1.681      7.580
REMARK INTER + INTRA:          -7.877
REMARK INTER:                  -7.714
REMARK INTRA:                  -0.163
REMARK UNBOUND:                -0.156
REMARK SMILES C[C@H]1[C@H]2C3=CC[C@@H]4[C@@]5(C)CC[C@@H](O)C(C)(C)[C@H]5CC[C@@]4(C)[C@]3(C)CC[C@@]2(C(=O)[O-])CC[C@@H]1C
REMARK SMILES IDX 26 1 30 2 25 3 3 4 31 5 24 6 4 7 2 8 32 9 22 10 5 11 1 12
REMARK SMILES IDX 33 13 23 14 20 15 6 16 7 17 19 18 21 19 8 20 18 21 17 22
REMARK SMILES IDX 10 23 9 24 14 25 11 26 12 27 15 28 16 29 27 30 28 31 29 32
REMARK SMILES IDX 13 33
REMARK H PARENT 13 34
REMARK Flexibility Score: inf
ROOT
ATOM      1  C   UNL     1      17.154  34.937  22.228  1.00  0.00     0.017 C 
ATOM      2  C   UNL     1      16.235  35.476  21.104  1.00  0.00     0.014 C 
ATOM      3  C   UNL     1      16.724  35.519  23.600  1.00  0.00     0.014 C 
ATOM      4  C   UNL     1      18.646  35.296  21.896  1.00  0.00     0.030 C 
ATOM      5  C   UNL     1      16.287  37.000  20.916  1.00  0.00     0.004 C 
ATOM      6  C   UNL     1      17.626  35.027  24.737  1.00  0.00     0.013 C 
ATOM      7  C   UNL     1      19.590  35.097  23.110  1.00  0.00    -0.063 C 
ATOM      8  C   UNL     1      18.838  36.620  21.042  1.00  0.00    -0.003 C 
ATOM      9  C   UNL     1      17.670  37.645  21.184  1.00  0.00    -0.011 C 
ATOM     10  C   UNL     1      19.139  35.403  24.565  1.00  0.00    -0.006 C 
ATOM     11  C   UNL     1      20.838  34.628  22.845  1.00  0.00    -0.027 C 
ATOM     12  C   UNL     1      20.226  37.275  21.214  1.00  0.00     0.008 C 
ATOM     13  C   UNL     1      17.836  38.872  20.268  1.00  0.00     0.008 C 
ATOM     14  C   UNL     1      19.236  36.951  24.763  1.00  0.00     0.017 C 
ATOM     15  C   UNL     1      20.051  34.594  25.637  1.00  0.00    -0.020 C 
ATOM     16  C   UNL     1      21.856  34.222  23.873  1.00  0.00     0.032 C 
ATOM     17  C   UNL     1      21.572  34.802  25.273  1.00  0.00     0.006 C 
ATOM     18  C   UNL     1      19.782  35.101  27.086  1.00  0.00     0.008 C 
ATOM     19  C   UNL     1      19.692  33.071  25.581  1.00  0.00     0.012 C 
ATOM     20  C   UNL     1      22.693  34.453  26.361  1.00  0.00    -0.025 C 
ATOM     21  C   UNL     1      20.788  34.604  28.121  1.00  0.00     0.005 C 
ATOM     22  C   UNL     1      22.272  34.944  27.803  1.00  0.00     0.003 C 
ATOM     23  C   UNL     1      24.035  35.146  25.923  1.00  0.00     0.010 C 
ATOM     24  C   UNL     1      23.011  32.922  26.451  1.00  0.00     0.012 C 
ATOM     25  C   UNL     1      22.820  36.371  28.241  1.00  0.00    -0.006 C 
ATOM     26  C   UNL     1      24.992  35.420  27.086  1.00  0.00     0.033 C 
ATOM     27  C   UNL     1      24.398  36.341  28.178  1.00  0.00     0.120 C 
ATOM     28  C   UNL     1      22.434  36.664  29.717  1.00  0.00     0.014 C 
ATOM     29  C   UNL     1      22.261  37.557  27.405  1.00  0.00     0.014 C 
ENDROOT
BRANCH   1  30
ATOM     30  C   UNL     1      16.948  33.420  22.276  1.00  0.00     0.048 C 
ATOM     31  O   UNL     1      15.845  32.919  22.621  1.00  0.00    -0.550 OA
ATOM     32  O   UNL     1      17.968  32.567  21.867  1.00  0.00    -0.550 OA
ENDBRANCH   1  30
BRANCH  27  33
ATOM     33  O   UNL     1      24.924  37.641  28.042  1.00  0.00    -0.393 OA
ATOM     34  H   UNL     1      25.208  37.747  27.097  1.00  0.00     0.210 HD
ENDBRANCH  27  33
TORSDOF 2
ENDMDL
MODEL 8
REMARK VINA RESULT:    -7.055      1.701      2.412
REMARK INTER + INTRA:          -7.830
REMARK INTER:                  -7.680
REMARK INTRA:                  -0.149
REMARK UNBOUND:                -0.156
REMARK SMILES C[C@H]1[C@H]2C3=CC[C@@H]4[C@@]5(C)CC[C@@H](O)C(C)(C)[C@H]5CC[C@@]4(C)[C@]3(C)CC[C@@]2(C(=O)[O-])CC[C@@H]1C
REMARK SMILES IDX 26 1 30 2 25 3 3 4 31 5 24 6 4 7 2 8 32 9 22 10 5 11 1 12
REMARK SMILES IDX 33 13 23 14 20 15 6 16 7 17 19 18 21 19 8 20 18 21 17 22
REMARK SMILES IDX 10 23 9 24 14 25 11 26 12 27 15 28 16 29 27 30 28 31 29 32
REMARK SMILES IDX 13 33
REMARK H PARENT 13 34
REMARK Flexibility Score: inf
ROOT
ATOM      1  C   UNL     1      21.916  35.274  25.929  1.00  0.00     0.017 C 
ATOM      2  C   UNL     1      23.334  35.267  26.551  1.00  0.00     0.014 C 
ATOM      3  C   UNL     1      20.883  34.709  26.938  1.00  0.00     0.014 C 
ATOM      4  C   UNL     1      21.930  34.444  24.597  1.00  0.00     0.030 C 
ATOM      5  C   UNL     1      23.864  33.871  26.912  1.00  0.00     0.004 C 
ATOM      6  C   UNL     1      19.468  34.676  26.350  1.00  0.00     0.013 C 
ATOM      7  C   UNL     1      20.502  34.116  24.085  1.00  0.00    -0.063 C 
ATOM      8  C   UNL     1      22.998  33.270  24.554  1.00  0.00    -0.003 C 
ATOM      9  C   UNL     1      23.412  32.735  25.960  1.00  0.00    -0.011 C 
ATOM     10  C   UNL     1      19.331  33.800  25.056  1.00  0.00    -0.006 C 
ATOM     11  C   UNL     1      20.317  34.127  22.739  1.00  0.00    -0.027 C 
ATOM     12  C   UNL     1      22.638  32.136  23.570  1.00  0.00     0.008 C 
ATOM     13  C   UNL     1      24.523  31.669  25.891  1.00  0.00     0.008 C 
ATOM     14  C   UNL     1      19.493  32.313  25.509  1.00  0.00     0.017 C 
ATOM     15  C   UNL     1      17.898  34.066  24.339  1.00  0.00    -0.020 C 
ATOM     16  C   UNL     1      18.995  33.988  22.038  1.00  0.00     0.032 C 
ATOM     17  C   UNL     1      17.898  33.367  22.924  1.00  0.00     0.006 C 
ATOM     18  C   UNL     1      16.733  33.501  25.207  1.00  0.00     0.008 C 
ATOM     19  C   UNL     1      17.676  35.607  24.175  1.00  0.00     0.012 C 
ATOM     20  C   UNL     1      16.507  33.130  22.168  1.00  0.00    -0.025 C 
ATOM     21  C   UNL     1      15.386  33.448  24.491  1.00  0.00     0.005 C 
ATOM     22  C   UNL     1      15.383  32.637  23.165  1.00  0.00     0.003 C 
ATOM     23  C   UNL     1      16.738  32.062  21.039  1.00  0.00     0.010 C 
ATOM     24  C   UNL     1      15.972  34.411  21.443  1.00  0.00     0.012 C 
ATOM     25  C   UNL     1      15.176  31.062  23.255  1.00  0.00    -0.006 C 
ATOM     26  C   UNL     1      15.469  31.301  20.645  1.00  0.00     0.033 C 
ATOM     27  C   UNL     1      14.822  30.521  21.814  1.00  0.00     0.120 C 
ATOM     28  C   UNL     1      13.965  30.733  24.170  1.00  0.00     0.014 C 
ATOM     29  C   UNL     1      16.388  30.288  23.848  1.00  0.00     0.014 C 
ENDROOT
BRANCH   1  30
ATOM     30  C   UNL     1      21.559  36.739  25.662  1.00  0.00     0.048 C 
ATOM     31  O   UNL     1      21.447  37.184  24.488  1.00  0.00    -0.550 OA
ATOM     32  O   UNL     1      21.282  37.592  26.725  1.00  0.00    -0.550 OA
ENDBRANCH   1  30
BRANCH  27  33
ATOM     33  O   UNL     1      15.127  29.151  21.699  1.00  0.00    -0.393 OA
ATOM     34  H   UNL     1      16.105  29.078  21.545  1.00  0.00     0.210 HD
ENDBRANCH  27  33
TORSDOF 2
ENDMDL
