MODEL 1
REMARK VINA RESULT:    -3.759      0.000      0.000
REMARK INTER + INTRA:          -8.278
REMARK INTER:                  -6.616
REMARK INTRA:                  -1.663
REMARK UNBOUND:                -1.663
REMARK SMILES CCCCCCC=CCCCCCCCC(=O)[O-]
REMARK SMILES IDX 10 1 11 2 12 3 13 4 14 5 15 6 16 7 17 8 18 9 9 10 8 11 7 12
REMARK SMILES IDX 6 13 5 14 4 15 3 16 2 17 1 18
REMARK H PARENT
REMARK Flexibility Score: inf
ROOT
ATOM      1  C   UNL     1     -13.528 -12.897  22.439  1.00  0.00     0.004 C 
ENDROOT
BRANCH   1   2
ATOM      2  C   UNL     1     -14.962 -12.733  21.915  1.00  0.00     0.000 C 
BRANCH   2   3
ATOM      3  C   UNL     1     -15.063 -13.162  20.446  1.00  0.00     0.000 C 
BRANCH   3   4
ATOM      4  C   UNL     1     -15.012 -11.944  19.512  1.00  0.00     0.000 C 
BRANCH   4   5
ATOM      5  C   UNL     1     -13.974 -12.099  18.385  1.00  0.00     0.006 C 
BRANCH   5   6
ATOM      6  C   UNL     1     -12.892 -13.155  18.663  1.00  0.00     0.053 C 
BRANCH   6   7
ATOM      7  C   UNL     1     -11.511 -12.609  18.465  1.00  0.00     0.041 C 
ATOM      8  O   UNL     1     -11.118 -12.282  17.314  1.00  0.00    -0.550 OA
ATOM      9  O   UNL     1     -10.648 -12.491  19.546  1.00  0.00    -0.550 OA
ENDBRANCH   6   7
ENDBRANCH   5   6
ENDBRANCH   4   5
ENDBRANCH   3   4
ENDBRANCH   2   3
ENDBRANCH   1   2
BRANCH   1  10
ATOM     10  C   UNL     1     -13.396 -14.089  23.399  1.00  0.00     0.027 C 
BRANCH  10  11
ATOM     11  C   UNL     1     -14.573 -14.191  24.338  1.00  0.00    -0.031 C 
ATOM     12  C   UNL     1     -15.031 -15.340  24.869  1.00  0.00    -0.031 C 
BRANCH  12  13
ATOM     13  C   UNL     1     -14.383 -16.688  24.684  1.00  0.00     0.027 C 
BRANCH  13  14
ATOM     14  C   UNL     1     -15.124 -17.502  23.617  1.00  0.00     0.004 C 
BRANCH  14  15
ATOM     15  C   UNL     1     -14.284 -17.623  22.337  1.00  0.00     0.000 C 
BRANCH  15  16
ATOM     16  C   UNL     1     -14.869 -16.823  21.159  1.00  0.00    -0.000 C 
BRANCH  16  17
ATOM     17  C   UNL     1     -14.507 -17.366  19.765  1.00  0.00    -0.003 C 
ATOM     18  C   UNL     1     -13.355 -16.605  19.108  1.00  0.00     0.004 C 
ENDBRANCH  16  17
ENDBRANCH  15  16
ENDBRANCH  14  15
ENDBRANCH  13  14
ENDBRANCH  12  13
ENDBRANCH  10  11
ENDBRANCH   1  10
TORSDOF 13
ENDMDL
MODEL 2
REMARK VINA RESULT:    -3.435      2.019      4.581
REMARK INTER + INTRA:          -7.707
REMARK INTER:                  -6.059
REMARK INTRA:                  -1.648
REMARK UNBOUND:                -1.663
REMARK SMILES CCCCCCC=CCCCCCCCC(=O)[O-]
REMARK SMILES IDX 10 1 11 2 12 3 13 4 14 5 15 6 16 7 17 8 18 9 9 10 8 11 7 12
REMARK SMILES IDX 6 13 5 14 4 15 3 16 2 17 1 18
REMARK H PARENT
REMARK Flexibility Score: inf
ROOT
ATOM      1  C   UNL     1     -12.712 -11.671  18.559  1.00  0.00     0.004 C 
ENDROOT
BRANCH   1   2
ATOM      2  C   UNL     1     -14.180 -11.762  18.121  1.00  0.00     0.000 C 
BRANCH   2   3
ATOM      3  C   UNL     1     -15.124 -11.558  19.312  1.00  0.00     0.000 C 
BRANCH   3   4
ATOM      4  C   UNL     1     -15.125 -12.788  20.231  1.00  0.00     0.000 C 
BRANCH   4   5
ATOM      5  C   UNL     1     -14.732 -12.451  21.681  1.00  0.00     0.006 C 
BRANCH   5   6
ATOM      6  C   UNL     1     -14.976 -13.590  22.683  1.00  0.00     0.053 C 
BRANCH   6   7
ATOM      7  C   UNL     1     -13.778 -13.845  23.546  1.00  0.00     0.041 C 
ATOM      8  O   UNL     1     -12.621 -13.808  23.051  1.00  0.00    -0.550 OA
ATOM      9  O   UNL     1     -13.943 -14.155  24.890  1.00  0.00    -0.550 OA
ENDBRANCH   6   7
ENDBRANCH   5   6
ENDBRANCH   4   5
ENDBRANCH   3   4
ENDBRANCH   2   3
ENDBRANCH   1   2
BRANCH   1  10
ATOM     10  C   UNL     1     -11.893 -12.886  18.095  1.00  0.00     0.027 C 
BRANCH  10  11
ATOM     11  C   UNL     1     -11.341 -13.672  19.259  1.00  0.00    -0.031 C 
ATOM     12  C   UNL     1     -11.991 -14.670  19.886  1.00  0.00    -0.031 C 
BRANCH  12  13
ATOM     13  C   UNL     1     -13.330 -15.219  19.462  1.00  0.00     0.027 C 
BRANCH  13  14
ATOM     14  C   UNL     1     -13.213 -16.703  19.093  1.00  0.00     0.004 C 
BRANCH  14  15
ATOM     15  C   UNL     1     -14.362 -17.513  19.709  1.00  0.00     0.000 C 
BRANCH  15  16
ATOM     16  C   UNL     1     -14.797 -16.984  21.088  1.00  0.00    -0.000 C 
BRANCH  16  17
ATOM     17  C   UNL     1     -14.524 -17.938  22.264  1.00  0.00    -0.003 C 
ATOM     18  C   UNL     1     -14.907 -17.342  23.618  1.00  0.00     0.004 C 
ENDBRANCH  16  17
ENDBRANCH  15  16
ENDBRANCH  14  15
ENDBRANCH  13  14
ENDBRANCH  12  13
ENDBRANCH  10  11
ENDBRANCH   1  10
TORSDOF 13
ENDMDL
MODEL 3
REMARK VINA RESULT:    -3.374      2.158      6.093
REMARK INTER + INTRA:          -7.601
REMARK INTER:                  -6.661
REMARK INTRA:                  -0.940
REMARK UNBOUND:                -1.663
REMARK SMILES CCCCCCC=CCCCCCCCC(=O)[O-]
REMARK SMILES IDX 10 1 11 2 12 3 13 4 14 5 15 6 16 7 17 8 18 9 9 10 8 11 7 12
REMARK SMILES IDX 6 13 5 14 4 15 3 16 2 17 1 18
REMARK H PARENT
REMARK Flexibility Score: inf
ROOT
ATOM      1  C   UNL     1     -14.106 -16.829  21.011  1.00  0.00     0.004 C 
ENDROOT
BRANCH   1   2
ATOM      2  C   UNL     1     -14.298 -18.125  21.812  1.00  0.00     0.000 C 
BRANCH   2   3
ATOM      3  C   UNL     1     -14.835 -17.829  23.217  1.00  0.00     0.000 C 
BRANCH   3   4
ATOM      4  C   UNL     1     -15.125 -16.331  23.391  1.00  0.00     0.000 C 
BRANCH   4   5
ATOM      5  C   UNL     1     -14.548 -15.759  24.699  1.00  0.00     0.006 C 
BRANCH   5   6
ATOM      6  C   UNL     1     -14.107 -14.289  24.606  1.00  0.00     0.053 C 
BRANCH   6   7
ATOM      7  C   UNL     1     -13.630 -13.933  23.231  1.00  0.00     0.041 C 
ATOM      8  O   UNL     1     -12.450 -14.198  22.880  1.00  0.00    -0.550 OA
ATOM      9  O   UNL     1     -14.480 -13.280  22.348  1.00  0.00    -0.550 OA
ENDBRANCH   6   7
ENDBRANCH   5   6
ENDBRANCH   4   5
ENDBRANCH   3   4
ENDBRANCH   2   3
ENDBRANCH   1   2
BRANCH   1  10
ATOM     10  C   UNL     1     -14.619 -16.958  19.568  1.00  0.00     0.027 C 
BRANCH  10  11
ATOM     11  C   UNL     1     -15.112 -15.639  19.025  1.00  0.00    -0.031 C 
ATOM     12  C   UNL     1     -14.352 -14.536  18.889  1.00  0.00    -0.031 C 
BRANCH  12  13
ATOM     13  C   UNL     1     -12.873 -14.474  19.170  1.00  0.00     0.027 C 
BRANCH  13  14
ATOM     14  C   UNL     1     -12.434 -13.031  19.447  1.00  0.00     0.004 C 
BRANCH  14  15
ATOM     15  C   UNL     1     -11.003 -12.787  18.948  1.00  0.00     0.000 C 
BRANCH  15  16
ATOM     16  C   UNL     1     -10.956 -12.234  17.512  1.00  0.00    -0.000 C 
BRANCH  16  17
ATOM     17  C   UNL     1     -11.981 -11.127  17.211  1.00  0.00    -0.003 C 
ATOM     18  C   UNL     1     -11.330  -9.784  16.880  1.00  0.00     0.004 C 
ENDBRANCH  16  17
ENDBRANCH  15  16
ENDBRANCH  14  15
ENDBRANCH  13  14
ENDBRANCH  12  13
ENDBRANCH  10  11
ENDBRANCH   1  10
TORSDOF 13
ENDMDL
MODEL 4
REMARK VINA RESULT:    -3.169      2.260      4.475
REMARK INTER + INTRA:          -7.239
REMARK INTER:                  -5.586
REMARK INTRA:                  -1.653
REMARK UNBOUND:                -1.663
REMARK SMILES CCCCCCC=CCCCCCCCC(=O)[O-]
REMARK SMILES IDX 10 1 11 2 12 3 13 4 14 5 15 6 16 7 17 8 18 9 9 10 8 11 7 12
REMARK SMILES IDX 6 13 5 14 4 15 3 16 2 17 1 18
REMARK H PARENT
REMARK Flexibility Score: inf
ROOT
ATOM      1  C   UNL     1     -11.037 -12.256  17.980  1.00  0.00     0.004 C 
ENDROOT
BRANCH   1   2
ATOM      2  C   UNL     1     -12.176 -11.238  17.827  1.00  0.00     0.000 C 
BRANCH   2   3
ATOM      3  C   UNL     1     -13.540 -11.937  17.796  1.00  0.00     0.000 C 
BRANCH   3   4
ATOM      4  C   UNL     1     -14.328 -11.662  19.086  1.00  0.00     0.000 C 
BRANCH   4   5
ATOM      5  C   UNL     1     -15.083 -12.902  19.601  1.00  0.00     0.006 C 
BRANCH   5   6
ATOM      6  C   UNL     1     -15.068 -14.097  18.635  1.00  0.00     0.053 C 
BRANCH   6   7
ATOM      7  C   UNL     1     -14.793 -15.388  19.344  1.00  0.00     0.041 C 
ATOM      8  O   UNL     1     -14.308 -16.366  18.716  1.00  0.00    -0.550 OA
ATOM      9  O   UNL     1     -15.104 -15.521  20.691  1.00  0.00    -0.550 OA
ENDBRANCH   6   7
ENDBRANCH   5   6
ENDBRANCH   4   5
ENDBRANCH   3   4
ENDBRANCH   2   3
ENDBRANCH   1   2
BRANCH   1  10
ATOM     10  C   UNL     1     -10.827 -12.674  19.444  1.00  0.00     0.027 C 
BRANCH  10  11
ATOM     11  C   UNL     1     -11.349 -14.064  19.714  1.00  0.00    -0.031 C 
ATOM     12  C   UNL     1     -11.988 -14.437  20.839  1.00  0.00    -0.031 C 
BRANCH  12  13
ATOM     13  C   UNL     1     -12.364 -13.502  21.960  1.00  0.00     0.027 C 
BRANCH  13  14
ATOM     14  C   UNL     1     -12.776 -14.293  23.208  1.00  0.00     0.004 C 
BRANCH  14  15
ATOM     15  C   UNL     1     -14.162 -13.856  23.701  1.00  0.00     0.000 C 
BRANCH  15  16
ATOM     16  C   UNL     1     -14.839 -14.910  24.596  1.00  0.00    -0.000 C 
BRANCH  16  17
ATOM     17  C   UNL     1     -14.879 -16.331  24.007  1.00  0.00    -0.003 C 
ATOM     18  C   UNL     1     -14.605 -17.417  25.047  1.00  0.00     0.004 C 
ENDBRANCH  16  17
ENDBRANCH  15  16
ENDBRANCH  14  15
ENDBRANCH  13  14
ENDBRANCH  12  13
ENDBRANCH  10  11
ENDBRANCH   1  10
TORSDOF 13
ENDMDL
MODEL 5
REMARK VINA RESULT:    -3.121      2.787      5.352
REMARK INTER + INTRA:          -7.155
REMARK INTER:                  -6.131
REMARK INTRA:                  -1.024
REMARK UNBOUND:                -1.663
REMARK SMILES CCCCCCC=CCCCCCCCC(=O)[O-]
REMARK SMILES IDX 10 1 11 2 12 3 13 4 14 5 15 6 16 7 17 8 18 9 9 10 8 11 7 12
REMARK SMILES IDX 6 13 5 14 4 15 3 16 2 17 1 18
REMARK H PARENT
REMARK Flexibility Score: inf
ROOT
ATOM      1  C   UNL     1     -11.126 -12.253  18.586  1.00  0.00     0.004 C 
ENDROOT
BRANCH   1   2
ATOM      2  C   UNL     1     -10.787 -12.992  19.888  1.00  0.00     0.000 C 
BRANCH   2   3
ATOM      3  C   UNL     1     -11.937 -13.913  20.315  1.00  0.00     0.000 C 
BRANCH   3   4
ATOM      4  C   UNL     1     -12.615 -13.390  21.590  1.00  0.00     0.000 C 
BRANCH   4   5
ATOM      5  C   UNL     1     -12.560 -14.398  22.753  1.00  0.00     0.006 C 
BRANCH   5   6
ATOM      6  C   UNL     1     -13.724 -15.401  22.776  1.00  0.00     0.053 C 
BRANCH   6   7
ATOM      7  C   UNL     1     -14.578 -15.240  23.996  1.00  0.00     0.041 C 
ATOM      8  O   UNL     1     -14.993 -16.254  24.617  1.00  0.00    -0.550 OA
ATOM      9  O   UNL     1     -14.941 -13.972  24.429  1.00  0.00    -0.550 OA
ENDBRANCH   6   7
ENDBRANCH   5   6
ENDBRANCH   4   5
ENDBRANCH   3   4
ENDBRANCH   2   3
ENDBRANCH   1   2
BRANCH   1  10
ATOM     10  C   UNL     1     -12.444 -12.744  17.968  1.00  0.00     0.027 C 
BRANCH  10  11
ATOM     11  C   UNL     1     -13.546 -11.722  18.103  1.00  0.00    -0.031 C 
ATOM     12  C   UNL     1     -14.688 -11.914  18.791  1.00  0.00    -0.031 C 
BRANCH  12  13
ATOM     13  C   UNL     1     -15.000 -13.141  19.607  1.00  0.00     0.027 C 
BRANCH  13  14
ATOM     14  C   UNL     1     -15.125 -14.375  18.704  1.00  0.00     0.004 C 
BRANCH  14  15
ATOM     15  C   UNL     1     -15.092 -15.667  19.532  1.00  0.00     0.000 C 
BRANCH  15  16
ATOM     16  C   UNL     1     -13.967 -16.626  19.103  1.00  0.00    -0.000 C 
BRANCH  16  17
ATOM     17  C   UNL     1     -14.070 -18.047  19.684  1.00  0.00    -0.003 C 
ATOM     18  C   UNL     1     -14.972 -18.124  20.916  1.00  0.00     0.004 C 
ENDBRANCH  16  17
ENDBRANCH  15  16
ENDBRANCH  14  15
ENDBRANCH  13  14
ENDBRANCH  12  13
ENDBRANCH  10  11
ENDBRANCH   1  10
TORSDOF 13
ENDMDL
MODEL 6
REMARK VINA RESULT:    -3.059      2.852      6.131
REMARK INTER + INTRA:          -7.046
REMARK INTER:                  -6.786
REMARK INTRA:                  -0.260
REMARK UNBOUND:                -1.663
REMARK SMILES CCCCCCC=CCCCCCCCC(=O)[O-]
REMARK SMILES IDX 10 1 11 2 12 3 13 4 14 5 15 6 16 7 17 8 18 9 9 10 8 11 7 12
REMARK SMILES IDX 6 13 5 14 4 15 3 16 2 17 1 18
REMARK H PARENT
REMARK Flexibility Score: inf
ROOT
ATOM      1  C   UNL     1     -12.747 -14.426  20.803  1.00  0.00     0.004 C 
ENDROOT
BRANCH   1   2
ATOM      2  C   UNL     1     -12.668 -14.265  22.328  1.00  0.00     0.000 C 
BRANCH   2   3
ATOM      3  C   UNL     1     -13.655 -13.200  22.821  1.00  0.00     0.000 C 
BRANCH   3   4
ATOM      4  C   UNL     1     -14.757 -13.830  23.686  1.00  0.00     0.000 C 
BRANCH   4   5
ATOM      5  C   UNL     1     -14.203 -14.803  24.743  1.00  0.00     0.006 C 
BRANCH   5   6
ATOM      6  C   UNL     1     -15.079 -16.043  24.980  1.00  0.00     0.053 C 
BRANCH   6   7
ATOM      7  C   UNL     1     -14.669 -17.194  24.112  1.00  0.00     0.041 C 
ATOM      8  O   UNL     1     -13.963 -18.124  24.583  1.00  0.00    -0.550 OA
ATOM      9  O   UNL     1     -15.041 -17.222  22.774  1.00  0.00    -0.550 OA
ENDBRANCH   6   7
ENDBRANCH   5   6
ENDBRANCH   4   5
ENDBRANCH   3   4
ENDBRANCH   2   3
ENDBRANCH   1   2
BRANCH   1  10
ATOM     10  C   UNL     1     -13.087 -15.866  20.389  1.00  0.00     0.027 C 
BRANCH  10  11
ATOM     11  C   UNL     1     -13.825 -15.915  19.074  1.00  0.00    -0.031 C 
ATOM     12  C   UNL     1     -14.725 -15.000  18.666  1.00  0.00    -0.031 C 
BRANCH  12  13
ATOM     13  C   UNL     1     -15.063 -13.738  19.417  1.00  0.00     0.027 C 
BRANCH  13  14
ATOM     14  C   UNL     1     -14.830 -12.505  18.536  1.00  0.00     0.004 C 
BRANCH  14  15
ATOM     15  C   UNL     1     -13.515 -11.805  18.910  1.00  0.00     0.000 C 
BRANCH  15  16
ATOM     16  C   UNL     1     -12.576 -11.611  17.706  1.00  0.00    -0.000 C 
BRANCH  16  17
ATOM     17  C   UNL     1     -11.124 -12.063  17.938  1.00  0.00    -0.003 C 
ATOM     18  C   UNL     1     -10.940 -12.832  19.247  1.00  0.00     0.004 C 
ENDBRANCH  16  17
ENDBRANCH  15  16
ENDBRANCH  14  15
ENDBRANCH  13  14
ENDBRANCH  12  13
ENDBRANCH  10  11
ENDBRANCH   1  10
TORSDOF 13
ENDMDL
MODEL 7
REMARK VINA RESULT:    -3.036      2.784      6.003
REMARK INTER + INTRA:          -7.005
REMARK INTER:                  -5.818
REMARK INTRA:                  -1.187
REMARK UNBOUND:                -1.663
REMARK SMILES CCCCCCC=CCCCCCCCC(=O)[O-]
REMARK SMILES IDX 10 1 11 2 12 3 13 4 14 5 15 6 16 7 17 8 18 9 9 10 8 11 7 12
REMARK SMILES IDX 6 13 5 14 4 15 3 16 2 17 1 18
REMARK H PARENT
REMARK Flexibility Score: inf
ROOT
ATOM      1  C   UNL     1     -14.836 -12.623  20.046  1.00  0.00     0.004 C 
ENDROOT
BRANCH   1   2
ATOM      2  C   UNL     1     -15.092 -11.907  21.381  1.00  0.00     0.000 C 
BRANCH   2   3
ATOM      3  C   UNL     1     -14.208 -12.484  22.493  1.00  0.00     0.000 C 
BRANCH   3   4
ATOM      4  C   UNL     1     -15.029 -13.363  23.447  1.00  0.00     0.000 C 
BRANCH   4   5
ATOM      5  C   UNL     1     -14.380 -14.737  23.702  1.00  0.00     0.006 C 
BRANCH   5   6
ATOM      6  C   UNL     1     -15.120 -15.916  23.053  1.00  0.00     0.053 C 
BRANCH   6   7
ATOM      7  C   UNL     1     -14.224 -17.101  22.855  1.00  0.00     0.041 C 
ATOM      8  O   UNL     1     -13.630 -17.617  23.837  1.00  0.00    -0.550 OA
ATOM      9  O   UNL     1     -14.021 -17.613  21.580  1.00  0.00    -0.550 OA
ENDBRANCH   6   7
ENDBRANCH   5   6
ENDBRANCH   4   5
ENDBRANCH   3   4
ENDBRANCH   2   3
ENDBRANCH   1   2
BRANCH   1  10
ATOM     10  C   UNL     1     -15.121 -14.130  20.133  1.00  0.00     0.027 C 
BRANCH  10  11
ATOM     11  C   UNL     1     -14.212 -14.928  19.231  1.00  0.00    -0.031 C 
ATOM     12  C   UNL     1     -12.868 -14.841  19.228  1.00  0.00    -0.031 C 
BRANCH  12  13
ATOM     13  C   UNL     1     -12.062 -14.005  20.188  1.00  0.00     0.027 C 
BRANCH  13  14
ATOM     14  C   UNL     1     -11.061 -13.125  19.429  1.00  0.00     0.004 C 
BRANCH  14  15
ATOM     15  C   UNL     1     -11.498 -12.930  17.970  1.00  0.00     0.000 C 
BRANCH  15  16
ATOM     16  C   UNL     1     -12.153 -11.559  17.719  1.00  0.00    -0.000 C 
BRANCH  16  17
ATOM     17  C   UNL     1     -11.199 -10.472  17.193  1.00  0.00    -0.003 C 
ATOM     18  C   UNL     1     -11.806  -9.642  16.062  1.00  0.00     0.004 C 
ENDBRANCH  16  17
ENDBRANCH  15  16
ENDBRANCH  14  15
ENDBRANCH  13  14
ENDBRANCH  12  13
ENDBRANCH  10  11
ENDBRANCH   1  10
TORSDOF 13
ENDMDL
MODEL 8
REMARK VINA RESULT:    -2.799      2.332      5.839
REMARK INTER + INTRA:          -6.588
REMARK INTER:                  -5.861
REMARK INTRA:                  -0.728
REMARK UNBOUND:                -1.663
REMARK SMILES CCCCCCC=CCCCCCCCC(=O)[O-]
REMARK SMILES IDX 10 1 11 2 12 3 13 4 14 5 15 6 16 7 17 8 18 9 9 10 8 11 7 12
REMARK SMILES IDX 6 13 5 14 4 15 3 16 2 17 1 18
REMARK H PARENT
REMARK Flexibility Score: inf
ROOT
ATOM      1  C   UNL     1     -13.520 -12.903  22.433  1.00  0.00     0.004 C 
ENDROOT
BRANCH   1   2
ATOM      2  C   UNL     1     -13.276 -13.981  23.499  1.00  0.00     0.000 C 
BRANCH   2   3
ATOM      3  C   UNL     1     -14.590 -14.656  23.911  1.00  0.00     0.000 C 
BRANCH   3   4
ATOM      4  C   UNL     1     -14.336 -16.075  24.440  1.00  0.00     0.000 C 
BRANCH   4   5
ATOM      5  C   UNL     1     -14.197 -17.116  23.313  1.00  0.00     0.006 C 
BRANCH   5   6
ATOM      6  C   UNL     1     -15.125 -16.874  22.112  1.00  0.00     0.053 C 
BRANCH   6   7
ATOM      7  C   UNL     1     -14.434 -17.132  20.808  1.00  0.00     0.041 C 
ATOM      8  O   UNL     1     -13.386 -16.500  20.510  1.00  0.00    -0.550 OA
ATOM      9  O   UNL     1     -14.965 -18.047  19.908  1.00  0.00    -0.550 OA
ENDBRANCH   6   7
ENDBRANCH   5   6
ENDBRANCH   4   5
ENDBRANCH   3   4
ENDBRANCH   2   3
ENDBRANCH   1   2
BRANCH   1  10
ATOM     10  C   UNL     1     -14.758 -13.207  21.576  1.00  0.00     0.027 C 
BRANCH  10  11
ATOM     11  C   UNL     1     -14.924 -12.212  20.453  1.00  0.00    -0.031 C 
ATOM     12  C   UNL     1     -14.335 -12.315  19.246  1.00  0.00    -0.031 C 
BRANCH  12  13
ATOM     13  C   UNL     1     -13.498 -13.485  18.799  1.00  0.00     0.027 C 
BRANCH  13  14
ATOM     14  C   UNL     1     -12.214 -13.582  19.633  1.00  0.00     0.004 C 
BRANCH  14  15
ATOM     15  C   UNL     1     -10.999 -13.103  18.826  1.00  0.00     0.000 C 
BRANCH  15  16
ATOM     16  C   UNL     1     -11.390 -12.277  17.587  1.00  0.00    -0.000 C 
BRANCH  16  17
ATOM     17  C   UNL     1     -11.182 -10.759  17.729  1.00  0.00    -0.003 C 
ATOM     18  C   UNL     1     -11.701  -9.970  16.527  1.00  0.00     0.004 C 
ENDBRANCH  16  17
ENDBRANCH  15  16
ENDBRANCH  14  15
ENDBRANCH  13  14
ENDBRANCH  12  13
ENDBRANCH  10  11
ENDBRANCH   1  10
TORSDOF 13
ENDMDL
