MODEL 1
REMARK VINA RESULT:    -4.148      0.000      0.000
REMARK INTER + INTRA:          -5.379
REMARK INTER:                  -5.118
REMARK INTRA:                  -0.261
REMARK UNBOUND:                -0.261
REMARK SMILES CCCCC=CC(C)=O
REMARK SMILES IDX 4 1 3 2 2 3 1 4 5 5 6 6 7 7 9 8 8 9
REMARK H PARENT
REMARK Flexibility Score: inf
ROOT
ATOM      1  C   UNL     1     -10.503  20.352   6.195  1.00  0.00     0.027 C 
ENDROOT
BRANCH   1   2
ATOM      2  C   UNL     1     -11.963  19.917   5.997  1.00  0.00     0.004 C 
BRANCH   2   3
ATOM      3  C   UNL     1     -12.185  19.186   4.665  1.00  0.00    -0.003 C 
ATOM      4  C   UNL     1     -11.008  18.290   4.277  1.00  0.00     0.004 C 
ENDBRANCH   2   3
ENDBRANCH   1   2
BRANCH   1   5
ATOM      5  C   UNL     1     -10.037  20.069   7.594  1.00  0.00    -0.023 C 
ATOM      6  C   UNL     1     -10.205  18.867   8.156  1.00  0.00     0.042 C 
BRANCH   6   7
ATOM      7  C   UNL     1      -9.742  18.564   9.524  1.00  0.00     0.152 C 
ATOM      8  O   UNL     1      -9.673  19.471  10.398  1.00  0.00    -0.295 OA
ATOM      9  C   UNL     1      -9.351  17.166   9.880  1.00  0.00     0.093 C 
ENDBRANCH   6   7
ENDBRANCH   1   5
TORSDOF 4
ENDMDL
MODEL 2
REMARK VINA RESULT:    -4.145      2.188      5.206
REMARK INTER + INTRA:          -5.375
REMARK INTER:                  -5.277
REMARK INTRA:                  -0.098
REMARK UNBOUND:                -0.261
REMARK SMILES CCCCC=CC(C)=O
REMARK SMILES IDX 4 1 3 2 2 3 1 4 5 5 6 6 7 7 9 8 8 9
REMARK H PARENT
REMARK Flexibility Score: inf
ROOT
ATOM      1  C   UNL     1      -9.620  18.274   9.172  1.00  0.00     0.027 C 
ENDROOT
BRANCH   1   2
ATOM      2  C   UNL     1      -9.988  18.692  10.604  1.00  0.00     0.004 C 
BRANCH   2   3
ATOM      3  C   UNL     1     -10.277  17.488  11.513  1.00  0.00    -0.003 C 
ATOM      4  C   UNL     1     -11.179  17.840  12.695  1.00  0.00     0.004 C 
ENDBRANCH   2   3
ENDBRANCH   1   2
BRANCH   1   5
ATOM      5  C   UNL     1     -10.121  19.274   8.170  1.00  0.00    -0.023 C 
ATOM      6  C   UNL     1     -10.503  18.903   6.943  1.00  0.00     0.042 C 
BRANCH   6   7
ATOM      7  C   UNL     1     -11.012  19.868   5.950  1.00  0.00     0.152 C 
ATOM      8  O   UNL     1     -10.507  21.019   5.851  1.00  0.00    -0.295 OA
ATOM      9  C   UNL     1     -12.138  19.476   5.048  1.00  0.00     0.093 C 
ENDBRANCH   6   7
ENDBRANCH   1   5
TORSDOF 4
ENDMDL
MODEL 3
REMARK VINA RESULT:    -4.034      1.562      2.115
REMARK INTER + INTRA:          -5.238
REMARK INTER:                  -5.136
REMARK INTRA:                  -0.102
REMARK UNBOUND:                -0.261
REMARK SMILES CCCCC=CC(C)=O
REMARK SMILES IDX 4 1 3 2 2 3 1 4 5 5 6 6 7 7 9 8 8 9
REMARK H PARENT
REMARK Flexibility Score: inf
ROOT
ATOM      1  C   UNL     1      -9.905  18.533   7.716  1.00  0.00     0.027 C 
ENDROOT
BRANCH   1   2
ATOM      2  C   UNL     1     -10.545  19.518   6.725  1.00  0.00     0.004 C 
BRANCH   2   3
ATOM      3  C   UNL     1     -11.198  18.809   5.530  1.00  0.00    -0.003 C 
ATOM      4  C   UNL     1     -12.475  19.503   5.053  1.00  0.00     0.004 C 
ENDBRANCH   2   3
ENDBRANCH   1   2
BRANCH   1   5
ATOM      5  C   UNL     1     -10.048  19.018   9.130  1.00  0.00    -0.023 C 
ATOM      6  C   UNL     1      -9.807  18.215  10.172  1.00  0.00     0.042 C 
BRANCH   6   7
ATOM      7  C   UNL     1      -9.927  18.676  11.568  1.00  0.00     0.152 C 
ATOM      8  O   UNL     1      -9.133  19.537  12.034  1.00  0.00    -0.295 OA
ATOM      9  C   UNL     1     -11.004  18.117  12.441  1.00  0.00     0.093 C 
ENDBRANCH   6   7
ENDBRANCH   1   5
TORSDOF 4
ENDMDL
MODEL 4
REMARK VINA RESULT:    -3.925      2.464      4.691
REMARK INTER + INTRA:          -5.104
REMARK INTER:                  -4.863
REMARK INTRA:                  -0.240
REMARK UNBOUND:                -0.261
REMARK SMILES CCCCC=CC(C)=O
REMARK SMILES IDX 4 1 3 2 2 3 1 4 5 5 6 6 7 7 9 8 8 9
REMARK H PARENT
REMARK Flexibility Score: inf
ROOT
ATOM      1  C   UNL     1     -10.012  19.283   8.437  1.00  0.00     0.027 C 
ENDROOT
BRANCH   1   2
ATOM      2  C   UNL     1      -9.506  18.035   9.178  1.00  0.00     0.004 C 
BRANCH   2   3
ATOM      3  C   UNL     1      -9.565  16.770   8.310  1.00  0.00    -0.003 C 
ATOM      4  C   UNL     1      -9.670  15.488   9.135  1.00  0.00     0.004 C 
ENDBRANCH   2   3
ENDBRANCH   1   2
BRANCH   1   5
ATOM      5  C   UNL     1     -10.363  18.961   7.013  1.00  0.00    -0.023 C 
ATOM      6  C   UNL     1     -11.226  19.711   6.319  1.00  0.00     0.042 C 
BRANCH   6   7
ATOM      7  C   UNL     1     -11.573  19.420   4.915  1.00  0.00     0.152 C 
ATOM      8  O   UNL     1     -12.278  20.223   4.245  1.00  0.00    -0.295 OA
ATOM      9  C   UNL     1     -11.083  18.161   4.277  1.00  0.00     0.093 C 
ENDBRANCH   6   7
ENDBRANCH   1   5
TORSDOF 4
ENDMDL
MODEL 5
REMARK VINA RESULT:    -3.758      2.650      5.698
REMARK INTER + INTRA:          -4.897
REMARK INTER:                  -4.655
REMARK INTRA:                  -0.242
REMARK UNBOUND:                -0.261
REMARK SMILES CCCCC=CC(C)=O
REMARK SMILES IDX 4 1 3 2 2 3 1 4 5 5 6 6 7 7 9 8 8 9
REMARK H PARENT
REMARK Flexibility Score: inf
ROOT
ATOM      1  C   UNL     1     -10.177  18.013  12.464  1.00  0.00     0.027 C 
ENDROOT
BRANCH   1   2
ATOM      2  C   UNL     1     -11.593  17.577  12.872  1.00  0.00     0.004 C 
BRANCH   2   3
ATOM      3  C   UNL     1     -11.775  16.053  12.830  1.00  0.00    -0.003 C 
ATOM      4  C   UNL     1     -10.494  15.293  13.172  1.00  0.00     0.004 C 
ENDBRANCH   2   3
ENDBRANCH   1   2
BRANCH   1   5
ATOM      5  C   UNL     1     -10.175  18.645  11.102  1.00  0.00    -0.023 C 
ATOM      6  C   UNL     1      -9.719  17.991  10.029  1.00  0.00     0.042 C 
BRANCH   6   7
ATOM      7  C   UNL     1      -9.722  18.588   8.680  1.00  0.00     0.152 C 
ATOM      8  O   UNL     1      -9.689  19.839   8.528  1.00  0.00    -0.295 OA
ATOM      9  C   UNL     1      -9.764  17.701   7.478  1.00  0.00     0.093 C 
ENDBRANCH   6   7
ENDBRANCH   1   5
TORSDOF 4
ENDMDL
MODEL 6
REMARK VINA RESULT:    -3.728     13.865     15.180
REMARK INTER + INTRA:          -4.860
REMARK INTER:                  -4.664
REMARK INTRA:                  -0.196
REMARK UNBOUND:                -0.261
REMARK SMILES CCCCC=CC(C)=O
REMARK SMILES IDX 4 1 3 2 2 3 1 4 5 5 6 6 7 7 9 8 8 9
REMARK H PARENT
REMARK Flexibility Score: inf
ROOT
ATOM      1  C   UNL     1     -12.952  22.923  20.862  1.00  0.00     0.027 C 
ENDROOT
BRANCH   1   2
ATOM      2  C   UNL     1     -13.885  22.924  22.083  1.00  0.00     0.004 C 
BRANCH   2   3
ATOM      3  C   UNL     1     -13.767  24.211  22.913  1.00  0.00    -0.003 C 
ATOM      4  C   UNL     1     -14.807  25.263  22.527  1.00  0.00     0.004 C 
ENDBRANCH   2   3
ENDBRANCH   1   2
BRANCH   1   5
ATOM      5  C   UNL     1     -11.541  23.249  21.258  1.00  0.00    -0.023 C 
ATOM      6  C   UNL     1     -10.557  23.310  20.355  1.00  0.00     0.042 C 
BRANCH   6   7
ATOM      7  C   UNL     1      -9.168  23.643  20.721  1.00  0.00     0.152 C 
ATOM      8  O   UNL     1      -8.512  24.493  20.061  1.00  0.00    -0.295 OA
ATOM      9  C   UNL     1      -8.529  22.966  21.892  1.00  0.00     0.093 C 
ENDBRANCH   6   7
ENDBRANCH   1   5
TORSDOF 4
ENDMDL
MODEL 7
REMARK VINA RESULT:    -3.689     11.085     12.896
REMARK INTER + INTRA:          -4.812
REMARK INTER:                  -4.548
REMARK INTRA:                  -0.264
REMARK UNBOUND:                -0.261
REMARK SMILES CCCCC=CC(C)=O
REMARK SMILES IDX 4 1 3 2 2 3 1 4 5 5 6 6 7 7 9 8 8 9
REMARK H PARENT
REMARK Flexibility Score: inf
ROOT
ATOM      1  C   UNL     1      -7.786  19.967  19.015  1.00  0.00     0.027 C 
ENDROOT
BRANCH   1   2
ATOM      2  C   UNL     1      -6.389  19.975  18.374  1.00  0.00     0.004 C 
BRANCH   2   3
ATOM      3  C   UNL     1      -6.418  20.415  16.903  1.00  0.00    -0.003 C 
ATOM      4  C   UNL     1      -6.342  21.933  16.736  1.00  0.00     0.004 C 
ENDBRANCH   2   3
ENDBRANCH   1   2
BRANCH   1   5
ATOM      5  C   UNL     1      -7.925  21.071  20.023  1.00  0.00    -0.023 C 
ATOM      6  C   UNL     1      -8.490  22.241  19.705  1.00  0.00     0.042 C 
BRANCH   6   7
ATOM      7  C   UNL     1      -8.650  23.332  20.685  1.00  0.00     0.152 C 
ATOM      8  O   UNL     1      -8.690  24.535  20.310  1.00  0.00    -0.295 OA
ATOM      9  C   UNL     1      -8.768  23.009  22.140  1.00  0.00     0.093 C 
ENDBRANCH   6   7
ENDBRANCH   1   5
TORSDOF 4
ENDMDL
MODEL 8
REMARK VINA RESULT:    -3.672      2.496      4.623
REMARK INTER + INTRA:          -4.791
REMARK INTER:                  -4.542
REMARK INTRA:                  -0.248
REMARK UNBOUND:                -0.261
REMARK SMILES CCCCC=CC(C)=O
REMARK SMILES IDX 4 1 3 2 2 3 1 4 5 5 6 6 7 7 9 8 8 9
REMARK H PARENT
REMARK Flexibility Score: inf
ROOT
ATOM      1  C   UNL     1      -9.948  16.340   5.162  1.00  0.00     0.027 C 
ENDROOT
BRANCH   1   2
ATOM      2  C   UNL     1      -9.231  16.145   6.507  1.00  0.00     0.004 C 
BRANCH   2   3
ATOM      3  C   UNL     1     -10.076  15.354   7.516  1.00  0.00    -0.003 C 
ATOM      4  C   UNL     1      -9.795  15.749   8.965  1.00  0.00     0.004 C 
ENDBRANCH   2   3
ENDBRANCH   1   2
BRANCH   1   5
ATOM      5  C   UNL     1     -10.843  17.545   5.194  1.00  0.00    -0.023 C 
ATOM      6  C   UNL     1     -10.475  18.673   5.811  1.00  0.00     0.042 C 
BRANCH   6   7
ATOM      7  C   UNL     1     -11.333  19.872   5.841  1.00  0.00     0.152 C 
ATOM      8  O   UNL     1     -10.874  20.985   6.217  1.00  0.00    -0.295 OA
ATOM      9  C   UNL     1     -12.763  19.770   5.419  1.00  0.00     0.093 C 
ENDBRANCH   6   7
ENDBRANCH   1   5
TORSDOF 4
ENDMDL
MODEL 9
REMARK VINA RESULT:    -3.601      2.887      3.874
REMARK INTER + INTRA:          -4.704
REMARK INTER:                  -4.459
REMARK INTRA:                  -0.245
REMARK UNBOUND:                -0.261
REMARK SMILES CCCCC=CC(C)=O
REMARK SMILES IDX 4 1 3 2 2 3 1 4 5 5 6 6 7 7 9 8 8 9
REMARK H PARENT
REMARK Flexibility Score: inf
ROOT
ATOM      1  C   UNL     1     -11.655  18.828   4.711  1.00  0.00     0.027 C 
ENDROOT
BRANCH   1   2
ATOM      2  C   UNL     1     -12.069  19.843   5.789  1.00  0.00     0.004 C 
BRANCH   2   3
ATOM      3  C   UNL     1     -11.012  19.994   6.893  1.00  0.00    -0.003 C 
ATOM      4  C   UNL     1      -9.924  21.006   6.538  1.00  0.00     0.004 C 
ENDBRANCH   2   3
ENDBRANCH   1   2
BRANCH   1   5
ATOM      5  C   UNL     1     -11.074  17.589   5.328  1.00  0.00    -0.023 C 
ATOM      6  C   UNL     1      -9.886  17.109   4.947  1.00  0.00     0.042 C 
BRANCH   6   7
ATOM      7  C   UNL     1      -9.291  15.902   5.551  1.00  0.00     0.152 C 
ATOM      8  O   UNL     1      -8.048  15.825   5.750  1.00  0.00    -0.295 OA
ATOM      9  C   UNL     1     -10.171  14.755   5.933  1.00  0.00     0.093 C 
ENDBRANCH   6   7
ENDBRANCH   1   5
TORSDOF 4
ENDMDL
