MODEL 1
REMARK VINA RESULT:    -3.699      0.000      0.000
REMARK INTER + INTRA:          -4.726
REMARK INTER:                  -4.455
REMARK INTRA:                  -0.271
REMARK UNBOUND:                -0.271
REMARK SMILES NC(=O)C[C@H]([NH3+])C(=O)[O-]
REMARK SMILES IDX 4 1 5 2 6 3 7 7 8 8 9 9 2 10 3 11 1 12
REMARK H PARENT 6 4 6 5 6 6 1 13 1 14
REMARK Flexibility Score: inf
ROOT
ATOM      1  C   UNL     1      26.997  26.301  23.447  1.00  0.00     0.171 C 
ENDROOT
BRANCH   1   2
ATOM      2  C   UNL     1      27.788  26.922  22.278  1.00  0.00     0.237 C 
BRANCH   2   3
ATOM      3  N   UNL     1      27.015  26.836  21.034  1.00  0.00    -0.350 N 
ATOM      4  H   UNL     1      27.192  25.915  20.570  1.00  0.00     0.345 HD
ATOM      5  H   UNL     1      27.282  27.606  20.378  1.00  0.00     0.345 HD
ATOM      6  H   UNL     1      25.992  26.903  21.246  1.00  0.00     0.345 HD
ENDBRANCH   2   3
BRANCH   2   7
ATOM      7  C   UNL     1      29.120  26.236  22.106  1.00  0.00     0.100 C 
ATOM      8  O   UNL     1      29.167  25.014  21.802  1.00  0.00    -0.544 OA
ATOM      9  O   UNL     1      30.302  26.948  22.266  1.00  0.00    -0.544 OA
ENDBRANCH   2   7
ENDBRANCH   1   2
BRANCH   1  10
ATOM     10  C   UNL     1      25.542  26.668  23.388  1.00  0.00     0.223 C 
ATOM     11  O   UNL     1      25.200  27.880  23.437  1.00  0.00    -0.275 OA
ATOM     12  N   UNL     1      24.541  25.654  23.316  1.00  0.00    -0.369 N 
ATOM     13  H   UNL     1      24.806  24.643  23.293  1.00  0.00     0.159 HD
ATOM     14  H   UNL     1      23.530  25.912  23.290  1.00  0.00     0.159 HD
ENDBRANCH   1  10
TORSDOF 4
ENDMDL
MODEL 2
REMARK VINA RESULT:    -3.653      1.864      4.012
REMARK INTER + INTRA:          -4.672
REMARK INTER:                  -4.411
REMARK INTRA:                  -0.261
REMARK UNBOUND:                -0.271
REMARK SMILES NC(=O)C[C@H]([NH3+])C(=O)[O-]
REMARK SMILES IDX 4 1 5 2 6 3 7 7 8 8 9 9 2 10 3 11 1 12
REMARK H PARENT 6 4 6 5 6 6 1 13 1 14
REMARK Flexibility Score: inf
ROOT
ATOM      1  C   UNL     1      28.971  26.812  22.705  1.00  0.00     0.171 C 
ENDROOT
BRANCH   1   2
ATOM      2  C   UNL     1      27.504  26.527  22.322  1.00  0.00     0.237 C 
BRANCH   2   3
ATOM      3  N   UNL     1      27.292  26.772  20.892  1.00  0.00    -0.350 N 
ATOM      4  H   UNL     1      26.376  26.361  20.595  1.00  0.00     0.345 HD
ATOM      5  H   UNL     1      28.058  26.343  20.324  1.00  0.00     0.345 HD
ATOM      6  H   UNL     1      27.262  27.802  20.707  1.00  0.00     0.345 HD
ENDBRANCH   2   3
BRANCH   2   7
ATOM      7  C   UNL     1      26.561  27.376  23.136  1.00  0.00     0.100 C 
ATOM      8  O   UNL     1      25.351  27.045  23.250  1.00  0.00    -0.544 OA
ATOM      9  O   UNL     1      27.023  28.519  23.779  1.00  0.00    -0.544 OA
ENDBRANCH   2   7
ENDBRANCH   1   2
BRANCH   1  10
ATOM     10  C   UNL     1      29.855  25.630  22.427  1.00  0.00     0.223 C 
ATOM     11  O   UNL     1      29.548  24.822  21.511  1.00  0.00    -0.275 OA
ATOM     12  N   UNL     1      31.019  25.393  23.218  1.00  0.00    -0.369 N 
ATOM     13  H   UNL     1      31.278  26.043  23.994  1.00  0.00     0.159 HD
ATOM     14  H   UNL     1      31.623  24.562  23.032  1.00  0.00     0.159 HD
ENDBRANCH   1  10
TORSDOF 4
ENDMDL
MODEL 3
REMARK VINA RESULT:    -3.589      1.462      4.256
REMARK INTER + INTRA:          -4.594
REMARK INTER:                  -4.332
REMARK INTRA:                  -0.262
REMARK UNBOUND:                -0.271
REMARK SMILES NC(=O)C[C@H]([NH3+])C(=O)[O-]
REMARK SMILES IDX 4 1 5 2 6 3 7 7 8 8 9 9 2 10 3 11 1 12
REMARK H PARENT 6 4 6 5 6 6 1 13 1 14
REMARK Flexibility Score: inf
ROOT
ATOM      1  C   UNL     1      27.241  27.385  23.233  1.00  0.00     0.171 C 
ENDROOT
BRANCH   1   2
ATOM      2  C   UNL     1      25.915  27.077  23.958  1.00  0.00     0.237 C 
BRANCH   2   3
ATOM      3  N   UNL     1      25.104  26.143  23.170  1.00  0.00    -0.350 N 
ATOM      4  H   UNL     1      25.520  26.031  22.216  1.00  0.00     0.345 HD
ATOM      5  H   UNL     1      24.123  26.491  23.076  1.00  0.00     0.345 HD
ATOM      6  H   UNL     1      25.094  25.203  23.632  1.00  0.00     0.345 HD
ENDBRANCH   2   3
BRANCH   2   7
ATOM      7  C   UNL     1      25.137  28.343  24.215  1.00  0.00     0.100 C 
ATOM      8  O   UNL     1      25.480  29.420  23.659  1.00  0.00    -0.544 OA
ATOM      9  O   UNL     1      24.030  28.328  25.055  1.00  0.00    -0.544 OA
ENDBRANCH   2   7
ENDBRANCH   1   2
BRANCH   1  10
ATOM     10  C   UNL     1      27.468  26.453  22.076  1.00  0.00     0.223 C 
ATOM     11  O   UNL     1      27.843  25.270  22.291  1.00  0.00    -0.275 OA
ATOM     12  N   UNL     1      27.301  26.909  20.735  1.00  0.00    -0.369 N 
ATOM     13  H   UNL     1      27.008  27.892  20.537  1.00  0.00     0.159 HD
ATOM     14  H   UNL     1      27.474  26.263  19.933  1.00  0.00     0.159 HD
ENDBRANCH   1  10
TORSDOF 4
ENDMDL
MODEL 4
REMARK VINA RESULT:    -3.540      2.140      2.474
REMARK INTER + INTRA:          -4.535
REMARK INTER:                  -4.259
REMARK INTRA:                  -0.276
REMARK UNBOUND:                -0.271
REMARK SMILES NC(=O)C[C@H]([NH3+])C(=O)[O-]
REMARK SMILES IDX 4 1 5 2 6 3 7 7 8 8 9 9 2 10 3 11 1 12
REMARK H PARENT 6 4 6 5 6 6 1 13 1 14
REMARK Flexibility Score: inf
ROOT
ATOM      1  C   UNL     1      26.240  28.396  23.708  1.00  0.00     0.171 C 
ENDROOT
BRANCH   1   2
ATOM      2  C   UNL     1      26.212  27.139  22.816  1.00  0.00     0.237 C 
BRANCH   2   3
ATOM      3  N   UNL     1      25.122  26.246  23.223  1.00  0.00    -0.350 N 
ATOM      4  H   UNL     1      24.902  26.395  24.235  1.00  0.00     0.345 HD
ATOM      5  H   UNL     1      25.387  25.245  23.076  1.00  0.00     0.345 HD
ATOM      6  H   UNL     1      24.260  26.459  22.668  1.00  0.00     0.345 HD
ENDBRANCH   2   3
BRANCH   2   7
ATOM      7  C   UNL     1      27.528  26.406  22.876  1.00  0.00     0.100 C 
ATOM      8  O   UNL     1      27.696  25.351  22.210  1.00  0.00    -0.544 OA
ATOM      9  O   UNL     1      28.570  26.898  23.655  1.00  0.00    -0.544 OA
ENDBRANCH   2   7
ENDBRANCH   1   2
BRANCH   1  10
ATOM     10  C   UNL     1      24.858  28.926  23.962  1.00  0.00     0.223 C 
ATOM     11  O   UNL     1      24.161  28.435  24.890  1.00  0.00    -0.275 OA
ATOM     12  N   UNL     1      24.311  29.952  23.135  1.00  0.00    -0.369 N 
ATOM     13  H   UNL     1      24.868  30.357  22.349  1.00  0.00     0.159 HD
ATOM     14  H   UNL     1      23.344  30.308  23.306  1.00  0.00     0.159 HD
ENDBRANCH   1  10
TORSDOF 4
ENDMDL
MODEL 5
REMARK VINA RESULT:    -3.464      3.233      3.741
REMARK INTER + INTRA:          -4.443
REMARK INTER:                  -4.369
REMARK INTRA:                  -0.075
REMARK UNBOUND:                -0.271
REMARK SMILES NC(=O)C[C@H]([NH3+])C(=O)[O-]
REMARK SMILES IDX 4 1 5 2 6 3 7 7 8 8 9 9 2 10 3 11 1 12
REMARK H PARENT 6 4 6 5 6 6 1 13 1 14
REMARK Flexibility Score: inf
ROOT
ATOM      1  C   UNL     1      25.779  26.083  24.269  1.00  0.00     0.171 C 
ENDROOT
BRANCH   1   2
ATOM      2  C   UNL     1      25.460  27.192  23.247  1.00  0.00     0.237 C 
BRANCH   2   3
ATOM      3  N   UNL     1      26.488  27.238  22.202  1.00  0.00    -0.350 N 
ATOM      4  H   UNL     1      27.402  26.907  22.590  1.00  0.00     0.345 HD
ATOM      5  H   UNL     1      26.604  28.212  21.838  1.00  0.00     0.345 HD
ATOM      6  H   UNL     1      26.221  26.605  21.412  1.00  0.00     0.345 HD
ENDBRANCH   2   3
BRANCH   2   7
ATOM      7  C   UNL     1      25.354  28.535  23.925  1.00  0.00     0.100 C 
ATOM      8  O   UNL     1      24.490  29.368  23.547  1.00  0.00    -0.544 OA
ATOM      9  O   UNL     1      26.199  28.855  24.982  1.00  0.00    -0.544 OA
ENDBRANCH   2   7
ENDBRANCH   1   2
BRANCH   1  10
ATOM     10  C   UNL     1      24.860  24.905  24.113  1.00  0.00     0.223 C 
ATOM     11  O   UNL     1      23.860  24.788  24.870  1.00  0.00    -0.275 OA
ATOM     12  N   UNL     1      25.133  23.896  23.141  1.00  0.00    -0.369 N 
ATOM     13  H   UNL     1      25.968  23.968  22.518  1.00  0.00     0.159 HD
ATOM     14  H   UNL     1      24.500  23.071  23.045  1.00  0.00     0.159 HD
ENDBRANCH   1  10
TORSDOF 4
ENDMDL
MODEL 6
REMARK VINA RESULT:    -3.460      2.603      3.292
REMARK INTER + INTRA:          -4.439
REMARK INTER:                  -4.134
REMARK INTRA:                  -0.305
REMARK UNBOUND:                -0.271
REMARK SMILES NC(=O)C[C@H]([NH3+])C(=O)[O-]
REMARK SMILES IDX 4 1 5 2 6 3 7 7 8 8 9 9 2 10 3 11 1 12
REMARK H PARENT 6 4 6 5 6 6 1 13 1 14
REMARK Flexibility Score: inf
ROOT
ATOM      1  C   UNL     1      28.592  26.586  22.975  1.00  0.00     0.171 C 
ENDROOT
BRANCH   1   2
ATOM      2  C   UNL     1      29.989  27.224  23.111  1.00  0.00     0.237 C 
BRANCH   2   3
ATOM      3  N   UNL     1      30.390  27.854  21.849  1.00  0.00    -0.350 N 
ATOM      4  H   UNL     1      31.345  27.525  21.577  1.00  0.00     0.345 HD
ATOM      5  H   UNL     1      30.402  28.896  21.942  1.00  0.00     0.345 HD
ATOM      6  H   UNL     1      29.724  27.583  21.088  1.00  0.00     0.345 HD
ENDBRANCH   2   3
BRANCH   2   7
ATOM      7  C   UNL     1      31.012  26.195  23.521  1.00  0.00     0.100 C 
ATOM      8  O   UNL     1      31.938  25.874  22.731  1.00  0.00    -0.544 OA
ATOM      9  O   UNL     1      30.949  25.605  24.779  1.00  0.00    -0.544 OA
ENDBRANCH   2   7
ENDBRANCH   1   2
BRANCH   1  10
ATOM     10  C   UNL     1      28.288  26.217  21.550  1.00  0.00     0.223 C 
ATOM     11  O   UNL     1      29.029  25.397  20.946  1.00  0.00    -0.275 OA
ATOM     12  N   UNL     1      27.192  26.819  20.864  1.00  0.00    -0.369 N 
ATOM     13  H   UNL     1      26.578  27.515  21.344  1.00  0.00     0.159 HD
ATOM     14  H   UNL     1      26.993  26.571  19.869  1.00  0.00     0.159 HD
ENDBRANCH   1  10
TORSDOF 4
ENDMDL
MODEL 7
REMARK VINA RESULT:    -3.456      2.146      2.776
REMARK INTER + INTRA:          -4.434
REMARK INTER:                  -4.171
REMARK INTRA:                  -0.263
REMARK UNBOUND:                -0.271
REMARK SMILES NC(=O)C[C@H]([NH3+])C(=O)[O-]
REMARK SMILES IDX 4 1 5 2 6 3 7 7 8 8 9 9 2 10 3 11 1 12
REMARK H PARENT 6 4 6 5 6 6 1 13 1 14
REMARK Flexibility Score: inf
ROOT
ATOM      1  C   UNL     1      29.113  25.952  22.283  1.00  0.00     0.171 C 
ENDROOT
BRANCH   1   2
ATOM      2  C   UNL     1      29.935  26.905  23.174  1.00  0.00     0.237 C 
BRANCH   2   3
ATOM      3  N   UNL     1      29.410  28.271  23.084  1.00  0.00    -0.350 N 
ATOM      4  H   UNL     1      29.361  28.695  24.039  1.00  0.00     0.345 HD
ATOM      5  H   UNL     1      28.453  28.274  22.660  1.00  0.00     0.345 HD
ATOM      6  H   UNL     1      30.048  28.860  22.499  1.00  0.00     0.345 HD
ENDBRANCH   2   3
BRANCH   2   7
ATOM      7  C   UNL     1      31.391  26.884  22.783  1.00  0.00     0.100 C 
ATOM      8  O   UNL     1      32.044  25.809  22.832  1.00  0.00    -0.544 OA
ATOM      9  O   UNL     1      32.018  28.048  22.352  1.00  0.00    -0.544 OA
ENDBRANCH   2   7
ENDBRANCH   1   2
BRANCH   1  10
ATOM     10  C   UNL     1      27.692  26.417  22.138  1.00  0.00     0.223 C 
ATOM     11  O   UNL     1      26.928  26.415  23.139  1.00  0.00    -0.275 OA
ATOM     12  N   UNL     1      27.189  26.825  20.866  1.00  0.00    -0.369 N 
ATOM     13  H   UNL     1      27.803  26.815  20.021  1.00  0.00     0.159 HD
ATOM     14  H   UNL     1      26.197  27.134  20.766  1.00  0.00     0.159 HD
ENDBRANCH   1  10
TORSDOF 4
ENDMDL
MODEL 8
REMARK VINA RESULT:    -3.261      1.755      2.201
REMARK INTER + INTRA:          -4.199
REMARK INTER:                  -3.748
REMARK INTRA:                  -0.451
REMARK UNBOUND:                -0.271
REMARK SMILES NC(=O)C[C@H]([NH3+])C(=O)[O-]
REMARK SMILES IDX 4 1 5 2 6 3 7 7 8 8 9 9 2 10 3 11 1 12
REMARK H PARENT 6 4 6 5 6 6 1 13 1 14
REMARK Flexibility Score: inf
ROOT
ATOM      1  C   UNL     1      27.999  26.933  24.102  1.00  0.00     0.171 C 
ENDROOT
BRANCH   1   2
ATOM      2  C   UNL     1      29.455  27.081  23.617  1.00  0.00     0.237 C 
BRANCH   2   3
ATOM      3  N   UNL     1      29.611  28.308  22.830  1.00  0.00    -0.350 N 
ATOM      4  H   UNL     1      29.004  28.263  21.979  1.00  0.00     0.345 HD
ATOM      5  H   UNL     1      30.607  28.435  22.533  1.00  0.00     0.345 HD
ATOM      6  H   UNL     1      29.314  29.136  23.398  1.00  0.00     0.345 HD
ENDBRANCH   2   3
BRANCH   2   7
ATOM      7  C   UNL     1      29.872  25.886  22.797  1.00  0.00     0.100 C 
ATOM      8  O   UNL     1      31.055  25.459  22.858  1.00  0.00    -0.544 OA
ATOM      9  O   UNL     1      28.952  25.239  21.981  1.00  0.00    -0.544 OA
ENDBRANCH   2   7
ENDBRANCH   1   2
BRANCH   1  10
ATOM     10  C   UNL     1      27.043  27.686  23.220  1.00  0.00     0.223 C 
ATOM     11  O   UNL     1      26.641  28.828  23.567  1.00  0.00    -0.275 OA
ATOM     12  N   UNL     1      26.556  27.100  22.014  1.00  0.00    -0.369 N 
ATOM     13  H   UNL     1      26.864  26.146  21.721  1.00  0.00     0.159 HD
ATOM     14  H   UNL     1      25.880  27.620  21.411  1.00  0.00     0.159 HD
ENDBRANCH   1  10
TORSDOF 4
ENDMDL
