MODEL 1
REMARK VINA RESULT:    -4.609      0.000      0.000
REMARK INTER + INTRA:         -16.182
REMARK INTER:                 -11.616
REMARK INTRA:                  -4.566
REMARK UNBOUND:                -4.566
REMARK SMILES CCCCCCCCCCCCCCCCCCCCCCCCCCCC(=O)[O-]
REMARK SMILES IDX 15 1 16 2 17 3 18 4 19 5 20 6 21 7 22 8 23 9 24 10 25 11
REMARK SMILES IDX 26 12 27 13 28 14 29 15 30 16 14 17 13 18 12 19 11 20 10 21
REMARK SMILES IDX 9 22 8 23 7 24 6 25 5 26 4 27 3 28 2 29 1 30
REMARK H PARENT
REMARK Flexibility Score: inf
ROOT
ATOM      1  C   UNL     1      60.648  28.507  12.663  1.00  0.00     0.000 C 
ENDROOT
BRANCH   1   2
ATOM      2  C   UNL     1      62.178  28.640  12.783  1.00  0.00     0.000 C 
BRANCH   2   3
ATOM      3  C   UNL     1      62.665  29.738  13.748  1.00  0.00     0.000 C 
BRANCH   3   4
ATOM      4  C   UNL     1      61.519  30.441  14.490  1.00  0.00     0.000 C 
BRANCH   4   5
ATOM      5  C   UNL     1      61.244  31.828  13.889  1.00  0.00     0.000 C 
BRANCH   5   6
ATOM      6  C   UNL     1      60.370  32.702  14.813  1.00  0.00     0.000 C 
BRANCH   6   7
ATOM      7  C   UNL     1      60.896  34.137  14.985  1.00  0.00     0.000 C 
BRANCH   7   8
ATOM      8  C   UNL     1      61.411  34.419  16.403  1.00  0.00     0.000 C 
BRANCH   8   9
ATOM      9  C   UNL     1      61.653  33.114  17.169  1.00  0.00     0.000 C 
BRANCH   9  10
ATOM     10  C   UNL     1      62.400  33.378  18.486  1.00  0.00     0.000 C 
BRANCH  10  11
ATOM     11  C   UNL     1      62.455  34.872  18.846  1.00  0.00     0.000 C 
BRANCH  11  12
ATOM     12  C   UNL     1      63.865  35.330  19.258  1.00  0.00     0.006 C 
BRANCH  12  13
ATOM     13  C   UNL     1      64.644  34.220  19.976  1.00  0.00     0.053 C 
BRANCH  13  14
ATOM     14  C   UNL     1      66.069  34.152  19.518  1.00  0.00     0.041 C 
ATOM     15  O   UNL     1      66.516  33.098  18.996  1.00  0.00    -0.550 OA
ATOM     16  O   UNL     1      66.909  35.245  19.689  1.00  0.00    -0.550 OA
ENDBRANCH  13  14
ENDBRANCH  12  13
ENDBRANCH  11  12
ENDBRANCH  10  11
ENDBRANCH   9  10
ENDBRANCH   8   9
ENDBRANCH   7   8
ENDBRANCH   6   7
ENDBRANCH   5   6
ENDBRANCH   4   5
ENDBRANCH   3   4
ENDBRANCH   2   3
ENDBRANCH   1   2
BRANCH   1  17
ATOM     17  C   UNL     1      60.136  28.737  11.234  1.00  0.00     0.000 C 
BRANCH  17  18
ATOM     18  C   UNL     1      60.649  30.072  10.672  1.00  0.00     0.000 C 
BRANCH  18  19
ATOM     19  C   UNL     1      61.186  29.938   9.237  1.00  0.00     0.000 C 
BRANCH  19  20
ATOM     20  C   UNL     1      62.022  28.664   9.035  1.00  0.00     0.000 C 
BRANCH  20  21
ATOM     21  C   UNL     1      63.524  28.896   9.277  1.00  0.00     0.000 C 
BRANCH  21  22
ATOM     22  C   UNL     1      63.974  30.357   9.067  1.00  0.00    -0.000 C 
BRANCH  22  23
ATOM     23  C   UNL     1      64.889  30.857  10.200  1.00  0.00    -0.000 C 
BRANCH  23  24
ATOM     24  C   UNL     1      64.110  31.584  11.313  1.00  0.00    -0.000 C 
BRANCH  24  25
ATOM     25  C   UNL     1      64.864  32.774  11.940  1.00  0.00    -0.000 C 
BRANCH  25  26
ATOM     26  C   UNL     1      65.179  32.603  13.439  1.00  0.00    -0.000 C 
BRANCH  26  27
ATOM     27  C   UNL     1      64.382  33.581  14.320  1.00  0.00    -0.000 C 
BRANCH  27  28
ATOM     28  C   UNL     1      65.005  33.781  15.710  1.00  0.00    -0.000 C 
BRANCH  28  29
ATOM     29  C   UNL     1      65.440  35.234  15.988  1.00  0.00    -0.003 C 
ATOM     30  C   UNL     1      66.502  35.722  15.002  1.00  0.00     0.004 C 
ENDBRANCH  28  29
ENDBRANCH  27  28
ENDBRANCH  26  27
ENDBRANCH  25  26
ENDBRANCH  24  25
ENDBRANCH  23  24
ENDBRANCH  22  23
ENDBRANCH  21  22
ENDBRANCH  20  21
ENDBRANCH  19  20
ENDBRANCH  18  19
ENDBRANCH  17  18
ENDBRANCH   1  17
TORSDOF 26
ENDMDL
MODEL 2
REMARK VINA RESULT:    -4.448      1.395      2.378
REMARK INTER + INTRA:         -15.776
REMARK INTER:                 -11.398
REMARK INTRA:                  -4.378
REMARK UNBOUND:                -4.566
REMARK SMILES CCCCCCCCCCCCCCCCCCCCCCCCCCCC(=O)[O-]
REMARK SMILES IDX 15 1 16 2 17 3 18 4 19 5 20 6 21 7 22 8 23 9 24 10 25 11
REMARK SMILES IDX 26 12 27 13 28 14 29 15 30 16 14 17 13 18 12 19 11 20 10 21
REMARK SMILES IDX 9 22 8 23 7 24 6 25 5 26 4 27 3 28 2 29 1 30
REMARK H PARENT
REMARK Flexibility Score: inf
ROOT
ATOM      1  C   UNL     1      61.444  28.646  13.241  1.00  0.00     0.000 C 
ENDROOT
BRANCH   1   2
ATOM      2  C   UNL     1      62.019  29.982  13.749  1.00  0.00     0.000 C 
BRANCH   2   3
ATOM      3  C   UNL     1      61.655  30.340  15.202  1.00  0.00     0.000 C 
BRANCH   3   4
ATOM      4  C   UNL     1      60.830  31.630  15.318  1.00  0.00     0.000 C 
BRANCH   4   5
ATOM      5  C   UNL     1      61.386  32.723  14.391  1.00  0.00     0.000 C 
BRANCH   5   6
ATOM      6  C   UNL     1      61.272  34.130  15.014  1.00  0.00     0.000 C 
BRANCH   6   7
ATOM      7  C   UNL     1      61.173  34.120  16.548  1.00  0.00     0.000 C 
BRANCH   7   8
ATOM      8  C   UNL     1      62.395  34.753  17.230  1.00  0.00     0.000 C 
BRANCH   8   9
ATOM      9  C   UNL     1      63.683  34.417  16.471  1.00  0.00     0.000 C 
BRANCH   9  10
ATOM     10  C   UNL     1      64.858  35.270  16.975  1.00  0.00     0.000 C 
BRANCH  10  11
ATOM     11  C   UNL     1      65.773  34.505  17.944  1.00  0.00     0.000 C 
BRANCH  11  12
ATOM     12  C   UNL     1      66.167  35.343  19.172  1.00  0.00     0.006 C 
BRANCH  12  13
ATOM     13  C   UNL     1      64.975  35.597  20.103  1.00  0.00     0.053 C 
BRANCH  13  14
ATOM     14  C   UNL     1      64.498  34.336  20.757  1.00  0.00     0.041 C 
ATOM     15  O   UNL     1      65.203  33.774  21.635  1.00  0.00    -0.550 OA
ATOM     16  O   UNL     1      63.287  33.770  20.380  1.00  0.00    -0.550 OA
ENDBRANCH  13  14
ENDBRANCH  12  13
ENDBRANCH  11  12
ENDBRANCH  10  11
ENDBRANCH   9  10
ENDBRANCH   8   9
ENDBRANCH   7   8
ENDBRANCH   6   7
ENDBRANCH   5   6
ENDBRANCH   4   5
ENDBRANCH   3   4
ENDBRANCH   2   3
ENDBRANCH   1   2
BRANCH   1  17
ATOM     17  C   UNL     1      60.283  28.829  12.252  1.00  0.00     0.000 C 
BRANCH  17  18
ATOM     18  C   UNL     1      60.337  30.214  11.589  1.00  0.00     0.000 C 
BRANCH  18  19
ATOM     19  C   UNL     1      60.326  30.131  10.053  1.00  0.00     0.000 C 
BRANCH  19  20
ATOM     20  C   UNL     1      60.314  28.682   9.539  1.00  0.00     0.000 C 
BRANCH  20  21
ATOM     21  C   UNL     1      61.671  28.246   8.960  1.00  0.00     0.000 C 
BRANCH  21  22
ATOM     22  C   UNL     1      62.714  29.381   8.886  1.00  0.00    -0.000 C 
BRANCH  22  23
ATOM     23  C   UNL     1      63.816  29.235   9.951  1.00  0.00    -0.000 C 
BRANCH  23  24
ATOM     24  C   UNL     1      63.984  30.504  10.809  1.00  0.00    -0.000 C 
BRANCH  24  25
ATOM     25  C   UNL     1      65.175  31.392  10.398  1.00  0.00    -0.000 C 
BRANCH  25  26
ATOM     26  C   UNL     1      65.220  32.758  11.112  1.00  0.00    -0.000 C 
BRANCH  26  27
ATOM     27  C   UNL     1      64.498  32.732  12.470  1.00  0.00    -0.000 C 
BRANCH  27  28
ATOM     28  C   UNL     1      65.462  32.586  13.659  1.00  0.00    -0.000 C 
BRANCH  28  29
ATOM     29  C   UNL     1      64.984  31.575  14.720  1.00  0.00    -0.003 C 
ATOM     30  C   UNL     1      65.593  30.187  14.518  1.00  0.00     0.004 C 
ENDBRANCH  28  29
ENDBRANCH  27  28
ENDBRANCH  26  27
ENDBRANCH  25  26
ENDBRANCH  24  25
ENDBRANCH  23  24
ENDBRANCH  22  23
ENDBRANCH  21  22
ENDBRANCH  20  21
ENDBRANCH  19  20
ENDBRANCH  18  19
ENDBRANCH  17  18
ENDBRANCH   1  17
TORSDOF 26
ENDMDL
MODEL 3
REMARK VINA RESULT:    -4.411      1.759      6.374
REMARK INTER + INTRA:         -15.682
REMARK INTER:                 -12.291
REMARK INTRA:                  -3.391
REMARK UNBOUND:                -4.566
REMARK SMILES CCCCCCCCCCCCCCCCCCCCCCCCCCCC(=O)[O-]
REMARK SMILES IDX 15 1 16 2 17 3 18 4 19 5 20 6 21 7 22 8 23 9 24 10 25 11
REMARK SMILES IDX 26 12 27 13 28 14 29 15 30 16 14 17 13 18 12 19 11 20 10 21
REMARK SMILES IDX 9 22 8 23 7 24 6 25 5 26 4 27 3 28 2 29 1 30
REMARK H PARENT
REMARK Flexibility Score: inf
ROOT
ATOM      1  C   UNL     1      62.206  29.021  13.359  1.00  0.00     0.000 C 
ENDROOT
BRANCH   1   2
ATOM      2  C   UNL     1      61.067  28.242  12.676  1.00  0.00     0.000 C 
BRANCH   2   3
ATOM      3  C   UNL     1      60.012  29.114  11.967  1.00  0.00     0.000 C 
BRANCH   3   4
ATOM      4  C   UNL     1      60.011  28.939  10.441  1.00  0.00     0.000 C 
BRANCH   4   5
ATOM      5  C   UNL     1      61.222  29.642   9.807  1.00  0.00     0.000 C 
BRANCH   5   6
ATOM      6  C   UNL     1      62.020  28.704   8.877  1.00  0.00     0.000 C 
BRANCH   6   7
ATOM      7  C   UNL     1      63.544  28.814   9.050  1.00  0.00     0.000 C 
BRANCH   7   8
ATOM      8  C   UNL     1      63.947  29.612  10.297  1.00  0.00     0.000 C 
BRANCH   8   9
ATOM      9  C   UNL     1      65.035  30.640   9.964  1.00  0.00     0.000 C 
BRANCH   9  10
ATOM     10  C   UNL     1      64.751  31.984  10.652  1.00  0.00     0.000 C 
BRANCH  10  11
ATOM     11  C   UNL     1      65.979  32.909  10.674  1.00  0.00     0.000 C 
BRANCH  11  12
ATOM     12  C   UNL     1      66.039  33.783  11.938  1.00  0.00     0.006 C 
BRANCH  12  13
ATOM     13  C   UNL     1      64.978  33.378  12.970  1.00  0.00     0.053 C 
BRANCH  13  14
ATOM     14  C   UNL     1      65.589  32.717  14.167  1.00  0.00     0.041 C 
ATOM     15  O   UNL     1      66.566  33.250  14.755  1.00  0.00    -0.550 OA
ATOM     16  O   UNL     1      65.094  31.500  14.619  1.00  0.00    -0.550 OA
ENDBRANCH  13  14
ENDBRANCH  12  13
ENDBRANCH  11  12
ENDBRANCH  10  11
ENDBRANCH   9  10
ENDBRANCH   8   9
ENDBRANCH   7   8
ENDBRANCH   6   7
ENDBRANCH   5   6
ENDBRANCH   4   5
ENDBRANCH   3   4
ENDBRANCH   2   3
ENDBRANCH   1   2
BRANCH   1  17
ATOM     17  C   UNL     1      61.779  30.419  13.831  1.00  0.00     0.000 C 
BRANCH  17  18
ATOM     18  C   UNL     1      62.056  31.475  12.750  1.00  0.00     0.000 C 
BRANCH  18  19
ATOM     19  C   UNL     1      61.263  32.772  12.979  1.00  0.00     0.000 C 
BRANCH  19  20
ATOM     20  C   UNL     1      60.372  32.708  14.230  1.00  0.00     0.000 C 
BRANCH  20  21
ATOM     21  C   UNL     1      60.745  33.769  15.280  1.00  0.00     0.000 C 
BRANCH  21  22
ATOM     22  C   UNL     1      62.261  33.882  15.544  1.00  0.00    -0.000 C 
BRANCH  22  23
ATOM     23  C   UNL     1      62.713  33.027  16.742  1.00  0.00    -0.000 C 
BRANCH  23  24
ATOM     24  C   UNL     1      61.865  33.279  18.003  1.00  0.00    -0.000 C 
BRANCH  24  25
ATOM     25  C   UNL     1      62.198  34.594  18.737  1.00  0.00    -0.000 C 
BRANCH  25  26
ATOM     26  C   UNL     1      63.664  35.048  18.585  1.00  0.00    -0.000 C 
BRANCH  26  27
ATOM     27  C   UNL     1      64.164  35.829  19.813  1.00  0.00    -0.000 C 
BRANCH  27  28
ATOM     28  C   UNL     1      65.492  35.288  20.367  1.00  0.00    -0.000 C 
BRANCH  28  29
ATOM     29  C   UNL     1      65.346  33.956  21.131  1.00  0.00    -0.003 C 
ATOM     30  C   UNL     1      66.692  33.396  21.588  1.00  0.00     0.004 C 
ENDBRANCH  28  29
ENDBRANCH  27  28
ENDBRANCH  26  27
ENDBRANCH  25  26
ENDBRANCH  24  25
ENDBRANCH  23  24
ENDBRANCH  22  23
ENDBRANCH  21  22
ENDBRANCH  20  21
ENDBRANCH  19  20
ENDBRANCH  18  19
ENDBRANCH  17  18
ENDBRANCH   1  17
TORSDOF 26
ENDMDL
MODEL 4
REMARK VINA RESULT:    -4.237      7.094     11.294
REMARK INTER + INTRA:         -15.242
REMARK INTER:                 -11.713
REMARK INTRA:                  -3.530
REMARK UNBOUND:                -4.566
REMARK SMILES CCCCCCCCCCCCCCCCCCCCCCCCCCCC(=O)[O-]
REMARK SMILES IDX 15 1 16 2 17 3 18 4 19 5 20 6 21 7 22 8 23 9 24 10 25 11
REMARK SMILES IDX 26 12 27 13 28 14 29 15 30 16 14 17 13 18 12 19 11 20 10 21
REMARK SMILES IDX 9 22 8 23 7 24 6 25 5 26 4 27 3 28 2 29 1 30
REMARK H PARENT
REMARK Flexibility Score: inf
ROOT
ATOM      1  C   UNL     1      62.480  27.164  25.215  1.00  0.00     0.000 C 
ENDROOT
BRANCH   1   2
ATOM      2  C   UNL     1      62.309  26.821  26.707  1.00  0.00     0.000 C 
BRANCH   2   3
ATOM      3  C   UNL     1      60.908  27.096  27.285  1.00  0.00     0.000 C 
BRANCH   3   4
ATOM      4  C   UNL     1      60.896  28.225  28.327  1.00  0.00     0.000 C 
BRANCH   4   5
ATOM      5  C   UNL     1      62.325  28.682  28.658  1.00  0.00     0.000 C 
BRANCH   5   6
ATOM      6  C   UNL     1      62.447  30.220  28.715  1.00  0.00     0.000 C 
BRANCH   6   7
ATOM      7  C   UNL     1      63.641  30.773  27.921  1.00  0.00     0.000 C 
BRANCH   7   8
ATOM      8  C   UNL     1      64.566  29.671  27.386  1.00  0.00     0.000 C 
BRANCH   8   9
ATOM      9  C   UNL     1      66.029  30.128  27.397  1.00  0.00     0.000 C 
BRANCH   9  10
ATOM     10  C   UNL     1      66.719  29.796  26.064  1.00  0.00     0.000 C 
BRANCH  10  11
ATOM     11  C   UNL     1      66.018  28.661  25.301  1.00  0.00     0.000 C 
BRANCH  11  12
ATOM     12  C   UNL     1      66.554  28.492  23.869  1.00  0.00     0.006 C 
BRANCH  12  13
ATOM     13  C   UNL     1      65.505  27.884  22.928  1.00  0.00     0.053 C 
BRANCH  13  14
ATOM     14  C   UNL     1      65.668  26.401  22.794  1.00  0.00     0.041 C 
ATOM     15  O   UNL     1      66.049  25.904  21.703  1.00  0.00    -0.550 OA
ATOM     16  O   UNL     1      65.375  25.568  23.866  1.00  0.00    -0.550 OA
ENDBRANCH  13  14
ENDBRANCH  12  13
ENDBRANCH  11  12
ENDBRANCH  10  11
ENDBRANCH   9  10
ENDBRANCH   8   9
ENDBRANCH   7   8
ENDBRANCH   6   7
ENDBRANCH   5   6
ENDBRANCH   4   5
ENDBRANCH   3   4
ENDBRANCH   2   3
ENDBRANCH   1   2
BRANCH   1  17
ATOM     17  C   UNL     1      61.406  28.131  24.695  1.00  0.00     0.000 C 
BRANCH  17  18
ATOM     18  C   UNL     1      61.876  29.590  24.806  1.00  0.00     0.000 C 
BRANCH  18  19
ATOM     19  C   UNL     1      63.038  29.907  23.850  1.00  0.00     0.000 C 
BRANCH  19  20
ATOM     20  C   UNL     1      63.742  31.229  24.194  1.00  0.00     0.000 C 
BRANCH  20  21
ATOM     21  C   UNL     1      64.498  31.828  22.995  1.00  0.00     0.000 C 
BRANCH  21  22
ATOM     22  C   UNL     1      63.924  33.173  22.502  1.00  0.00    -0.000 C 
BRANCH  22  23
ATOM     23  C   UNL     1      64.796  33.816  21.407  1.00  0.00    -0.000 C 
BRANCH  23  24
ATOM     24  C   UNL     1      63.966  34.615  20.383  1.00  0.00    -0.000 C 
BRANCH  24  25
ATOM     25  C   UNL     1      63.755  33.892  19.038  1.00  0.00    -0.000 C 
BRANCH  25  26
ATOM     26  C   UNL     1      63.386  34.828  17.869  1.00  0.00    -0.000 C 
BRANCH  26  27
ATOM     27  C   UNL     1      61.984  34.535  17.306  1.00  0.00    -0.000 C 
BRANCH  27  28
ATOM     28  C   UNL     1      62.019  33.720  16.004  1.00  0.00    -0.000 C 
BRANCH  28  29
ATOM     29  C   UNL     1      60.942  34.141  14.984  1.00  0.00    -0.003 C 
ATOM     30  C   UNL     1      60.800  33.137  13.840  1.00  0.00     0.004 C 
ENDBRANCH  28  29
ENDBRANCH  27  28
ENDBRANCH  26  27
ENDBRANCH  25  26
ENDBRANCH  24  25
ENDBRANCH  23  24
ENDBRANCH  22  23
ENDBRANCH  21  22
ENDBRANCH  20  21
ENDBRANCH  19  20
ENDBRANCH  18  19
ENDBRANCH  17  18
ENDBRANCH   1  17
TORSDOF 26
ENDMDL
MODEL 5
REMARK VINA RESULT:    -4.116      1.874      5.043
REMARK INTER + INTRA:         -14.939
REMARK INTER:                 -10.705
REMARK INTRA:                  -4.234
REMARK UNBOUND:                -4.566
REMARK SMILES CCCCCCCCCCCCCCCCCCCCCCCCCCCC(=O)[O-]
REMARK SMILES IDX 15 1 16 2 17 3 18 4 19 5 20 6 21 7 22 8 23 9 24 10 25 11
REMARK SMILES IDX 26 12 27 13 28 14 29 15 30 16 14 17 13 18 12 19 11 20 10 21
REMARK SMILES IDX 9 22 8 23 7 24 6 25 5 26 4 27 3 28 2 29 1 30
REMARK H PARENT
REMARK Flexibility Score: inf
ROOT
ATOM      1  C   UNL     1      60.952  31.643  15.950  1.00  0.00     0.000 C 
ENDROOT
BRANCH   1   2
ATOM      2  C   UNL     1      61.947  30.564  15.482  1.00  0.00     0.000 C 
BRANCH   2   3
ATOM      3  C   UNL     1      63.419  31.014  15.423  1.00  0.00     0.000 C 
BRANCH   3   4
ATOM      4  C   UNL     1      64.274  30.158  14.476  1.00  0.00     0.000 C 
BRANCH   4   5
ATOM      5  C   UNL     1      65.747  30.595  14.519  1.00  0.00     0.000 C 
BRANCH   5   6
ATOM      6  C   UNL     1      65.941  31.919  15.288  1.00  0.00     0.000 C 
BRANCH   6   7
ATOM      7  C   UNL     1      66.147  33.139  14.376  1.00  0.00     0.000 C 
BRANCH   7   8
ATOM      8  C   UNL     1      65.198  34.299  14.708  1.00  0.00     0.000 C 
BRANCH   8   9
ATOM      9  C   UNL     1      65.912  35.372  15.538  1.00  0.00     0.000 C 
BRANCH   9  10
ATOM     10  C   UNL     1      65.204  35.589  16.885  1.00  0.00     0.000 C 
BRANCH  10  11
ATOM     11  C   UNL     1      65.407  34.416  17.856  1.00  0.00     0.000 C 
BRANCH  11  12
ATOM     12  C   UNL     1      64.290  34.320  18.910  1.00  0.00     0.006 C 
BRANCH  12  13
ATOM     13  C   UNL     1      63.134  35.285  18.615  1.00  0.00     0.053 C 
BRANCH  13  14
ATOM     14  C   UNL     1      61.877  34.557  18.254  1.00  0.00     0.041 C 
ATOM     15  O   UNL     1      61.232  34.881  17.223  1.00  0.00    -0.550 OA
ATOM     16  O   UNL     1      61.404  33.536  19.069  1.00  0.00    -0.550 OA
ENDBRANCH  13  14
ENDBRANCH  12  13
ENDBRANCH  11  12
ENDBRANCH  10  11
ENDBRANCH   9  10
ENDBRANCH   8   9
ENDBRANCH   7   8
ENDBRANCH   6   7
ENDBRANCH   5   6
ENDBRANCH   4   5
ENDBRANCH   3   4
ENDBRANCH   2   3
ENDBRANCH   1   2
BRANCH   1  17
ATOM     17  C   UNL     1      60.054  32.162  14.818  1.00  0.00     0.000 C 
BRANCH  17  18
ATOM     18  C   UNL     1      60.755  33.275  14.023  1.00  0.00     0.000 C 
BRANCH  18  19
ATOM     19  C   UNL     1      61.309  32.776  12.678  1.00  0.00     0.000 C 
BRANCH  19  20
ATOM     20  C   UNL     1      62.845  32.798  12.626  1.00  0.00     0.000 C 
BRANCH  20  21
ATOM     21  C   UNL     1      63.423  31.706  11.709  1.00  0.00     0.000 C 
BRANCH  21  22
ATOM     22  C   UNL     1      64.811  32.048  11.128  1.00  0.00    -0.000 C 
BRANCH  22  23
ATOM     23  C   UNL     1      65.217  31.099   9.985  1.00  0.00    -0.000 C 
BRANCH  23  24
ATOM     24  C   UNL     1      64.003  30.555   9.207  1.00  0.00    -0.000 C 
BRANCH  24  25
ATOM     25  C   UNL     1      63.702  29.065   9.467  1.00  0.00    -0.000 C 
BRANCH  25  26
ATOM     26  C   UNL     1      62.230  28.669   9.233  1.00  0.00    -0.000 C 
BRANCH  26  27
ATOM     27  C   UNL     1      61.263  29.839   9.481  1.00  0.00    -0.000 C 
BRANCH  27  28
ATOM     28  C   UNL     1      60.371  29.628  10.715  1.00  0.00    -0.000 C 
BRANCH  28  29
ATOM     29  C   UNL     1      61.102  28.965  11.899  1.00  0.00    -0.003 C 
ATOM     30  C   UNL     1      60.141  28.262  12.857  1.00  0.00     0.004 C 
ENDBRANCH  28  29
ENDBRANCH  27  28
ENDBRANCH  26  27
ENDBRANCH  25  26
ENDBRANCH  24  25
ENDBRANCH  23  24
ENDBRANCH  22  23
ENDBRANCH  21  22
ENDBRANCH  20  21
ENDBRANCH  19  20
ENDBRANCH  18  19
ENDBRANCH  17  18
ENDBRANCH   1  17
TORSDOF 26
ENDMDL
MODEL 6
REMARK VINA RESULT:    -4.083      1.812      5.335
REMARK INTER + INTRA:         -14.856
REMARK INTER:                 -10.510
REMARK INTRA:                  -4.346
REMARK UNBOUND:                -4.566
REMARK SMILES CCCCCCCCCCCCCCCCCCCCCCCCCCCC(=O)[O-]
REMARK SMILES IDX 15 1 16 2 17 3 18 4 19 5 20 6 21 7 22 8 23 9 24 10 25 11
REMARK SMILES IDX 26 12 27 13 28 14 29 15 30 16 14 17 13 18 12 19 11 20 10 21
REMARK SMILES IDX 9 22 8 23 7 24 6 25 5 26 4 27 3 28 2 29 1 30
REMARK H PARENT
REMARK Flexibility Score: inf
ROOT
ATOM      1  C   UNL     1      60.600  29.232  12.606  1.00  0.00     0.000 C 
ENDROOT
BRANCH   1   2
ATOM      2  C   UNL     1      61.389  28.639  11.423  1.00  0.00     0.000 C 
BRANCH   2   3
ATOM      3  C   UNL     1      60.946  29.127  10.031  1.00  0.00     0.000 C 
BRANCH   3   4
ATOM      4  C   UNL     1      62.022  28.932   8.952  1.00  0.00     0.000 C 
BRANCH   4   5
ATOM      5  C   UNL     1      63.430  29.084   9.547  1.00  0.00     0.000 C 
BRANCH   5   6
ATOM      6  C   UNL     1      63.910  30.551   9.544  1.00  0.00     0.000 C 
BRANCH   6   7
ATOM      7  C   UNL     1      64.890  30.882  10.682  1.00  0.00     0.000 C 
BRANCH   7   8
ATOM      8  C   UNL     1      64.454  32.098  11.511  1.00  0.00     0.000 C 
BRANCH   8   9
ATOM      9  C   UNL     1      62.951  32.049  11.810  1.00  0.00     0.000 C 
BRANCH   9  10
ATOM     10  C   UNL     1      62.605  32.904  13.039  1.00  0.00     0.000 C 
BRANCH  10  11
ATOM     11  C   UNL     1      61.091  33.095  13.221  1.00  0.00     0.000 C 
BRANCH  11  12
ATOM     12  C   UNL     1      60.655  33.000  14.693  1.00  0.00     0.006 C 
BRANCH  12  13
ATOM     13  C   UNL     1      61.153  34.193  15.519  1.00  0.00     0.053 C 
BRANCH  13  14
ATOM     14  C   UNL     1      61.656  33.770  16.865  1.00  0.00     0.041 C 
ATOM     15  O   UNL     1      62.296  32.693  16.991  1.00  0.00    -0.550 OA
ATOM     16  O   UNL     1      61.397  34.552  17.984  1.00  0.00    -0.550 OA
ENDBRANCH  13  14
ENDBRANCH  12  13
ENDBRANCH  11  12
ENDBRANCH  10  11
ENDBRANCH   9  10
ENDBRANCH   8   9
ENDBRANCH   7   8
ENDBRANCH   6   7
ENDBRANCH   5   6
ENDBRANCH   4   5
ENDBRANCH   3   4
ENDBRANCH   2   3
ENDBRANCH   1   2
BRANCH   1  17
ATOM     17  C   UNL     1      61.444  29.368  13.882  1.00  0.00     0.000 C 
BRANCH  17  18
ATOM     18  C   UNL     1      62.943  29.251  13.567  1.00  0.00     0.000 C 
BRANCH  18  19
ATOM     19  C   UNL     1      63.811  30.095  14.516  1.00  0.00     0.000 C 
BRANCH  19  20
ATOM     20  C   UNL     1      65.312  29.798  14.366  1.00  0.00     0.000 C 
BRANCH  20  21
ATOM     21  C   UNL     1      66.198  30.911  14.952  1.00  0.00     0.000 C 
BRANCH  21  22
ATOM     22  C   UNL     1      65.478  32.267  15.109  1.00  0.00    -0.000 C 
BRANCH  22  23
ATOM     23  C   UNL     1      66.152  33.386  14.293  1.00  0.00    -0.000 C 
BRANCH  23  24
ATOM     24  C   UNL     1      65.766  34.794  14.787  1.00  0.00    -0.000 C 
BRANCH  24  25
ATOM     25  C   UNL     1      64.935  34.803  16.086  1.00  0.00    -0.000 C 
BRANCH  25  26
ATOM     26  C   UNL     1      65.776  34.907  17.373  1.00  0.00    -0.000 C 
BRANCH  26  27
ATOM     27  C   UNL     1      65.499  33.749  18.348  1.00  0.00    -0.000 C 
BRANCH  27  28
ATOM     28  C   UNL     1      65.423  34.205  19.814  1.00  0.00    -0.000 C 
BRANCH  28  29
ATOM     29  C   UNL     1      63.994  34.187  20.393  1.00  0.00    -0.003 C 
ATOM     30  C   UNL     1      63.957  33.687  21.837  1.00  0.00     0.004 C 
ENDBRANCH  28  29
ENDBRANCH  27  28
ENDBRANCH  26  27
ENDBRANCH  25  26
ENDBRANCH  24  25
ENDBRANCH  23  24
ENDBRANCH  22  23
ENDBRANCH  21  22
ENDBRANCH  20  21
ENDBRANCH  19  20
ENDBRANCH  18  19
ENDBRANCH  17  18
ENDBRANCH   1  17
TORSDOF 26
ENDMDL
MODEL 7
REMARK VINA RESULT:    -4.051      6.841     12.243
REMARK INTER + INTRA:         -14.776
REMARK INTER:                 -11.769
REMARK INTRA:                  -3.007
REMARK UNBOUND:                -4.566
REMARK SMILES CCCCCCCCCCCCCCCCCCCCCCCCCCCC(=O)[O-]
REMARK SMILES IDX 15 1 16 2 17 3 18 4 19 5 20 6 21 7 22 8 23 9 24 10 25 11
REMARK SMILES IDX 26 12 27 13 28 14 29 15 30 16 14 17 13 18 12 19 11 20 10 21
REMARK SMILES IDX 9 22 8 23 7 24 6 25 5 26 4 27 3 28 2 29 1 30
REMARK H PARENT
REMARK Flexibility Score: inf
ROOT
ATOM      1  C   UNL     1      64.490  29.954  23.549  1.00  0.00     0.000 C 
ENDROOT
BRANCH   1   2
ATOM      2  C   UNL     1      64.101  31.444  23.568  1.00  0.00     0.000 C 
BRANCH   2   3
ATOM      3  C   UNL     1      64.864  32.331  22.566  1.00  0.00     0.000 C 
BRANCH   3   4
ATOM      4  C   UNL     1      64.039  33.528  22.070  1.00  0.00     0.000 C 
BRANCH   4   5
ATOM      5  C   UNL     1      64.743  34.234  20.901  1.00  0.00     0.000 C 
BRANCH   5   6
ATOM      6  C   UNL     1      63.782  34.521  19.727  1.00  0.00     0.000 C 
BRANCH   6   7
ATOM      7  C   UNL     1      62.532  33.627  19.721  1.00  0.00     0.000 C 
BRANCH   7   8
ATOM      8  C   UNL     1      61.457  34.110  18.736  1.00  0.00     0.000 C 
BRANCH   8   9
ATOM      9  C   UNL     1      62.094  34.700  17.474  1.00  0.00     0.000 C 
BRANCH   9  10
ATOM     10  C   UNL     1      61.215  34.441  16.240  1.00  0.00     0.000 C 
BRANCH  10  11
ATOM     11  C   UNL     1      61.983  33.755  15.099  1.00  0.00     0.000 C 
BRANCH  11  12
ATOM     12  C   UNL     1      61.096  33.477  13.873  1.00  0.00     0.006 C 
BRANCH  12  13
ATOM     13  C   UNL     1      60.385  32.121  13.972  1.00  0.00     0.053 C 
BRANCH  13  14
ATOM     14  C   UNL     1      60.841  31.172  12.907  1.00  0.00     0.041 C 
ATOM     15  O   UNL     1      60.082  30.247  12.517  1.00  0.00    -0.550 OA
ATOM     16  O   UNL     1      62.114  31.293  12.364  1.00  0.00    -0.550 OA
ENDBRANCH  13  14
ENDBRANCH  12  13
ENDBRANCH  11  12
ENDBRANCH  10  11
ENDBRANCH   9  10
ENDBRANCH   8   9
ENDBRANCH   7   8
ENDBRANCH   6   7
ENDBRANCH   5   6
ENDBRANCH   4   5
ENDBRANCH   3   4
ENDBRANCH   2   3
ENDBRANCH   1   2
BRANCH   1  17
ATOM     17  C   UNL     1      65.992  29.723  23.768  1.00  0.00     0.000 C 
BRANCH  17  18
ATOM     18  C   UNL     1      66.345  29.764  25.264  1.00  0.00     0.000 C 
BRANCH  18  19
ATOM     19  C   UNL     1      65.316  29.018  26.130  1.00  0.00     0.000 C 
BRANCH  19  20
ATOM     20  C   UNL     1      64.802  29.869  27.302  1.00  0.00     0.000 C 
BRANCH  20  21
ATOM     21  C   UNL     1      63.377  30.401  27.069  1.00  0.00     0.000 C 
BRANCH  21  22
ATOM     22  C   UNL     1      62.371  29.995  28.166  1.00  0.00    -0.000 C 
BRANCH  22  23
ATOM     23  C   UNL     1      62.731  28.649  28.823  1.00  0.00    -0.000 C 
BRANCH  23  24
ATOM     24  C   UNL     1      61.601  27.608  28.697  1.00  0.00    -0.000 C 
BRANCH  24  25
ATOM     25  C   UNL     1      61.245  27.234  27.244  1.00  0.00    -0.000 C 
BRANCH  25  26
ATOM     26  C   UNL     1      62.436  26.712  26.416  1.00  0.00    -0.000 C 
BRANCH  26  27
ATOM     27  C   UNL     1      62.379  27.179  24.951  1.00  0.00    -0.000 C 
BRANCH  27  28
ATOM     28  C   UNL     1      63.115  26.231  23.990  1.00  0.00    -0.000 C 
BRANCH  28  29
ATOM     29  C   UNL     1      64.583  25.971  24.384  1.00  0.00    -0.003 C 
ATOM     30  C   UNL     1      65.530  26.056  23.187  1.00  0.00     0.004 C 
ENDBRANCH  28  29
ENDBRANCH  27  28
ENDBRANCH  26  27
ENDBRANCH  25  26
ENDBRANCH  24  25
ENDBRANCH  23  24
ENDBRANCH  22  23
ENDBRANCH  21  22
ENDBRANCH  20  21
ENDBRANCH  19  20
ENDBRANCH  18  19
ENDBRANCH  17  18
ENDBRANCH   1  17
TORSDOF 26
ENDMDL
MODEL 8
REMARK VINA RESULT:    -3.952      6.642     10.620
REMARK INTER + INTRA:         -14.525
REMARK INTER:                 -11.613
REMARK INTRA:                  -2.913
REMARK UNBOUND:                -4.566
REMARK SMILES CCCCCCCCCCCCCCCCCCCCCCCCCCCC(=O)[O-]
REMARK SMILES IDX 15 1 16 2 17 3 18 4 19 5 20 6 21 7 22 8 23 9 24 10 25 11
REMARK SMILES IDX 26 12 27 13 28 14 29 15 30 16 14 17 13 18 12 19 11 20 10 21
REMARK SMILES IDX 9 22 8 23 7 24 6 25 5 26 4 27 3 28 2 29 1 30
REMARK H PARENT
REMARK Flexibility Score: inf
ROOT
ATOM      1  C   UNL     1      65.124  30.112  23.701  1.00  0.00     0.000 C 
ENDROOT
BRANCH   1   2
ATOM      2  C   UNL     1      65.752  30.086  25.107  1.00  0.00     0.000 C 
BRANCH   2   3
ATOM      3  C   UNL     1      65.096  29.106  26.098  1.00  0.00     0.000 C 
BRANCH   3   4
ATOM      4  C   UNL     1      64.600  29.788  27.382  1.00  0.00     0.000 C 
BRANCH   4   5
ATOM      5  C   UNL     1      63.170  30.320  27.205  1.00  0.00     0.000 C 
BRANCH   5   6
ATOM      6  C   UNL     1      62.227  29.847  28.332  1.00  0.00     0.000 C 
BRANCH   6   7
ATOM      7  C   UNL     1      62.641  28.507  28.961  1.00  0.00     0.000 C 
BRANCH   7   8
ATOM      8  C   UNL     1      62.182  27.294  28.140  1.00  0.00     0.000 C 
BRANCH   8   9
ATOM      9  C   UNL     1      60.785  27.525  27.553  1.00  0.00     0.000 C 
BRANCH   9  10
ATOM     10  C   UNL     1      60.702  27.008  26.108  1.00  0.00     0.000 C 
BRANCH  10  11
ATOM     11  C   UNL     1      60.935  28.117  25.069  1.00  0.00     0.000 C 
BRANCH  11  12
ATOM     12  C   UNL     1      62.245  27.927  24.285  1.00  0.00     0.006 C 
BRANCH  12  13
ATOM     13  C   UNL     1      62.800  26.503  24.425  1.00  0.00     0.053 C 
BRANCH  13  14
ATOM     14  C   UNL     1      64.122  26.349  23.738  1.00  0.00     0.041 C 
ATOM     15  O   UNL     1      65.130  25.966  24.386  1.00  0.00    -0.550 OA
ATOM     16  O   UNL     1      64.245  26.650  22.388  1.00  0.00    -0.550 OA
ENDBRANCH  13  14
ENDBRANCH  12  13
ENDBRANCH  11  12
ENDBRANCH  10  11
ENDBRANCH   9  10
ENDBRANCH   8   9
ENDBRANCH   7   8
ENDBRANCH   6   7
ENDBRANCH   5   6
ENDBRANCH   4   5
ENDBRANCH   3   4
ENDBRANCH   2   3
ENDBRANCH   1   2
BRANCH   1  17
ATOM     17  C   UNL     1      64.152  31.284  23.500  1.00  0.00     0.000 C 
BRANCH  17  18
ATOM     18  C   UNL     1      64.776  32.372  22.612  1.00  0.00     0.000 C 
BRANCH  18  19
ATOM     19  C   UNL     1      63.766  33.467  22.226  1.00  0.00     0.000 C 
BRANCH  19  20
ATOM     20  C   UNL     1      64.115  34.150  20.895  1.00  0.00     0.000 C 
BRANCH  20  21
ATOM     21  C   UNL     1      63.063  33.893  19.802  1.00  0.00     0.000 C 
BRANCH  21  22
ATOM     22  C   UNL     1      62.981  35.007  18.737  1.00  0.00    -0.000 C 
BRANCH  22  23
ATOM     23  C   UNL     1      62.243  34.550  17.466  1.00  0.00    -0.000 C 
BRANCH  23  24
ATOM     24  C   UNL     1      62.424  33.046  17.184  1.00  0.00    -0.000 C 
BRANCH  24  25
ATOM     25  C   UNL     1      61.525  32.499  16.058  1.00  0.00    -0.000 C 
BRANCH  25  26
ATOM     26  C   UNL     1      60.779  33.588  15.261  1.00  0.00    -0.000 C 
BRANCH  26  27
ATOM     27  C   UNL     1      61.145  33.572  13.766  1.00  0.00    -0.000 C 
BRANCH  27  28
ATOM     28  C   UNL     1      62.049  32.390  13.382  1.00  0.00    -0.000 C 
BRANCH  28  29
ATOM     29  C   UNL     1      63.441  32.817  12.875  1.00  0.00    -0.003 C 
ATOM     30  C   UNL     1      64.107  31.736  12.024  1.00  0.00     0.004 C 
ENDBRANCH  28  29
ENDBRANCH  27  28
ENDBRANCH  26  27
ENDBRANCH  25  26
ENDBRANCH  24  25
ENDBRANCH  23  24
ENDBRANCH  22  23
ENDBRANCH  21  22
ENDBRANCH  20  21
ENDBRANCH  19  20
ENDBRANCH  18  19
ENDBRANCH  17  18
ENDBRANCH   1  17
TORSDOF 26
ENDMDL
MODEL 9
REMARK VINA RESULT:    -3.901      1.962      6.318
REMARK INTER + INTRA:         -14.398
REMARK INTER:                 -10.794
REMARK INTRA:                  -3.604
REMARK UNBOUND:                -4.566
REMARK SMILES CCCCCCCCCCCCCCCCCCCCCCCCCCCC(=O)[O-]
REMARK SMILES IDX 15 1 16 2 17 3 18 4 19 5 20 6 21 7 22 8 23 9 24 10 25 11
REMARK SMILES IDX 26 12 27 13 28 14 29 15 30 16 14 17 13 18 12 19 11 20 10 21
REMARK SMILES IDX 9 22 8 23 7 24 6 25 5 26 4 27 3 28 2 29 1 30
REMARK H PARENT
REMARK Flexibility Score: inf
ROOT
ATOM      1  C   UNL     1      64.879  34.616  15.424  1.00  0.00     0.000 C 
ENDROOT
BRANCH   1   2
ATOM      2  C   UNL     1      65.330  35.491  16.609  1.00  0.00     0.000 C 
BRANCH   2   3
ATOM      3  C   UNL     1      66.717  35.149  17.184  1.00  0.00     0.000 C 
BRANCH   3   4
ATOM      4  C   UNL     1      66.648  34.451  18.551  1.00  0.00     0.000 C 
BRANCH   4   5
ATOM      5  C   UNL     1      65.551  35.072  19.430  1.00  0.00     0.000 C 
BRANCH   5   6
ATOM      6  C   UNL     1      64.909  34.038  20.380  1.00  0.00     0.000 C 
BRANCH   6   7
ATOM      7  C   UNL     1      63.380  33.950  20.253  1.00  0.00     0.000 C 
BRANCH   7   8
ATOM      8  C   UNL     1      62.827  34.790  19.093  1.00  0.00     0.000 C 
BRANCH   8   9
ATOM      9  C   UNL     1      62.107  33.906  18.069  1.00  0.00     0.000 C 
BRANCH   9  10
ATOM     10  C   UNL     1      61.575  34.744  16.895  1.00  0.00     0.000 C 
BRANCH  10  11
ATOM     11  C   UNL     1      60.735  33.917  15.910  1.00  0.00     0.000 C 
BRANCH  11  12
ATOM     12  C   UNL     1      61.526  33.510  14.655  1.00  0.00     0.006 C 
BRANCH  12  13
ATOM     13  C   UNL     1      61.261  32.052  14.254  1.00  0.00     0.053 C 
BRANCH  13  14
ATOM     14  C   UNL     1      61.960  31.088  15.161  1.00  0.00     0.041 C 
ATOM     15  O   UNL     1      61.322  30.504  16.075  1.00  0.00    -0.550 OA
ATOM     16  O   UNL     1      63.321  30.852  15.013  1.00  0.00    -0.550 OA
ENDBRANCH  13  14
ENDBRANCH  12  13
ENDBRANCH  11  12
ENDBRANCH  10  11
ENDBRANCH   9  10
ENDBRANCH   8   9
ENDBRANCH   7   8
ENDBRANCH   6   7
ENDBRANCH   5   6
ENDBRANCH   4   5
ENDBRANCH   3   4
ENDBRANCH   2   3
ENDBRANCH   1   2
BRANCH   1  17
ATOM     17  C   UNL     1      65.810  33.421  15.173  1.00  0.00     0.000 C 
BRANCH  17  18
ATOM     18  C   UNL     1      65.918  33.110  13.672  1.00  0.00     0.000 C 
BRANCH  18  19
ATOM     19  C   UNL     1      64.562  33.210  12.953  1.00  0.00     0.000 C 
BRANCH  19  20
ATOM     20  C   UNL     1      64.495  32.332  11.693  1.00  0.00     0.000 C 
BRANCH  20  21
ATOM     21  C   UNL     1      65.600  32.667  10.677  1.00  0.00     0.000 C 
BRANCH  21  22
ATOM     22  C   UNL     1      65.419  31.980   9.307  1.00  0.00    -0.000 C 
BRANCH  22  23
ATOM     23  C   UNL     1      65.071  30.486   9.442  1.00  0.00    -0.000 C 
BRANCH  23  24
ATOM     24  C   UNL     1      63.675  30.150   8.880  1.00  0.00    -0.000 C 
BRANCH  24  25
ATOM     25  C   UNL     1      63.162  28.746   9.259  1.00  0.00    -0.000 C 
BRANCH  25  26
ATOM     26  C   UNL     1      61.640  28.673   9.495  1.00  0.00    -0.000 C 
BRANCH  26  27
ATOM     27  C   UNL     1      61.159  29.702  10.534  1.00  0.00    -0.000 C 
BRANCH  27  28
ATOM     28  C   UNL     1      61.763  29.472  11.929  1.00  0.00    -0.000 C 
BRANCH  28  29
ATOM     29  C   UNL     1      61.094  28.322  12.708  1.00  0.00    -0.003 C 
ATOM     30  C   UNL     1      59.569  28.364  12.614  1.00  0.00     0.004 C 
ENDBRANCH  28  29
ENDBRANCH  27  28
ENDBRANCH  26  27
ENDBRANCH  25  26
ENDBRANCH  24  25
ENDBRANCH  23  24
ENDBRANCH  22  23
ENDBRANCH  21  22
ENDBRANCH  20  21
ENDBRANCH  19  20
ENDBRANCH  18  19
ENDBRANCH  17  18
ENDBRANCH   1  17
TORSDOF 26
ENDMDL
