MODEL 1
REMARK VINA RESULT:    -3.525      0.000      0.000
REMARK INTER + INTRA:          -7.631
REMARK INTER:                  -6.616
REMARK INTRA:                  -1.015
REMARK UNBOUND:                -1.015
REMARK SMILES O=C([O-])CCCCCCCCCCCCCCC(=O)[O-]
REMARK SMILES IDX 10 1 9 2 8 3 7 4 6 5 5 6 4 7 2 8 1 9 3 10 11 11 12 12 13 13
REMARK SMILES IDX 14 14 15 15 16 16 17 17 18 18 19 19 20 20
REMARK H PARENT
REMARK Flexibility Score: inf
ROOT
ATOM      1  C   UNL     1      -6.057  34.908  22.872  1.00  0.00     0.000 C 
ENDROOT
BRANCH   1   2
ATOM      2  C   UNL     1      -5.958  35.124  24.390  1.00  0.00     0.000 C 
BRANCH   2   3
ATOM      3  C   UNL     1      -6.125  36.606  24.746  1.00  0.00     0.000 C 
BRANCH   3   4
ATOM      4  C   UNL     1      -4.959  37.100  25.611  1.00  0.00     0.000 C 
BRANCH   4   5
ATOM      5  C   UNL     1      -4.772  38.615  25.470  1.00  0.00     0.000 C 
BRANCH   5   6
ATOM      6  C   UNL     1      -5.395  39.127  24.162  1.00  0.00     0.006 C 
BRANCH   6   7
ATOM      7  C   UNL     1      -5.380  40.658  24.072  1.00  0.00     0.053 C 
BRANCH   7   8
ATOM      8  C   UNL     1      -5.717  41.136  22.692  1.00  0.00     0.041 C 
ATOM      9  O   UNL     1      -6.037  42.338  22.499  1.00  0.00    -0.550 OA
ATOM     10  O   UNL     1      -5.707  40.245  21.627  1.00  0.00    -0.550 OA
ENDBRANCH   7   8
ENDBRANCH   6   7
ENDBRANCH   5   6
ENDBRANCH   4   5
ENDBRANCH   3   4
ENDBRANCH   2   3
ENDBRANCH   1   2
BRANCH   1  11
ATOM     11  C   UNL     1      -5.993  36.224  22.074  1.00  0.00     0.000 C 
BRANCH  11  12
ATOM     12  C   UNL     1      -5.892  36.054  20.546  1.00  0.00     0.000 C 
BRANCH  12  13
ATOM     13  C   UNL     1      -4.488  36.287  19.956  1.00  0.00     0.000 C 
BRANCH  13  14
ATOM     14  C   UNL     1      -4.300  37.685  19.331  1.00  0.00     0.000 C 
BRANCH  14  15
ATOM     15  C   UNL     1      -2.828  38.121  19.294  1.00  0.00     0.000 C 
BRANCH  15  16
ATOM     16  C   UNL     1      -2.129  37.590  18.037  1.00  0.00     0.006 C 
BRANCH  16  17
ATOM     17  C   UNL     1      -2.957  37.881  16.782  1.00  0.00     0.053 C 
BRANCH  17  18
ATOM     18  C   UNL     1      -2.431  37.104  15.617  1.00  0.00     0.041 C 
ATOM     19  O   UNL     1      -3.038  37.129  14.513  1.00  0.00    -0.550 OA
ATOM     20  O   UNL     1      -1.244  36.395  15.732  1.00  0.00    -0.550 OA
ENDBRANCH  17  18
ENDBRANCH  16  17
ENDBRANCH  15  16
ENDBRANCH  14  15
ENDBRANCH  13  14
ENDBRANCH  12  13
ENDBRANCH  11  12
ENDBRANCH   1  11
TORSDOF 15
ENDMDL
MODEL 2
REMARK VINA RESULT:    -3.269      1.694      2.130
REMARK INTER + INTRA:          -7.151
REMARK INTER:                  -6.191
REMARK INTRA:                  -0.960
REMARK UNBOUND:                -1.015
REMARK SMILES O=C([O-])CCCCCCCCCCCCCCC(=O)[O-]
REMARK SMILES IDX 10 1 9 2 8 3 7 4 6 5 5 6 4 7 2 8 1 9 3 10 11 11 12 12 13 13
REMARK SMILES IDX 14 14 15 15 16 16 17 17 18 18 19 19 20 20
REMARK H PARENT
REMARK Flexibility Score: inf
ROOT
ATOM      1  C   UNL     1      -4.684  35.889  21.895  1.00  0.00     0.000 C 
ENDROOT
BRANCH   1   2
ATOM      2  C   UNL     1      -5.452  35.207  23.037  1.00  0.00     0.000 C 
BRANCH   2   3
ATOM      3  C   UNL     1      -6.123  36.244  23.944  1.00  0.00     0.000 C 
BRANCH   3   4
ATOM      4  C   UNL     1      -5.231  36.587  25.143  1.00  0.00     0.000 C 
BRANCH   4   5
ATOM      5  C   UNL     1      -5.063  38.104  25.289  1.00  0.00     0.000 C 
BRANCH   5   6
ATOM      6  C   UNL     1      -5.550  38.835  24.029  1.00  0.00     0.006 C 
BRANCH   6   7
ATOM      7  C   UNL     1      -5.269  40.342  24.088  1.00  0.00     0.053 C 
BRANCH   7   8
ATOM      8  C   UNL     1      -5.585  41.016  22.786  1.00  0.00     0.041 C 
ATOM      9  O   UNL     1      -5.824  42.251  22.754  1.00  0.00    -0.550 OA
ATOM     10  O   UNL     1      -5.644  40.271  21.615  1.00  0.00    -0.550 OA
ENDBRANCH   7   8
ENDBRANCH   6   7
ENDBRANCH   5   6
ENDBRANCH   4   5
ENDBRANCH   3   4
ENDBRANCH   2   3
ENDBRANCH   1   2
BRANCH   1  11
ATOM     11  C   UNL     1      -5.602  36.363  20.753  1.00  0.00     0.000 C 
BRANCH  11  12
ATOM     12  C   UNL     1      -5.967  35.281  19.719  1.00  0.00     0.000 C 
BRANCH  12  13
ATOM     13  C   UNL     1      -4.976  35.138  18.548  1.00  0.00     0.000 C 
BRANCH  13  14
ATOM     14  C   UNL     1      -4.156  36.415  18.268  1.00  0.00     0.000 C 
BRANCH  14  15
ATOM     15  C   UNL     1      -3.508  36.404  16.875  1.00  0.00     0.000 C 
BRANCH  15  16
ATOM     16  C   UNL     1      -2.688  37.678  16.641  1.00  0.00     0.006 C 
BRANCH  16  17
ATOM     17  C   UNL     1      -1.227  37.476  17.052  1.00  0.00     0.053 C 
BRANCH  17  18
ATOM     18  C   UNL     1      -0.982  38.047  18.413  1.00  0.00     0.041 C 
ATOM     19  O   UNL     1       0.163  37.977  18.933  1.00  0.00    -0.550 OA
ATOM     20  O   UNL     1      -2.004  38.702  19.086  1.00  0.00    -0.550 OA
ENDBRANCH  17  18
ENDBRANCH  16  17
ENDBRANCH  15  16
ENDBRANCH  14  15
ENDBRANCH  13  14
ENDBRANCH  12  13
ENDBRANCH  11  12
ENDBRANCH   1  11
TORSDOF 15
ENDMDL
MODEL 3
REMARK VINA RESULT:    -3.201      1.234      7.445
REMARK INTER + INTRA:          -7.023
REMARK INTER:                  -5.973
REMARK INTRA:                  -1.051
REMARK UNBOUND:                -1.015
REMARK SMILES O=C([O-])CCCCCCCCCCCCCCC(=O)[O-]
REMARK SMILES IDX 10 1 9 2 8 3 7 4 6 5 5 6 4 7 2 8 1 9 3 10 11 11 12 12 13 13
REMARK SMILES IDX 14 14 15 15 16 16 17 17 18 18 19 19 20 20
REMARK H PARENT
REMARK Flexibility Score: inf
ROOT
ATOM      1  C   UNL     1      -5.696  36.545  21.152  1.00  0.00     0.000 C 
ENDROOT
BRANCH   1   2
ATOM      2  C   UNL     1      -5.022  37.655  20.332  1.00  0.00     0.000 C 
BRANCH   2   3
ATOM      3  C   UNL     1      -3.751  37.139  19.648  1.00  0.00     0.000 C 
BRANCH   3   4
ATOM      4  C   UNL     1      -3.529  37.835  18.300  1.00  0.00     0.000 C 
BRANCH   4   5
ATOM      5  C   UNL     1      -3.131  36.825  17.217  1.00  0.00     0.000 C 
BRANCH   5   6
ATOM      6  C   UNL     1      -1.962  37.355  16.373  1.00  0.00     0.006 C 
BRANCH   6   7
ATOM      7  C   UNL     1      -2.185  37.138  14.871  1.00  0.00     0.053 C 
BRANCH   7   8
ATOM      8  C   UNL     1      -3.493  37.711  14.417  1.00  0.00     0.041 C 
ATOM      9  O   UNL     1      -4.360  36.968  13.887  1.00  0.00    -0.550 OA
ATOM     10  O   UNL     1      -3.740  39.071  14.552  1.00  0.00    -0.550 OA
ENDBRANCH   7   8
ENDBRANCH   6   7
ENDBRANCH   5   6
ENDBRANCH   4   5
ENDBRANCH   3   4
ENDBRANCH   2   3
ENDBRANCH   1   2
BRANCH   1  11
ATOM     11  C   UNL     1      -4.775  35.958  22.238  1.00  0.00     0.000 C 
BRANCH  11  12
ATOM     12  C   UNL     1      -5.499  35.179  23.353  1.00  0.00     0.000 C 
BRANCH  12  13
ATOM     13  C   UNL     1      -5.401  35.807  24.756  1.00  0.00     0.000 C 
BRANCH  13  14
ATOM     14  C   UNL     1      -6.125  37.164  24.882  1.00  0.00     0.000 C 
BRANCH  14  15
ATOM     15  C   UNL     1      -5.149  38.348  24.943  1.00  0.00     0.000 C 
BRANCH  15  16
ATOM     16  C   UNL     1      -5.257  39.215  23.683  1.00  0.00     0.006 C 
BRANCH  16  17
ATOM     17  C   UNL     1      -5.373  40.699  24.044  1.00  0.00     0.053 C 
BRANCH  17  18
ATOM     18  C   UNL     1      -5.801  41.495  22.852  1.00  0.00     0.041 C 
ATOM     19  O   UNL     1      -6.074  42.718  22.972  1.00  0.00    -0.550 OA
ATOM     20  O   UNL     1      -5.850  40.899  21.599  1.00  0.00    -0.550 OA
ENDBRANCH  17  18
ENDBRANCH  16  17
ENDBRANCH  15  16
ENDBRANCH  14  15
ENDBRANCH  13  14
ENDBRANCH  12  13
ENDBRANCH  11  12
ENDBRANCH   1  11
TORSDOF 15
ENDMDL
MODEL 4
REMARK VINA RESULT:    -2.891      1.151      7.365
REMARK INTER + INTRA:          -6.442
REMARK INTER:                  -5.458
REMARK INTRA:                  -0.984
REMARK UNBOUND:                -1.015
REMARK SMILES O=C([O-])CCCCCCCCCCCCCCC(=O)[O-]
REMARK SMILES IDX 10 1 9 2 8 3 7 4 6 5 5 6 4 7 2 8 1 9 3 10 11 11 12 12 13 13
REMARK SMILES IDX 14 14 15 15 16 16 17 17 18 18 19 19 20 20
REMARK H PARENT
REMARK Flexibility Score: inf
ROOT
ATOM      1  C   UNL     1      -3.672  35.865  21.220  1.00  0.00     0.000 C 
ENDROOT
BRANCH   1   2
ATOM      2  C   UNL     1      -2.809  36.879  20.453  1.00  0.00     0.000 C 
BRANCH   2   3
ATOM      3  C   UNL     1      -3.658  38.048  19.942  1.00  0.00     0.000 C 
BRANCH   3   4
ATOM      4  C   UNL     1      -3.955  37.901  18.445  1.00  0.00     0.000 C 
BRANCH   4   5
ATOM      5  C   UNL     1      -3.166  36.735  17.839  1.00  0.00     0.000 C 
BRANCH   5   6
ATOM      6  C   UNL     1      -2.164  37.236  16.788  1.00  0.00     0.006 C 
BRANCH   6   7
ATOM      7  C   UNL     1      -2.780  38.283  15.851  1.00  0.00     0.053 C 
BRANCH   7   8
ATOM      8  C   UNL     1      -3.369  37.652  14.625  1.00  0.00     0.041 C 
ATOM      9  O   UNL     1      -2.954  36.532  14.228  1.00  0.00    -0.550 OA
ATOM     10  O   UNL     1      -4.353  38.318  13.906  1.00  0.00    -0.550 OA
ENDBRANCH   7   8
ENDBRANCH   6   7
ENDBRANCH   5   6
ENDBRANCH   4   5
ENDBRANCH   3   4
ENDBRANCH   2   3
ENDBRANCH   1   2
BRANCH   1  11
ATOM     11  C   UNL     1      -5.172  35.986  20.893  1.00  0.00     0.000 C 
BRANCH  11  12
ATOM     12  C   UNL     1      -6.118  35.793  22.093  1.00  0.00     0.000 C 
BRANCH  12  13
ATOM     13  C   UNL     1      -5.418  35.503  23.435  1.00  0.00     0.000 C 
BRANCH  13  14
ATOM     14  C   UNL     1      -6.035  36.255  24.633  1.00  0.00     0.000 C 
BRANCH  14  15
ATOM     15  C   UNL     1      -5.007  37.121  25.376  1.00  0.00     0.000 C 
BRANCH  15  16
ATOM     16  C   UNL     1      -5.272  38.613  25.139  1.00  0.00     0.006 C 
BRANCH  16  17
ATOM     17  C   UNL     1      -5.423  38.915  23.646  1.00  0.00     0.053 C 
BRANCH  17  18
ATOM     18  C   UNL     1      -5.505  40.391  23.416  1.00  0.00     0.041 C 
ATOM     19  O   UNL     1      -5.476  41.186  24.392  1.00  0.00    -0.550 OA
ATOM     20  O   UNL     1      -5.559  40.891  22.122  1.00  0.00    -0.550 OA
ENDBRANCH  17  18
ENDBRANCH  16  17
ENDBRANCH  15  16
ENDBRANCH  14  15
ENDBRANCH  13  14
ENDBRANCH  12  13
ENDBRANCH  11  12
ENDBRANCH   1  11
TORSDOF 15
ENDMDL
MODEL 5
REMARK VINA RESULT:    -2.657      1.758      6.936
REMARK INTER + INTRA:          -6.002
REMARK INTER:                  -5.349
REMARK INTRA:                  -0.653
REMARK UNBOUND:                -1.015
REMARK SMILES O=C([O-])CCCCCCCCCCCCCCC(=O)[O-]
REMARK SMILES IDX 10 1 9 2 8 3 7 4 6 5 5 6 4 7 2 8 1 9 3 10 11 11 12 12 13 13
REMARK SMILES IDX 14 14 15 15 16 16 17 17 18 18 19 19 20 20
REMARK H PARENT
REMARK Flexibility Score: inf
ROOT
ATOM      1  C   UNL     1      -4.781  36.202  20.506  1.00  0.00     0.000 C 
ENDROOT
BRANCH   1   2
ATOM      2  C   UNL     1      -5.594  35.334  19.534  1.00  0.00     0.000 C 
BRANCH   2   3
ATOM      3  C   UNL     1      -4.886  35.215  18.180  1.00  0.00     0.000 C 
BRANCH   3   4
ATOM      4  C   UNL     1      -3.941  36.399  17.946  1.00  0.00     0.000 C 
BRANCH   4   5
ATOM      5  C   UNL     1      -3.212  36.265  16.604  1.00  0.00     0.000 C 
BRANCH   5   6
ATOM      6  C   UNL     1      -1.801  36.869  16.682  1.00  0.00     0.006 C 
BRANCH   6   7
ATOM      7  C   UNL     1      -1.795  38.241  17.369  1.00  0.00     0.053 C 
BRANCH   7   8
ATOM      8  C   UNL     1      -1.226  38.165  18.754  1.00  0.00     0.041 C 
ATOM      9  O   UNL     1       0.011  38.002  18.922  1.00  0.00    -0.550 OA
ATOM     10  O   UNL     1      -2.067  38.243  19.856  1.00  0.00    -0.550 OA
ENDBRANCH   7   8
ENDBRANCH   6   7
ENDBRANCH   5   6
ENDBRANCH   4   5
ENDBRANCH   3   4
ENDBRANCH   2   3
ENDBRANCH   1   2
BRANCH   1  11
ATOM     11  C   UNL     1      -4.772  35.646  21.943  1.00  0.00     0.000 C 
BRANCH  11  12
ATOM     12  C   UNL     1      -6.037  35.950  22.766  1.00  0.00     0.000 C 
BRANCH  12  13
ATOM     13  C   UNL     1      -5.922  35.654  24.274  1.00  0.00     0.000 C 
BRANCH  13  14
ATOM     14  C   UNL     1      -5.184  36.752  25.068  1.00  0.00     0.000 C 
BRANCH  14  15
ATOM     15  C   UNL     1      -5.835  38.134  24.904  1.00  0.00     0.000 C 
BRANCH  15  16
ATOM     16  C   UNL     1      -5.026  39.011  23.941  1.00  0.00     0.006 C 
BRANCH  16  17
ATOM     17  C   UNL     1      -5.410  40.487  24.086  1.00  0.00     0.053 C 
BRANCH  17  18
ATOM     18  C   UNL     1      -5.817  41.054  22.763  1.00  0.00     0.041 C 
ATOM     19  O   UNL     1      -6.124  42.271  22.663  1.00  0.00    -0.550 OA
ATOM     20  O   UNL     1      -5.807  40.252  21.630  1.00  0.00    -0.550 OA
ENDBRANCH  17  18
ENDBRANCH  16  17
ENDBRANCH  15  16
ENDBRANCH  14  15
ENDBRANCH  13  14
ENDBRANCH  12  13
ENDBRANCH  11  12
ENDBRANCH   1  11
TORSDOF 15
ENDMDL
MODEL 6
REMARK VINA RESULT:    -2.291      2.215      3.494
REMARK INTER + INTRA:          -5.315
REMARK INTER:                  -5.247
REMARK INTRA:                  -0.068
REMARK UNBOUND:                -1.015
REMARK SMILES O=C([O-])CCCCCCCCCCCCCCC(=O)[O-]
REMARK SMILES IDX 10 1 9 2 8 3 7 4 6 5 5 6 4 7 2 8 1 9 3 10 11 11 12 12 13 13
REMARK SMILES IDX 14 14 15 15 16 16 17 17 18 18 19 19 20 20
REMARK H PARENT
REMARK Flexibility Score: inf
ROOT
ATOM      1  C   UNL     1      -2.858  36.223  20.815  1.00  0.00     0.000 C 
ENDROOT
BRANCH   1   2
ATOM      2  C   UNL     1      -4.333  36.163  21.239  1.00  0.00     0.000 C 
BRANCH   2   3
ATOM      3  C   UNL     1      -5.252  36.604  20.094  1.00  0.00     0.000 C 
BRANCH   3   4
ATOM      4  C   UNL     1      -5.356  38.132  20.028  1.00  0.00     0.000 C 
BRANCH   4   5
ATOM      5  C   UNL     1      -5.506  38.735  21.430  1.00  0.00     0.000 C 
BRANCH   5   6
ATOM      6  C   UNL     1      -6.121  40.141  21.361  1.00  0.00     0.006 C 
BRANCH   6   7
ATOM      7  C   UNL     1      -5.341  41.158  22.204  1.00  0.00     0.053 C 
BRANCH   7   8
ATOM      8  C   UNL     1      -5.522  40.916  23.672  1.00  0.00     0.041 C 
ATOM      9  O   UNL     1      -5.788  41.874  24.444  1.00  0.00    -0.550 OA
ATOM     10  O   UNL     1      -5.365  39.636  24.189  1.00  0.00    -0.550 OA
ENDBRANCH   7   8
ENDBRANCH   6   7
ENDBRANCH   5   6
ENDBRANCH   4   5
ENDBRANCH   3   4
ENDBRANCH   2   3
ENDBRANCH   1   2
BRANCH   1  11
ATOM     11  C   UNL     1      -2.540  37.436  19.921  1.00  0.00     0.000 C 
BRANCH  11  12
ATOM     12  C   UNL     1      -1.110  37.992  20.064  1.00  0.00     0.000 C 
BRANCH  12  13
ATOM     13  C   UNL     1      -0.268  37.964  18.774  1.00  0.00     0.000 C 
BRANCH  13  14
ATOM     14  C   UNL     1      -1.085  38.224  17.491  1.00  0.00     0.000 C 
BRANCH  14  15
ATOM     15  C   UNL     1      -1.101  37.012  16.549  1.00  0.00     0.000 C 
BRANCH  15  16
ATOM     16  C   UNL     1      -2.499  36.386  16.482  1.00  0.00     0.006 C 
BRANCH  16  17
ATOM     17  C   UNL     1      -3.556  37.436  16.128  1.00  0.00     0.053 C 
BRANCH  17  18
ATOM     18  C   UNL     1      -3.420  37.854  14.698  1.00  0.00     0.041 C 
ATOM     19  O   UNL     1      -2.786  37.132  13.884  1.00  0.00    -0.550 OA
ATOM     20  O   UNL     1      -4.037  39.015  14.251  1.00  0.00    -0.550 OA
ENDBRANCH  17  18
ENDBRANCH  16  17
ENDBRANCH  15  16
ENDBRANCH  14  15
ENDBRANCH  13  14
ENDBRANCH  12  13
ENDBRANCH  11  12
ENDBRANCH   1  11
TORSDOF 15
ENDMDL
MODEL 7
REMARK VINA RESULT:    -2.290      2.575      7.456
REMARK INTER + INTRA:          -5.313
REMARK INTER:                  -4.312
REMARK INTRA:                  -1.002
REMARK UNBOUND:                -1.015
REMARK SMILES O=C([O-])CCCCCCCCCCCCCCC(=O)[O-]
REMARK SMILES IDX 10 1 9 2 8 3 7 4 6 5 5 6 4 7 2 8 1 9 3 10 11 11 12 12 13 13
REMARK SMILES IDX 14 14 15 15 16 16 17 17 18 18 19 19 20 20
REMARK H PARENT
REMARK Flexibility Score: inf
ROOT
ATOM      1  C   UNL     1      -4.341  36.004  18.195  1.00  0.00     0.000 C 
ENDROOT
BRANCH   1   2
ATOM      2  C   UNL     1      -3.607  35.572  16.917  1.00  0.00     0.000 C 
BRANCH   2   3
ATOM      3  C   UNL     1      -3.257  36.785  16.047  1.00  0.00     0.000 C 
BRANCH   3   4
ATOM      4  C   UNL     1      -1.774  36.775  15.659  1.00  0.00     0.000 C 
BRANCH   4   5
ATOM      5  C   UNL     1      -0.888  37.136  16.857  1.00  0.00     0.000 C 
BRANCH   5   6
ATOM      6  C   UNL     1      -1.500  38.290  17.665  1.00  0.00     0.006 C 
BRANCH   6   7
ATOM      7  C   UNL     1      -0.994  38.316  19.113  1.00  0.00     0.053 C 
BRANCH   7   8
ATOM      8  C   UNL     1      -2.036  37.825  20.073  1.00  0.00     0.041 C 
ATOM      9  O   UNL     1      -1.835  36.781  20.747  1.00  0.00    -0.550 OA
ATOM     10  O   UNL     1      -3.240  38.506  20.199  1.00  0.00    -0.550 OA
ENDBRANCH   7   8
ENDBRANCH   6   7
ENDBRANCH   5   6
ENDBRANCH   4   5
ENDBRANCH   3   4
ENDBRANCH   2   3
ENDBRANCH   1   2
BRANCH   1  11
ATOM     11  C   UNL     1      -5.695  35.293  18.380  1.00  0.00     0.000 C 
BRANCH  11  12
ATOM     12  C   UNL     1      -6.071  34.978  19.840  1.00  0.00     0.000 C 
BRANCH  12  13
ATOM     13  C   UNL     1      -5.689  36.067  20.861  1.00  0.00     0.000 C 
BRANCH  13  14
ATOM     14  C   UNL     1      -4.651  35.604  21.904  1.00  0.00     0.000 C 
BRANCH  14  15
ATOM     15  C   UNL     1      -5.296  35.204  23.239  1.00  0.00     0.000 C 
BRANCH  15  16
ATOM     16  C   UNL     1      -6.125  36.357  23.817  1.00  0.00     0.006 C 
BRANCH  16  17
ATOM     17  C   UNL     1      -5.747  36.631  25.275  1.00  0.00     0.053 C 
BRANCH  17  18
ATOM     18  C   UNL     1      -5.090  37.968  25.404  1.00  0.00     0.041 C 
ATOM     19  O   UNL     1      -4.236  38.171  26.307  1.00  0.00    -0.550 OA
ATOM     20  O   UNL     1      -5.381  38.977  24.494  1.00  0.00    -0.550 OA
ENDBRANCH  17  18
ENDBRANCH  16  17
ENDBRANCH  15  16
ENDBRANCH  14  15
ENDBRANCH  13  14
ENDBRANCH  12  13
ENDBRANCH  11  12
ENDBRANCH   1  11
TORSDOF 15
ENDMDL
MODEL 8
REMARK VINA RESULT:    -2.221      2.091      7.037
REMARK INTER + INTRA:          -5.184
REMARK INTER:                  -4.006
REMARK INTRA:                  -1.179
REMARK UNBOUND:                -1.015
REMARK SMILES O=C([O-])CCCCCCCCCCCCCCC(=O)[O-]
REMARK SMILES IDX 10 1 9 2 8 3 7 4 6 5 5 6 4 7 2 8 1 9 3 10 11 11 12 12 13 13
REMARK SMILES IDX 14 14 15 15 16 16 17 17 18 18 19 19 20 20
REMARK H PARENT
REMARK Flexibility Score: inf
ROOT
ATOM      1  C   UNL     1      -4.882  39.905  21.334  1.00  0.00     0.000 C 
ENDROOT
BRANCH   1   2
ATOM      2  C   UNL     1      -5.752  38.874  20.599  1.00  0.00     0.000 C 
BRANCH   2   3
ATOM      3  C   UNL     1      -4.926  38.092  19.572  1.00  0.00     0.000 C 
BRANCH   3   4
ATOM      4  C   UNL     1      -3.424  38.295  19.802  1.00  0.00     0.000 C 
BRANCH   4   5
ATOM      5  C   UNL     1      -2.613  37.850  18.579  1.00  0.00     0.000 C 
BRANCH   5   6
ATOM      6  C   UNL     1      -3.474  37.005  17.627  1.00  0.00     0.006 C 
BRANCH   6   7
ATOM      7  C   UNL     1      -2.640  36.348  16.520  1.00  0.00     0.053 C 
BRANCH   7   8
ATOM      8  C   UNL     1      -2.649  37.162  15.261  1.00  0.00     0.041 C 
ATOM      9  O   UNL     1      -1.766  36.980  14.383  1.00  0.00    -0.550 OA
ATOM     10  O   UNL     1      -3.615  38.142  15.075  1.00  0.00    -0.550 OA
ENDBRANCH   7   8
ENDBRANCH   6   7
ENDBRANCH   5   6
ENDBRANCH   4   5
ENDBRANCH   3   4
ENDBRANCH   2   3
ENDBRANCH   1   2
BRANCH   1  11
ATOM     11  C   UNL     1      -5.688  40.782  22.311  1.00  0.00     0.000 C 
BRANCH  11  12
ATOM     12  C   UNL     1      -5.365  40.562  23.800  1.00  0.00     0.000 C 
BRANCH  12  13
ATOM     13  C   UNL     1      -4.807  39.169  24.149  1.00  0.00     0.000 C 
BRANCH  13  14
ATOM     14  C   UNL     1      -5.243  38.654  25.536  1.00  0.00     0.000 C 
BRANCH  14  15
ATOM     15  C   UNL     1      -5.505  37.140  25.546  1.00  0.00     0.000 C 
BRANCH  15  16
ATOM     16  C   UNL     1      -6.057  36.670  24.195  1.00  0.00     0.006 C 
BRANCH  16  17
ATOM     17  C   UNL     1      -5.279  35.458  23.674  1.00  0.00     0.053 C 
BRANCH  17  18
ATOM     18  C   UNL     1      -5.115  35.541  22.189  1.00  0.00     0.041 C 
ATOM     19  O   UNL     1      -6.125  35.659  21.446  1.00  0.00    -0.550 OA
ATOM     20  O   UNL     1      -3.845  35.540  21.628  1.00  0.00    -0.550 OA
ENDBRANCH  17  18
ENDBRANCH  16  17
ENDBRANCH  15  16
ENDBRANCH  14  15
ENDBRANCH  13  14
ENDBRANCH  12  13
ENDBRANCH  11  12
ENDBRANCH   1  11
TORSDOF 15
ENDMDL
