MODEL 1
REMARK VINA RESULT:    -3.473      0.000      0.000
REMARK INTER + INTRA:          -4.123
REMARK INTER:                  -4.083
REMARK INTRA:                  -0.041
REMARK UNBOUND:                -0.041
REMARK SMILES O=C([O-])CCC(=O)[O-]
REMARK SMILES IDX 4 1 2 2 1 3 3 4 5 5 6 6 7 7 8 8
REMARK H PARENT
REMARK Flexibility Score: inf
ROOT
ATOM      1  C   UNL     1     168.108 177.309  74.582  1.00  0.00     0.059 C 
ENDROOT
BRANCH   1   2
ATOM      2  C   UNL     1     169.263 176.701  73.846  1.00  0.00     0.042 C 
ATOM      3  O   UNL     1     169.860 175.699  74.320  1.00  0.00    -0.550 OA
ATOM      4  O   UNL     1     169.653 177.218  72.617  1.00  0.00    -0.550 OA
ENDBRANCH   1   2
BRANCH   1   5
ATOM      5  C   UNL     1     167.212 176.237  75.210  1.00  0.00     0.059 C 
BRANCH   5   6
ATOM      6  C   UNL     1     165.762 176.507  74.950  1.00  0.00     0.042 C 
ATOM      7  O   UNL     1     165.060 177.090  75.818  1.00  0.00    -0.550 OA
ATOM      8  O   UNL     1     165.196 176.152  73.733  1.00  0.00    -0.550 OA
ENDBRANCH   5   6
ENDBRANCH   1   5
TORSDOF 3
ENDMDL
MODEL 2
REMARK VINA RESULT:    -3.430      0.254      4.082
REMARK INTER + INTRA:          -4.073
REMARK INTER:                  -4.045
REMARK INTRA:                  -0.028
REMARK UNBOUND:                -0.041
REMARK SMILES O=C([O-])CCC(=O)[O-]
REMARK SMILES IDX 4 1 2 2 1 3 3 4 5 5 6 6 7 7 8 8
REMARK H PARENT
REMARK Flexibility Score: inf
ROOT
ATOM      1  C   UNL     1     167.010 176.069  74.964  1.00  0.00     0.059 C 
ENDROOT
BRANCH   1   2
ATOM      2  C   UNL     1     165.612 176.597  74.857  1.00  0.00     0.042 C 
ATOM      3  O   UNL     1     165.170 177.402  75.717  1.00  0.00    -0.550 OA
ATOM      4  O   UNL     1     164.811 176.229  73.784  1.00  0.00    -0.550 OA
ENDBRANCH   1   2
BRANCH   1   5
ATOM      5  C   UNL     1     168.048 177.163  74.691  1.00  0.00     0.059 C 
BRANCH   5   6
ATOM      6  C   UNL     1     169.219 176.633  73.923  1.00  0.00     0.042 C 
ATOM      7  O   UNL     1     169.877 175.655  74.366  1.00  0.00    -0.550 OA
ATOM      8  O   UNL     1     169.560 177.192  72.699  1.00  0.00    -0.550 OA
ENDBRANCH   5   6
ENDBRANCH   1   5
TORSDOF 3
ENDMDL
MODEL 3
REMARK VINA RESULT:    -3.407      0.124      1.151
REMARK INTER + INTRA:          -4.045
REMARK INTER:                  -4.001
REMARK INTRA:                  -0.044
REMARK UNBOUND:                -0.041
REMARK SMILES O=C([O-])CCC(=O)[O-]
REMARK SMILES IDX 4 1 2 2 1 3 3 4 5 5 6 6 7 7 8 8
REMARK H PARENT
REMARK Flexibility Score: inf
ROOT
ATOM      1  C   UNL     1     168.043 177.288  74.582  1.00  0.00     0.059 C 
ENDROOT
BRANCH   1   2
ATOM      2  C   UNL     1     169.192 176.653  73.860  1.00  0.00     0.042 C 
ATOM      3  O   UNL     1     169.594 177.128  72.766  1.00  0.00    -0.550 OA
ATOM      4  O   UNL     1     169.844 175.560  74.417  1.00  0.00    -0.550 OA
ENDBRANCH   1   2
BRANCH   1   5
ATOM      5  C   UNL     1     167.156 176.240  75.263  1.00  0.00     0.059 C 
BRANCH   5   6
ATOM      6  C   UNL     1     165.706 176.466  74.965  1.00  0.00     0.042 C 
ATOM      7  O   UNL     1     164.945 176.947  75.845  1.00  0.00    -0.550 OA
ATOM      8  O   UNL     1     165.204 176.184  73.701  1.00  0.00    -0.550 OA
ENDBRANCH   5   6
ENDBRANCH   1   5
TORSDOF 3
ENDMDL
MODEL 4
REMARK VINA RESULT:    -3.263      1.297      1.630
REMARK INTER + INTRA:          -3.876
REMARK INTER:                  -3.754
REMARK INTRA:                  -0.122
REMARK UNBOUND:                -0.041
REMARK SMILES O=C([O-])CCC(=O)[O-]
REMARK SMILES IDX 4 1 2 2 1 3 3 4 5 5 6 6 7 7 8 8
REMARK H PARENT
REMARK Flexibility Score: inf
ROOT
ATOM      1  C   UNL     1     168.907 176.340  74.241  1.00  0.00     0.059 C 
ENDROOT
BRANCH   1   2
ATOM      2  C   UNL     1     168.992 176.570  72.763  1.00  0.00     0.042 C 
ATOM      3  O   UNL     1     169.806 177.409  72.297  1.00  0.00    -0.550 OA
ATOM      4  O   UNL     1     168.201 175.826  71.898  1.00  0.00    -0.550 OA
ENDBRANCH   1   2
BRANCH   1   5
ATOM      5  C   UNL     1     167.834 177.222  74.888  1.00  0.00     0.059 C 
BRANCH   5   6
ATOM      6  C   UNL     1     166.578 176.452  75.159  1.00  0.00     0.042 C 
ATOM      7  O   UNL     1     165.555 177.042  75.597  1.00  0.00    -0.550 OA
ATOM      8  O   UNL     1     166.525 175.091  74.891  1.00  0.00    -0.550 OA
ENDBRANCH   5   6
ENDBRANCH   1   5
TORSDOF 3
ENDMDL
MODEL 5
REMARK VINA RESULT:    -3.222      1.253      3.865
REMARK INTER + INTRA:          -3.827
REMARK INTER:                  -3.711
REMARK INTRA:                  -0.116
REMARK UNBOUND:                -0.041
REMARK SMILES O=C([O-])CCC(=O)[O-]
REMARK SMILES IDX 4 1 2 2 1 3 3 4 5 5 6 6 7 7 8 8
REMARK H PARENT
REMARK Flexibility Score: inf
ROOT
ATOM      1  C   UNL     1     167.703 177.187  75.012  1.00  0.00     0.059 C 
ENDROOT
BRANCH   1   2
ATOM      2  C   UNL     1     166.374 176.537  75.247  1.00  0.00     0.042 C 
ATOM      3  O   UNL     1     166.225 175.305  75.040  1.00  0.00    -0.550 OA
ATOM      4  O   UNL     1     165.311 177.286  75.736  1.00  0.00    -0.550 OA
ENDBRANCH   1   2
BRANCH   1   5
ATOM      5  C   UNL     1     168.711 176.206  74.405  1.00  0.00     0.059 C 
BRANCH   5   6
ATOM      6  C   UNL     1     168.890 176.437  72.936  1.00  0.00     0.042 C 
ATOM      7  O   UNL     1     168.248 175.745  72.102  1.00  0.00    -0.550 OA
ATOM      8  O   UNL     1     169.734 177.445  72.488  1.00  0.00    -0.550 OA
ENDBRANCH   5   6
ENDBRANCH   1   5
TORSDOF 3
ENDMDL
MODEL 6
REMARK VINA RESULT:    -2.982      2.156      2.836
REMARK INTER + INTRA:          -3.546
REMARK INTER:                  -3.429
REMARK INTRA:                  -0.117
REMARK UNBOUND:                -0.041
REMARK SMILES O=C([O-])CCC(=O)[O-]
REMARK SMILES IDX 4 1 2 2 1 3 3 4 5 5 6 6 7 7 8 8
REMARK H PARENT
REMARK Flexibility Score: inf
ROOT
ATOM      1  C   UNL     1     165.724 176.338  74.412  1.00  0.00     0.059 C 
ENDROOT
BRANCH   1   2
ATOM      2  C   UNL     1     167.044 176.389  75.119  1.00  0.00     0.042 C 
ATOM      3  O   UNL     1     167.326 175.537  76.001  1.00  0.00    -0.550 OA
ATOM      4  O   UNL     1     167.980 177.356  74.773  1.00  0.00    -0.550 OA
ENDBRANCH   1   2
BRANCH   1   5
ATOM      5  C   UNL     1     164.630 177.057  75.208  1.00  0.00     0.059 C 
BRANCH   5   6
ATOM      6  C   UNL     1     163.785 176.091  75.981  1.00  0.00     0.042 C 
ATOM      7  O   UNL     1     163.963 174.851  75.854  1.00  0.00    -0.550 OA
ATOM      8  O   UNL     1     162.830 176.561  76.872  1.00  0.00    -0.550 OA
ENDBRANCH   5   6
ENDBRANCH   1   5
TORSDOF 3
ENDMDL
MODEL 7
REMARK VINA RESULT:    -2.931      2.242      4.968
REMARK INTER + INTRA:          -3.486
REMARK INTER:                  -3.373
REMARK INTRA:                  -0.113
REMARK UNBOUND:                -0.041
REMARK SMILES O=C([O-])CCC(=O)[O-]
REMARK SMILES IDX 4 1 2 2 1 3 3 4 5 5 6 6 7 7 8 8
REMARK H PARENT
REMARK Flexibility Score: inf
ROOT
ATOM      1  C   UNL     1     164.018 176.729  74.860  1.00  0.00     0.059 C 
ENDROOT
BRANCH   1   2
ATOM      2  C   UNL     1     163.139 175.912  75.758  1.00  0.00     0.042 C 
ATOM      3  O   UNL     1     163.626 174.974  76.440  1.00  0.00    -0.550 OA
ATOM      4  O   UNL     1     161.788 176.216  75.870  1.00  0.00    -0.550 OA
ENDBRANCH   1   2
BRANCH   1   5
ATOM      5  C   UNL     1     165.323 177.124  75.558  1.00  0.00     0.059 C 
BRANCH   5   6
ATOM      6  C   UNL     1     166.520 176.593  74.831  1.00  0.00     0.042 C 
ATOM      7  O   UNL     1     166.422 175.561  74.117  1.00  0.00    -0.550 OA
ATOM      8  O   UNL     1     167.735 177.262  74.909  1.00  0.00    -0.550 OA
ENDBRANCH   5   6
ENDBRANCH   1   5
TORSDOF 3
ENDMDL
MODEL 8
REMARK VINA RESULT:    -2.930      2.253      4.821
REMARK INTER + INTRA:          -3.484
REMARK INTER:                  -3.375
REMARK INTRA:                  -0.109
REMARK UNBOUND:                -0.041
REMARK SMILES O=C([O-])CCC(=O)[O-]
REMARK SMILES IDX 4 1 2 2 1 3 3 4 5 5 6 6 7 7 8 8
REMARK H PARENT
REMARK Flexibility Score: inf
ROOT
ATOM      1  C   UNL     1     164.635 177.051  75.598  1.00  0.00     0.059 C 
ENDROOT
BRANCH   1   2
ATOM      2  C   UNL     1     163.578 176.071  76.007  1.00  0.00     0.042 C 
ATOM      3  O   UNL     1     162.364 176.314  75.778  1.00  0.00    -0.550 OA
ATOM      4  O   UNL     1     163.938 174.869  76.604  1.00  0.00    -0.550 OA
ENDBRANCH   1   2
BRANCH   1   5
ATOM      5  C   UNL     1     165.614 176.437  74.592  1.00  0.00     0.059 C 
BRANCH   5   6
ATOM      6  C   UNL     1     167.013 176.415  75.128  1.00  0.00     0.042 C 
ATOM      7  O   UNL     1     167.391 175.477  75.877  1.00  0.00    -0.550 OA
ATOM      8  O   UNL     1     167.912 177.410  74.766  1.00  0.00    -0.550 OA
ENDBRANCH   5   6
ENDBRANCH   1   5
TORSDOF 3
ENDMDL
MODEL 9
REMARK VINA RESULT:    -2.894      1.961      2.411
REMARK INTER + INTRA:          -3.443
REMARK INTER:                  -3.326
REMARK INTRA:                  -0.117
REMARK UNBOUND:                -0.041
REMARK SMILES O=C([O-])CCC(=O)[O-]
REMARK SMILES IDX 4 1 2 2 1 3 3 4 5 5 6 6 7 7 8 8
REMARK H PARENT
REMARK Flexibility Score: inf
ROOT
ATOM      1  C   UNL     1     167.900 175.518  73.299  1.00  0.00     0.059 C 
ENDROOT
BRANCH   1   2
ATOM      2  C   UNL     1     168.562 176.811  73.667  1.00  0.00     0.042 C 
ATOM      3  O   UNL     1     168.131 177.491  74.635  1.00  0.00    -0.550 OA
ATOM      4  O   UNL     1     169.679 177.244  72.965  1.00  0.00    -0.550 OA
ENDBRANCH   1   2
BRANCH   1   5
ATOM      5  C   UNL     1     166.852 175.714  72.199  1.00  0.00     0.059 C 
BRANCH   5   6
ATOM      6  C   UNL     1     165.461 175.522  72.723  1.00  0.00     0.042 C 
ATOM      7  O   UNL     1     164.694 174.678  72.189  1.00  0.00    -0.550 OA
ATOM      8  O   UNL     1     165.027 176.246  73.825  1.00  0.00    -0.550 OA
ENDBRANCH   5   6
ENDBRANCH   1   5
TORSDOF 3
ENDMDL
