MODEL 1
REMARK VINA RESULT:    -4.633      0.000      0.000
REMARK INTER + INTRA:          -7.193
REMARK INTER:                  -6.664
REMARK INTRA:                  -0.530
REMARK UNBOUND:                -0.530
REMARK SMILES O=C(CO)[C@H](O)[C@@H](O)[C@@H](O)CO
REMARK SMILES IDX 7 1 9 2 11 3 12 4 10 6 5 8 2 9 1 10 3 11 4 12 6 14 8 16
REMARK H PARENT 12 5 10 7 4 13 6 15 8 17
REMARK Flexibility Score: inf
ROOT
ATOM      1  C   UNL     1      74.474 -37.654  10.324  1.00  0.00     0.181 C 
ENDROOT
BRANCH   1   2
ATOM      2  C   UNL     1      75.172 -37.455  11.703  1.00  0.00     0.171 C 
BRANCH   2   3
ATOM      3  C   UNL     1      76.677 -37.164  11.559  1.00  0.00     0.190 C 
BRANCH   3   4
ATOM      4  O   UNL     1      77.410 -38.357  11.500  1.00  0.00    -0.394 OA
ATOM      5  H   UNL     1      76.938 -38.939  10.849  1.00  0.00     0.210 HD
ENDBRANCH   3   4
ENDBRANCH   2   3
BRANCH   2   6
ATOM      6  O   UNL     1      74.970 -38.562  12.546  1.00  0.00    -0.388 OA
ATOM      7  H   UNL     1      73.995 -38.636  12.720  1.00  0.00     0.211 HD
ENDBRANCH   2   6
ENDBRANCH   1   2
BRANCH   1   8
ATOM      8  C   UNL     1      73.095 -36.948  10.206  1.00  0.00     0.214 C 
BRANCH   8   9
ATOM      9  C   UNL     1      71.964 -37.749  10.821  1.00  0.00     0.189 C 
ATOM     10  O   UNL     1      72.174 -38.374  11.851  1.00  0.00    -0.294 OA
BRANCH   9  11
ATOM     11  C   UNL     1      70.572 -37.766  10.241  1.00  0.00     0.234 C 
BRANCH  11  12
ATOM     12  O   UNL     1      70.536 -38.559   9.086  1.00  0.00    -0.388 OA
ATOM     13  H   UNL     1      70.205 -37.981   8.351  1.00  0.00     0.211 HD
ENDBRANCH  11  12
ENDBRANCH   9  11
ENDBRANCH   8   9
BRANCH   8  14
ATOM     14  O   UNL     1      72.810 -36.647   8.863  1.00  0.00    -0.382 OA
ATOM     15  H   UNL     1      72.940 -37.482   8.342  1.00  0.00     0.211 HD
ENDBRANCH   8  14
ENDBRANCH   1   8
BRANCH   1  16
ATOM     16  O   UNL     1      75.315 -37.260   9.265  1.00  0.00    -0.387 OA
ATOM     17  H   UNL     1      76.250 -37.274   9.597  1.00  0.00     0.211 HD
ENDBRANCH   1  16
TORSDOF 10
ENDMDL
MODEL 2
REMARK VINA RESULT:    -4.607      1.082      4.721
REMARK INTER + INTRA:          -7.157
REMARK INTER:                  -6.784
REMARK INTRA:                  -0.372
REMARK UNBOUND:                -0.530
REMARK SMILES O=C(CO)[C@H](O)[C@@H](O)[C@@H](O)CO
REMARK SMILES IDX 7 1 9 2 11 3 12 4 10 6 5 8 2 9 1 10 3 11 4 12 6 14 8 16
REMARK H PARENT 12 5 10 7 4 13 6 15 8 17
REMARK Flexibility Score: inf
ROOT
ATOM      1  C   UNL     1      73.659 -37.166  10.738  1.00  0.00     0.181 C 
ENDROOT
BRANCH   1   2
ATOM      2  C   UNL     1      72.331 -37.891  11.109  1.00  0.00     0.171 C 
BRANCH   2   3
ATOM      3  C   UNL     1      71.160 -37.466  10.206  1.00  0.00     0.190 C 
BRANCH   3   4
ATOM      4  O   UNL     1      71.575 -36.507   9.271  1.00  0.00    -0.394 OA
ATOM      5  H   UNL     1      72.447 -36.825   8.919  1.00  0.00     0.210 HD
ENDBRANCH   3   4
ENDBRANCH   2   3
BRANCH   2   6
ATOM      6  O   UNL     1      71.997 -37.695  12.461  1.00  0.00    -0.388 OA
ATOM      7  H   UNL     1      71.008 -37.620  12.520  1.00  0.00     0.211 HD
ENDBRANCH   2   6
ENDBRANCH   1   2
BRANCH   1   8
ATOM      8  C   UNL     1      74.782 -37.319  11.799  1.00  0.00     0.214 C 
BRANCH   8   9
ATOM      9  C   UNL     1      76.161 -37.001  11.252  1.00  0.00     0.189 C 
ATOM     10  O   UNL     1      76.286 -36.073  10.467  1.00  0.00    -0.294 OA
BRANCH   9  11
ATOM     11  C   UNL     1      77.397 -37.754  11.680  1.00  0.00     0.234 C 
BRANCH  11  12
ATOM     12  O   UNL     1      77.067 -38.727  12.633  1.00  0.00    -0.388 OA
ATOM     13  H   UNL     1      77.815 -38.756  13.284  1.00  0.00     0.211 HD
ENDBRANCH  11  12
ENDBRANCH   9  11
ENDBRANCH   8   9
BRANCH   8  14
ATOM     14  O   UNL     1      74.760 -38.609  12.357  1.00  0.00    -0.382 OA
ATOM     15  H   UNL     1      75.186 -39.219  11.699  1.00  0.00     0.211 HD
ENDBRANCH   8  14
ENDBRANCH   1   8
BRANCH   1  16
ATOM     16  O   UNL     1      74.124 -37.571   9.472  1.00  0.00    -0.387 OA
ATOM     17  H   UNL     1      74.229 -36.760   8.910  1.00  0.00     0.211 HD
ENDBRANCH   1  16
TORSDOF 10
ENDMDL
MODEL 3
REMARK VINA RESULT:    -4.555     10.466     11.280
REMARK INTER + INTRA:          -7.082
REMARK INTER:                  -6.211
REMARK INTRA:                  -0.871
REMARK UNBOUND:                -0.530
REMARK SMILES O=C(CO)[C@H](O)[C@@H](O)[C@@H](O)CO
REMARK SMILES IDX 7 1 9 2 11 3 12 4 10 6 5 8 2 9 1 10 3 11 4 12 6 14 8 16
REMARK H PARENT 12 5 10 7 4 13 6 15 8 17
REMARK Flexibility Score: inf
ROOT
ATOM      1  C   UNL     1      73.039 -29.381  18.301  1.00  0.00     0.181 C 
ENDROOT
BRANCH   1   2
ATOM      2  C   UNL     1      72.039 -28.414  17.600  1.00  0.00     0.171 C 
BRANCH   2   3
ATOM      3  C   UNL     1      72.467 -28.071  16.162  1.00  0.00     0.190 C 
BRANCH   3   4
ATOM      4  O   UNL     1      72.537 -29.229  15.375  1.00  0.00    -0.394 OA
ATOM      5  H   UNL     1      73.417 -29.197  14.917  1.00  0.00     0.210 HD
ENDBRANCH   3   4
ENDBRANCH   2   3
BRANCH   2   6
ATOM      6  O   UNL     1      71.852 -27.236  18.345  1.00  0.00    -0.388 OA
ATOM      7  H   UNL     1      72.168 -27.411  19.271  1.00  0.00     0.211 HD
ENDBRANCH   2   6
ENDBRANCH   1   2
BRANCH   1   8
ATOM      8  C   UNL     1      72.532 -30.845  18.412  1.00  0.00     0.214 C 
BRANCH   8   9
ATOM      9  C   UNL     1      72.915 -31.506  19.722  1.00  0.00     0.189 C 
ATOM     10  O   UNL     1      73.972 -31.200  20.253  1.00  0.00    -0.294 OA
BRANCH   9  11
ATOM     11  C   UNL     1      72.016 -32.493  20.426  1.00  0.00     0.234 C 
BRANCH  11  12
ATOM     12  O   UNL     1      71.317 -33.267  19.489  1.00  0.00    -0.388 OA
ATOM     13  H   UNL     1      71.709 -34.177  19.519  1.00  0.00     0.211 HD
ENDBRANCH  11  12
ENDBRANCH   9  11
ENDBRANCH   8   9
BRANCH   8  14
ATOM     14  O   UNL     1      72.989 -31.608  17.324  1.00  0.00    -0.382 OA
ATOM     15  H   UNL     1      72.300 -32.299  17.142  1.00  0.00     0.211 HD
ENDBRANCH   8  14
ENDBRANCH   1   8
BRANCH   1  16
ATOM     16  O   UNL     1      74.301 -29.348  17.677  1.00  0.00    -0.387 OA
ATOM     17  H   UNL     1      74.745 -28.497  17.928  1.00  0.00     0.211 HD
ENDBRANCH   1  16
TORSDOF 10
ENDMDL
MODEL 4
REMARK VINA RESULT:    -4.546     10.358     11.099
REMARK INTER + INTRA:          -7.069
REMARK INTER:                  -6.327
REMARK INTRA:                  -0.742
REMARK UNBOUND:                -0.530
REMARK SMILES O=C(CO)[C@H](O)[C@@H](O)[C@@H](O)CO
REMARK SMILES IDX 7 1 9 2 11 3 12 4 10 6 5 8 2 9 1 10 3 11 4 12 6 14 8 16
REMARK H PARENT 12 5 10 7 4 13 6 15 8 17
REMARK Flexibility Score: inf
ROOT
ATOM      1  C   UNL     1      72.552 -30.956  18.166  1.00  0.00     0.181 C 
ENDROOT
BRANCH   1   2
ATOM      2  C   UNL     1      72.891 -31.845  19.399  1.00  0.00     0.171 C 
BRANCH   2   3
ATOM      3  C   UNL     1      71.646 -32.176  20.241  1.00  0.00     0.190 C 
BRANCH   3   4
ATOM      4  O   UNL     1      71.345 -33.543  20.166  1.00  0.00    -0.394 OA
ATOM      5  H   UNL     1      72.151 -33.983  19.789  1.00  0.00     0.210 HD
ENDBRANCH   3   4
ENDBRANCH   2   3
BRANCH   2   6
ATOM      6  O   UNL     1      73.879 -31.253  20.206  1.00  0.00    -0.388 OA
ATOM      7  H   UNL     1      73.769 -31.607  21.128  1.00  0.00     0.211 HD
ENDBRANCH   2   6
ENDBRANCH   1   2
BRANCH   1   8
ATOM      8  C   UNL     1      73.155 -29.526  18.232  1.00  0.00     0.214 C 
BRANCH   8   9
ATOM      9  C   UNL     1      72.258 -28.475  17.604  1.00  0.00     0.189 C 
ATOM     10  O   UNL     1      71.342 -28.009  18.265  1.00  0.00    -0.294 OA
BRANCH   9  11
ATOM     11  C   UNL     1      72.483 -27.943  16.211  1.00  0.00     0.234 C 
BRANCH  11  12
ATOM     12  O   UNL     1      72.549 -29.000  15.292  1.00  0.00    -0.388 OA
ATOM     13  H   UNL     1      71.660 -29.440  15.298  1.00  0.00     0.211 HD
ENDBRANCH  11  12
ENDBRANCH   9  11
ENDBRANCH   8   9
BRANCH   8  14
ATOM     14  O   UNL     1      74.429 -29.501  17.641  1.00  0.00    -0.382 OA
ATOM     15  H   UNL     1      74.677 -30.441  17.440  1.00  0.00     0.211 HD
ENDBRANCH   8  14
ENDBRANCH   1   8
BRANCH   1  16
ATOM     16  O   UNL     1      72.927 -31.587  16.964  1.00  0.00    -0.387 OA
ATOM     17  H   UNL     1      72.131 -31.614  16.372  1.00  0.00     0.211 HD
ENDBRANCH   1  16
TORSDOF 10
ENDMDL
MODEL 5
REMARK VINA RESULT:    -4.320      7.498      9.593
REMARK INTER + INTRA:          -6.743
REMARK INTER:                  -5.970
REMARK INTRA:                  -0.773
REMARK UNBOUND:                -0.530
REMARK SMILES O=C(CO)[C@H](O)[C@@H](O)[C@@H](O)CO
REMARK SMILES IDX 7 1 9 2 11 3 12 4 10 6 5 8 2 9 1 10 3 11 4 12 6 14 8 16
REMARK H PARENT 12 5 10 7 4 13 6 15 8 17
REMARK Flexibility Score: inf
ROOT
ATOM      1  C   UNL     1      64.584 -35.008  10.606  1.00  0.00     0.181 C 
ENDROOT
BRANCH   1   2
ATOM      2  C   UNL     1      65.517 -35.776   9.623  1.00  0.00     0.171 C 
BRANCH   2   3
ATOM      3  C   UNL     1      66.078 -37.069  10.240  1.00  0.00     0.190 C 
BRANCH   3   4
ATOM      4  O   UNL     1      67.465 -36.971  10.424  1.00  0.00    -0.394 OA
ATOM      5  H   UNL     1      67.834 -36.638   9.565  1.00  0.00     0.210 HD
ENDBRANCH   3   4
ENDBRANCH   2   3
BRANCH   2   6
ATOM      6  O   UNL     1      66.568 -34.961   9.166  1.00  0.00    -0.388 OA
ATOM      7  H   UNL     1      66.167 -34.131   8.794  1.00  0.00     0.211 HD
ENDBRANCH   2   6
ENDBRANCH   1   2
BRANCH   1   8
ATOM      8  C   UNL     1      65.129 -34.920  12.058  1.00  0.00     0.214 C 
BRANCH   8   9
ATOM      9  C   UNL     1      64.044 -34.652  13.083  1.00  0.00     0.189 C 
ATOM     10  O   UNL     1      63.024 -34.079  12.728  1.00  0.00    -0.294 OA
BRANCH   9  11
ATOM     11  C   UNL     1      64.150 -35.110  14.516  1.00  0.00     0.234 C 
BRANCH  11  12
ATOM     12  O   UNL     1      65.479 -35.024  14.956  1.00  0.00    -0.388 OA
ATOM     13  H   UNL     1      65.453 -35.019  15.948  1.00  0.00     0.211 HD
ENDBRANCH  11  12
ENDBRANCH   9  11
ENDBRANCH   8   9
BRANCH   8  14
ATOM     14  O   UNL     1      66.140 -33.947  12.146  1.00  0.00    -0.382 OA
ATOM     15  H   UNL     1      65.947 -33.262  11.454  1.00  0.00     0.211 HD
ENDBRANCH   8  14
ENDBRANCH   1   8
BRANCH   1  16
ATOM     16  O   UNL     1      64.281 -33.721  10.121  1.00  0.00    -0.387 OA
ATOM     17  H   UNL     1      64.073 -33.800   9.154  1.00  0.00     0.211 HD
ENDBRANCH   1  16
TORSDOF 10
ENDMDL
MODEL 6
REMARK VINA RESULT:    -4.315     13.026     14.775
REMARK INTER + INTRA:          -6.736
REMARK INTER:                  -6.161
REMARK INTRA:                  -0.575
REMARK UNBOUND:                -0.530
REMARK SMILES O=C(CO)[C@H](O)[C@@H](O)[C@@H](O)CO
REMARK SMILES IDX 7 1 9 2 11 3 12 4 10 6 5 8 2 9 1 10 3 11 4 12 6 14 8 16
REMARK H PARENT 12 5 10 7 4 13 6 15 8 17
REMARK Flexibility Score: inf
ROOT
ATOM      1  C   UNL     1      62.725 -29.043  14.693  1.00  0.00     0.181 C 
ENDROOT
BRANCH   1   2
ATOM      2  C   UNL     1      61.990 -27.676  14.559  1.00  0.00     0.171 C 
BRANCH   2   3
ATOM      3  C   UNL     1      62.574 -26.806  13.431  1.00  0.00     0.190 C 
BRANCH   3   4
ATOM      4  O   UNL     1      63.813 -26.269  13.809  1.00  0.00    -0.394 OA
ATOM      5  H   UNL     1      64.123 -26.809  14.582  1.00  0.00     0.210 HD
ENDBRANCH   3   4
ENDBRANCH   2   3
BRANCH   2   6
ATOM      6  O   UNL     1      61.996 -26.966  15.772  1.00  0.00    -0.388 OA
ATOM      7  H   UNL     1      62.850 -26.460  15.822  1.00  0.00     0.211 HD
ENDBRANCH   2   6
ENDBRANCH   1   2
BRANCH   1   8
ATOM      8  C   UNL     1      61.814 -30.278  14.456  1.00  0.00     0.214 C 
BRANCH   8   9
ATOM      9  C   UNL     1      62.003 -31.363  15.499  1.00  0.00     0.189 C 
ATOM     10  O   UNL     1      62.054 -31.047  16.678  1.00  0.00    -0.294 OA
BRANCH   9  11
ATOM     11  C   UNL     1      62.080 -32.827  15.142  1.00  0.00     0.234 C 
BRANCH  11  12
ATOM     12  O   UNL     1      63.178 -33.066  14.305  1.00  0.00    -0.388 OA
ATOM     13  H   UNL     1      63.515 -32.180  14.013  1.00  0.00     0.211 HD
ENDBRANCH  11  12
ENDBRANCH   9  11
ENDBRANCH   8   9
BRANCH   8  14
ATOM     14  O   UNL     1      62.014 -30.796  13.165  1.00  0.00    -0.382 OA
ATOM     15  H   UNL     1      61.733 -30.094  12.521  1.00  0.00     0.211 HD
ENDBRANCH   8  14
ENDBRANCH   1   8
BRANCH   1  16
ATOM     16  O   UNL     1      63.853 -29.100  13.852  1.00  0.00    -0.387 OA
ATOM     17  H   UNL     1      63.547 -28.947  12.920  1.00  0.00     0.211 HD
ENDBRANCH   1  16
TORSDOF 10
ENDMDL
MODEL 7
REMARK VINA RESULT:    -4.309      9.148     11.179
REMARK INTER + INTRA:          -6.728
REMARK INTER:                  -5.997
REMARK INTRA:                  -0.731
REMARK UNBOUND:                -0.530
REMARK SMILES O=C(CO)[C@H](O)[C@@H](O)[C@@H](O)CO
REMARK SMILES IDX 7 1 9 2 11 3 12 4 10 6 5 8 2 9 1 10 3 11 4 12 6 14 8 16
REMARK H PARENT 12 5 10 7 4 13 6 15 8 17
REMARK Flexibility Score: inf
ROOT
ATOM      1  C   UNL     1      63.880 -34.693  12.122  1.00  0.00     0.181 C 
ENDROOT
BRANCH   1   2
ATOM      2  C   UNL     1      65.387 -35.004  12.365  1.00  0.00     0.171 C 
BRANCH   2   3
ATOM      3  C   UNL     1      65.623 -35.758  13.686  1.00  0.00     0.190 C 
BRANCH   3   4
ATOM      4  O   UNL     1      65.537 -34.884  14.779  1.00  0.00    -0.394 OA
ATOM      5  H   UNL     1      65.443 -35.458  15.584  1.00  0.00     0.210 HD
ENDBRANCH   3   4
ENDBRANCH   2   3
BRANCH   2   6
ATOM      6  O   UNL     1      66.167 -33.835  12.328  1.00  0.00    -0.388 OA
ATOM      7  H   UNL     1      66.696 -33.851  11.487  1.00  0.00     0.211 HD
ENDBRANCH   2   6
ENDBRANCH   1   2
BRANCH   1   8
ATOM      8  C   UNL     1      63.511 -33.191  12.271  1.00  0.00     0.214 C 
BRANCH   8   9
ATOM      9  C   UNL     1      62.722 -32.897  13.532  1.00  0.00     0.189 C 
ATOM     10  O   UNL     1      62.835 -33.648  14.489  1.00  0.00    -0.294 OA
BRANCH   9  11
ATOM     11  C   UNL     1      61.839 -31.681  13.672  1.00  0.00     0.234 C 
BRANCH  11  12
ATOM     12  O   UNL     1      62.376 -30.606  12.950  1.00  0.00    -0.388 OA
ATOM     13  H   UNL     1      62.700 -30.973  12.088  1.00  0.00     0.211 HD
ENDBRANCH  11  12
ENDBRANCH   9  11
ENDBRANCH   8   9
BRANCH   8  14
ATOM     14  O   UNL     1      62.813 -32.741  11.137  1.00  0.00    -0.382 OA
ATOM     15  H   UNL     1      62.317 -33.520  10.772  1.00  0.00     0.211 HD
ENDBRANCH   8  14
ENDBRANCH   1   8
BRANCH   1  16
ATOM     16  O   UNL     1      63.455 -35.177  10.870  1.00  0.00    -0.387 OA
ATOM     17  H   UNL     1      63.405 -34.408  10.246  1.00  0.00     0.211 HD
ENDBRANCH   1  16
TORSDOF 10
ENDMDL
MODEL 8
REMARK VINA RESULT:    -4.308      9.323     11.431
REMARK INTER + INTRA:          -6.726
REMARK INTER:                  -5.598
REMARK INTRA:                  -1.128
REMARK UNBOUND:                -0.530
REMARK SMILES O=C(CO)[C@H](O)[C@@H](O)[C@@H](O)CO
REMARK SMILES IDX 7 1 9 2 11 3 12 4 10 6 5 8 2 9 1 10 3 11 4 12 6 14 8 16
REMARK H PARENT 12 5 10 7 4 13 6 15 8 17
REMARK Flexibility Score: inf
ROOT
ATOM      1  C   UNL     1      63.832 -33.746  11.341  1.00  0.00     0.181 C 
ENDROOT
BRANCH   1   2
ATOM      2  C   UNL     1      63.117 -32.984  12.496  1.00  0.00     0.171 C 
BRANCH   2   3
ATOM      3  C   UNL     1      61.584 -33.101  12.412  1.00  0.00     0.190 C 
BRANCH   3   4
ATOM      4  O   UNL     1      61.159 -34.367  12.840  1.00  0.00    -0.394 OA
ATOM      5  H   UNL     1      61.405 -34.430  13.800  1.00  0.00     0.210 HD
ENDBRANCH   3   4
ENDBRANCH   2   3
BRANCH   2   6
ATOM      6  O   UNL     1      63.498 -31.631  12.535  1.00  0.00    -0.388 OA
ATOM      7  H   UNL     1      63.813 -31.379  11.627  1.00  0.00     0.211 HD
ENDBRANCH   2   6
ENDBRANCH   1   2
BRANCH   1   8
ATOM      8  C   UNL     1      64.983 -34.675  11.813  1.00  0.00     0.214 C 
BRANCH   8   9
ATOM      9  C   UNL     1      64.550 -35.657  12.886  1.00  0.00     0.189 C 
ATOM     10  O   UNL     1      63.520 -36.293  12.723  1.00  0.00    -0.294 OA
BRANCH   9  11
ATOM     11  C   UNL     1      65.370 -35.919  14.125  1.00  0.00     0.234 C 
BRANCH  11  12
ATOM     12  O   UNL     1      65.346 -34.799  14.968  1.00  0.00    -0.388 OA
ATOM     13  H   UNL     1      64.491 -34.836  15.470  1.00  0.00     0.211 HD
ENDBRANCH  11  12
ENDBRANCH   9  11
ENDBRANCH   8   9
BRANCH   8  14
ATOM     14  O   UNL     1      66.079 -33.915  12.257  1.00  0.00    -0.382 OA
ATOM     15  H   UNL     1      66.562 -33.599  11.448  1.00  0.00     0.211 HD
ENDBRANCH   8  14
ENDBRANCH   1   8
BRANCH   1  16
ATOM     16  O   UNL     1      62.911 -34.470  10.560  1.00  0.00    -0.387 OA
ATOM     17  H   UNL     1      62.979 -35.426  10.814  1.00  0.00     0.211 HD
ENDBRANCH   1  16
TORSDOF 10
ENDMDL
MODEL 9
REMARK VINA RESULT:    -4.226     11.904     13.538
REMARK INTER + INTRA:          -6.608
REMARK INTER:                  -5.386
REMARK INTRA:                  -1.222
REMARK UNBOUND:                -0.530
REMARK SMILES O=C(CO)[C@H](O)[C@@H](O)[C@@H](O)CO
REMARK SMILES IDX 7 1 9 2 11 3 12 4 10 6 5 8 2 9 1 10 3 11 4 12 6 14 8 16
REMARK H PARENT 12 5 10 7 4 13 6 15 8 17
REMARK Flexibility Score: inf
ROOT
ATOM      1  C   UNL     1      73.514 -34.248  23.173  1.00  0.00     0.181 C 
ENDROOT
BRANCH   1   2
ATOM      2  C   UNL     1      74.232 -35.366  22.360  1.00  0.00     0.171 C 
BRANCH   2   3
ATOM      3  C   UNL     1      73.244 -36.393  21.779  1.00  0.00     0.190 C 
BRANCH   3   4
ATOM      4  O   UNL     1      72.127 -36.537  22.615  1.00  0.00    -0.394 OA
ATOM      5  H   UNL     1      72.468 -36.461  23.544  1.00  0.00     0.210 HD
ENDBRANCH   3   4
ENDBRANCH   2   3
BRANCH   2   6
ATOM      6  O   UNL     1      75.210 -36.017  23.131  1.00  0.00    -0.388 OA
ATOM      7  H   UNL     1      74.746 -36.665  23.725  1.00  0.00     0.211 HD
ENDBRANCH   2   6
ENDBRANCH   1   2
BRANCH   1   8
ATOM      8  C   UNL     1      74.480 -33.245  23.860  1.00  0.00     0.214 C 
BRANCH   8   9
ATOM      9  C   UNL     1      75.523 -32.684  22.914  1.00  0.00     0.189 C 
ATOM     10  O   UNL     1      75.155 -32.139  21.884  1.00  0.00    -0.294 OA
BRANCH   9  11
ATOM     11  C   UNL     1      77.001 -32.725  23.217  1.00  0.00     0.234 C 
BRANCH  11  12
ATOM     12  O   UNL     1      77.392 -34.030  23.549  1.00  0.00    -0.388 OA
ATOM     13  H   UNL     1      78.145 -33.949  24.190  1.00  0.00     0.211 HD
ENDBRANCH  11  12
ENDBRANCH   9  11
ENDBRANCH   8   9
BRANCH   8  14
ATOM     14  O   UNL     1      75.096 -33.841  24.975  1.00  0.00    -0.382 OA
ATOM     15  H   UNL     1      75.872 -34.360  24.637  1.00  0.00     0.211 HD
ENDBRANCH   8  14
ENDBRANCH   1   8
BRANCH   1  16
ATOM     16  O   UNL     1      72.580 -33.558  22.376  1.00  0.00    -0.387 OA
ATOM     17  H   UNL     1      71.682 -33.936  22.560  1.00  0.00     0.211 HD
ENDBRANCH   1  16
TORSDOF 10
ENDMDL
