MODEL 1
REMARK VINA RESULT:    -5.382      0.000      0.000
REMARK INTER + INTRA:          -5.382
REMARK INTER:                  -5.382
REMARK INTRA:                   0.000
REMARK UNBOUND:                 0.000
REMARK SMILES C=C1CCC[C@]2(C)CC(=O)C(=C(C)C)C[C@H]12
REMARK SMILES IDX 13 1 12 2 11 3 15 4 16 5 2 6 1 7 3 8 4 9 5 10 6 11 8 12 9 13
REMARK SMILES IDX 10 14 7 15 14 16
REMARK H PARENT
REMARK Flexibility Score: inf
ROOT
ATOM      1  C   UNL     1       3.374  -3.508  -5.681  1.00  0.00     0.039 C 
ATOM      2  C   UNL     1       4.800  -3.272  -5.241  1.00  0.00    -0.070 C 
ATOM      3  C   UNL     1       5.140  -3.243  -3.920  1.00  0.00    -0.006 C 
ATOM      4  C   UNL     1       6.558  -2.973  -3.459  1.00  0.00     0.047 C 
ATOM      5  C   UNL     1       6.633  -2.184  -2.126  1.00  0.00     0.025 C 
ATOM      6  C   UNL     1       8.073  -2.182  -1.640  1.00  0.00    -0.073 C 
ATOM      7  C   UNL     1       8.872  -1.129  -1.874  1.00  0.00     0.008 C 
ATOM      8  C   UNL     1       8.636  -3.448  -1.030  1.00  0.00     0.031 C 
ATOM      9  C   UNL     1       7.675  -4.055   0.002  1.00  0.00     0.005 C 
ATOM     10  C   UNL     1       6.222  -4.117  -0.502  1.00  0.00     0.008 C 
ATOM     11  C   UNL     1       5.696  -2.740  -1.006  1.00  0.00    -0.018 C 
ATOM     12  C   UNL     1       4.246  -2.885  -1.540  1.00  0.00     0.088 C 
ATOM     13  C   UNL     1       4.185  -3.606  -2.848  1.00  0.00     0.159 C 
ATOM     14  O   UNL     1       3.323  -4.511  -3.017  1.00  0.00    -0.295 OA
ATOM     15  C   UNL     1       5.640  -1.735   0.175  1.00  0.00     0.012 C 
ATOM     16  C   UNL     1       5.828  -3.030  -6.321  1.00  0.00     0.039 C 
ENDROOT
TORSDOF 0
ENDMDL
MODEL 2
REMARK VINA RESULT:    -5.043      2.443      4.110
REMARK INTER + INTRA:          -5.043
REMARK INTER:                  -5.043
REMARK INTRA:                   0.000
REMARK UNBOUND:                 0.000
REMARK SMILES C=C1CCC[C@]2(C)CC(=O)C(=C(C)C)C[C@H]12
REMARK SMILES IDX 13 1 12 2 11 3 15 4 16 5 2 6 1 7 3 8 4 9 5 10 6 11 8 12 9 13
REMARK SMILES IDX 10 14 7 15 14 16
REMARK H PARENT
REMARK Flexibility Score: inf
ROOT
ATOM      1  C   UNL     1      10.105  -2.877  -5.305  1.00  0.00     0.039 C 
ATOM      2  C   UNL     1       8.612  -2.816  -5.077  1.00  0.00    -0.070 C 
ATOM      3  C   UNL     1       8.091  -2.607  -3.833  1.00  0.00    -0.006 C 
ATOM      4  C   UNL     1       6.597  -2.578  -3.580  1.00  0.00     0.047 C 
ATOM      5  C   UNL     1       6.195  -3.154  -2.198  1.00  0.00     0.025 C 
ATOM      6  C   UNL     1       4.725  -2.855  -1.954  1.00  0.00    -0.073 C 
ATOM      7  C   UNL     1       3.789  -3.786  -2.196  1.00  0.00     0.008 C 
ATOM      8  C   UNL     1       4.322  -1.443  -1.587  1.00  0.00     0.031 C 
ATOM      9  C   UNL     1       5.223  -0.865  -0.486  1.00  0.00     0.005 C 
ATOM     10  C   UNL     1       6.719  -1.109  -0.753  1.00  0.00     0.008 C 
ATOM     11  C   UNL     1       7.051  -2.610  -1.010  1.00  0.00    -0.018 C 
ATOM     12  C   UNL     1       8.564  -2.777  -1.316  1.00  0.00     0.088 C 
ATOM     13  C   UNL     1       8.937  -2.262  -2.668  1.00  0.00     0.159 C 
ATOM     14  O   UNL     1       9.964  -1.541  -2.794  1.00  0.00    -0.295 OA
ATOM     15  C   UNL     1       6.759  -3.439   0.268  1.00  0.00     0.012 C 
ATOM     16  C   UNL     1       7.719  -3.033  -6.275  1.00  0.00     0.039 C 
ENDROOT
TORSDOF 0
ENDMDL
MODEL 3
REMARK VINA RESULT:    -5.007      1.977      4.366
REMARK INTER + INTRA:          -5.007
REMARK INTER:                  -5.007
REMARK INTRA:                   0.000
REMARK UNBOUND:                 0.000
REMARK SMILES C=C1CCC[C@]2(C)CC(=O)C(=C(C)C)C[C@H]12
REMARK SMILES IDX 13 1 12 2 11 3 15 4 16 5 2 6 1 7 3 8 4 9 5 10 6 11 8 12 9 13
REMARK SMILES IDX 10 14 7 15 14 16
REMARK H PARENT
REMARK Flexibility Score: inf
ROOT
ATOM      1  C   UNL     1       5.236  -1.340   1.451  1.00  0.00     0.039 C 
ATOM      2  C   UNL     1       5.252  -1.351  -0.060  1.00  0.00    -0.070 C 
ATOM      3  C   UNL     1       5.645  -2.455  -0.759  1.00  0.00    -0.006 C 
ATOM      4  C   UNL     1       5.701  -2.472  -2.273  1.00  0.00     0.047 C 
ATOM      5  C   UNL     1       6.854  -3.344  -2.837  1.00  0.00     0.025 C 
ATOM      6  C   UNL     1       6.668  -3.484  -4.339  1.00  0.00    -0.073 C 
ATOM      7  C   UNL     1       7.349  -2.698  -5.188  1.00  0.00     0.008 C 
ATOM      8  C   UNL     1       5.589  -4.412  -4.855  1.00  0.00     0.031 C 
ATOM      9  C   UNL     1       5.625  -5.773  -4.144  1.00  0.00     0.005 C 
ATOM     10  C   UNL     1       5.752  -5.642  -2.615  1.00  0.00     0.008 C 
ATOM     11  C   UNL     1       6.959  -4.758  -2.181  1.00  0.00    -0.018 C 
ATOM     12  C   UNL     1       7.000  -4.632  -0.634  1.00  0.00     0.088 C 
ATOM     13  C   UNL     1       5.915  -3.753  -0.100  1.00  0.00     0.159 C 
ATOM     14  O   UNL     1       5.246  -4.133   0.900  1.00  0.00    -0.295 OA
ATOM     15  C   UNL     1       8.288  -5.434  -2.610  1.00  0.00     0.012 C 
ATOM     16  C   UNL     1       4.852  -0.077  -0.767  1.00  0.00     0.039 C 
ENDROOT
TORSDOF 0
ENDMDL
MODEL 4
REMARK VINA RESULT:    -4.894      2.384      3.766
REMARK INTER + INTRA:          -4.894
REMARK INTER:                  -4.894
REMARK INTRA:                   0.000
REMARK UNBOUND:                 0.000
REMARK SMILES C=C1CCC[C@]2(C)CC(=O)C(=C(C)C)C[C@H]12
REMARK SMILES IDX 13 1 12 2 11 3 15 4 16 5 2 6 1 7 3 8 4 9 5 10 6 11 8 12 9 13
REMARK SMILES IDX 10 14 7 15 14 16
REMARK H PARENT
REMARK Flexibility Score: inf
ROOT
ATOM      1  C   UNL     1      10.118  -3.878  -4.288  1.00  0.00     0.039 C 
ATOM      2  C   UNL     1       9.472  -2.829  -3.413  1.00  0.00    -0.070 C 
ATOM      3  C   UNL     1       8.328  -3.090  -2.717  1.00  0.00    -0.006 C 
ATOM      4  C   UNL     1       7.647  -2.039  -1.862  1.00  0.00     0.047 C 
ATOM      5  C   UNL     1       6.101  -2.161  -1.851  1.00  0.00     0.025 C 
ATOM      6  C   UNL     1       5.546  -1.228  -0.787  1.00  0.00    -0.073 C 
ATOM      7  C   UNL     1       5.074  -0.017  -1.119  1.00  0.00     0.008 C 
ATOM      8  C   UNL     1       5.682  -1.624   0.668  1.00  0.00     0.031 C 
ATOM      9  C   UNL     1       5.264  -3.083   0.900  1.00  0.00     0.005 C 
ATOM     10  C   UNL     1       5.869  -4.046  -0.137  1.00  0.00     0.008 C 
ATOM     11  C   UNL     1       5.581  -3.614  -1.606  1.00  0.00    -0.018 C 
ATOM     12  C   UNL     1       6.256  -4.602  -2.595  1.00  0.00     0.088 C 
ATOM     13  C   UNL     1       7.742  -4.447  -2.636  1.00  0.00     0.159 C 
ATOM     14  O   UNL     1       8.472  -5.475  -2.600  1.00  0.00    -0.295 OA
ATOM     15  C   UNL     1       4.056  -3.676  -1.883  1.00  0.00     0.012 C 
ATOM     16  C   UNL     1      10.123  -1.467  -3.369  1.00  0.00     0.039 C 
ENDROOT
TORSDOF 0
ENDMDL
MODEL 5
REMARK VINA RESULT:    -4.699      1.709      3.206
REMARK INTER + INTRA:          -4.699
REMARK INTER:                  -4.699
REMARK INTRA:                   0.000
REMARK UNBOUND:                 0.000
REMARK SMILES C=C1CCC[C@]2(C)CC(=O)C(=C(C)C)C[C@H]12
REMARK SMILES IDX 13 1 12 2 11 3 15 4 16 5 2 6 1 7 3 8 4 9 5 10 6 11 8 12 9 13
REMARK SMILES IDX 10 14 7 15 14 16
REMARK H PARENT
REMARK Flexibility Score: inf
ROOT
ATOM      1  C   UNL     1       4.822  -3.701  -6.953  1.00  0.00     0.039 C 
ATOM      2  C   UNL     1       4.442  -3.536  -5.500  1.00  0.00    -0.070 C 
ATOM      3  C   UNL     1       5.375  -3.241  -4.549  1.00  0.00    -0.006 C 
ATOM      4  C   UNL     1       5.017  -3.107  -3.083  1.00  0.00     0.047 C 
ATOM      5  C   UNL     1       6.137  -3.595  -2.128  1.00  0.00     0.025 C 
ATOM      6  C   UNL     1       5.776  -3.194  -0.707  1.00  0.00    -0.073 C 
ATOM      7  C   UNL     1       5.199  -4.075   0.125  1.00  0.00     0.008 C 
ATOM      8  C   UNL     1       5.932  -1.745  -0.299  1.00  0.00     0.031 C 
ATOM      9  C   UNL     1       7.289  -1.176  -0.736  1.00  0.00     0.005 C 
ATOM     10  C   UNL     1       7.639  -1.525  -2.195  1.00  0.00     0.008 C 
ATOM     11  C   UNL     1       7.557  -3.053  -2.487  1.00  0.00    -0.018 C 
ATOM     12  C   UNL     1       7.877  -3.328  -3.982  1.00  0.00     0.088 C 
ATOM     13  C   UNL     1       6.774  -2.898  -4.893  1.00  0.00     0.159 C 
ATOM     14  O   UNL     1       7.052  -2.249  -5.938  1.00  0.00    -0.295 OA
ATOM     15  C   UNL     1       8.629  -3.806  -1.655  1.00  0.00     0.012 C 
ATOM     16  C   UNL     1       2.991  -3.750  -5.135  1.00  0.00     0.039 C 
ENDROOT
TORSDOF 0
ENDMDL
MODEL 6
REMARK VINA RESULT:    -4.691      1.811      2.447
REMARK INTER + INTRA:          -4.691
REMARK INTER:                  -4.691
REMARK INTRA:                   0.000
REMARK UNBOUND:                 0.000
REMARK SMILES C=C1CCC[C@]2(C)CC(=O)C(=C(C)C)C[C@H]12
REMARK SMILES IDX 13 1 12 2 11 3 15 4 16 5 2 6 1 7 3 8 4 9 5 10 6 11 8 12 9 13
REMARK SMILES IDX 10 14 7 15 14 16
REMARK H PARENT
REMARK Flexibility Score: inf
ROOT
ATOM      1  C   UNL     1       4.873  -5.560  -6.551  1.00  0.00     0.039 C 
ATOM      2  C   UNL     1       4.971  -4.199  -5.902  1.00  0.00    -0.070 C 
ATOM      3  C   UNL     1       5.380  -4.056  -4.608  1.00  0.00    -0.006 C 
ATOM      4  C   UNL     1       5.451  -2.702  -3.930  1.00  0.00     0.047 C 
ATOM      5  C   UNL     1       5.108  -2.752  -2.418  1.00  0.00     0.025 C 
ATOM      6  C   UNL     1       5.443  -1.405  -1.798  1.00  0.00    -0.073 C 
ATOM      7  C   UNL     1       4.485  -0.486  -1.603  1.00  0.00     0.008 C 
ATOM      8  C   UNL     1       6.897  -1.060  -1.553  1.00  0.00     0.031 C 
ATOM      9  C   UNL     1       7.646  -2.216  -0.874  1.00  0.00     0.005 C 
ATOM     10  C   UNL     1       7.361  -3.578  -1.532  1.00  0.00     0.008 C 
ATOM     11  C   UNL     1       5.838  -3.892  -1.639  1.00  0.00    -0.018 C 
ATOM     12  C   UNL     1       5.623  -5.255  -2.351  1.00  0.00     0.088 C 
ATOM     13  C   UNL     1       5.910  -5.189  -3.816  1.00  0.00     0.159 C 
ATOM     14  O   UNL     1       6.601  -6.098  -4.353  1.00  0.00    -0.295 OA
ATOM     15  C   UNL     1       5.228  -4.027  -0.219  1.00  0.00     0.012 C 
ATOM     16  C   UNL     1       4.562  -3.005  -6.732  1.00  0.00     0.039 C 
ENDROOT
TORSDOF 0
ENDMDL
MODEL 7
REMARK VINA RESULT:    -4.593      1.668      2.487
REMARK INTER + INTRA:          -4.593
REMARK INTER:                  -4.593
REMARK INTRA:                   0.000
REMARK UNBOUND:                 0.000
REMARK SMILES C=C1CCC[C@]2(C)CC(=O)C(=C(C)C)C[C@H]12
REMARK SMILES IDX 13 1 12 2 11 3 15 4 16 5 2 6 1 7 3 8 4 9 5 10 6 11 8 12 9 13
REMARK SMILES IDX 10 14 7 15 14 16
REMARK H PARENT
REMARK Flexibility Score: inf
ROOT
ATOM      1  C   UNL     1       5.000  -5.161  -5.938  1.00  0.00     0.039 C 
ATOM      2  C   UNL     1       5.585  -5.447  -4.574  1.00  0.00    -0.070 C 
ATOM      3  C   UNL     1       5.698  -4.470  -3.629  1.00  0.00    -0.006 C 
ATOM      4  C   UNL     1       6.314  -4.730  -2.269  1.00  0.00     0.047 C 
ATOM      5  C   UNL     1       7.097  -3.516  -1.705  1.00  0.00     0.025 C 
ATOM      6  C   UNL     1       7.457  -3.801  -0.256  1.00  0.00    -0.073 C 
ATOM      7  C   UNL     1       8.676  -4.260   0.067  1.00  0.00     0.008 C 
ATOM      8  C   UNL     1       6.371  -3.708   0.795  1.00  0.00     0.031 C 
ATOM      9  C   UNL     1       5.545  -2.423   0.643  1.00  0.00     0.005 C 
ATOM     10  C   UNL     1       5.122  -2.157  -0.813  1.00  0.00     0.008 C 
ATOM     11  C   UNL     1       6.324  -2.162  -1.803  1.00  0.00    -0.018 C 
ATOM     12  C   UNL     1       5.822  -1.933  -3.254  1.00  0.00     0.088 C 
ATOM     13  C   UNL     1       5.109  -3.123  -3.810  1.00  0.00     0.159 C 
ATOM     14  O   UNL     1       4.018  -2.961  -4.421  1.00  0.00    -0.295 OA
ATOM     15  C   UNL     1       7.284  -0.989  -1.472  1.00  0.00     0.012 C 
ATOM     16  C   UNL     1       6.075  -6.852  -4.311  1.00  0.00     0.039 C 
ENDROOT
TORSDOF 0
ENDMDL
MODEL 8
REMARK VINA RESULT:    -4.526      2.213      4.711
REMARK INTER + INTRA:          -4.526
REMARK INTER:                  -4.526
REMARK INTRA:                   0.000
REMARK UNBOUND:                 0.000
REMARK SMILES C=C1CCC[C@]2(C)CC(=O)C(=C(C)C)C[C@H]12
REMARK SMILES IDX 13 1 12 2 11 3 15 4 16 5 2 6 1 7 3 8 4 9 5 10 6 11 8 12 9 13
REMARK SMILES IDX 10 14 7 15 14 16
REMARK H PARENT
REMARK Flexibility Score: inf
ROOT
ATOM      1  C   UNL     1       4.896  -1.239   1.152  1.00  0.00     0.039 C 
ATOM      2  C   UNL     1       5.389  -2.558   0.602  1.00  0.00    -0.070 C 
ATOM      3  C   UNL     1       5.818  -2.675  -0.687  1.00  0.00    -0.006 C 
ATOM      4  C   UNL     1       6.282  -3.997  -1.266  1.00  0.00     0.047 C 
ATOM      5  C   UNL     1       5.936  -4.167  -2.768  1.00  0.00     0.025 C 
ATOM      6  C   UNL     1       6.651  -5.400  -3.296  1.00  0.00    -0.073 C 
ATOM      7  C   UNL     1       6.006  -6.572  -3.399  1.00  0.00     0.008 C 
ATOM      8  C   UNL     1       8.141  -5.322  -3.552  1.00  0.00     0.031 C 
ATOM      9  C   UNL     1       8.516  -4.054  -4.333  1.00  0.00     0.005 C 
ATOM     10  C   UNL     1       7.844  -2.788  -3.769  1.00  0.00     0.008 C 
ATOM     11  C   UNL     1       6.297  -2.927  -3.647  1.00  0.00    -0.018 C 
ATOM     12  C   UNL     1       5.692  -1.637  -3.032  1.00  0.00     0.088 C 
ATOM     13  C   UNL     1       5.990  -1.501  -1.574  1.00  0.00     0.159 C 
ATOM     14  O   UNL     1       6.383  -0.391  -1.123  1.00  0.00    -0.295 OA
ATOM     15  C   UNL     1       5.671  -3.087  -5.057  1.00  0.00     0.012 C 
ATOM     16  C   UNL     1       5.351  -3.752   1.527  1.00  0.00     0.039 C 
ENDROOT
TORSDOF 0
ENDMDL
MODEL 9
REMARK VINA RESULT:    -4.518      2.701      4.105
REMARK INTER + INTRA:          -4.518
REMARK INTER:                  -4.518
REMARK INTRA:                   0.000
REMARK UNBOUND:                 0.000
REMARK SMILES C=C1CCC[C@]2(C)CC(=O)C(=C(C)C)C[C@H]12
REMARK SMILES IDX 13 1 12 2 11 3 15 4 16 5 2 6 1 7 3 8 4 9 5 10 6 11 8 12 9 13
REMARK SMILES IDX 10 14 7 15 14 16
REMARK H PARENT
REMARK Flexibility Score: inf
ROOT
ATOM      1  C   UNL     1       4.698  -1.422   1.046  1.00  0.00     0.039 C 
ATOM      2  C   UNL     1       5.486  -1.243  -0.230  1.00  0.00    -0.070 C 
ATOM      3  C   UNL     1       6.386  -2.180  -0.648  1.00  0.00    -0.006 C 
ATOM      4  C   UNL     1       7.211  -2.000  -1.906  1.00  0.00     0.047 C 
ATOM      5  C   UNL     1       8.633  -2.611  -1.803  1.00  0.00     0.025 C 
ATOM      6  C   UNL     1       9.273  -2.590  -3.182  1.00  0.00    -0.073 C 
ATOM      7  C   UNL     1      10.125  -1.611  -3.525  1.00  0.00     0.008 C 
ATOM      8  C   UNL     1       8.813  -3.600  -4.212  1.00  0.00     0.031 C 
ATOM      9  C   UNL     1       8.743  -5.017  -3.624  1.00  0.00     0.005 C 
ATOM     10  C   UNL     1       8.042  -5.059  -2.254  1.00  0.00     0.008 C 
ATOM     11  C   UNL     1       8.659  -4.063  -1.228  1.00  0.00    -0.018 C 
ATOM     12  C   UNL     1       7.878  -4.125   0.113  1.00  0.00     0.088 C 
ATOM     13  C   UNL     1       6.527  -3.494   0.020  1.00  0.00     0.159 C 
ATOM     14  O   UNL     1       5.530  -4.091   0.509  1.00  0.00    -0.295 OA
ATOM     15  C   UNL     1      10.123  -4.473  -0.912  1.00  0.00     0.012 C 
ATOM     16  C   UNL     1       5.266   0.034  -1.008  1.00  0.00     0.039 C 
ENDROOT
TORSDOF 0
ENDMDL
