MODEL 1
REMARK VINA RESULT:    -4.012      0.000      0.000
REMARK INTER + INTRA:          -6.108
REMARK INTER:                  -5.420
REMARK INTRA:                  -0.688
REMARK UNBOUND:                -0.688
REMARK SMILES C[C@H](O)[C@H](O)[C@H](O)[C@@H](O)C=O
REMARK SMILES IDX 4 1 2 2 1 3 3 4 6 6 8 7 10 8 11 9 9 10 7 12 5 14
REMARK H PARENT 3 5 9 11 7 13 5 15
REMARK Flexibility Score: inf
ROOT
ATOM      1  C   UNL     1       7.411  24.014   5.395  1.00  0.00     0.174 C 
ENDROOT
BRANCH   1   2
ATOM      2  C   UNL     1       6.497  24.690   4.333  1.00  0.00     0.142 C 
ATOM      3  C   UNL     1       5.720  23.673   3.488  1.00  0.00     0.041 C 
BRANCH   2   4
ATOM      4  O   UNL     1       7.237  25.546   3.500  1.00  0.00    -0.391 OA
ATOM      5  H   UNL     1       8.196  25.338   3.649  1.00  0.00     0.211 HD
ENDBRANCH   2   4
ENDBRANCH   1   2
BRANCH   1   6
ATOM      6  C   UNL     1       8.028  24.939   6.487  1.00  0.00     0.181 C 
BRANCH   6   7
ATOM      7  C   UNL     1       9.348  24.423   7.122  1.00  0.00     0.209 C 
BRANCH   7   8
ATOM      8  C   UNL     1      10.546  24.748   6.264  1.00  0.00     0.258 C 
ATOM      9  O   UNL     1      11.158  25.788   6.441  1.00  0.00    -0.300 OA
ENDBRANCH   7   8
BRANCH   7  10
ATOM     10  O   UNL     1       9.298  23.042   7.379  1.00  0.00    -0.383 OA
ATOM     11  H   UNL     1       8.903  22.915   8.282  1.00  0.00     0.211 HD
ENDBRANCH   7  10
ENDBRANCH   6   7
BRANCH   6  12
ATOM     12  O   UNL     1       8.235  26.210   5.917  1.00  0.00    -0.387 OA
ATOM     13  H   UNL     1       7.347  26.579   5.671  1.00  0.00     0.211 HD
ENDBRANCH   6  12
ENDBRANCH   1   6
BRANCH   1  14
ATOM     14  O   UNL     1       6.788  22.890   5.968  1.00  0.00    -0.388 OA
ATOM     15  H   UNL     1       6.266  22.428   5.264  1.00  0.00     0.211 HD
ENDBRANCH   1  14
TORSDOF 8
ENDMDL
MODEL 2
REMARK VINA RESULT:    -3.957      1.120      2.506
REMARK INTER + INTRA:          -6.033
REMARK INTER:                  -5.891
REMARK INTRA:                  -0.143
REMARK UNBOUND:                -0.688
REMARK SMILES C[C@H](O)[C@H](O)[C@H](O)[C@@H](O)C=O
REMARK SMILES IDX 4 1 2 2 1 3 3 4 6 6 8 7 10 8 11 9 9 10 7 12 5 14
REMARK H PARENT 3 5 9 11 7 13 5 15
REMARK Flexibility Score: inf
ROOT
ATOM      1  C   UNL     1       7.944  24.926   6.285  1.00  0.00     0.174 C 
ENDROOT
BRANCH   1   2
ATOM      2  C   UNL     1       7.156  23.980   5.333  1.00  0.00     0.142 C 
ATOM      3  C   UNL     1       5.897  24.637   4.756  1.00  0.00     0.041 C 
BRANCH   2   4
ATOM      4  O   UNL     1       6.822  22.777   5.977  1.00  0.00    -0.391 OA
ATOM      5  H   UNL     1       7.593  22.162   5.860  1.00  0.00     0.211 HD
ENDBRANCH   2   4
ENDBRANCH   1   2
BRANCH   1   6
ATOM      6  C   UNL     1       9.430  24.558   6.573  1.00  0.00     0.181 C 
BRANCH   6   7
ATOM      7  C   UNL     1      10.479  25.553   6.006  1.00  0.00     0.209 C 
BRANCH   7   8
ATOM      8  C   UNL     1      11.092  25.048   4.723  1.00  0.00     0.258 C 
ATOM      9  O   UNL     1      12.144  25.519   4.323  1.00  0.00    -0.300 OA
ENDBRANCH   7   8
BRANCH   7  10
ATOM     10  O   UNL     1      11.486  25.840   6.943  1.00  0.00    -0.383 OA
ATOM     11  H   UNL     1      11.718  24.993   7.408  1.00  0.00     0.211 HD
ENDBRANCH   7  10
ENDBRANCH   6   7
BRANCH   6  12
ATOM     12  O   UNL     1       9.589  24.438   7.967  1.00  0.00    -0.387 OA
ATOM     13  H   UNL     1      10.538  24.206   8.144  1.00  0.00     0.211 HD
ENDBRANCH   6  12
ENDBRANCH   1   6
BRANCH   1  14
ATOM     14  O   UNL     1       7.815  26.271   5.895  1.00  0.00    -0.388 OA
ATOM     15  H   UNL     1       7.356  26.766   6.621  1.00  0.00     0.211 HD
ENDBRANCH   1  14
TORSDOF 8
ENDMDL
MODEL 3
REMARK VINA RESULT:    -3.950     11.746     12.847
REMARK INTER + INTRA:          -6.024
REMARK INTER:                  -5.249
REMARK INTRA:                  -0.775
REMARK UNBOUND:                -0.688
REMARK SMILES C[C@H](O)[C@H](O)[C@H](O)[C@@H](O)C=O
REMARK SMILES IDX 4 1 2 2 1 3 3 4 6 6 8 7 10 8 11 9 9 10 7 12 5 14
REMARK H PARENT 3 5 9 11 7 13 5 15
REMARK Flexibility Score: inf
ROOT
ATOM      1  C   UNL     1      13.251  12.968   4.569  1.00  0.00     0.174 C 
ENDROOT
BRANCH   1   2
ATOM      2  C   UNL     1      12.687  13.127   6.011  1.00  0.00     0.142 C 
ATOM      3  C   UNL     1      11.168  12.928   6.077  1.00  0.00     0.041 C 
BRANCH   2   4
ATOM      4  O   UNL     1      13.035  14.375   6.556  1.00  0.00    -0.391 OA
ATOM      5  H   UNL     1      13.479  14.892   5.834  1.00  0.00     0.211 HD
ENDBRANCH   2   4
ENDBRANCH   1   2
BRANCH   1   6
ATOM      6  C   UNL     1      14.787  13.150   4.389  1.00  0.00     0.181 C 
BRANCH   6   7
ATOM      7  C   UNL     1      15.222  14.487   3.729  1.00  0.00     0.209 C 
BRANCH   7   8
ATOM      8  C   UNL     1      16.697  14.499   3.410  1.00  0.00     0.258 C 
ATOM      9  O   UNL     1      17.402  13.563   3.750  1.00  0.00    -0.300 OA
ENDBRANCH   7   8
BRANCH   7  10
ATOM     10  O   UNL     1      14.892  15.595   4.529  1.00  0.00    -0.383 OA
ATOM     11  H   UNL     1      15.035  16.415   3.986  1.00  0.00     0.211 HD
ENDBRANCH   7  10
ENDBRANCH   6   7
BRANCH   6  12
ATOM     12  O   UNL     1      15.395  13.020   5.653  1.00  0.00    -0.387 OA
ATOM     13  H   UNL     1      14.681  12.817   6.312  1.00  0.00     0.211 HD
ENDBRANCH   6  12
ENDBRANCH   1   6
BRANCH   1  14
ATOM     14  O   UNL     1      12.802  11.776   3.971  1.00  0.00    -0.388 OA
ATOM     15  H   UNL     1      13.454  11.512   3.273  1.00  0.00     0.211 HD
ENDBRANCH   1  14
TORSDOF 8
ENDMDL
MODEL 4
REMARK VINA RESULT:    -3.906     11.868     13.165
REMARK INTER + INTRA:          -5.965
REMARK INTER:                  -4.981
REMARK INTRA:                  -0.984
REMARK UNBOUND:                -0.688
REMARK SMILES C[C@H](O)[C@H](O)[C@H](O)[C@@H](O)C=O
REMARK SMILES IDX 4 1 2 2 1 3 3 4 6 6 8 7 10 8 11 9 9 10 7 12 5 14
REMARK H PARENT 3 5 9 11 7 13 5 15
REMARK Flexibility Score: inf
ROOT
ATOM      1  C   UNL     1      16.249  14.994   3.277  1.00  0.00     0.174 C 
ENDROOT
BRANCH   1   2
ATOM      2  C   UNL     1      15.624  15.446   1.926  1.00  0.00     0.142 C 
ATOM      3  C   UNL     1      15.998  16.886   1.555  1.00  0.00     0.041 C 
BRANCH   2   4
ATOM      4  O   UNL     1      14.227  15.296   1.938  1.00  0.00    -0.391 OA
ATOM      5  H   UNL     1      14.038  14.333   1.788  1.00  0.00     0.211 HD
ENDBRANCH   2   4
ENDBRANCH   1   2
BRANCH   1   6
ATOM      6  C   UNL     1      16.035  13.507   3.690  1.00  0.00     0.181 C 
BRANCH   6   7
ATOM      7  C   UNL     1      14.774  13.235   4.555  1.00  0.00     0.209 C 
BRANCH   7   8
ATOM      8  C   UNL     1      13.780  12.358   3.834  1.00  0.00     0.258 C 
ATOM      9  O   UNL     1      13.138  12.805   2.899  1.00  0.00    -0.300 OA
ENDBRANCH   7   8
BRANCH   7  10
ATOM     10  O   UNL     1      14.156  14.429   4.965  1.00  0.00    -0.383 OA
ATOM     11  H   UNL     1      13.280  14.194   5.370  1.00  0.00     0.211 HD
ENDBRANCH   7  10
ENDBRANCH   6   7
BRANCH   6  12
ATOM     12  O   UNL     1      15.988  12.729   2.517  1.00  0.00    -0.387 OA
ATOM     13  H   UNL     1      15.692  13.319   1.775  1.00  0.00     0.211 HD
ENDBRANCH   6  12
ENDBRANCH   1   6
BRANCH   1  14
ATOM     14  O   UNL     1      17.604  15.360   3.366  1.00  0.00    -0.388 OA
ATOM     15  H   UNL     1      18.115  14.589   3.721  1.00  0.00     0.211 HD
ENDBRANCH   1  14
TORSDOF 8
ENDMDL
MODEL 5
REMARK VINA RESULT:    -3.883     12.652     13.319
REMARK INTER + INTRA:          -5.934
REMARK INTER:                  -5.608
REMARK INTRA:                  -0.326
REMARK UNBOUND:                -0.688
REMARK SMILES C[C@H](O)[C@H](O)[C@H](O)[C@@H](O)C=O
REMARK SMILES IDX 4 1 2 2 1 3 3 4 6 6 8 7 10 8 11 9 9 10 7 12 5 14
REMARK H PARENT 3 5 9 11 7 13 5 15
REMARK Flexibility Score: inf
ROOT
ATOM      1  C   UNL     1      14.392  13.124   3.938  1.00  0.00     0.174 C 
ENDROOT
BRANCH   1   2
ATOM      2  C   UNL     1      12.935  13.001   3.405  1.00  0.00     0.142 C 
ATOM      3  C   UNL     1      12.240  11.720   3.879  1.00  0.00     0.041 C 
BRANCH   2   4
ATOM      4  O   UNL     1      12.901  13.080   2.003  1.00  0.00    -0.391 OA
ATOM      5  H   UNL     1      13.267  13.969   1.754  1.00  0.00     0.211 HD
ENDBRANCH   2   4
ENDBRANCH   1   2
BRANCH   1   6
ATOM      6  C   UNL     1      15.463  13.668   2.946  1.00  0.00     0.181 C 
BRANCH   6   7
ATOM      7  C   UNL     1      16.667  14.394   3.605  1.00  0.00     0.209 C 
BRANCH   7   8
ATOM      8  C   UNL     1      17.009  15.676   2.887  1.00  0.00     0.258 C 
ATOM      9  O   UNL     1      18.149  16.109   2.921  1.00  0.00    -0.300 OA
ENDBRANCH   7   8
BRANCH   7  10
ATOM     10  O   UNL     1      17.800  13.564   3.677  1.00  0.00    -0.383 OA
ATOM     11  H   UNL     1      18.182  13.492   2.763  1.00  0.00     0.211 HD
ENDBRANCH   7  10
ENDBRANCH   6   7
BRANCH   6  12
ATOM     12  O   UNL     1      15.922  12.591   2.163  1.00  0.00    -0.387 OA
ATOM     13  H   UNL     1      15.134  12.039   1.918  1.00  0.00     0.211 HD
ENDBRANCH   6  12
ENDBRANCH   1   6
BRANCH   1  14
ATOM     14  O   UNL     1      14.434  13.812   5.165  1.00  0.00    -0.388 OA
ATOM     15  H   UNL     1      13.504  13.988   5.457  1.00  0.00     0.211 HD
ENDBRANCH   1  14
TORSDOF 8
ENDMDL
MODEL 6
REMARK VINA RESULT:    -3.878     11.767     13.185
REMARK INTER + INTRA:          -5.927
REMARK INTER:                  -5.286
REMARK INTRA:                  -0.641
REMARK UNBOUND:                -0.688
REMARK SMILES C[C@H](O)[C@H](O)[C@H](O)[C@@H](O)C=O
REMARK SMILES IDX 4 1 2 2 1 3 3 4 6 6 8 7 10 8 11 9 9 10 7 12 5 14
REMARK H PARENT 3 5 9 11 7 13 5 15
REMARK Flexibility Score: inf
ROOT
ATOM      1  C   UNL     1      14.682  13.844   4.146  1.00  0.00     0.174 C 
ENDROOT
BRANCH   1   2
ATOM      2  C   UNL     1      16.094  13.592   3.542  1.00  0.00     0.142 C 
ATOM      3  C   UNL     1      16.795  14.888   3.119  1.00  0.00     0.041 C 
BRANCH   2   4
ATOM      4  O   UNL     1      16.028  12.701   2.457  1.00  0.00    -0.391 OA
ATOM      5  H   UNL     1      15.669  11.844   2.808  1.00  0.00     0.211 HD
ENDBRANCH   2   4
ENDBRANCH   1   2
BRANCH   1   6
ATOM      6  C   UNL     1      14.143  12.779   5.148  1.00  0.00     0.181 C 
BRANCH   6   7
ATOM      7  C   UNL     1      12.850  13.180   5.907  1.00  0.00     0.209 C 
BRANCH   7   8
ATOM      8  C   UNL     1      11.735  13.546   4.959  1.00  0.00     0.258 C 
ATOM      9  O   UNL     1      11.261  12.699   4.219  1.00  0.00    -0.300 OA
ENDBRANCH   7   8
BRANCH   7  10
ATOM     10  O   UNL     1      13.080  14.232   6.810  1.00  0.00    -0.383 OA
ATOM     11  H   UNL     1      13.376  13.834   7.671  1.00  0.00     0.211 HD
ENDBRANCH   7  10
ENDBRANCH   6   7
BRANCH   6  12
ATOM     12  O   UNL     1      13.930  11.580   4.439  1.00  0.00    -0.387 OA
ATOM     13  H   UNL     1      14.383  11.665   3.560  1.00  0.00     0.211 HD
ENDBRANCH   6  12
ENDBRANCH   1   6
BRANCH   1  14
ATOM     14  O   UNL     1      14.574  15.144   4.674  1.00  0.00    -0.388 OA
ATOM     15  H   UNL     1      13.644  15.459   4.542  1.00  0.00     0.211 HD
ENDBRANCH   1  14
TORSDOF 8
ENDMDL
MODEL 7
REMARK VINA RESULT:    -3.860      1.406      2.439
REMARK INTER + INTRA:          -5.902
REMARK INTER:                  -5.151
REMARK INTRA:                  -0.751
REMARK UNBOUND:                -0.688
REMARK SMILES C[C@H](O)[C@H](O)[C@H](O)[C@@H](O)C=O
REMARK SMILES IDX 4 1 2 2 1 3 3 4 6 6 8 7 10 8 11 9 9 10 7 12 5 14
REMARK H PARENT 3 5 9 11 7 13 5 15
REMARK Flexibility Score: inf
ROOT
ATOM      1  C   UNL     1       7.836  25.158   6.135  1.00  0.00     0.174 C 
ENDROOT
BRANCH   1   2
ATOM      2  C   UNL     1       6.980  24.171   5.289  1.00  0.00     0.142 C 
ATOM      3  C   UNL     1       5.684  24.806   4.773  1.00  0.00     0.041 C 
BRANCH   2   4
ATOM      4  O   UNL     1       6.692  23.002   6.013  1.00  0.00    -0.391 OA
ATOM      5  H   UNL     1       6.668  23.254   6.973  1.00  0.00     0.211 HD
ENDBRANCH   2   4
ENDBRANCH   1   2
BRANCH   1   6
ATOM      6  C   UNL     1       9.383  24.999   6.052  1.00  0.00     0.181 C 
BRANCH   6   7
ATOM      7  C   UNL     1      10.010  24.062   7.121  1.00  0.00     0.209 C 
BRANCH   7   8
ATOM      8  C   UNL     1      10.366  22.714   6.544  1.00  0.00     0.258 C 
ATOM      9  O   UNL     1       9.488  21.900   6.312  1.00  0.00    -0.300 OA
ENDBRANCH   7   8
BRANCH   7  10
ATOM     10  O   UNL     1       9.167  23.904   8.235  1.00  0.00    -0.383 OA
ATOM     11  H   UNL     1       8.228  23.939   7.912  1.00  0.00     0.211 HD
ENDBRANCH   7  10
ENDBRANCH   6   7
BRANCH   6  12
ATOM     12  O   UNL     1       9.708  24.538   4.762  1.00  0.00    -0.387 OA
ATOM     13  H   UNL     1      10.571  24.954   4.501  1.00  0.00     0.211 HD
ENDBRANCH   6  12
ENDBRANCH   1   6
BRANCH   1  14
ATOM     14  O   UNL     1       7.445  26.492   5.919  1.00  0.00    -0.388 OA
ATOM     15  H   UNL     1       6.490  26.500   5.657  1.00  0.00     0.211 HD
ENDBRANCH   1  14
TORSDOF 8
ENDMDL
MODEL 8
REMARK VINA RESULT:    -3.787     11.458     12.585
REMARK INTER + INTRA:          -5.803
REMARK INTER:                  -5.059
REMARK INTRA:                  -0.744
REMARK UNBOUND:                -0.688
REMARK SMILES C[C@H](O)[C@H](O)[C@H](O)[C@@H](O)C=O
REMARK SMILES IDX 4 1 2 2 1 3 3 4 6 6 8 7 10 8 11 9 9 10 7 12 5 14
REMARK H PARENT 3 5 9 11 7 13 5 15
REMARK Flexibility Score: inf
ROOT
ATOM      1  C   UNL     1       8.809  11.748   6.744  1.00  0.00     0.174 C 
ENDROOT
BRANCH   1   2
ATOM      2  C   UNL     1       8.752  10.862   5.466  1.00  0.00     0.142 C 
ATOM      3  C   UNL     1      10.096  10.199   5.146  1.00  0.00     0.041 C 
BRANCH   2   4
ATOM      4  O   UNL     1       8.301  11.600   4.358  1.00  0.00    -0.391 OA
ATOM      5  H   UNL     1       8.668  12.518   4.453  1.00  0.00     0.211 HD
ENDBRANCH   2   4
ENDBRANCH   1   2
BRANCH   1   6
ATOM      6  C   UNL     1       7.455  12.047   7.455  1.00  0.00     0.181 C 
BRANCH   6   7
ATOM      7  C   UNL     1       7.463  13.280   8.399  1.00  0.00     0.209 C 
BRANCH   7   8
ATOM      8  C   UNL     1       7.838  14.544   7.665  1.00  0.00     0.258 C 
ATOM      9  O   UNL     1       6.974  15.214   7.124  1.00  0.00    -0.300 OA
ENDBRANCH   7   8
BRANCH   7  10
ATOM     10  O   UNL     1       8.316  13.089   9.500  1.00  0.00    -0.383 OA
ATOM     11  H   UNL     1       7.816  12.573  10.186  1.00  0.00     0.211 HD
ENDBRANCH   7  10
ENDBRANCH   6   7
BRANCH   6  12
ATOM     12  O   UNL     1       6.466  12.208   6.465  1.00  0.00    -0.387 OA
ATOM     13  H   UNL     1       5.618  11.836   6.823  1.00  0.00     0.211 HD
ENDBRANCH   6  12
ENDBRANCH   1   6
BRANCH   1  14
ATOM     14  O   UNL     1       9.772  11.276   7.654  1.00  0.00    -0.388 OA
ATOM     15  H   UNL     1       9.747  10.285   7.651  1.00  0.00     0.211 HD
ENDBRANCH   1  14
TORSDOF 8
ENDMDL
MODEL 9
REMARK VINA RESULT:    -3.783     11.484     12.671
REMARK INTER + INTRA:          -5.799
REMARK INTER:                  -4.869
REMARK INTRA:                  -0.929
REMARK UNBOUND:                -0.688
REMARK SMILES C[C@H](O)[C@H](O)[C@H](O)[C@@H](O)C=O
REMARK SMILES IDX 4 1 2 2 1 3 3 4 6 6 8 7 10 8 11 9 9 10 7 12 5 14
REMARK H PARENT 3 5 9 11 7 13 5 15
REMARK Flexibility Score: inf
ROOT
ATOM      1  C   UNL     1       8.530  11.815   5.183  1.00  0.00     0.174 C 
ENDROOT
BRANCH   1   2
ATOM      2  C   UNL     1       9.932  11.271   5.582  1.00  0.00     0.142 C 
ATOM      3  C   UNL     1      10.198   9.864   5.033  1.00  0.00     0.041 C 
BRANCH   2   4
ATOM      4  O   UNL     1      10.104  11.286   6.976  1.00  0.00    -0.391 OA
ATOM      5  H   UNL     1       9.487  10.605   7.352  1.00  0.00     0.211 HD
ENDBRANCH   2   4
ENDBRANCH   1   2
BRANCH   1   6
ATOM      6  C   UNL     1       8.164  13.247   5.674  1.00  0.00     0.181 C 
BRANCH   6   7
ATOM      7  C   UNL     1       7.139  13.305   6.840  1.00  0.00     0.209 C 
BRANCH   7   8
ATOM      8  C   UNL     1       7.780  13.766   8.126  1.00  0.00     0.258 C 
ATOM      9  O   UNL     1       8.580  13.046   8.701  1.00  0.00    -0.300 OA
ENDBRANCH   7   8
BRANCH   7  10
ATOM     10  O   UNL     1       6.501  12.068   7.035  1.00  0.00    -0.383 OA
ATOM     11  H   UNL     1       6.940  11.617   7.804  1.00  0.00     0.211 HD
ENDBRANCH   7  10
ENDBRANCH   6   7
BRANCH   6  12
ATOM     12  O   UNL     1       9.355  13.899   6.051  1.00  0.00    -0.387 OA
ATOM     13  H   UNL     1      10.037  13.201   6.230  1.00  0.00     0.211 HD
ENDBRANCH   6  12
ENDBRANCH   1   6
BRANCH   1  14
ATOM     14  O   UNL     1       8.296  11.671   3.803  1.00  0.00    -0.388 OA
ATOM     15  H   UNL     1       8.582  12.504   3.349  1.00  0.00     0.211 HD
ENDBRANCH   1  14
TORSDOF 8
ENDMDL
