MODEL 1
REMARK VINA RESULT:    -3.982      0.000      0.000
REMARK INTER + INTRA:          -4.547
REMARK INTER:                  -4.447
REMARK INTRA:                  -0.099
REMARK UNBOUND:                -0.099
REMARK SMILES CCc1ccc(O)cc1O
REMARK SMILES IDX 3 1 9 2 8 3 6 4 5 5 4 6 2 7 1 8 10 9 7 11
REMARK H PARENT 10 10 7 12
REMARK Flexibility Score: inf
ROOT
ATOM      1  C   UNL     1     174.596 171.941 151.164  1.00  0.00    -0.006 A 
ATOM      2  C   UNL     1     174.671 173.308 150.830  1.00  0.00     0.122 A 
ATOM      3  C   UNL     1     174.830 174.267 151.842  1.00  0.00     0.092 A 
ATOM      4  C   UNL     1     174.927 173.874 153.180  1.00  0.00     0.119 A 
ATOM      5  C   UNL     1     174.868 172.515 153.512  1.00  0.00     0.047 A 
ATOM      6  C   UNL     1     174.708 171.554 152.510  1.00  0.00     0.011 A 
ENDROOT
BRANCH   1   7
ATOM      7  C   UNL     1     174.455 170.887 150.095  1.00  0.00     0.036 C 
ATOM      8  C   UNL     1     175.682 169.981 150.064  1.00  0.00     0.009 C 
ENDBRANCH   1   7
BRANCH   2   9
ATOM      9  O   UNL     1     174.590 173.710 149.498  1.00  0.00    -0.508 OA
ATOM     10  H   UNL     1     175.243 174.376 149.103  1.00  0.00     0.293 HD
ENDBRANCH   2   9
BRANCH   4  11
ATOM     11  O   UNL     1     175.086 174.840 154.171  1.00  0.00    -0.508 OA
ATOM     12  H   UNL     1     175.660 174.672 154.989  1.00  0.00     0.293 HD
ENDBRANCH   4  11
TORSDOF 3
ENDMDL
MODEL 2
REMARK VINA RESULT:    -3.934     11.257     13.194
REMARK INTER + INTRA:          -4.494
REMARK INTER:                  -4.392
REMARK INTRA:                  -0.102
REMARK UNBOUND:                -0.099
REMARK SMILES CCc1ccc(O)cc1O
REMARK SMILES IDX 3 1 9 2 8 3 6 4 5 5 4 6 2 7 1 8 10 9 7 11
REMARK H PARENT 10 10 7 12
REMARK Flexibility Score: inf
ROOT
ATOM      1  C   UNL     1     174.715 173.848 163.896  1.00  0.00    -0.006 A 
ATOM      2  C   UNL     1     174.669 174.996 164.712  1.00  0.00     0.122 A 
ATOM      3  C   UNL     1     173.872 175.001 165.866  1.00  0.00     0.092 A 
ATOM      4  C   UNL     1     173.131 173.870 166.219  1.00  0.00     0.119 A 
ATOM      5  C   UNL     1     173.187 172.724 165.418  1.00  0.00     0.047 A 
ATOM      6  C   UNL     1     173.978 172.710 164.266  1.00  0.00     0.011 A 
ENDROOT
BRANCH   1   7
ATOM      7  C   UNL     1     175.586 173.803 162.666  1.00  0.00     0.036 C 
ATOM      8  C   UNL     1     174.744 173.943 161.401  1.00  0.00     0.009 C 
ENDBRANCH   1   7
BRANCH   2   9
ATOM      9  O   UNL     1     175.415 176.125 164.376  1.00  0.00    -0.508 OA
ATOM     10  H   UNL     1     175.080 177.061 164.572  1.00  0.00     0.293 HD
ENDBRANCH   2   9
BRANCH   4  11
ATOM     11  O   UNL     1     172.345 173.894 167.370  1.00  0.00    -0.508 OA
ATOM     12  H   UNL     1     172.474 173.217 168.113  1.00  0.00     0.293 HD
ENDBRANCH   4  11
TORSDOF 3
ENDMDL
MODEL 3
REMARK VINA RESULT:    -3.848      2.710      4.118
REMARK INTER + INTRA:          -4.398
REMARK INTER:                  -4.294
REMARK INTRA:                  -0.103
REMARK UNBOUND:                -0.099
REMARK SMILES CCc1ccc(O)cc1O
REMARK SMILES IDX 3 1 9 2 8 3 6 4 5 5 4 6 2 7 1 8 10 9 7 11
REMARK H PARENT 10 10 7 12
REMARK Flexibility Score: inf
ROOT
ATOM      1  C   UNL     1     172.406 173.895 151.298  1.00  0.00    -0.006 A 
ATOM      2  C   UNL     1     172.956 173.667 152.576  1.00  0.00     0.122 A 
ATOM      3  C   UNL     1     173.948 172.690 152.745  1.00  0.00     0.092 A 
ATOM      4  C   UNL     1     174.404 171.947 151.652  1.00  0.00     0.119 A 
ATOM      5  C   UNL     1     173.868 172.182 150.380  1.00  0.00     0.047 A 
ATOM      6  C   UNL     1     172.879 173.153 150.203  1.00  0.00     0.011 A 
ENDROOT
BRANCH   1   7
ATOM      7  C   UNL     1     171.360 174.959 151.081  1.00  0.00     0.036 C 
ATOM      8  C   UNL     1     169.968 174.340 150.997  1.00  0.00     0.009 C 
ENDBRANCH   1   7
BRANCH   2   9
ATOM      9  O   UNL     1     172.519 174.413 153.670  1.00  0.00    -0.508 OA
ATOM     10  H   UNL     1     172.145 173.968 154.500  1.00  0.00     0.293 HD
ENDBRANCH   2   9
BRANCH   4  11
ATOM     11  O   UNL     1     175.390 170.981 151.840  1.00  0.00    -0.508 OA
ATOM     12  H   UNL     1     175.156 170.024 152.073  1.00  0.00     0.293 HD
ENDBRANCH   4  11
TORSDOF 3
ENDMDL
MODEL 4
REMARK VINA RESULT:    -3.835      0.921      3.357
REMARK INTER + INTRA:          -4.383
REMARK INTER:                  -4.297
REMARK INTRA:                  -0.085
REMARK UNBOUND:                -0.099
REMARK SMILES CCc1ccc(O)cc1O
REMARK SMILES IDX 3 1 9 2 8 3 6 4 5 5 4 6 2 7 1 8 10 9 7 11
REMARK H PARENT 10 10 7 12
REMARK Flexibility Score: inf
ROOT
ATOM      1  C   UNL     1     174.850 172.364 153.180  1.00  0.00    -0.006 A 
ATOM      2  C   UNL     1     174.969 173.750 152.952  1.00  0.00     0.122 A 
ATOM      3  C   UNL     1     174.896 174.251 151.644  1.00  0.00     0.092 A 
ATOM      4  C   UNL     1     174.695 173.386 150.565  1.00  0.00     0.119 A 
ATOM      5  C   UNL     1     174.562 172.011 150.792  1.00  0.00     0.047 A 
ATOM      6  C   UNL     1     174.634 171.503 152.091  1.00  0.00     0.011 A 
ENDROOT
BRANCH   1   7
ATOM      7  C   UNL     1     174.894 171.801 154.579  1.00  0.00     0.036 C 
ATOM      8  C   UNL     1     175.021 170.281 154.546  1.00  0.00     0.009 C 
ENDBRANCH   1   7
BRANCH   2   9
ATOM      9  O   UNL     1     175.155 174.624 154.023  1.00  0.00    -0.508 OA
ATOM     10  H   UNL     1     174.480 174.694 154.775  1.00  0.00     0.293 HD
ENDBRANCH   2   9
BRANCH   4  11
ATOM     11  O   UNL     1     174.625 173.903 149.272  1.00  0.00    -0.508 OA
ATOM     12  H   UNL     1     175.420 173.872 148.646  1.00  0.00     0.293 HD
ENDBRANCH   4  11
TORSDOF 3
ENDMDL
MODEL 5
REMARK VINA RESULT:    -3.832      2.001      2.628
REMARK INTER + INTRA:          -4.379
REMARK INTER:                  -4.281
REMARK INTRA:                  -0.098
REMARK UNBOUND:                -0.099
REMARK SMILES CCc1ccc(O)cc1O
REMARK SMILES IDX 3 1 9 2 8 3 6 4 5 5 4 6 2 7 1 8 10 9 7 11
REMARK H PARENT 10 10 7 12
REMARK Flexibility Score: inf
ROOT
ATOM      1  C   UNL     1     174.463 172.074 150.765  1.00  0.00    -0.006 A 
ATOM      2  C   UNL     1     174.479 172.364 152.145  1.00  0.00     0.122 A 
ATOM      3  C   UNL     1     173.664 173.387 152.653  1.00  0.00     0.092 A 
ATOM      4  C   UNL     1     172.827 174.114 151.802  1.00  0.00     0.119 A 
ATOM      5  C   UNL     1     172.800 173.817 150.434  1.00  0.00     0.047 A 
ATOM      6  C   UNL     1     173.608 172.801 149.919  1.00  0.00     0.011 A 
ENDROOT
BRANCH   1   7
ATOM      7  C   UNL     1     175.305 170.961 150.196  1.00  0.00     0.036 C 
ATOM      8  C   UNL     1     174.547 169.638 150.230  1.00  0.00     0.009 C 
ENDBRANCH   1   7
BRANCH   2   9
ATOM      9  O   UNL     1     175.300 171.635 153.005  1.00  0.00    -0.508 OA
ATOM     10  H   UNL     1     174.928 170.908 153.605  1.00  0.00     0.293 HD
ENDBRANCH   2   9
BRANCH   4  11
ATOM     11  O   UNL     1     172.025 175.126 152.326  1.00  0.00    -0.508 OA
ATOM     12  H   UNL     1     171.698 175.893 151.751  1.00  0.00     0.293 HD
ENDBRANCH   4  11
TORSDOF 3
ENDMDL
MODEL 6
REMARK VINA RESULT:    -3.822      9.918     11.919
REMARK INTER + INTRA:          -4.369
REMARK INTER:                  -4.265
REMARK INTRA:                  -0.104
REMARK UNBOUND:                -0.099
REMARK SMILES CCc1ccc(O)cc1O
REMARK SMILES IDX 3 1 9 2 8 3 6 4 5 5 4 6 2 7 1 8 10 9 7 11
REMARK H PARENT 10 10 7 12
REMARK Flexibility Score: inf
ROOT
ATOM      1  C   UNL     1     175.448 162.179 151.232  1.00  0.00    -0.006 A 
ATOM      2  C   UNL     1     175.457 161.566 152.501  1.00  0.00     0.122 A 
ATOM      3  C   UNL     1     174.845 160.317 152.678  1.00  0.00     0.092 A 
ATOM      4  C   UNL     1     174.235 159.668 151.601  1.00  0.00     0.119 A 
ATOM      5  C   UNL     1     174.238 160.269 150.337  1.00  0.00     0.047 A 
ATOM      6  C   UNL     1     174.844 161.514 150.151  1.00  0.00     0.011 A 
ENDROOT
BRANCH   1   7
ATOM      7  C   UNL     1     176.124 163.507 151.005  1.00  0.00     0.036 C 
ATOM      8  C   UNL     1     175.108 164.645 151.042  1.00  0.00     0.009 C 
ENDBRANCH   1   7
BRANCH   2   9
ATOM      9  O   UNL     1     176.076 162.198 153.580  1.00  0.00    -0.508 OA
ATOM     10  H   UNL     1     176.374 163.165 153.529  1.00  0.00     0.293 HD
ENDBRANCH   2   9
BRANCH   4  11
ATOM     11  O   UNL     1     173.632 158.427 151.797  1.00  0.00    -0.508 OA
ATOM     12  H   UNL     1     172.671 158.257 151.526  1.00  0.00     0.293 HD
ENDBRANCH   4  11
TORSDOF 3
ENDMDL
MODEL 7
REMARK VINA RESULT:    -3.752     12.195     14.071
REMARK INTER + INTRA:          -4.290
REMARK INTER:                  -4.186
REMARK INTRA:                  -0.103
REMARK UNBOUND:                -0.099
REMARK SMILES CCc1ccc(O)cc1O
REMARK SMILES IDX 3 1 9 2 8 3 6 4 5 5 4 6 2 7 1 8 10 9 7 11
REMARK H PARENT 10 10 7 12
REMARK Flexibility Score: inf
ROOT
ATOM      1  C   UNL     1     174.279 159.287 151.000  1.00  0.00    -0.006 A 
ATOM      2  C   UNL     1     173.838 159.446 152.329  1.00  0.00     0.122 A 
ATOM      3  C   UNL     1     172.620 158.878 152.733  1.00  0.00     0.092 A 
ATOM      4  C   UNL     1     171.846 158.146 151.829  1.00  0.00     0.119 A 
ATOM      5  C   UNL     1     172.290 157.976 150.512  1.00  0.00     0.047 A 
ATOM      6  C   UNL     1     173.501 158.539 150.101  1.00  0.00     0.011 A 
ENDROOT
BRANCH   1   7
ATOM      7  C   UNL     1     175.598 159.861 150.546  1.00  0.00     0.036 C 
ATOM      8  C   UNL     1     175.386 161.159 149.773  1.00  0.00     0.009 C 
ENDBRANCH   1   7
BRANCH   2   9
ATOM      9  O   UNL     1     174.610 160.162 153.244  1.00  0.00    -0.508 OA
ATOM     10  H   UNL     1     174.726 159.850 154.201  1.00  0.00     0.293 HD
ENDBRANCH   2   9
BRANCH   4  11
ATOM     11  O   UNL     1     170.640 157.589 152.249  1.00  0.00    -0.508 OA
ATOM     12  H   UNL     1     169.873 158.168 152.570  1.00  0.00     0.293 HD
ENDBRANCH   4  11
TORSDOF 3
ENDMDL
MODEL 8
REMARK VINA RESULT:    -3.740      2.495      3.641
REMARK INTER + INTRA:          -4.277
REMARK INTER:                  -4.176
REMARK INTRA:                  -0.101
REMARK UNBOUND:                -0.099
REMARK SMILES CCc1ccc(O)cc1O
REMARK SMILES IDX 3 1 9 2 8 3 6 4 5 5 4 6 2 7 1 8 10 9 7 11
REMARK H PARENT 10 10 7 12
REMARK Flexibility Score: inf
ROOT
ATOM      1  C   UNL     1     173.825 169.493 150.158  1.00  0.00    -0.006 A 
ATOM      2  C   UNL     1     174.886 170.357 150.499  1.00  0.00     0.122 A 
ATOM      3  C   UNL     1     174.692 171.746 150.472  1.00  0.00     0.092 A 
ATOM      4  C   UNL     1     173.450 172.280 150.118  1.00  0.00     0.119 A 
ATOM      5  C   UNL     1     172.392 171.424 149.792  1.00  0.00     0.047 A 
ATOM      6  C   UNL     1     172.576 170.039 149.816  1.00  0.00     0.011 A 
ENDROOT
BRANCH   1   7
ATOM      7  C   UNL     1     173.996 167.996 150.208  1.00  0.00     0.036 C 
ATOM      8  C   UNL     1     174.432 167.455 148.850  1.00  0.00     0.009 C 
ENDBRANCH   1   7
BRANCH   2   9
ATOM      9  O   UNL     1     176.125 169.834 150.868  1.00  0.00    -0.508 OA
ATOM     10  H   UNL     1     176.879 170.430 151.187  1.00  0.00     0.293 HD
ENDBRANCH   2   9
BRANCH   4  11
ATOM     11  O   UNL     1     173.277 173.663 150.097  1.00  0.00    -0.508 OA
ATOM     12  H   UNL     1     173.514 174.239 150.896  1.00  0.00     0.293 HD
ENDBRANCH   4  11
TORSDOF 3
ENDMDL
MODEL 9
REMARK VINA RESULT:    -3.735     11.845     13.703
REMARK INTER + INTRA:          -4.271
REMARK INTER:                  -4.184
REMARK INTRA:                  -0.087
REMARK UNBOUND:                -0.099
REMARK SMILES CCc1ccc(O)cc1O
REMARK SMILES IDX 3 1 9 2 8 3 6 4 5 5 4 6 2 7 1 8 10 9 7 11
REMARK H PARENT 10 10 7 12
REMARK Flexibility Score: inf
ROOT
ATOM      1  C   UNL     1     171.813 159.446 150.182  1.00  0.00    -0.006 A 
ATOM      2  C   UNL     1     172.946 158.659 150.473  1.00  0.00     0.122 A 
ATOM      3  C   UNL     1     174.225 159.234 150.433  1.00  0.00     0.092 A 
ATOM      4  C   UNL     1     174.383 160.587 150.117  1.00  0.00     0.119 A 
ATOM      5  C   UNL     1     173.258 161.373 149.842  1.00  0.00     0.047 A 
ATOM      6  C   UNL     1     171.981 160.808 149.878  1.00  0.00     0.011 A 
ENDROOT
BRANCH   1   7
ATOM      7  C   UNL     1     170.424 158.862 150.246  1.00  0.00     0.036 C 
ATOM      8  C   UNL     1     170.038 158.236 148.910  1.00  0.00     0.009 C 
ENDBRANCH   1   7
BRANCH   2   9
ATOM      9  O   UNL     1     172.798 157.313 150.803  1.00  0.00    -0.508 OA
ATOM     10  H   UNL     1     173.417 156.856 151.463  1.00  0.00     0.293 HD
ENDBRANCH   2   9
BRANCH   4  11
ATOM     11  O   UNL     1     175.662 161.140 150.083  1.00  0.00    -0.508 OA
ATOM     12  H   UNL     1     176.192 161.299 150.931  1.00  0.00     0.293 HD
ENDBRANCH   4  11
TORSDOF 3
ENDMDL
