MODEL 1
REMARK VINA RESULT:    -3.550      0.000      0.000
REMARK INTER + INTRA:          -8.425
REMARK INTER:                  -6.249
REMARK INTRA:                  -2.177
REMARK UNBOUND:                -2.177
REMARK SMILES CCCCCCCCCCCCCCC(=O)[O-]
REMARK SMILES IDX 9 1 10 2 11 3 12 4 13 5 14 6 15 7 16 8 17 9 8 10 7 11 6 12
REMARK SMILES IDX 5 13 4 14 3 15 2 16 1 17
REMARK H PARENT
REMARK Flexibility Score: inf
ROOT
ATOM      1  C   UNL     1      19.085  13.950 -19.926  1.00  0.00     0.000 C 
ENDROOT
BRANCH   1   2
ATOM      2  C   UNL     1      19.117  12.872 -18.829  1.00  0.00     0.000 C 
BRANCH   2   3
ATOM      3  C   UNL     1      18.141  13.101 -17.661  1.00  0.00     0.000 C 
BRANCH   3   4
ATOM      4  C   UNL     1      18.126  11.937 -16.656  1.00  0.00     0.000 C 
BRANCH   4   5
ATOM      5  C   UNL     1      19.402  11.082 -16.725  1.00  0.00     0.006 C 
BRANCH   5   6
ATOM      6  C   UNL     1      19.122   9.585 -16.530  1.00  0.00     0.053 C 
BRANCH   6   7
ATOM      7  C   UNL     1      20.191   8.767 -17.183  1.00  0.00     0.041 C 
ATOM      8  O   UNL     1      20.272   7.530 -16.954  1.00  0.00    -0.550 OA
ATOM      9  O   UNL     1      21.068   9.358 -18.083  1.00  0.00    -0.550 OA
ENDBRANCH   6   7
ENDBRANCH   5   6
ENDBRANCH   4   5
ENDBRANCH   3   4
ENDBRANCH   2   3
ENDBRANCH   1   2
BRANCH   1  10
ATOM     10  C   UNL     1      20.442  14.652 -20.113  1.00  0.00     0.000 C 
BRANCH  10  11
ATOM     11  C   UNL     1      20.346  16.179 -19.962  1.00  0.00    -0.000 C 
BRANCH  11  12
ATOM     12  C   UNL     1      19.809  16.602 -18.586  1.00  0.00    -0.000 C 
BRANCH  12  13
ATOM     13  C   UNL     1      20.903  16.641 -17.505  1.00  0.00    -0.000 C 
BRANCH  13  14
ATOM     14  C   UNL     1      20.515  15.902 -16.205  1.00  0.00    -0.000 C 
BRANCH  14  15
ATOM     15  C   UNL     1      21.142  14.499 -16.127  1.00  0.00    -0.000 C 
BRANCH  15  16
ATOM     16  C   UNL     1      22.376  14.352 -17.032  1.00  0.00    -0.003 C 
ATOM     17  C   UNL     1      22.578  12.921 -17.528  1.00  0.00     0.004 C 
ENDBRANCH  15  16
ENDBRANCH  14  15
ENDBRANCH  13  14
ENDBRANCH  12  13
ENDBRANCH  11  12
ENDBRANCH  10  11
ENDBRANCH   1  10
TORSDOF 13
ENDMDL
MODEL 2
REMARK VINA RESULT:    -3.517      1.689      3.364
REMARK INTER + INTRA:          -8.366
REMARK INTER:                  -6.901
REMARK INTRA:                  -1.465
REMARK UNBOUND:                -2.177
REMARK SMILES CCCCCCCCCCCCCCC(=O)[O-]
REMARK SMILES IDX 9 1 10 2 11 3 12 4 13 5 14 6 15 7 16 8 17 9 8 10 7 11 6 12
REMARK SMILES IDX 5 13 4 14 3 15 2 16 1 17
REMARK H PARENT
REMARK Flexibility Score: inf
ROOT
ATOM      1  C   UNL     1      18.809  12.505 -18.340  1.00  0.00     0.000 C 
ENDROOT
BRANCH   1   2
ATOM      2  C   UNL     1      18.094  11.148 -18.462  1.00  0.00     0.000 C 
BRANCH   2   3
ATOM      3  C   UNL     1      19.000   9.916 -18.291  1.00  0.00     0.000 C 
BRANCH   3   4
ATOM      4  C   UNL     1      19.223   9.536 -16.817  1.00  0.00     0.000 C 
BRANCH   4   5
ATOM      5  C   UNL     1      19.722   8.091 -16.649  1.00  0.00     0.006 C 
BRANCH   5   6
ATOM      6  C   UNL     1      18.772   7.060 -17.274  1.00  0.00     0.053 C 
BRANCH   6   7
ATOM      7  C   UNL     1      19.422   5.714 -17.320  1.00  0.00     0.041 C 
ATOM      8  O   UNL     1      20.660   5.600 -17.110  1.00  0.00    -0.550 OA
ATOM      9  O   UNL     1      18.656   4.578 -17.546  1.00  0.00    -0.550 OA
ENDBRANCH   6   7
ENDBRANCH   5   6
ENDBRANCH   4   5
ENDBRANCH   3   4
ENDBRANCH   2   3
ENDBRANCH   1   2
BRANCH   1  10
ATOM     10  C   UNL     1      18.433  13.266 -17.055  1.00  0.00     0.000 C 
BRANCH  10  11
ATOM     11  C   UNL     1      19.526  13.186 -15.977  1.00  0.00    -0.000 C 
BRANCH  11  12
ATOM     12  C   UNL     1      20.919  12.920 -16.569  1.00  0.00    -0.000 C 
BRANCH  12  13
ATOM     13  C   UNL     1      21.756  14.201 -16.724  1.00  0.00    -0.000 C 
BRANCH  13  14
ATOM     14  C   UNL     1      21.119  15.440 -16.058  1.00  0.00    -0.000 C 
BRANCH  14  15
ATOM     15  C   UNL     1      20.988  16.621 -17.037  1.00  0.00    -0.000 C 
BRANCH  15  16
ATOM     16  C   UNL     1      19.732  16.522 -17.917  1.00  0.00    -0.003 C 
ATOM     17  C   UNL     1      20.061  16.272 -19.389  1.00  0.00     0.004 C 
ENDBRANCH  15  16
ENDBRANCH  14  15
ENDBRANCH  13  14
ENDBRANCH  12  13
ENDBRANCH  11  12
ENDBRANCH  10  11
ENDBRANCH   1  10
TORSDOF 13
ENDMDL
MODEL 3
REMARK VINA RESULT:    -3.496      1.322      2.702
REMARK INTER + INTRA:          -8.330
REMARK INTER:                  -6.112
REMARK INTRA:                  -2.218
REMARK UNBOUND:                -2.177
REMARK SMILES CCCCCCCCCCCCCCC(=O)[O-]
REMARK SMILES IDX 9 1 10 2 11 3 12 4 13 5 14 6 15 7 16 8 17 9 8 10 7 11 6 12
REMARK SMILES IDX 5 13 4 14 3 15 2 16 1 17
REMARK H PARENT
REMARK Flexibility Score: inf
ROOT
ATOM      1  C   UNL     1      21.109  15.185 -16.109  1.00  0.00     0.000 C 
ENDROOT
BRANCH   1   2
ATOM      2  C   UNL     1      19.923  14.430 -15.483  1.00  0.00     0.000 C 
BRANCH   2   3
ATOM      3  C   UNL     1      19.727  12.990 -15.991  1.00  0.00     0.000 C 
BRANCH   3   4
ATOM      4  C   UNL     1      18.509  12.843 -16.920  1.00  0.00     0.000 C 
BRANCH   4   5
ATOM      5  C   UNL     1      17.929  11.419 -16.911  1.00  0.00     0.006 C 
BRANCH   5   6
ATOM      6  C   UNL     1      19.010  10.340 -16.754  1.00  0.00     0.053 C 
BRANCH   6   7
ATOM      7  C   UNL     1      19.414   9.811 -18.093  1.00  0.00     0.041 C 
ATOM      8  O   UNL     1      20.584   9.381 -18.278  1.00  0.00    -0.550 OA
ATOM      9  O   UNL     1      18.487   9.744 -19.125  1.00  0.00    -0.550 OA
ENDBRANCH   6   7
ENDBRANCH   5   6
ENDBRANCH   4   5
ENDBRANCH   3   4
ENDBRANCH   2   3
ENDBRANCH   1   2
BRANCH   1  10
ATOM     10  C   UNL     1      20.696  16.527 -16.741  1.00  0.00     0.000 C 
BRANCH  10  11
ATOM     11  C   UNL     1      19.675  16.357 -17.877  1.00  0.00    -0.000 C 
BRANCH  11  12
ATOM     12  C   UNL     1      20.342  16.067 -19.231  1.00  0.00    -0.000 C 
BRANCH  12  13
ATOM     13  C   UNL     1      19.954  14.694 -19.805  1.00  0.00    -0.000 C 
BRANCH  13  14
ATOM     14  C   UNL     1      21.001  13.591 -19.533  1.00  0.00    -0.000 C 
BRANCH  14  15
ATOM     15  C   UNL     1      22.436  14.149 -19.507  1.00  0.00    -0.000 C 
BRANCH  15  16
ATOM     16  C   UNL     1      23.288  13.533 -18.385  1.00  0.00    -0.003 C 
ATOM     17  C   UNL     1      22.737  12.197 -17.891  1.00  0.00     0.004 C 
ENDBRANCH  15  16
ENDBRANCH  14  15
ENDBRANCH  13  14
ENDBRANCH  12  13
ENDBRANCH  11  12
ENDBRANCH  10  11
ENDBRANCH   1  10
TORSDOF 13
ENDMDL
MODEL 4
REMARK VINA RESULT:    -3.430      1.553      3.103
REMARK INTER + INTRA:          -8.213
REMARK INTER:                  -5.816
REMARK INTRA:                  -2.397
REMARK UNBOUND:                -2.177
REMARK SMILES CCCCCCCCCCCCCCC(=O)[O-]
REMARK SMILES IDX 9 1 10 2 11 3 12 4 13 5 14 6 15 7 16 8 17 9 8 10 7 11 6 12
REMARK SMILES IDX 5 13 4 14 3 15 2 16 1 17
REMARK H PARENT
REMARK Flexibility Score: inf
ROOT
ATOM      1  C   UNL     1      22.524  13.955 -17.369  1.00  0.00     0.000 C 
ENDROOT
BRANCH   1   2
ATOM      2  C   UNL     1      21.541  13.115 -16.534  1.00  0.00     0.000 C 
BRANCH   2   3
ATOM      3  C   UNL     1      20.429  13.918 -15.834  1.00  0.00     0.000 C 
BRANCH   3   4
ATOM      4  C   UNL     1      19.176  13.076 -15.543  1.00  0.00     0.000 C 
BRANCH   4   5
ATOM      5  C   UNL     1      19.172  11.740 -16.306  1.00  0.00     0.006 C 
BRANCH   5   6
ATOM      6  C   UNL     1      18.017  11.636 -17.311  1.00  0.00     0.053 C 
BRANCH   6   7
ATOM      7  C   UNL     1      18.390  10.727 -18.439  1.00  0.00     0.041 C 
ATOM      8  O   UNL     1      19.345   9.914 -18.310  1.00  0.00    -0.550 OA
ATOM      9  O   UNL     1      17.655  10.741 -19.617  1.00  0.00    -0.550 OA
ENDBRANCH   6   7
ENDBRANCH   5   6
ENDBRANCH   4   5
ENDBRANCH   3   4
ENDBRANCH   2   3
ENDBRANCH   1   2
BRANCH   1  10
ATOM     10  C   UNL     1      22.598  15.422 -16.908  1.00  0.00     0.000 C 
BRANCH  10  11
ATOM     11  C   UNL     1      22.342  16.416 -18.051  1.00  0.00    -0.000 C 
BRANCH  11  12
ATOM     12  C   UNL     1      21.101  17.289 -17.807  1.00  0.00    -0.000 C 
BRANCH  12  13
ATOM     13  C   UNL     1      19.789  16.579 -18.182  1.00  0.00    -0.000 C 
BRANCH  13  14
ATOM     14  C   UNL     1      19.859  15.818 -19.524  1.00  0.00    -0.000 C 
BRANCH  14  15
ATOM     15  C   UNL     1      19.399  14.356 -19.386  1.00  0.00    -0.000 C 
BRANCH  15  16
ATOM     16  C   UNL     1      20.305  13.377 -20.149  1.00  0.00    -0.003 C 
ATOM     17  C   UNL     1      21.446  14.079 -20.884  1.00  0.00     0.004 C 
ENDBRANCH  15  16
ENDBRANCH  14  15
ENDBRANCH  13  14
ENDBRANCH  12  13
ENDBRANCH  11  12
ENDBRANCH  10  11
ENDBRANCH   1  10
TORSDOF 13
ENDMDL
MODEL 5
REMARK VINA RESULT:    -3.419      1.362      2.871
REMARK INTER + INTRA:          -8.194
REMARK INTER:                  -6.485
REMARK INTRA:                  -1.709
REMARK UNBOUND:                -2.177
REMARK SMILES CCCCCCCCCCCCCCC(=O)[O-]
REMARK SMILES IDX 9 1 10 2 11 3 12 4 13 5 14 6 15 7 16 8 17 9 8 10 7 11 6 12
REMARK SMILES IDX 5 13 4 14 3 15 2 16 1 17
REMARK H PARENT
REMARK Flexibility Score: inf
ROOT
ATOM      1  C   UNL     1      19.668  13.837 -16.286  1.00  0.00     0.000 C 
ENDROOT
BRANCH   1   2
ATOM      2  C   UNL     1      19.135  12.514 -15.708  1.00  0.00     0.000 C 
BRANCH   2   3
ATOM      3  C   UNL     1      18.033  11.836 -16.542  1.00  0.00     0.000 C 
BRANCH   3   4
ATOM      4  C   UNL     1      18.509  11.429 -17.946  1.00  0.00     0.000 C 
BRANCH   4   5
ATOM      5  C   UNL     1      19.618  10.364 -17.908  1.00  0.00     0.006 C 
BRANCH   5   6
ATOM      6  C   UNL     1      19.094   8.952 -18.205  1.00  0.00     0.053 C 
BRANCH   6   7
ATOM      7  C   UNL     1      19.327   8.054 -17.032  1.00  0.00     0.041 C 
ATOM      8  O   UNL     1      19.464   8.540 -15.877  1.00  0.00    -0.550 OA
ATOM      9  O   UNL     1      19.343   6.675 -17.203  1.00  0.00    -0.550 OA
ENDBRANCH   6   7
ENDBRANCH   5   6
ENDBRANCH   4   5
ENDBRANCH   3   4
ENDBRANCH   2   3
ENDBRANCH   1   2
BRANCH   1  10
ATOM     10  C   UNL     1      21.203  13.871 -16.386  1.00  0.00     0.000 C 
BRANCH  10  11
ATOM     11  C   UNL     1      21.769  15.300 -16.348  1.00  0.00    -0.000 C 
BRANCH  11  12
ATOM     12  C   UNL     1      20.696  16.366 -16.625  1.00  0.00    -0.000 C 
BRANCH  12  13
ATOM     13  C   UNL     1      21.062  17.287 -17.801  1.00  0.00    -0.000 C 
BRANCH  13  14
ATOM     14  C   UNL     1      20.428  16.859 -19.143  1.00  0.00    -0.000 C 
BRANCH  14  15
ATOM     15  C   UNL     1      21.389  16.010 -19.993  1.00  0.00    -0.000 C 
BRANCH  15  16
ATOM     16  C   UNL     1      20.992  14.525 -20.029  1.00  0.00    -0.003 C 
ATOM     17  C   UNL     1      19.479  14.317 -19.971  1.00  0.00     0.004 C 
ENDBRANCH  15  16
ENDBRANCH  14  15
ENDBRANCH  13  14
ENDBRANCH  12  13
ENDBRANCH  11  12
ENDBRANCH  10  11
ENDBRANCH   1  10
TORSDOF 13
ENDMDL
MODEL 6
REMARK VINA RESULT:    -3.395      4.076      6.588
REMARK INTER + INTRA:          -8.152
REMARK INTER:                  -6.939
REMARK INTRA:                  -1.213
REMARK UNBOUND:                -2.177
REMARK SMILES CCCCCCCCCCCCCCC(=O)[O-]
REMARK SMILES IDX 9 1 10 2 11 3 12 4 13 5 14 6 15 7 16 8 17 9 8 10 7 11 6 12
REMARK SMILES IDX 5 13 4 14 3 15 2 16 1 17
REMARK H PARENT
REMARK Flexibility Score: inf
ROOT
ATOM      1  C   UNL     1      22.923  15.396 -17.430  1.00  0.00     0.000 C 
ENDROOT
BRANCH   1   2
ATOM      2  C   UNL     1      22.350  16.584 -18.222  1.00  0.00     0.000 C 
BRANCH   2   3
ATOM      3  C   UNL     1      21.021  17.146 -17.683  1.00  0.00     0.000 C 
BRANCH   3   4
ATOM      4  C   UNL     1      19.831  16.867 -18.617  1.00  0.00     0.000 C 
BRANCH   4   5
ATOM      5  C   UNL     1      20.245  16.797 -20.096  1.00  0.00     0.006 C 
BRANCH   5   6
ATOM      6  C   UNL     1      19.042  16.695 -21.044  1.00  0.00     0.053 C 
BRANCH   6   7
ATOM      7  C   UNL     1      18.583  18.059 -21.450  1.00  0.00     0.041 C 
ATOM      8  O   UNL     1      19.375  18.849 -22.030  1.00  0.00    -0.550 OA
ATOM      9  O   UNL     1      17.266  18.444 -21.234  1.00  0.00    -0.550 OA
ENDBRANCH   6   7
ENDBRANCH   5   6
ENDBRANCH   4   5
ENDBRANCH   3   4
ENDBRANCH   2   3
ENDBRANCH   1   2
BRANCH   1  10
ATOM     10  C   UNL     1      22.358  14.041 -17.892  1.00  0.00     0.000 C 
BRANCH  10  11
ATOM     11  C   UNL     1      21.743  13.230 -16.740  1.00  0.00    -0.000 C 
BRANCH  11  12
ATOM     12  C   UNL     1      20.686  14.026 -15.957  1.00  0.00    -0.000 C 
BRANCH  12  13
ATOM     13  C   UNL     1      19.441  13.189 -15.618  1.00  0.00    -0.000 C 
BRANCH  13  14
ATOM     14  C   UNL     1      18.627  12.759 -16.858  1.00  0.00    -0.000 C 
BRANCH  14  15
ATOM     15  C   UNL     1      18.045  11.342 -16.706  1.00  0.00    -0.000 C 
BRANCH  15  16
ATOM     16  C   UNL     1      18.889  10.277 -17.426  1.00  0.00    -0.003 C 
ATOM     17  C   UNL     1      19.371   9.172 -16.488  1.00  0.00     0.004 C 
ENDBRANCH  15  16
ENDBRANCH  14  15
ENDBRANCH  13  14
ENDBRANCH  12  13
ENDBRANCH  11  12
ENDBRANCH  10  11
ENDBRANCH   1  10
TORSDOF 13
ENDMDL
MODEL 7
REMARK VINA RESULT:    -3.383      1.125      2.598
REMARK INTER + INTRA:          -8.130
REMARK INTER:                  -6.082
REMARK INTRA:                  -2.048
REMARK UNBOUND:                -2.177
REMARK SMILES CCCCCCCCCCCCCCC(=O)[O-]
REMARK SMILES IDX 9 1 10 2 11 3 12 4 13 5 14 6 15 7 16 8 17 9 8 10 7 11 6 12
REMARK SMILES IDX 5 13 4 14 3 15 2 16 1 17
REMARK H PARENT
REMARK Flexibility Score: inf
ROOT
ATOM      1  C   UNL     1      20.943  13.143 -19.096  1.00  0.00     0.000 C 
ENDROOT
BRANCH   1   2
ATOM      2  C   UNL     1      19.479  13.586 -18.924  1.00  0.00     0.000 C 
BRANCH   2   3
ATOM      3  C   UNL     1      18.882  13.334 -17.527  1.00  0.00     0.000 C 
BRANCH   3   4
ATOM      4  C   UNL     1      17.874  12.172 -17.508  1.00  0.00     0.000 C 
BRANCH   4   5
ATOM      5  C   UNL     1      18.393  10.955 -16.726  1.00  0.00     0.006 C 
BRANCH   5   6
ATOM      6  C   UNL     1      19.569  10.259 -17.425  1.00  0.00     0.053 C 
BRANCH   6   7
ATOM      7  C   UNL     1      19.680   8.839 -16.967  1.00  0.00     0.041 C 
ATOM      8  O   UNL     1      20.682   8.145 -17.288  1.00  0.00    -0.550 OA
ATOM      9  O   UNL     1      18.703   8.294 -16.144  1.00  0.00    -0.550 OA
ENDBRANCH   6   7
ENDBRANCH   5   6
ENDBRANCH   4   5
ENDBRANCH   3   4
ENDBRANCH   2   3
ENDBRANCH   1   2
BRANCH   1  10
ATOM     10  C   UNL     1      21.748  13.219 -17.786  1.00  0.00     0.000 C 
BRANCH  10  11
ATOM     11  C   UNL     1      23.024  14.065 -17.923  1.00  0.00    -0.000 C 
BRANCH  11  12
ATOM     12  C   UNL     1      22.940  15.389 -17.146  1.00  0.00    -0.000 C 
BRANCH  12  13
ATOM     13  C   UNL     1      21.637  15.525 -16.339  1.00  0.00    -0.000 C 
BRANCH  13  14
ATOM     14  C   UNL     1      20.673  16.595 -16.896  1.00  0.00    -0.000 C 
BRANCH  14  15
ATOM     15  C   UNL     1      21.268  17.337 -18.106  1.00  0.00    -0.000 C 
BRANCH  15  16
ATOM     16  C   UNL     1      20.530  17.019 -19.416  1.00  0.00    -0.003 C 
ATOM     17  C   UNL     1      21.468  16.530 -20.518  1.00  0.00     0.004 C 
ENDBRANCH  15  16
ENDBRANCH  14  15
ENDBRANCH  13  14
ENDBRANCH  12  13
ENDBRANCH  11  12
ENDBRANCH  10  11
ENDBRANCH   1  10
TORSDOF 13
ENDMDL
MODEL 8
REMARK VINA RESULT:    -3.354      2.790      6.090
REMARK INTER + INTRA:          -8.080
REMARK INTER:                  -6.430
REMARK INTRA:                  -1.651
REMARK UNBOUND:                -2.177
REMARK SMILES CCCCCCCCCCCCCCC(=O)[O-]
REMARK SMILES IDX 9 1 10 2 11 3 12 4 13 5 14 6 15 7 16 8 17 9 8 10 7 11 6 12
REMARK SMILES IDX 5 13 4 14 3 15 2 16 1 17
REMARK H PARENT
REMARK Flexibility Score: inf
ROOT
ATOM      1  C   UNL     1      19.802  13.671 -16.088  1.00  0.00     0.000 C 
ENDROOT
BRANCH   1   2
ATOM      2  C   UNL     1      21.244  13.622 -16.621  1.00  0.00     0.000 C 
BRANCH   2   3
ATOM      3  C   UNL     1      21.945  14.988 -16.730  1.00  0.00     0.000 C 
BRANCH   3   4
ATOM      4  C   UNL     1      21.014  16.167 -16.401  1.00  0.00     0.000 C 
BRANCH   4   5
ATOM      5  C   UNL     1      20.957  17.208 -17.531  1.00  0.00     0.006 C 
BRANCH   5   6
ATOM      6  C   UNL     1      21.425  16.643 -18.880  1.00  0.00     0.053 C 
BRANCH   6   7
ATOM      7  C   UNL     1      20.248  16.312 -19.741  1.00  0.00     0.041 C 
ATOM      8  O   UNL     1      19.627  15.227 -19.577  1.00  0.00    -0.550 OA
ATOM      9  O   UNL     1      19.803  17.220 -20.693  1.00  0.00    -0.550 OA
ENDBRANCH   6   7
ENDBRANCH   5   6
ENDBRANCH   4   5
ENDBRANCH   3   4
ENDBRANCH   2   3
ENDBRANCH   1   2
BRANCH   1  10
ATOM     10  C   UNL     1      19.225  12.274 -15.796  1.00  0.00     0.000 C 
BRANCH  10  11
ATOM     11  C   UNL     1      17.951  11.978 -16.605  1.00  0.00    -0.000 C 
BRANCH  11  12
ATOM     12  C   UNL     1      18.109  12.313 -18.097  1.00  0.00    -0.000 C 
BRANCH  12  13
ATOM     13  C   UNL     1      18.502  11.090 -18.944  1.00  0.00    -0.000 C 
BRANCH  13  14
ATOM     14  C   UNL     1      20.025  10.840 -18.999  1.00  0.00    -0.000 C 
BRANCH  14  15
ATOM     15  C   UNL     1      20.398   9.433 -18.498  1.00  0.00    -0.000 C 
BRANCH  15  16
ATOM     16  C   UNL     1      19.233   8.732 -17.780  1.00  0.00    -0.003 C 
ATOM     17  C   UNL     1      19.498   8.524 -16.290  1.00  0.00     0.004 C 
ENDBRANCH  15  16
ENDBRANCH  14  15
ENDBRANCH  13  14
ENDBRANCH  12  13
ENDBRANCH  11  12
ENDBRANCH  10  11
ENDBRANCH   1  10
TORSDOF 13
ENDMDL
MODEL 9
REMARK VINA RESULT:    -3.295      3.435      6.354
REMARK INTER + INTRA:          -7.976
REMARK INTER:                  -6.439
REMARK INTRA:                  -1.536
REMARK UNBOUND:                -2.177
REMARK SMILES CCCCCCCCCCCCCCC(=O)[O-]
REMARK SMILES IDX 9 1 10 2 11 3 12 4 13 5 14 6 15 7 16 8 17 9 8 10 7 11 6 12
REMARK SMILES IDX 5 13 4 14 3 15 2 16 1 17
REMARK H PARENT
REMARK Flexibility Score: inf
ROOT
ATOM      1  C   UNL     1      21.108  14.032 -17.228  1.00  0.00     0.000 C 
ENDROOT
BRANCH   1   2
ATOM      2  C   UNL     1      21.345  15.273 -16.349  1.00  0.00     0.000 C 
BRANCH   2   3
ATOM      3  C   UNL     1      20.521  16.514 -16.740  1.00  0.00     0.000 C 
BRANCH   3   4
ATOM      4  C   UNL     1      19.722  16.318 -18.039  1.00  0.00     0.000 C 
BRANCH   4   5
ATOM      5  C   UNL     1      20.336  17.073 -19.229  1.00  0.00     0.006 C 
BRANCH   5   6
ATOM      6  C   UNL     1      20.091  16.366 -20.570  1.00  0.00     0.053 C 
BRANCH   6   7
ATOM      7  C   UNL     1      18.795  16.818 -21.166  1.00  0.00     0.041 C 
ATOM      8  O   UNL     1      18.318  17.944 -20.866  1.00  0.00    -0.550 OA
ATOM      9  O   UNL     1      18.138  16.017 -22.091  1.00  0.00    -0.550 OA
ENDBRANCH   6   7
ENDBRANCH   5   6
ENDBRANCH   4   5
ENDBRANCH   3   4
ENDBRANCH   2   3
ENDBRANCH   1   2
BRANCH   1  10
ATOM     10  C   UNL     1      20.794  12.769 -16.405  1.00  0.00     0.000 C 
BRANCH  10  11
ATOM     11  C   UNL     1      19.318  12.688 -15.985  1.00  0.00    -0.000 C 
BRANCH  11  12
ATOM     12  C   UNL     1      18.357  12.990 -17.146  1.00  0.00    -0.000 C 
BRANCH  12  13
ATOM     13  C   UNL     1      17.669  11.727 -17.693  1.00  0.00    -0.000 C 
BRANCH  13  14
ATOM     14  C   UNL     1      18.458  11.035 -18.826  1.00  0.00    -0.000 C 
BRANCH  14  15
ATOM     15  C   UNL     1      18.713   9.547 -18.529  1.00  0.00    -0.000 C 
BRANCH  15  16
ATOM     16  C   UNL     1      19.888   9.330 -17.562  1.00  0.00    -0.003 C 
ATOM     17  C   UNL     1      19.475   8.597 -16.286  1.00  0.00     0.004 C 
ENDBRANCH  15  16
ENDBRANCH  14  15
ENDBRANCH  13  14
ENDBRANCH  12  13
ENDBRANCH  11  12
ENDBRANCH  10  11
ENDBRANCH   1  10
TORSDOF 13
ENDMDL
