MODEL 1
REMARK VINA RESULT:    -3.632      0.000      0.000
REMARK INTER + INTRA:          -6.072
REMARK INTER:                  -5.543
REMARK INTRA:                  -0.529
REMARK UNBOUND:                -0.529
REMARK SMILES CCCCCCCCCCC(=O)[O-]
REMARK SMILES IDX 7 1 8 2 9 3 10 4 11 5 12 6 13 7 6 8 5 9 4 10 3 11 2 12 1 13
REMARK H PARENT
REMARK Flexibility Score: inf
ROOT
ATOM      1  C   UNL     1      61.240  31.703  60.068  1.00  0.00     0.000 C 
ENDROOT
BRANCH   1   2
ATOM      2  C   UNL     1      61.157  30.781  61.297  1.00  0.00     0.000 C 
BRANCH   2   3
ATOM      3  C   UNL     1      62.460  30.001  61.540  1.00  0.00     0.006 C 
BRANCH   3   4
ATOM      4  C   UNL     1      62.730  28.954  60.452  1.00  0.00     0.053 C 
BRANCH   4   5
ATOM      5  C   UNL     1      61.782  27.805  60.587  1.00  0.00     0.041 C 
ATOM      6  O   UNL     1      60.932  27.574  59.687  1.00  0.00    -0.550 OA
ATOM      7  O   UNL     1      61.869  26.958  61.685  1.00  0.00    -0.550 OA
ENDBRANCH   4   5
ENDBRANCH   3   4
ENDBRANCH   2   3
ENDBRANCH   1   2
BRANCH   1   8
ATOM      8  C   UNL     1      62.349  32.759  60.197  1.00  0.00     0.000 C 
BRANCH   8   9
ATOM      9  C   UNL     1      61.826  34.190  60.005  1.00  0.00    -0.000 C 
BRANCH   9  10
ATOM     10  C   UNL     1      62.851  35.220  60.500  1.00  0.00    -0.000 C 
BRANCH  10  11
ATOM     11  C   UNL     1      64.222  34.566  60.725  1.00  0.00    -0.000 C 
BRANCH  11  12
ATOM     12  C   UNL     1      65.193  35.480  61.489  1.00  0.00    -0.003 C 
ATOM     13  C   UNL     1      64.766  36.947  61.465  1.00  0.00     0.004 C 
ENDBRANCH  11  12
ENDBRANCH  10  11
ENDBRANCH   9  10
ENDBRANCH   8   9
ENDBRANCH   1   8
TORSDOF 9
ENDMDL
MODEL 2
REMARK VINA RESULT:    -3.600     11.886     13.580
REMARK INTER + INTRA:          -6.024
REMARK INTER:                  -5.265
REMARK INTRA:                  -0.759
REMARK UNBOUND:                -0.529
REMARK SMILES CCCCCCCCCCC(=O)[O-]
REMARK SMILES IDX 7 1 8 2 9 3 10 4 11 5 12 6 13 7 6 8 5 9 4 10 3 11 2 12 1 13
REMARK H PARENT
REMARK Flexibility Score: inf
ROOT
ATOM      1  C   UNL     1      58.575  29.004  50.552  1.00  0.00     0.000 C 
ENDROOT
BRANCH   1   2
ATOM      2  C   UNL     1      59.313  29.200  49.216  1.00  0.00     0.000 C 
BRANCH   2   3
ATOM      3  C   UNL     1      60.403  28.142  48.982  1.00  0.00     0.006 C 
BRANCH   3   4
ATOM      4  C   UNL     1      59.929  26.723  49.324  1.00  0.00     0.053 C 
BRANCH   4   5
ATOM      5  C   UNL     1      61.096  25.851  49.664  1.00  0.00     0.041 C 
ATOM      6  O   UNL     1      60.923  24.630  49.916  1.00  0.00    -0.550 OA
ATOM      7  O   UNL     1      62.383  26.376  49.653  1.00  0.00    -0.550 OA
ENDBRANCH   4   5
ENDBRANCH   3   4
ENDBRANCH   2   3
ENDBRANCH   1   2
BRANCH   1   8
ATOM      8  C   UNL     1      57.069  28.764  50.365  1.00  0.00     0.000 C 
BRANCH   8   9
ATOM      9  C   UNL     1      56.427  28.068  51.573  1.00  0.00    -0.000 C 
BRANCH   9  10
ATOM     10  C   UNL     1      56.005  26.635  51.221  1.00  0.00    -0.000 C 
BRANCH  10  11
ATOM     11  C   UNL     1      56.215  26.352  49.726  1.00  0.00    -0.000 C 
BRANCH  11  12
ATOM     12  C   UNL     1      54.940  25.837  49.039  1.00  0.00    -0.003 C 
ATOM     13  C   UNL     1      53.760  26.797  49.186  1.00  0.00     0.004 C 
ENDBRANCH  11  12
ENDBRANCH  10  11
ENDBRANCH   9  10
ENDBRANCH   8   9
ENDBRANCH   1   8
TORSDOF 9
ENDMDL
MODEL 3
REMARK VINA RESULT:    -3.584      1.514      2.341
REMARK INTER + INTRA:          -5.999
REMARK INTER:                  -4.870
REMARK INTRA:                  -1.128
REMARK UNBOUND:                -0.529
REMARK SMILES CCCCCCCCCCC(=O)[O-]
REMARK SMILES IDX 7 1 8 2 9 3 10 4 11 5 12 6 13 7 6 8 5 9 4 10 3 11 2 12 1 13
REMARK H PARENT
REMARK Flexibility Score: inf
ROOT
ATOM      1  C   UNL     1      62.350  32.500  58.917  1.00  0.00     0.000 C 
ENDROOT
BRANCH   1   2
ATOM      2  C   UNL     1      61.495  32.461  60.196  1.00  0.00     0.000 C 
BRANCH   2   3
ATOM      3  C   UNL     1      61.010  31.043  60.540  1.00  0.00     0.006 C 
BRANCH   3   4
ATOM      4  C   UNL     1      61.839  30.391  61.654  1.00  0.00     0.053 C 
BRANCH   4   5
ATOM      5  C   UNL     1      62.767  29.367  61.083  1.00  0.00     0.041 C 
ATOM      6  O   UNL     1      63.835  29.724  60.517  1.00  0.00    -0.550 OA
ATOM      7  O   UNL     1      62.479  28.015  61.218  1.00  0.00    -0.550 OA
ENDBRANCH   4   5
ENDBRANCH   3   4
ENDBRANCH   2   3
ENDBRANCH   1   2
BRANCH   1   8
ATOM      8  C   UNL     1      63.705  33.191  59.134  1.00  0.00     0.000 C 
BRANCH   8   9
ATOM      9  C   UNL     1      64.053  33.355  60.621  1.00  0.00    -0.000 C 
BRANCH   9  10
ATOM     10  C   UNL     1      64.719  34.712  60.883  1.00  0.00    -0.000 C 
BRANCH  10  11
ATOM     11  C   UNL     1      63.962  35.842  60.170  1.00  0.00    -0.000 C 
BRANCH  11  12
ATOM     12  C   UNL     1      62.658  36.225  60.889  1.00  0.00    -0.003 C 
ATOM     13  C   UNL     1      61.441  36.181  59.966  1.00  0.00     0.004 C 
ENDBRANCH  11  12
ENDBRANCH  10  11
ENDBRANCH   9  10
ENDBRANCH   8   9
ENDBRANCH   1   8
TORSDOF 9
ENDMDL
MODEL 4
REMARK VINA RESULT:    -3.579      2.560      3.163
REMARK INTER + INTRA:          -5.991
REMARK INTER:                  -5.376
REMARK INTRA:                  -0.615
REMARK UNBOUND:                -0.529
REMARK SMILES CCCCCCCCCCC(=O)[O-]
REMARK SMILES IDX 7 1 8 2 9 3 10 4 11 5 12 6 13 7 6 8 5 9 4 10 3 11 2 12 1 13
REMARK H PARENT
REMARK Flexibility Score: inf
ROOT
ATOM      1  C   UNL     1      62.060  30.135  61.579  1.00  0.00     0.000 C 
ENDROOT
BRANCH   1   2
ATOM      2  C   UNL     1      62.296  28.956  60.618  1.00  0.00     0.000 C 
BRANCH   2   3
ATOM      3  C   UNL     1      63.765  28.503  60.587  1.00  0.00     0.006 C 
BRANCH   3   4
ATOM      4  C   UNL     1      64.745  29.679  60.677  1.00  0.00     0.053 C 
BRANCH   4   5
ATOM      5  C   UNL     1      66.099  29.268  60.192  1.00  0.00     0.041 C 
ATOM      6  O   UNL     1      66.529  29.681  59.082  1.00  0.00    -0.550 OA
ATOM      7  O   UNL     1      66.909  28.467  60.988  1.00  0.00    -0.550 OA
ENDBRANCH   4   5
ENDBRANCH   3   4
ENDBRANCH   2   3
ENDBRANCH   1   2
BRANCH   1   8
ATOM      8  C   UNL     1      61.053  31.154  61.025  1.00  0.00     0.000 C 
BRANCH   8   9
ATOM      9  C   UNL     1      61.528  31.804  59.718  1.00  0.00    -0.000 C 
BRANCH   9  10
ATOM     10  C   UNL     1      61.825  33.296  59.921  1.00  0.00    -0.000 C 
BRANCH  10  11
ATOM     11  C   UNL     1      63.300  33.517  60.288  1.00  0.00    -0.000 C 
BRANCH  11  12
ATOM     12  C   UNL     1      63.596  34.971  60.690  1.00  0.00    -0.003 C 
ATOM     13  C   UNL     1      64.949  35.127  61.386  1.00  0.00     0.004 C 
ENDBRANCH  11  12
ENDBRANCH  10  11
ENDBRANCH   9  10
ENDBRANCH   8   9
ENDBRANCH   1   8
TORSDOF 9
ENDMDL
MODEL 5
REMARK VINA RESULT:    -3.574     12.016     13.965
REMARK INTER + INTRA:          -5.983
REMARK INTER:                  -5.401
REMARK INTRA:                  -0.582
REMARK UNBOUND:                -0.529
REMARK SMILES CCCCCCCCCCC(=O)[O-]
REMARK SMILES IDX 7 1 8 2 9 3 10 4 11 5 12 6 13 7 6 8 5 9 4 10 3 11 2 12 1 13
REMARK H PARENT
REMARK Flexibility Score: inf
ROOT
ATOM      1  C   UNL     1      58.020  28.019  50.672  1.00  0.00     0.000 C 
ENDROOT
BRANCH   1   2
ATOM      2  C   UNL     1      58.571  29.350  50.131  1.00  0.00     0.000 C 
BRANCH   2   3
ATOM      3  C   UNL     1      59.625  29.150  49.031  1.00  0.00     0.006 C 
BRANCH   3   4
ATOM      4  C   UNL     1      60.226  27.738  49.042  1.00  0.00     0.053 C 
BRANCH   4   5
ATOM      5  C   UNL     1      61.616  27.767  49.595  1.00  0.00     0.041 C 
ATOM      6  O   UNL     1      62.198  26.695  49.906  1.00  0.00    -0.550 OA
ATOM      7  O   UNL     1      62.288  28.977  49.722  1.00  0.00    -0.550 OA
ENDBRANCH   4   5
ENDBRANCH   3   4
ENDBRANCH   2   3
ENDBRANCH   1   2
BRANCH   1   8
ATOM      8  C   UNL     1      56.617  27.699  50.136  1.00  0.00     0.000 C 
BRANCH   8   9
ATOM      9  C   UNL     1      56.440  26.213  49.792  1.00  0.00    -0.000 C 
BRANCH   9  10
ATOM     10  C   UNL     1      55.095  25.966  49.095  1.00  0.00    -0.000 C 
BRANCH  10  11
ATOM     11  C   UNL     1      53.933  26.517  49.934  1.00  0.00    -0.000 C 
BRANCH  11  12
ATOM     12  C   UNL     1      53.062  27.514  49.153  1.00  0.00    -0.003 C 
ATOM     13  C   UNL     1      53.109  28.925  49.738  1.00  0.00     0.004 C 
ENDBRANCH  11  12
ENDBRANCH  10  11
ENDBRANCH   9  10
ENDBRANCH   8   9
ENDBRANCH   1   8
TORSDOF 9
ENDMDL
MODEL 6
REMARK VINA RESULT:    -3.546      1.712      2.116
REMARK INTER + INTRA:          -5.941
REMARK INTER:                  -5.238
REMARK INTRA:                  -0.703
REMARK UNBOUND:                -0.529
REMARK SMILES CCCCCCCCCCC(=O)[O-]
REMARK SMILES IDX 7 1 8 2 9 3 10 4 11 5 12 6 13 7 6 8 5 9 4 10 3 11 2 12 1 13
REMARK H PARENT
REMARK Flexibility Score: inf
ROOT
ATOM      1  C   UNL     1      61.394  31.252  59.286  1.00  0.00     0.000 C 
ENDROOT
BRANCH   1   2
ATOM      2  C   UNL     1      61.071  30.939  60.758  1.00  0.00     0.000 C 
BRANCH   2   3
ATOM      3  C   UNL     1      62.165  30.099  61.438  1.00  0.00     0.006 C 
BRANCH   3   4
ATOM      4  C   UNL     1      63.573  30.457  60.946  1.00  0.00     0.053 C 
BRANCH   4   5
ATOM      5  C   UNL     1      64.377  29.217  60.718  1.00  0.00     0.041 C 
ATOM      6  O   UNL     1      63.815  28.090  60.704  1.00  0.00    -0.550 OA
ATOM      7  O   UNL     1      65.742  29.309  60.471  1.00  0.00    -0.550 OA
ENDBRANCH   4   5
ENDBRANCH   3   4
ENDBRANCH   2   3
ENDBRANCH   1   2
BRANCH   1   8
ATOM      8  C   UNL     1      61.395  32.759  58.990  1.00  0.00     0.000 C 
BRANCH   8   9
ATOM      9  C   UNL     1      61.581  33.610  60.254  1.00  0.00    -0.000 C 
BRANCH   9  10
ATOM     10  C   UNL     1      61.566  35.107  59.917  1.00  0.00    -0.000 C 
BRANCH  10  11
ATOM     11  C   UNL     1      62.913  35.761  60.261  1.00  0.00    -0.000 C 
BRANCH  11  12
ATOM     12  C   UNL     1      63.958  34.741  60.741  1.00  0.00    -0.003 C 
ATOM     13  C   UNL     1      65.088  35.387  61.543  1.00  0.00     0.004 C 
ENDBRANCH  11  12
ENDBRANCH  10  11
ENDBRANCH   9  10
ENDBRANCH   8   9
ENDBRANCH   1   8
TORSDOF 9
ENDMDL
MODEL 7
REMARK VINA RESULT:    -3.494     12.152     13.345
REMARK INTER + INTRA:          -5.862
REMARK INTER:                  -5.296
REMARK INTRA:                  -0.566
REMARK UNBOUND:                -0.529
REMARK SMILES CCCCCCCCCCC(=O)[O-]
REMARK SMILES IDX 7 1 8 2 9 3 10 4 11 5 12 6 13 7 6 8 5 9 4 10 3 11 2 12 1 13
REMARK H PARENT
REMARK Flexibility Score: inf
ROOT
ATOM      1  C   UNL     1      58.481  29.246  50.244  1.00  0.00     0.000 C 
ENDROOT
BRANCH   1   2
ATOM      2  C   UNL     1      57.461  28.099  50.136  1.00  0.00     0.000 C 
BRANCH   2   3
ATOM      3  C   UNL     1      56.063  28.503  50.634  1.00  0.00     0.006 C 
BRANCH   3   4
ATOM      4  C   UNL     1      54.939  27.893  49.787  1.00  0.00     0.053 C 
BRANCH   4   5
ATOM      5  C   UNL     1      55.010  26.399  49.822  1.00  0.00     0.041 C 
ATOM      6  O   UNL     1      55.107  25.743  48.752  1.00  0.00    -0.550 OA
ATOM      7  O   UNL     1      55.020  25.733  51.042  1.00  0.00    -0.550 OA
ENDBRANCH   4   5
ENDBRANCH   3   4
ENDBRANCH   2   3
ENDBRANCH   1   2
BRANCH   1   8
ATOM      8  C   UNL     1      59.496  29.243  49.090  1.00  0.00     0.000 C 
BRANCH   8   9
ATOM      9  C   UNL     1      60.189  27.883  48.918  1.00  0.00    -0.000 C 
BRANCH   9  10
ATOM     10  C   UNL     1      61.599  27.904  49.523  1.00  0.00    -0.000 C 
BRANCH  10  11
ATOM     11  C   UNL     1      62.073  26.483  49.862  1.00  0.00    -0.000 C 
BRANCH  11  12
ATOM     12  C   UNL     1      60.919  25.467  49.886  1.00  0.00    -0.003 C 
ATOM     13  C   UNL     1      61.407  24.019  49.834  1.00  0.00     0.004 C 
ENDBRANCH  11  12
ENDBRANCH  10  11
ENDBRANCH   9  10
ENDBRANCH   8   9
ENDBRANCH   1   8
TORSDOF 9
ENDMDL
MODEL 8
REMARK VINA RESULT:    -3.483      3.861      6.038
REMARK INTER + INTRA:          -5.844
REMARK INTER:                  -5.130
REMARK INTRA:                  -0.714
REMARK UNBOUND:                -0.529
REMARK SMILES CCCCCCCCCCC(=O)[O-]
REMARK SMILES IDX 7 1 8 2 9 3 10 4 11 5 12 6 13 7 6 8 5 9 4 10 3 11 2 12 1 13
REMARK H PARENT
REMARK Flexibility Score: inf
ROOT
ATOM      1  C   UNL     1      61.246  31.553  60.051  1.00  0.00     0.000 C 
ENDROOT
BRANCH   1   2
ATOM      2  C   UNL     1      61.623  33.032  60.248  1.00  0.00     0.000 C 
BRANCH   2   3
ATOM      3  C   UNL     1      62.957  33.397  59.576  1.00  0.00     0.006 C 
BRANCH   3   4
ATOM      4  C   UNL     1      64.106  33.535  60.583  1.00  0.00     0.053 C 
BRANCH   4   5
ATOM      5  C   UNL     1      64.318  34.972  60.938  1.00  0.00     0.041 C 
ATOM      6  O   UNL     1      63.338  35.762  61.004  1.00  0.00    -0.550 OA
ATOM      7  O   UNL     1      65.593  35.431  61.246  1.00  0.00    -0.550 OA
ENDBRANCH   4   5
ENDBRANCH   3   4
ENDBRANCH   2   3
ENDBRANCH   1   2
BRANCH   1   8
ATOM      8  C   UNL     1      61.328  30.745  61.355  1.00  0.00     0.000 C 
BRANCH   8   9
ATOM      9  C   UNL     1      62.307  29.566  61.258  1.00  0.00    -0.000 C 
BRANCH   9  10
ATOM     10  C   UNL     1      63.761  30.056  61.276  1.00  0.00    -0.000 C 
BRANCH  10  11
ATOM     11  C   UNL     1      64.496  29.639  59.993  1.00  0.00    -0.000 C 
BRANCH  11  12
ATOM     12  C   UNL     1      65.972  29.291  60.247  1.00  0.00    -0.003 C 
ATOM     13  C   UNL     1      66.238  27.787  60.211  1.00  0.00     0.004 C 
ENDBRANCH  11  12
ENDBRANCH  10  11
ENDBRANCH   9  10
ENDBRANCH   8   9
ENDBRANCH   1   8
TORSDOF 9
ENDMDL
MODEL 9
REMARK VINA RESULT:    -3.439     12.024     13.274
REMARK INTER + INTRA:          -5.778
REMARK INTER:                  -5.243
REMARK INTRA:                  -0.534
REMARK UNBOUND:                -0.529
REMARK SMILES CCCCCCCCCCC(=O)[O-]
REMARK SMILES IDX 7 1 8 2 9 3 10 4 11 5 12 6 13 7 6 8 5 9 4 10 3 11 2 12 1 13
REMARK H PARENT
REMARK Flexibility Score: inf
ROOT
ATOM      1  C   UNL     1      60.172  28.449  49.012  1.00  0.00     0.000 C 
ENDROOT
BRANCH   1   2
ATOM      2  C   UNL     1      60.081  26.940  49.303  1.00  0.00     0.000 C 
BRANCH   2   3
ATOM      3  C   UNL     1      61.443  26.325  49.664  1.00  0.00     0.006 C 
BRANCH   3   4
ATOM      4  C   UNL     1      62.481  27.384  50.056  1.00  0.00     0.053 C 
BRANCH   4   5
ATOM      5  C   UNL     1      63.705  27.253  49.206  1.00  0.00     0.041 C 
ATOM      6  O   UNL     1      63.925  28.077  48.278  1.00  0.00    -0.550 OA
ATOM      7  O   UNL     1      64.631  26.251  49.469  1.00  0.00    -0.550 OA
ENDBRANCH   4   5
ENDBRANCH   3   4
ENDBRANCH   2   3
ENDBRANCH   1   2
BRANCH   1   8
ATOM      8  C   UNL     1      58.909  29.210  49.444  1.00  0.00     0.000 C 
BRANCH   8   9
ATOM      9  C   UNL     1      57.942  28.336  50.257  1.00  0.00    -0.000 C 
BRANCH   9  10
ATOM     10  C   UNL     1      56.973  29.202  51.073  1.00  0.00    -0.000 C 
BRANCH  10  11
ATOM     11  C   UNL     1      55.532  29.037  50.568  1.00  0.00    -0.000 C 
BRANCH  11  12
ATOM     12  C   UNL     1      55.297  27.679  49.889  1.00  0.00    -0.003 C 
ATOM     13  C   UNL     1      53.856  27.499  49.411  1.00  0.00     0.004 C 
ENDBRANCH  11  12
ENDBRANCH  10  11
ENDBRANCH   9  10
ENDBRANCH   8   9
ENDBRANCH   1   8
TORSDOF 9
ENDMDL
