MODEL 1
REMARK VINA RESULT:    -5.673      0.000      0.000
REMARK INTER + INTRA:          -6.171
REMARK INTER:                  -6.171
REMARK INTRA:                   0.000
REMARK UNBOUND:                 0.000
REMARK SMILES Oc1cccc(O)c1O
REMARK SMILES IDX 4 1 5 2 6 3 8 4 2 5 3 6 7 7 1 9 9 11
REMARK H PARENT 7 8 1 10 9 12
REMARK Flexibility Score: inf
ROOT
ATOM      1  C   UNL     1      16.305  -1.041  26.392  1.00  0.00     0.008 A 
ATOM      2  C   UNL     1      16.350  -1.761  27.589  1.00  0.00     0.050 A 
ATOM      3  C   UNL     1      17.584  -2.083  28.171  1.00  0.00     0.161 A 
ATOM      4  C   UNL     1      18.776  -1.682  27.552  1.00  0.00     0.200 A 
ATOM      5  C   UNL     1      18.730  -0.956  26.347  1.00  0.00     0.161 A 
ATOM      6  C   UNL     1      17.490  -0.639  25.773  1.00  0.00     0.050 A 
ENDROOT
BRANCH   3   7
ATOM      7  O   UNL     1      17.634  -2.801  29.365  1.00  0.00    -0.504 OA
ATOM      8  H   UNL     1      17.164  -3.693  29.466  1.00  0.00     0.293 HD
ENDBRANCH   3   7
BRANCH   5   9
ATOM      9  O   UNL     1      19.912  -0.555  25.727  1.00  0.00    -0.504 OA
ATOM     10  H   UNL     1      20.138  -0.840  24.781  1.00  0.00     0.293 HD
ENDBRANCH   5   9
BRANCH   4  11
ATOM     11  O   UNL     1      19.997  -2.010  28.145  1.00  0.00    -0.502 OA
ATOM     12  H   UNL     1      20.804  -2.282  27.598  1.00  0.00     0.293 HD
ENDBRANCH   4  11
TORSDOF 3
ENDMDL
MODEL 2
REMARK VINA RESULT:    -5.662      0.029      2.799
REMARK INTER + INTRA:          -6.158
REMARK INTER:                  -6.158
REMARK INTRA:                   0.000
REMARK UNBOUND:                 0.000
REMARK SMILES Oc1cccc(O)c1O
REMARK SMILES IDX 4 1 5 2 6 3 8 4 2 5 3 6 7 7 1 9 9 11
REMARK H PARENT 7 8 1 10 9 12
REMARK Flexibility Score: inf
ROOT
ATOM      1  C   UNL     1      16.299  -1.009  26.416  1.00  0.00     0.008 A 
ATOM      2  C   UNL     1      17.483  -0.612  25.789  1.00  0.00     0.050 A 
ATOM      3  C   UNL     1      18.723  -0.945  26.349  1.00  0.00     0.161 A 
ATOM      4  C   UNL     1      18.777  -1.679  27.543  1.00  0.00     0.200 A 
ATOM      5  C   UNL     1      17.585  -2.078  28.174  1.00  0.00     0.161 A 
ATOM      6  C   UNL     1      16.349  -1.740  27.605  1.00  0.00     0.050 A 
ENDROOT
BRANCH   3   7
ATOM      7  O   UNL     1      19.907  -0.552  25.727  1.00  0.00    -0.504 OA
ATOM      8  H   UNL     1      19.905   0.095  24.947  1.00  0.00     0.293 HD
ENDBRANCH   3   7
BRANCH   5   9
ATOM      9  O   UNL     1      17.632  -2.808  29.361  1.00  0.00    -0.504 OA
ATOM     10  H   UNL     1      16.811  -3.274  29.731  1.00  0.00     0.293 HD
ENDBRANCH   5   9
BRANCH   4  11
ATOM     11  O   UNL     1      20.020  -2.003  28.089  1.00  0.00    -0.502 OA
ATOM     12  H   UNL     1      20.847  -2.120  27.515  1.00  0.00     0.293 HD
ENDBRANCH   4  11
TORSDOF 3
ENDMDL
MODEL 3
REMARK VINA RESULT:    -5.601     11.268     12.509
REMARK INTER + INTRA:          -6.092
REMARK INTER:                  -6.092
REMARK INTRA:                   0.000
REMARK UNBOUND:                 0.000
REMARK SMILES Oc1cccc(O)c1O
REMARK SMILES IDX 4 1 5 2 6 3 8 4 2 5 3 6 7 7 1 9 9 11
REMARK H PARENT 7 8 1 10 9 12
REMARK Flexibility Score: inf
ROOT
ATOM      1  C   UNL     1      14.329 -12.441  28.779  1.00  0.00     0.008 A 
ATOM      2  C   UNL     1      14.148 -11.513  29.808  1.00  0.00     0.050 A 
ATOM      3  C   UNL     1      12.860 -11.223  30.276  1.00  0.00     0.161 A 
ATOM      4  C   UNL     1      11.749 -11.865  29.711  1.00  0.00     0.200 A 
ATOM      5  C   UNL     1      11.931 -12.800  28.675  1.00  0.00     0.161 A 
ATOM      6  C   UNL     1      13.225 -13.083  28.214  1.00  0.00     0.050 A 
ENDROOT
BRANCH   3   7
ATOM      7  O   UNL     1      12.674 -10.298  31.303  1.00  0.00    -0.504 OA
ATOM      8  H   UNL     1      11.873 -10.348  31.921  1.00  0.00     0.293 HD
ENDBRANCH   3   7
BRANCH   5   9
ATOM      9  O   UNL     1      10.831 -13.441  28.109  1.00  0.00    -0.504 OA
ATOM     10  H   UNL     1      10.635 -13.383  27.116  1.00  0.00     0.293 HD
ENDBRANCH   5   9
BRANCH   4  11
ATOM     11  O   UNL     1      10.471 -11.566  30.189  1.00  0.00    -0.502 OA
ATOM     12  H   UNL     1      10.126 -11.931  31.067  1.00  0.00     0.293 HD
ENDBRANCH   4  11
TORSDOF 3
ENDMDL
MODEL 4
REMARK VINA RESULT:    -5.589     11.232     12.490
REMARK INTER + INTRA:          -6.079
REMARK INTER:                  -6.079
REMARK INTRA:                   0.000
REMARK UNBOUND:                 0.000
REMARK SMILES Oc1cccc(O)c1O
REMARK SMILES IDX 4 1 5 2 6 3 8 4 2 5 3 6 7 7 1 9 9 11
REMARK H PARENT 7 8 1 10 9 12
REMARK Flexibility Score: inf
ROOT
ATOM      1  C   UNL     1      14.378 -12.457  28.798  1.00  0.00     0.008 A 
ATOM      2  C   UNL     1      13.273 -13.105  28.238  1.00  0.00     0.050 A 
ATOM      3  C   UNL     1      11.980 -12.806  28.686  1.00  0.00     0.161 A 
ATOM      4  C   UNL     1      11.792 -11.854  29.699  1.00  0.00     0.200 A 
ATOM      5  C   UNL     1      12.905 -11.202  30.262  1.00  0.00     0.161 A 
ATOM      6  C   UNL     1      14.195 -11.509  29.806  1.00  0.00     0.050 A 
ENDROOT
BRANCH   3   7
ATOM      7  O   UNL     1      10.875 -13.449  28.130  1.00  0.00    -0.504 OA
ATOM      8  H   UNL     1      10.443 -13.117  27.276  1.00  0.00     0.293 HD
ENDBRANCH   3   7
BRANCH   5   9
ATOM      9  O   UNL     1      12.725 -10.256  31.269  1.00  0.00    -0.504 OA
ATOM     10  H   UNL     1      13.432  -9.559  31.475  1.00  0.00     0.293 HD
ENDBRANCH   5   9
BRANCH   4  11
ATOM     11  O   UNL     1      10.498 -11.567  30.134  1.00  0.00    -0.502 OA
ATOM     12  H   UNL     1      10.044 -10.685  29.931  1.00  0.00     0.293 HD
ENDBRANCH   4  11
TORSDOF 3
ENDMDL
MODEL 5
REMARK VINA RESULT:    -5.494      0.969      1.870
REMARK INTER + INTRA:          -5.976
REMARK INTER:                  -5.976
REMARK INTRA:                   0.000
REMARK UNBOUND:                 0.000
REMARK SMILES Oc1cccc(O)c1O
REMARK SMILES IDX 4 1 5 2 6 3 8 4 2 5 3 6 7 7 1 9 9 11
REMARK H PARENT 7 8 1 10 9 12
REMARK Flexibility Score: inf
ROOT
ATOM      1  C   UNL     1      16.242  -1.735  27.899  1.00  0.00     0.008 A 
ATOM      2  C   UNL     1      17.444  -1.925  28.586  1.00  0.00     0.050 A 
ATOM      3  C   UNL     1      18.660  -1.559  27.992  1.00  0.00     0.161 A 
ATOM      4  C   UNL     1      18.671  -1.002  26.705  1.00  0.00     0.200 A 
ATOM      5  C   UNL     1      17.460  -0.811  26.015  1.00  0.00     0.161 A 
ATOM      6  C   UNL     1      16.249  -1.180  26.618  1.00  0.00     0.050 A 
ENDROOT
BRANCH   3   7
ATOM      7  O   UNL     1      19.862  -1.746  28.673  1.00  0.00    -0.504 OA
ATOM      8  H   UNL     1      20.341  -0.975  29.124  1.00  0.00     0.293 HD
ENDBRANCH   3   7
BRANCH   5   9
ATOM      9  O   UNL     1      17.464  -0.258  24.735  1.00  0.00    -0.504 OA
ATOM     10  H   UNL     1      18.271   0.236  24.373  1.00  0.00     0.293 HD
ENDBRANCH   5   9
BRANCH   4  11
ATOM     11  O   UNL     1      19.890  -0.643  26.127  1.00  0.00    -0.502 OA
ATOM     12  H   UNL     1      19.942  -0.070  25.294  1.00  0.00     0.293 HD
ENDBRANCH   4  11
TORSDOF 3
ENDMDL
MODEL 6
REMARK VINA RESULT:    -5.449      2.673      3.305
REMARK INTER + INTRA:          -5.927
REMARK INTER:                  -5.927
REMARK INTRA:                   0.000
REMARK UNBOUND:                 0.000
REMARK SMILES Oc1cccc(O)c1O
REMARK SMILES IDX 4 1 5 2 6 3 8 4 2 5 3 6 7 7 1 9 9 11
REMARK H PARENT 7 8 1 10 9 12
REMARK Flexibility Score: inf
ROOT
ATOM      1  C   UNL     1      17.525  -0.805  25.926  1.00  0.00     0.008 A 
ATOM      2  C   UNL     1      17.795  -1.215  27.234  1.00  0.00     0.050 A 
ATOM      3  C   UNL     1      16.976  -0.788  28.288  1.00  0.00     0.161 A 
ATOM      4  C   UNL     1      15.884   0.053  28.030  1.00  0.00     0.200 A 
ATOM      5  C   UNL     1      15.613   0.465  26.713  1.00  0.00     0.161 A 
ATOM      6  C   UNL     1      16.439   0.032  25.664  1.00  0.00     0.050 A 
ENDROOT
BRANCH   3   7
ATOM      7  O   UNL     1      17.241  -1.194  29.596  1.00  0.00    -0.504 OA
ATOM      8  H   UNL     1      16.740  -0.800  30.384  1.00  0.00     0.293 HD
ENDBRANCH   3   7
BRANCH   5   9
ATOM      9  O   UNL     1      14.530   1.301  26.449  1.00  0.00    -0.504 OA
ATOM     10  H   UNL     1      14.272   2.051  27.080  1.00  0.00     0.293 HD
ENDBRANCH   5   9
BRANCH   4  11
ATOM     11  O   UNL     1      15.078   0.470  29.091  1.00  0.00    -0.502 OA
ATOM     12  H   UNL     1      15.287   1.300  29.632  1.00  0.00     0.293 HD
ENDBRANCH   4  11
TORSDOF 3
ENDMDL
MODEL 7
REMARK VINA RESULT:    -5.446      2.610      3.759
REMARK INTER + INTRA:          -5.924
REMARK INTER:                  -5.924
REMARK INTRA:                   0.000
REMARK UNBOUND:                 0.000
REMARK SMILES Oc1cccc(O)c1O
REMARK SMILES IDX 4 1 5 2 6 3 8 4 2 5 3 6 7 7 1 9 9 11
REMARK H PARENT 7 8 1 10 9 12
REMARK Flexibility Score: inf
ROOT
ATOM      1  C   UNL     1      17.657  -0.796  25.908  1.00  0.00     0.008 A 
ATOM      2  C   UNL     1      16.532  -0.013  25.636  1.00  0.00     0.050 A 
ATOM      3  C   UNL     1      15.669   0.364  26.674  1.00  0.00     0.161 A 
ATOM      4  C   UNL     1      15.934  -0.046  27.988  1.00  0.00     0.200 A 
ATOM      5  C   UNL     1      17.067  -0.835  28.261  1.00  0.00     0.161 A 
ATOM      6  C   UNL     1      17.924  -1.206  27.215  1.00  0.00     0.050 A 
ENDROOT
BRANCH   3   7
ATOM      7  O   UNL     1      14.545   1.146  26.408  1.00  0.00    -0.504 OA
ATOM      8  H   UNL     1      13.619   0.739  26.350  1.00  0.00     0.293 HD
ENDBRANCH   3   7
BRANCH   5   9
ATOM      9  O   UNL     1      17.336  -1.246  29.566  1.00  0.00    -0.504 OA
ATOM     10  H   UNL     1      17.626  -0.589  30.281  1.00  0.00     0.293 HD
ENDBRANCH   5   9
BRANCH   4  11
ATOM     11  O   UNL     1      15.065   0.337  29.011  1.00  0.00    -0.502 OA
ATOM     12  H   UNL     1      14.177  -0.125  29.166  1.00  0.00     0.293 HD
ENDBRANCH   4  11
TORSDOF 3
ENDMDL
MODEL 8
REMARK VINA RESULT:    -5.414     12.114     12.770
REMARK INTER + INTRA:          -5.888
REMARK INTER:                  -5.888
REMARK INTRA:                   0.000
REMARK UNBOUND:                 0.000
REMARK SMILES Oc1cccc(O)c1O
REMARK SMILES IDX 4 1 5 2 6 3 8 4 2 5 3 6 7 7 1 9 9 11
REMARK H PARENT 7 8 1 10 9 12
REMARK Flexibility Score: inf
ROOT
ATOM      1  C   UNL     1      14.232 -11.737  29.937  1.00  0.00     0.008 A 
ATOM      2  C   UNL     1      12.955 -11.456  30.429  1.00  0.00     0.050 A 
ATOM      3  C   UNL     1      11.827 -12.027  29.825  1.00  0.00     0.161 A 
ATOM      4  C   UNL     1      11.979 -12.882  28.724  1.00  0.00     0.200 A 
ATOM      5  C   UNL     1      13.265 -13.164  28.230  1.00  0.00     0.161 A 
ATOM      6  C   UNL     1      14.388 -12.588  28.841  1.00  0.00     0.050 A 
ENDROOT
BRANCH   3   7
ATOM      7  O   UNL     1      10.550 -11.750  30.312  1.00  0.00    -0.504 OA
ATOM      8  H   UNL     1       9.733 -11.801  29.715  1.00  0.00     0.293 HD
ENDBRANCH   3   7
BRANCH   5   9
ATOM      9  O   UNL     1      13.424 -14.013  27.135  1.00  0.00    -0.504 OA
ATOM     10  H   UNL     1      13.733 -13.666  26.235  1.00  0.00     0.293 HD
ENDBRANCH   5   9
BRANCH   4  11
ATOM     11  O   UNL     1      10.845 -13.442  28.133  1.00  0.00    -0.502 OA
ATOM     12  H   UNL     1      10.481 -13.113  27.248  1.00  0.00     0.293 HD
ENDBRANCH   4  11
TORSDOF 3
ENDMDL
MODEL 9
REMARK VINA RESULT:    -5.292      1.385      2.100
REMARK INTER + INTRA:          -5.756
REMARK INTER:                  -5.756
REMARK INTRA:                   0.000
REMARK UNBOUND:                 0.000
REMARK SMILES Oc1cccc(O)c1O
REMARK SMILES IDX 4 1 5 2 6 3 8 4 2 5 3 6 7 7 1 9 9 11
REMARK H PARENT 7 8 1 10 9 12
REMARK Flexibility Score: inf
ROOT
ATOM      1  C   UNL     1      17.585  -0.570  25.227  1.00  0.00     0.008 A 
ATOM      2  C   UNL     1      16.502  -0.303  26.068  1.00  0.00     0.050 A 
ATOM      3  C   UNL     1      16.566  -0.638  27.427  1.00  0.00     0.161 A 
ATOM      4  C   UNL     1      17.720  -1.244  27.945  1.00  0.00     0.200 A 
ATOM      5  C   UNL     1      18.810  -1.512  27.098  1.00  0.00     0.161 A 
ATOM      6  C   UNL     1      18.736  -1.173  25.739  1.00  0.00     0.050 A 
ENDROOT
BRANCH   3   7
ATOM      7  O   UNL     1      15.488  -0.373  28.271  1.00  0.00    -0.504 OA
ATOM      8  H   UNL     1      15.612   0.111  29.152  1.00  0.00     0.293 HD
ENDBRANCH   3   7
BRANCH   5   9
ATOM      9  O   UNL     1      19.960  -2.114  27.606  1.00  0.00    -0.504 OA
ATOM     10  H   UNL     1      20.881  -1.883  27.253  1.00  0.00     0.293 HD
ENDBRANCH   5   9
BRANCH   4  11
ATOM     11  O   UNL     1      17.769  -1.571  29.301  1.00  0.00    -0.502 OA
ATOM     12  H   UNL     1      18.642  -1.632  29.809  1.00  0.00     0.293 HD
ENDBRANCH   4  11
TORSDOF 3
ENDMDL
