MODEL 1
REMARK VINA RESULT:    -3.740      0.000      0.000
REMARK INTER + INTRA:          -6.339
REMARK INTER:                  -5.708
REMARK INTRA:                  -0.632
REMARK UNBOUND:                -0.632
REMARK SMILES O=C([O-])CCCCCCCCC(=O)[O-]
REMARK SMILES IDX 7 1 6 2 5 3 4 4 2 5 1 6 3 7 8 8 9 9 10 10 11 11 12 12 13 13
REMARK SMILES IDX 14 14
REMARK H PARENT
REMARK Flexibility Score: inf
ROOT
ATOM      1  C   UNL     1     130.596 144.603 120.067  1.00  0.00     0.000 C 
ENDROOT
BRANCH   1   2
ATOM      2  C   UNL     1     130.525 146.130 119.883  1.00  0.00     0.000 C 
BRANCH   2   3
ATOM      3  C   UNL     1     131.911 146.777 119.719  1.00  0.00     0.006 C 
BRANCH   3   4
ATOM      4  C   UNL     1     133.048 145.793 120.022  1.00  0.00     0.053 C 
BRANCH   4   5
ATOM      5  C   UNL     1     134.395 146.436 119.884  1.00  0.00     0.041 C 
ATOM      6  O   UNL     1     135.010 146.842 120.906  1.00  0.00    -0.550 OA
ATOM      7  O   UNL     1     134.984 146.558 118.633  1.00  0.00    -0.550 OA
ENDBRANCH   4   5
ENDBRANCH   3   4
ENDBRANCH   2   3
ENDBRANCH   1   2
BRANCH   1   8
ATOM      8  C   UNL     1     129.442 143.810 119.420  1.00  0.00     0.000 C 
BRANCH   8   9
ATOM      9  C   UNL     1     128.349 144.668 118.759  1.00  0.00     0.000 C 
BRANCH   9  10
ATOM     10  C   UNL     1     127.061 144.745 119.599  1.00  0.00     0.006 C 
BRANCH  10  11
ATOM     11  C   UNL     1     126.898 146.108 120.284  1.00  0.00     0.053 C 
BRANCH  11  12
ATOM     12  C   UNL     1     127.095 146.013 121.766  1.00  0.00     0.041 C 
ATOM     13  O   UNL     1     127.049 147.048 122.481  1.00  0.00    -0.550 OA
ATOM     14  O   UNL     1     127.356 144.782 122.355  1.00  0.00    -0.550 OA
ENDBRANCH  11  12
ENDBRANCH  10  11
ENDBRANCH   9  10
ENDBRANCH   8   9
ENDBRANCH   1   8
TORSDOF 9
ENDMDL
MODEL 2
REMARK VINA RESULT:    -3.587      2.022      2.710
REMARK INTER + INTRA:          -6.105
REMARK INTER:                  -5.562
REMARK INTRA:                  -0.544
REMARK UNBOUND:                -0.632
REMARK SMILES O=C([O-])CCCCCCCCC(=O)[O-]
REMARK SMILES IDX 7 1 6 2 5 3 4 4 2 5 1 6 3 7 8 8 9 9 10 10 11 11 12 12 13 13
REMARK SMILES IDX 14 14
REMARK H PARENT
REMARK Flexibility Score: inf
ROOT
ATOM      1  C   UNL     1     128.838 146.002 120.314  1.00  0.00     0.000 C 
ENDROOT
BRANCH   1   2
ATOM      2  C   UNL     1     130.268 145.506 120.033  1.00  0.00     0.000 C 
BRANCH   2   3
ATOM      3  C   UNL     1     131.305 146.642 120.031  1.00  0.00     0.006 C 
BRANCH   3   4
ATOM      4  C   UNL     1     132.722 146.134 120.328  1.00  0.00     0.053 C 
BRANCH   4   5
ATOM      5  C   UNL     1     133.288 146.752 121.570  1.00  0.00     0.041 C 
ATOM      6  O   UNL     1     134.527 146.962 121.663  1.00  0.00    -0.550 OA
ATOM      7  O   UNL     1     132.447 147.124 122.610  1.00  0.00    -0.550 OA
ENDBRANCH   4   5
ENDBRANCH   3   4
ENDBRANCH   2   3
ENDBRANCH   1   2
BRANCH   1   8
ATOM      8  C   UNL     1     127.779 145.570 119.280  1.00  0.00     0.000 C 
BRANCH   8   9
ATOM      9  C   UNL     1     127.762 144.067 118.948  1.00  0.00     0.000 C 
BRANCH   9  10
ATOM     10  C   UNL     1     127.154 143.214 120.075  1.00  0.00     0.006 C 
BRANCH  10  11
ATOM     11  C   UNL     1     128.201 142.324 120.758  1.00  0.00     0.053 C 
BRANCH  11  12
ATOM     12  C   UNL     1     128.035 142.312 122.246  1.00  0.00     0.041 C 
ATOM     13  O   UNL     1     127.659 143.350 122.852  1.00  0.00    -0.550 OA
ATOM     14  O   UNL     1     128.322 141.160 122.968  1.00  0.00    -0.550 OA
ENDBRANCH  11  12
ENDBRANCH  10  11
ENDBRANCH   9  10
ENDBRANCH   8   9
ENDBRANCH   1   8
TORSDOF 9
ENDMDL
MODEL 3
REMARK VINA RESULT:    -3.570      2.022      2.942
REMARK INTER + INTRA:          -6.080
REMARK INTER:                  -5.081
REMARK INTRA:                  -0.999
REMARK UNBOUND:                -0.632
REMARK SMILES O=C([O-])CCCCCCCCC(=O)[O-]
REMARK SMILES IDX 7 1 6 2 5 3 4 4 2 5 1 6 3 7 8 8 9 9 10 10 11 11 12 12 13 13
REMARK SMILES IDX 14 14
REMARK H PARENT
REMARK Flexibility Score: inf
ROOT
ATOM      1  C   UNL     1     127.818 143.457 119.795  1.00  0.00     0.000 C 
ENDROOT
BRANCH   1   2
ATOM      2  C   UNL     1     129.201 143.126 120.385  1.00  0.00     0.000 C 
BRANCH   2   3
ATOM      3  C   UNL     1     130.303 144.081 119.896  1.00  0.00     0.006 C 
BRANCH   3   4
ATOM      4  C   UNL     1     130.946 144.862 121.049  1.00  0.00     0.053 C 
BRANCH   4   5
ATOM      5  C   UNL     1     131.195 146.294 120.685  1.00  0.00     0.041 C 
ATOM      6  O   UNL     1     130.748 146.758 119.602  1.00  0.00    -0.550 OA
ATOM      7  O   UNL     1     131.892 147.124 121.553  1.00  0.00    -0.550 OA
ENDBRANCH   4   5
ENDBRANCH   3   4
ENDBRANCH   2   3
ENDBRANCH   1   2
BRANCH   1   8
ATOM      8  C   UNL     1     127.745 144.774 118.995  1.00  0.00     0.000 C 
BRANCH   8   9
ATOM      9  C   UNL     1     126.917 145.894 119.651  1.00  0.00     0.000 C 
BRANCH   9  10
ATOM     10  C   UNL     1     127.659 146.584 120.809  1.00  0.00     0.006 C 
BRANCH  10  11
ATOM     11  C   UNL     1     126.993 146.317 122.165  1.00  0.00     0.053 C 
BRANCH  11  12
ATOM     12  C   UNL     1     127.987 145.883 123.197  1.00  0.00     0.041 C 
ATOM     13  O   UNL     1     127.882 144.754 123.745  1.00  0.00    -0.550 OA
ATOM     14  O   UNL     1     129.015 146.738 123.576  1.00  0.00    -0.550 OA
ENDBRANCH  11  12
ENDBRANCH  10  11
ENDBRANCH   9  10
ENDBRANCH   8   9
ENDBRANCH   1   8
TORSDOF 9
ENDMDL
MODEL 4
REMARK VINA RESULT:    -3.548      2.771      3.197
REMARK INTER + INTRA:          -6.046
REMARK INTER:                  -5.055
REMARK INTRA:                  -0.991
REMARK UNBOUND:                -0.632
REMARK SMILES O=C([O-])CCCCCCCCC(=O)[O-]
REMARK SMILES IDX 7 1 6 2 5 3 4 4 2 5 1 6 3 7 8 8 9 9 10 10 11 11 12 12 13 13
REMARK SMILES IDX 14 14
REMARK H PARENT
REMARK Flexibility Score: inf
ROOT
ATOM      1  C   UNL     1     130.567 144.130 119.791  1.00  0.00     0.000 C 
ENDROOT
BRANCH   1   2
ATOM      2  C   UNL     1     130.933 145.625 119.791  1.00  0.00     0.000 C 
BRANCH   2   3
ATOM      3  C   UNL     1     130.702 146.296 121.156  1.00  0.00     0.006 C 
BRANCH   3   4
ATOM      4  C   UNL     1     131.319 145.493 122.308  1.00  0.00     0.053 C 
BRANCH   4   5
ATOM      5  C   UNL     1     130.618 145.749 123.607  1.00  0.00     0.041 C 
ATOM      6  O   UNL     1     130.444 144.809 124.428  1.00  0.00    -0.550 OA
ATOM      7  O   UNL     1     130.184 147.029 123.925  1.00  0.00    -0.550 OA
ENDBRANCH   4   5
ENDBRANCH   3   4
ENDBRANCH   2   3
ENDBRANCH   1   2
BRANCH   1   8
ATOM      8  C   UNL     1     129.136 143.805 119.315  1.00  0.00     0.000 C 
BRANCH   8   9
ATOM      9  C   UNL     1     128.340 145.004 118.770  1.00  0.00     0.000 C 
BRANCH   9  10
ATOM     10  C   UNL     1     127.200 145.439 119.707  1.00  0.00     0.006 C 
BRANCH  10  11
ATOM     11  C   UNL     1     127.260 144.723 121.063  1.00  0.00     0.053 C 
BRANCH  11  12
ATOM     12  C   UNL     1     127.195 145.690 122.205  1.00  0.00     0.041 C 
ATOM     13  O   UNL     1     127.143 145.270 123.391  1.00  0.00    -0.550 OA
ATOM     14  O   UNL     1     127.162 147.057 121.958  1.00  0.00    -0.550 OA
ENDBRANCH  11  12
ENDBRANCH  10  11
ENDBRANCH   9  10
ENDBRANCH   8   9
ENDBRANCH   1   8
TORSDOF 9
ENDMDL
MODEL 5
REMARK VINA RESULT:    -3.541      0.947      6.311
REMARK INTER + INTRA:          -6.036
REMARK INTER:                  -5.535
REMARK INTRA:                  -0.500
REMARK UNBOUND:                -0.632
REMARK SMILES O=C([O-])CCCCCCCCC(=O)[O-]
REMARK SMILES IDX 7 1 6 2 5 3 4 4 2 5 1 6 3 7 8 8 9 9 10 10 11 11 12 12 13 13
REMARK SMILES IDX 14 14
REMARK H PARENT
REMARK Flexibility Score: inf
ROOT
ATOM      1  C   UNL     1     129.658 145.273 119.595  1.00  0.00     0.000 C 
ENDROOT
BRANCH   1   2
ATOM      2  C   UNL     1     128.163 145.202 119.234  1.00  0.00     0.000 C 
BRANCH   2   3
ATOM      3  C   UNL     1     127.258 145.048 120.469  1.00  0.00     0.006 C 
BRANCH   3   4
ATOM      4  C   UNL     1     127.138 146.353 121.265  1.00  0.00     0.053 C 
BRANCH   4   5
ATOM      5  C   UNL     1     127.623 146.195 122.674  1.00  0.00     0.041 C 
ATOM      6  O   UNL     1     127.218 145.233 123.379  1.00  0.00    -0.550 OA
ATOM      7  O   UNL     1     128.545 147.091 123.198  1.00  0.00    -0.550 OA
ENDBRANCH   4   5
ENDBRANCH   3   4
ENDBRANCH   2   3
ENDBRANCH   1   2
BRANCH   1   8
ATOM      8  C   UNL     1     130.311 146.658 119.415  1.00  0.00     0.000 C 
BRANCH   8   9
ATOM      9  C   UNL     1     131.712 146.807 120.035  1.00  0.00     0.000 C 
BRANCH   9  10
ATOM     10  C   UNL     1     132.289 145.470 120.534  1.00  0.00     0.006 C 
BRANCH  10  11
ATOM     11  C   UNL     1     133.641 145.145 119.885  1.00  0.00     0.053 C 
BRANCH  11  12
ATOM     12  C   UNL     1     134.603 146.287 120.004  1.00  0.00     0.041 C 
ATOM     13  O   UNL     1     135.114 146.796 118.972  1.00  0.00    -0.550 OA
ATOM     14  O   UNL     1     134.958 146.770 121.257  1.00  0.00    -0.550 OA
ENDBRANCH  11  12
ENDBRANCH  10  11
ENDBRANCH   9  10
ENDBRANCH   8   9
ENDBRANCH   1   8
TORSDOF 9
ENDMDL
MODEL 6
REMARK VINA RESULT:    -3.529      2.658      5.858
REMARK INTER + INTRA:          -6.017
REMARK INTER:                  -5.444
REMARK INTRA:                  -0.574
REMARK UNBOUND:                -0.632
REMARK SMILES O=C([O-])CCCCCCCCC(=O)[O-]
REMARK SMILES IDX 7 1 6 2 5 3 4 4 2 5 1 6 3 7 8 8 9 9 10 10 11 11 12 12 13 13
REMARK SMILES IDX 14 14
REMARK H PARENT
REMARK Flexibility Score: inf
ROOT
ATOM      1  C   UNL     1     128.229 143.417 119.672  1.00  0.00     0.000 C 
ENDROOT
BRANCH   1   2
ATOM      2  C   UNL     1     127.181 142.557 120.402  1.00  0.00     0.000 C 
BRANCH   2   3
ATOM      3  C   UNL     1     127.745 141.867 121.656  1.00  0.00     0.006 C 
BRANCH   3   4
ATOM      4  C   UNL     1     128.463 142.852 122.586  1.00  0.00     0.053 C 
BRANCH   4   5
ATOM      5  C   UNL     1     128.324 142.465 124.026  1.00  0.00     0.041 C 
ATOM      6  O   UNL     1     129.081 141.589 124.522  1.00  0.00    -0.550 OA
ATOM      7  O   UNL     1     127.380 143.092 124.829  1.00  0.00    -0.550 OA
ENDBRANCH   4   5
ENDBRANCH   3   4
ENDBRANCH   2   3
ENDBRANCH   1   2
BRANCH   1   8
ATOM      8  C   UNL     1     127.700 144.747 119.097  1.00  0.00     0.000 C 
BRANCH   8   9
ATOM      9  C   UNL     1     127.900 145.977 120.001  1.00  0.00     0.000 C 
BRANCH   9  10
ATOM     10  C   UNL     1     129.275 145.992 120.692  1.00  0.00     0.006 C 
BRANCH  10  11
ATOM     11  C   UNL     1     130.418 146.251 119.701  1.00  0.00     0.053 C 
BRANCH  11  12
ATOM     12  C   UNL     1     131.667 146.696 120.398  1.00  0.00     0.041 C 
ATOM     13  O   UNL     1     131.616 147.124 121.581  1.00  0.00    -0.550 OA
ATOM     14  O   UNL     1     132.885 146.662 119.730  1.00  0.00    -0.550 OA
ENDBRANCH  11  12
ENDBRANCH  10  11
ENDBRANCH   9  10
ENDBRANCH   8   9
ENDBRANCH   1   8
TORSDOF 9
ENDMDL
MODEL 7
REMARK VINA RESULT:    -3.484      1.909      6.103
REMARK INTER + INTRA:          -5.949
REMARK INTER:                  -5.295
REMARK INTRA:                  -0.655
REMARK UNBOUND:                -0.632
REMARK SMILES O=C([O-])CCCCCCCCC(=O)[O-]
REMARK SMILES IDX 7 1 6 2 5 3 4 4 2 5 1 6 3 7 8 8 9 9 10 10 11 11 12 12 13 13
REMARK SMILES IDX 14 14
REMARK H PARENT
REMARK Flexibility Score: inf
ROOT
ATOM      1  C   UNL     1     128.173 145.623 119.170  1.00  0.00     0.000 C 
ENDROOT
BRANCH   1   2
ATOM      2  C   UNL     1     128.007 144.137 118.799  1.00  0.00     0.000 C 
BRANCH   2   3
ATOM      3  C   UNL     1     127.350 143.312 119.920  1.00  0.00     0.006 C 
BRANCH   3   4
ATOM      4  C   UNL     1     128.329 142.317 120.554  1.00  0.00     0.053 C 
BRANCH   4   5
ATOM      5  C   UNL     1     127.993 142.039 121.988  1.00  0.00     0.041 C 
ATOM      6  O   UNL     1     127.644 142.980 122.750  1.00  0.00    -0.550 OA
ATOM      7  O   UNL     1     128.035 140.740 122.475  1.00  0.00    -0.550 OA
ENDBRANCH   4   5
ENDBRANCH   3   4
ENDBRANCH   2   3
ENDBRANCH   1   2
BRANCH   1   8
ATOM      8  C   UNL     1     128.380 145.904 120.672  1.00  0.00     0.000 C 
BRANCH   8   9
ATOM      9  C   UNL     1     129.843 146.110 121.104  1.00  0.00     0.000 C 
BRANCH   9  10
ATOM     10  C   UNL     1     130.799 146.278 119.910  1.00  0.00     0.006 C 
BRANCH  10  11
ATOM     11  C   UNL     1     132.100 145.486 120.094  1.00  0.00     0.053 C 
BRANCH  11  12
ATOM     12  C   UNL     1     133.263 146.385 120.383  1.00  0.00     0.041 C 
ATOM     13  O   UNL     1     133.296 147.059 121.446  1.00  0.00    -0.550 OA
ATOM     14  O   UNL     1     134.298 146.500 119.463  1.00  0.00    -0.550 OA
ENDBRANCH  11  12
ENDBRANCH  10  11
ENDBRANCH   9  10
ENDBRANCH   8   9
ENDBRANCH   1   8
TORSDOF 9
ENDMDL
MODEL 8
REMARK VINA RESULT:    -0.918      3.647      6.002
REMARK INTER + INTRA:          -2.032
REMARK INTER:                  -1.435
REMARK INTRA:                  -0.597
REMARK UNBOUND:                -0.632
REMARK SMILES O=C([O-])CCCCCCCCC(=O)[O-]
REMARK SMILES IDX 7 1 6 2 5 3 4 4 2 5 1 6 3 7 8 8 9 9 10 10 11 11 12 12 13 13
REMARK SMILES IDX 14 14
REMARK H PARENT
REMARK Flexibility Score: inf
ROOT
ATOM      1  C   UNL     1     128.826 143.785 119.109  1.00  0.00     0.000 C 
ENDROOT
BRANCH   1   2
ATOM      2  C   UNL     1     127.626 144.737 118.960  1.00  0.00     0.000 C 
BRANCH   2   3
ATOM      3  C   UNL     1     127.778 146.024 119.790  1.00  0.00     0.006 C 
BRANCH   3   4
ATOM      4  C   UNL     1     126.905 146.006 121.050  1.00  0.00     0.053 C 
BRANCH   4   5
ATOM      5  C   UNL     1     127.716 146.200 122.295  1.00  0.00     0.041 C 
ATOM      6  O   UNL     1     127.163 146.598 123.355  1.00  0.00    -0.550 OA
ATOM      7  O   UNL     1     129.074 145.913 122.294  1.00  0.00    -0.550 OA
ENDBRANCH   4   5
ENDBRANCH   3   4
ENDBRANCH   2   3
ENDBRANCH   1   2
BRANCH   1   8
ATOM      8  C   UNL     1     128.625 142.628 120.110  1.00  0.00     0.000 C 
BRANCH   8   9
ATOM      9  C   UNL     1     127.168 142.386 120.546  1.00  0.00     0.000 C 
BRANCH   9  10
ATOM     10  C   UNL     1     126.875 140.906 120.851  1.00  0.00     0.006 C 
BRANCH  10  11
ATOM     11  C   UNL     1     127.957 139.974 120.291  1.00  0.00     0.053 C 
BRANCH  11  12
ATOM     12  C   UNL     1     127.694 138.542 120.642  1.00  0.00     0.041 C 
ATOM     13  O   UNL     1     128.183 137.616 119.943  1.00  0.00    -0.550 OA
ATOM     14  O   UNL     1     126.886 138.230 121.728  1.00  0.00    -0.550 OA
ENDBRANCH  11  12
ENDBRANCH  10  11
ENDBRANCH   9  10
ENDBRANCH   8   9
ENDBRANCH   1   8
TORSDOF 9
ENDMDL
