MODEL 1
REMARK VINA RESULT:    -4.858      0.000      0.000
REMARK INTER + INTRA:          -5.160
REMARK INTER:                  -5.142
REMARK INTRA:                  -0.018
REMARK UNBOUND:                -0.018
REMARK SMILES O=C([O-])c1cccnc1
REMARK SMILES IDX 4 1 5 2 9 3 6 4 8 5 7 6 2 7 1 8 3 9
REMARK H PARENT
REMARK Flexibility Score: inf
ROOT
ATOM      1  C   UNL     1      17.073   8.922 -20.266  1.00  0.00     0.016 A 
ATOM      2  C   UNL     1      16.162   7.853 -20.269  1.00  0.00     0.013 A 
ATOM      3  C   UNL     1      17.044   9.827 -21.341  1.00  0.00     0.120 A 
ATOM      4  C   UNL     1      15.256   7.706 -21.321  1.00  0.00     0.021 A 
ATOM      5  N   UNL     1      16.151   9.661 -22.354  1.00  0.00    -0.264 NA
ATOM      6  C   UNL     1      15.266   8.630 -22.366  1.00  0.00     0.111 A 
ENDROOT
BRANCH   1   7
ATOM      7  C   UNL     1      18.040   9.096 -19.161  1.00  0.00     0.073 C 
ATOM      8  O   UNL     1      17.639   9.326 -17.990  1.00  0.00    -0.545 OA
ATOM      9  O   UNL     1      19.406   9.007 -19.401  1.00  0.00    -0.545 OA
ENDBRANCH   1   7
TORSDOF 1
ENDMDL
MODEL 2
REMARK VINA RESULT:    -4.827      0.112      1.078
REMARK INTER + INTRA:          -5.127
REMARK INTER:                  -5.109
REMARK INTRA:                  -0.018
REMARK UNBOUND:                -0.018
REMARK SMILES O=C([O-])c1cccnc1
REMARK SMILES IDX 4 1 5 2 9 3 6 4 8 5 7 6 2 7 1 8 3 9
REMARK H PARENT
REMARK Flexibility Score: inf
ROOT
ATOM      1  C   UNL     1      17.156   8.951 -20.311  1.00  0.00     0.016 A 
ATOM      2  C   UNL     1      16.261   7.869 -20.274  1.00  0.00     0.013 A 
ATOM      3  C   UNL     1      17.073   9.850 -21.389  1.00  0.00     0.120 A 
ATOM      4  C   UNL     1      15.317   7.704 -21.289  1.00  0.00     0.021 A 
ATOM      5  N   UNL     1      16.144   9.666 -22.365  1.00  0.00    -0.264 NA
ATOM      6  C   UNL     1      15.275   8.623 -22.338  1.00  0.00     0.111 A 
ENDROOT
BRANCH   1   7
ATOM      7  C   UNL     1      18.163   9.144 -19.245  1.00  0.00     0.073 C 
ATOM      8  O   UNL     1      19.392   9.158 -19.521  1.00  0.00    -0.545 OA
ATOM      9  O   UNL     1      17.767   9.314 -17.924  1.00  0.00    -0.545 OA
ENDBRANCH   1   7
TORSDOF 1
ENDMDL
MODEL 3
REMARK VINA RESULT:    -4.531      9.349     10.034
REMARK INTER + INTRA:          -4.813
REMARK INTER:                  -4.793
REMARK INTRA:                  -0.020
REMARK UNBOUND:                -0.018
REMARK SMILES O=C([O-])c1cccnc1
REMARK SMILES IDX 4 1 5 2 9 3 6 4 8 5 7 6 2 7 1 8 3 9
REMARK H PARENT
REMARK Flexibility Score: inf
ROOT
ATOM      1  C   UNL     1       9.047  13.714 -19.689  1.00  0.00     0.016 A 
ATOM      2  C   UNL     1       8.638  14.945 -20.229  1.00  0.00     0.013 A 
ATOM      3  C   UNL     1       9.540  13.692 -18.373  1.00  0.00     0.120 A 
ATOM      4  C   UNL     1       8.724  16.109 -19.464  1.00  0.00     0.021 A 
ATOM      5  N   UNL     1       9.613  14.842 -17.649  1.00  0.00    -0.264 NA
ATOM      6  C   UNL     1       9.220  16.037 -18.162  1.00  0.00     0.111 A 
ENDROOT
BRANCH   1   7
ATOM      7  C   UNL     1       8.965  12.469 -20.482  1.00  0.00     0.073 C 
ATOM      8  O   UNL     1       9.891  11.617 -20.434  1.00  0.00    -0.545 OA
ATOM      9  O   UNL     1       7.862  12.221 -21.292  1.00  0.00    -0.545 OA
ENDBRANCH   1   7
TORSDOF 1
ENDMDL
MODEL 4
REMARK VINA RESULT:    -4.473      2.671      3.525
REMARK INTER + INTRA:          -4.752
REMARK INTER:                  -4.736
REMARK INTRA:                  -0.016
REMARK UNBOUND:                -0.018
REMARK SMILES O=C([O-])c1cccnc1
REMARK SMILES IDX 4 1 5 2 9 3 6 4 8 5 7 6 2 7 1 8 3 9
REMARK H PARENT
REMARK Flexibility Score: inf
ROOT
ATOM      1  C   UNL     1      15.397   7.887 -20.802  1.00  0.00     0.016 A 
ATOM      2  C   UNL     1      16.527   8.236 -20.043  1.00  0.00     0.013 A 
ATOM      3  C   UNL     1      15.168   8.565 -22.011  1.00  0.00     0.120 A 
ATOM      4  C   UNL     1      17.392   9.234 -20.494  1.00  0.00     0.021 A 
ATOM      5  N   UNL     1      16.027   9.534 -22.427  1.00  0.00    -0.264 NA
ATOM      6  C   UNL     1      17.123   9.879 -21.701  1.00  0.00     0.111 A 
ENDROOT
BRANCH   1   7
ATOM      7  C   UNL     1      14.467   6.832 -20.342  1.00  0.00     0.073 C 
ATOM      8  O   UNL     1      14.525   5.672 -20.830  1.00  0.00    -0.545 OA
ATOM      9  O   UNL     1      13.518   7.106 -19.365  1.00  0.00    -0.545 OA
ENDBRANCH   1   7
TORSDOF 1
ENDMDL
MODEL 5
REMARK VINA RESULT:    -4.461      9.358      9.936
REMARK INTER + INTRA:          -4.739
REMARK INTER:                  -4.719
REMARK INTRA:                  -0.020
REMARK UNBOUND:                -0.018
REMARK SMILES O=C([O-])c1cccnc1
REMARK SMILES IDX 4 1 5 2 9 3 6 4 8 5 7 6 2 7 1 8 3 9
REMARK H PARENT
REMARK Flexibility Score: inf
ROOT
ATOM      1  C   UNL     1       9.133  13.727 -19.466  1.00  0.00     0.016 A 
ATOM      2  C   UNL     1       9.608  13.560 -18.154  1.00  0.00     0.013 A 
ATOM      3  C   UNL     1       8.724  15.010 -19.870  1.00  0.00     0.120 A 
ATOM      4  C   UNL     1       9.667  14.651 -17.286  1.00  0.00     0.021 A 
ATOM      5  N   UNL     1       8.793  16.056 -19.004  1.00  0.00    -0.264 NA
ATOM      6  C   UNL     1       9.250  15.905 -17.733  1.00  0.00     0.111 A 
ENDROOT
BRANCH   1   7
ATOM      7  C   UNL     1       9.062  12.585 -20.402  1.00  0.00     0.073 C 
ATOM      8  O   UNL     1      10.036  11.795 -20.523  1.00  0.00    -0.545 OA
ATOM      9  O   UNL     1       7.919  12.366 -21.161  1.00  0.00    -0.545 OA
ENDBRANCH   1   7
TORSDOF 1
ENDMDL
MODEL 6
REMARK VINA RESULT:    -4.439      2.682      3.701
REMARK INTER + INTRA:          -4.716
REMARK INTER:                  -4.693
REMARK INTRA:                  -0.023
REMARK UNBOUND:                -0.018
REMARK SMILES O=C([O-])c1cccnc1
REMARK SMILES IDX 4 1 5 2 9 3 6 4 8 5 7 6 2 7 1 8 3 9
REMARK H PARENT
REMARK Flexibility Score: inf
ROOT
ATOM      1  C   UNL     1      16.574   8.934 -20.962  1.00  0.00     0.016 A 
ATOM      2  C   UNL     1      16.763  10.019 -21.833  1.00  0.00     0.013 A 
ATOM      3  C   UNL     1      17.149   8.998 -19.681  1.00  0.00     0.120 A 
ATOM      4  C   UNL     1      17.507  11.127 -21.422  1.00  0.00     0.021 A 
ATOM      5  N   UNL     1      17.869  10.089 -19.305  1.00  0.00    -0.264 NA
ATOM      6  C   UNL     1      18.057  11.144 -20.141  1.00  0.00     0.111 A 
ENDROOT
BRANCH   1   7
ATOM      7  C   UNL     1      15.790   7.751 -21.377  1.00  0.00     0.073 C 
ATOM      8  O   UNL     1      15.612   7.498 -22.598  1.00  0.00    -0.545 OA
ATOM      9  O   UNL     1      15.239   6.901 -20.425  1.00  0.00    -0.545 OA
ENDBRANCH   1   7
TORSDOF 1
ENDMDL
MODEL 7
REMARK VINA RESULT:    -4.204      2.517      3.392
REMARK INTER + INTRA:          -4.467
REMARK INTER:                  -4.447
REMARK INTRA:                  -0.019
REMARK UNBOUND:                -0.018
REMARK SMILES O=C([O-])c1cccnc1
REMARK SMILES IDX 4 1 5 2 9 3 6 4 8 5 7 6 2 7 1 8 3 9
REMARK H PARENT
REMARK Flexibility Score: inf
ROOT
ATOM      1  C   UNL     1      16.843   9.020 -21.204  1.00  0.00     0.016 A 
ATOM      2  C   UNL     1      17.881   8.879 -20.268  1.00  0.00     0.013 A 
ATOM      3  C   UNL     1      16.811  10.180 -21.996  1.00  0.00     0.120 A 
ATOM      4  C   UNL     1      18.850   9.875 -20.140  1.00  0.00     0.021 A 
ATOM      5  N   UNL     1      17.768  11.137 -21.851  1.00  0.00    -0.264 NA
ATOM      6  C   UNL     1      18.776  11.009 -20.949  1.00  0.00     0.111 A 
ENDROOT
BRANCH   1   7
ATOM      7  C   UNL     1      15.807   7.976 -21.355  1.00  0.00     0.073 C 
ATOM      8  O   UNL     1      15.223   7.502 -20.345  1.00  0.00    -0.545 OA
ATOM      9  O   UNL     1      15.463   7.503 -22.616  1.00  0.00    -0.545 OA
ENDBRANCH   1   7
TORSDOF 1
ENDMDL
MODEL 8
REMARK VINA RESULT:    -4.154      8.413      8.936
REMARK INTER + INTRA:          -4.414
REMARK INTER:                  -4.391
REMARK INTRA:                  -0.023
REMARK UNBOUND:                -0.018
REMARK SMILES O=C([O-])c1cccnc1
REMARK SMILES IDX 4 1 5 2 9 3 6 4 8 5 7 6 2 7 1 8 3 9
REMARK H PARENT
REMARK Flexibility Score: inf
ROOT
ATOM      1  C   UNL     1       9.719  13.120 -18.941  1.00  0.00     0.016 A 
ATOM      2  C   UNL     1       9.119  13.069 -20.210  1.00  0.00     0.013 A 
ATOM      3  C   UNL     1       9.668  14.328 -18.226  1.00  0.00     0.120 A 
ATOM      4  C   UNL     1       8.490  14.200 -20.734  1.00  0.00     0.021 A 
ATOM      5  N   UNL     1       9.048  15.416 -18.759  1.00  0.00    -0.264 NA
ATOM      6  C   UNL     1       8.465  15.377 -19.985  1.00  0.00     0.111 A 
ENDROOT
BRANCH   1   7
ATOM      7  C   UNL     1      10.390  11.933 -18.369  1.00  0.00     0.073 C 
ATOM      8  O   UNL     1      10.642  11.873 -17.136  1.00  0.00    -0.545 OA
ATOM      9  O   UNL     1      10.752  10.867 -19.183  1.00  0.00    -0.545 OA
ENDBRANCH   1   7
TORSDOF 1
ENDMDL
MODEL 9
REMARK VINA RESULT:    -4.064     15.076     15.967
REMARK INTER + INTRA:          -4.319
REMARK INTER:                  -4.302
REMARK INTRA:                  -0.017
REMARK UNBOUND:                -0.018
REMARK SMILES O=C([O-])c1cccnc1
REMARK SMILES IDX 4 1 5 2 9 3 6 4 8 5 7 6 2 7 1 8 3 9
REMARK H PARENT
REMARK Flexibility Score: inf
ROOT
ATOM      1  C   UNL     1       2.038   7.879 -15.881  1.00  0.00     0.016 A 
ATOM      2  C   UNL     1       1.380   7.443 -17.043  1.00  0.00     0.013 A 
ATOM      3  C   UNL     1       1.645   7.332 -14.646  1.00  0.00     0.120 A 
ATOM      4  C   UNL     1       0.364   6.489 -16.958  1.00  0.00     0.021 A 
ATOM      5  N   UNL     1       0.652   6.404 -14.592  1.00  0.00    -0.264 NA
ATOM      6  C   UNL     1       0.010   5.977 -15.710  1.00  0.00     0.111 A 
ENDROOT
BRANCH   1   7
ATOM      7  C   UNL     1       3.116   8.887 -15.948  1.00  0.00     0.073 C 
ATOM      8  O   UNL     1       2.856  10.085 -16.238  1.00  0.00    -0.545 OA
ATOM      9  O   UNL     1       4.434   8.528 -15.691  1.00  0.00    -0.545 OA
ENDBRANCH   1   7
TORSDOF 1
ENDMDL
