MODEL 1
REMARK VINA RESULT:     4.381      0.000      0.000
REMARK INTER + INTRA:           5.063
REMARK INTER:                   5.917
REMARK INTRA:                  -0.854
REMARK UNBOUND:                -0.854
REMARK SMILES CC[C@H](CC[C@H](C)[C@H]1CC[C@@H]2[C@H]3CC(=O)C4=CC(=O)CC[C@]4(C)[C@H]3CC[C@@]21C)C(C)C
REMARK SMILES IDX 4 1 3 2 2 3 1 4 29 5 30 6 31 7 5 8 6 9 7 10 8 11 9 12 27 13
REMARK SMILES IDX 10 14 11 15 26 16 28 17 12 18 25 19 24 20 13 21 22 22 14 23
REMARK SMILES IDX 16 24 21 25 23 26 15 27 17 28 20 29 18 30 19 31
REMARK H PARENT
REMARK Flexibility Score: inf
ROOT
ATOM      1  C   UNL     1      -9.876 -12.618  35.481  1.00  0.00     0.004 C 
ENDROOT
BRANCH   1   2
ATOM      2  C   UNL     1     -10.863 -11.621  36.166  1.00  0.00    -0.009 C 
BRANCH   2   3
ATOM      3  C   UNL     1     -11.253 -10.473  35.194  1.00  0.00     0.000 C 
ATOM      4  C   UNL     1     -10.050  -9.652  34.727  1.00  0.00     0.004 C 
ENDBRANCH   2   3
BRANCH   2   5
ATOM      5  C   UNL     1     -12.146 -12.292  36.761  1.00  0.00    -0.014 C 
ATOM      6  C   UNL     1     -11.833 -13.556  37.571  1.00  0.00     0.007 C 
ATOM      7  C   UNL     1     -13.249 -12.581  35.726  1.00  0.00     0.007 C 
ENDBRANCH   2   5
ENDBRANCH   1   2
BRANCH   1   8
ATOM      8  C   UNL     1     -10.429 -13.243  34.176  1.00  0.00     0.004 C 
BRANCH   8   9
ATOM      9  C   UNL     1     -10.910 -14.710  34.394  1.00  0.00    -0.011 C 
ATOM     10  C   UNL     1      -9.883 -15.409  35.327  1.00  0.00     0.008 C 
BRANCH   9  11
ATOM     11  C   UNL     1     -11.111 -15.510  33.045  1.00  0.00    -0.002 C 
ATOM     12  C   UNL     1      -9.878 -16.390  32.713  1.00  0.00     0.005 C 
ATOM     13  C   UNL     1     -12.357 -16.479  32.902  1.00  0.00    -0.026 C 
ATOM     14  C   UNL     1     -10.355 -17.813  32.502  1.00  0.00     0.005 C 
ATOM     15  C   UNL     1     -11.830 -17.733  32.128  1.00  0.00    -0.001 C 
ATOM     16  C   UNL     1     -13.550 -15.845  32.122  1.00  0.00     0.007 C 
ATOM     17  C   UNL     1     -12.868 -16.969  34.285  1.00  0.00     0.012 C 
ATOM     18  C   UNL     1     -12.038 -17.716  30.571  1.00  0.00     0.004 C 
ATOM     19  C   UNL     1     -13.279 -15.501  30.643  1.00  0.00     0.005 C 
ATOM     20  C   UNL     1     -12.098 -16.280  29.999  1.00  0.00     0.003 C 
ATOM     21  C   UNL     1     -13.281 -18.528  30.133  1.00  0.00     0.085 C 
ATOM     22  C   UNL     1     -12.051 -16.275  28.410  1.00  0.00    -0.000 C 
ATOM     23  C   UNL     1     -13.552 -18.389  28.662  1.00  0.00     0.159 C 
ATOM     24  C   UNL     1     -12.694 -17.531  27.819  1.00  0.00     0.005 C 
ATOM     25  C   UNL     1     -10.557 -16.244  27.957  1.00  0.00     0.020 C 
ATOM     26  C   UNL     1     -12.764 -15.024  27.825  1.00  0.00     0.017 C 
ATOM     27  O   UNL     1     -14.497 -19.044  28.144  1.00  0.00    -0.295 OA
ATOM     28  C   UNL     1     -12.399 -17.928  26.565  1.00  0.00     0.055 C 
ATOM     29  C   UNL     1     -10.374 -16.313  26.430  1.00  0.00     0.081 C 
ATOM     30  C   UNL     1     -11.308 -17.306  25.797  1.00  0.00     0.156 C 
ATOM     31  O   UNL     1     -11.136 -17.623  24.591  1.00  0.00    -0.295 OA
ENDBRANCH   9  11
ENDBRANCH   8   9
ENDBRANCH   1   8
TORSDOF 6
ENDMDL
MODEL 2
REMARK VINA RESULT:     4.699      0.835      1.120
REMARK INTER + INTRA:           5.493
REMARK INTER:                   3.707
REMARK INTRA:                   1.785
REMARK UNBOUND:                -0.854
REMARK SMILES CC[C@H](CC[C@H](C)[C@H]1CC[C@@H]2[C@H]3CC(=O)C4=CC(=O)CC[C@]4(C)[C@H]3CC[C@@]21C)C(C)C
REMARK SMILES IDX 4 1 3 2 2 3 1 4 29 5 30 6 31 7 5 8 6 9 7 10 8 11 9 12 27 13
REMARK SMILES IDX 10 14 11 15 26 16 28 17 12 18 25 19 24 20 13 21 22 22 14 23
REMARK SMILES IDX 16 24 21 25 23 26 15 27 17 28 20 29 18 30 19 31
REMARK H PARENT
REMARK Flexibility Score: inf
ROOT
ATOM      1  C   UNL     1     -10.184 -13.243  35.690  1.00  0.00     0.004 C 
ENDROOT
BRANCH   1   2
ATOM      2  C   UNL     1     -10.729 -12.087  36.587  1.00  0.00    -0.009 C 
BRANCH   2   3
ATOM      3  C   UNL     1     -11.214 -10.894  35.719  1.00  0.00     0.000 C 
ATOM      4  C   UNL     1     -10.183 -10.456  34.678  1.00  0.00     0.004 C 
ENDBRANCH   2   3
BRANCH   2   5
ATOM      5  C   UNL     1     -11.851 -12.525  37.588  1.00  0.00    -0.014 C 
ATOM      6  C   UNL     1     -11.849 -14.035  37.858  1.00  0.00     0.007 C 
ATOM      7  C   UNL     1     -13.265 -12.054  37.202  1.00  0.00     0.007 C 
ENDBRANCH   2   5
ENDBRANCH   1   2
BRANCH   1   8
ATOM      8  C   UNL     1     -11.221 -14.359  35.414  1.00  0.00     0.004 C 
BRANCH   8   9
ATOM      9  C   UNL     1     -12.212 -13.963  34.276  1.00  0.00    -0.011 C 
ATOM     10  C   UNL     1     -13.637 -13.910  34.890  1.00  0.00     0.008 C 
BRANCH   9  11
ATOM     11  C   UNL     1     -12.149 -14.931  33.028  1.00  0.00    -0.002 C 
ATOM     12  C   UNL     1     -10.823 -15.733  32.992  1.00  0.00     0.005 C 
ATOM     13  C   UNL     1     -13.289 -16.016  32.836  1.00  0.00    -0.026 C 
ATOM     14  C   UNL     1     -11.162 -17.208  32.902  1.00  0.00     0.005 C 
ATOM     15  C   UNL     1     -12.565 -17.302  32.314  1.00  0.00    -0.001 C 
ATOM     16  C   UNL     1     -14.390 -15.585  31.818  1.00  0.00     0.007 C 
ATOM     17  C   UNL     1     -13.970 -16.382  34.184  1.00  0.00     0.012 C 
ATOM     18  C   UNL     1     -12.534 -17.487  30.755  1.00  0.00     0.004 C 
ATOM     19  C   UNL     1     -13.921 -15.396  30.360  1.00  0.00     0.005 C 
ATOM     20  C   UNL     1     -12.604 -16.139  29.999  1.00  0.00     0.003 C 
ATOM     21  C   UNL     1     -13.636 -18.450  30.253  1.00  0.00     0.085 C 
ATOM     22  C   UNL     1     -12.316 -16.318  28.445  1.00  0.00    -0.000 C 
ATOM     23  C   UNL     1     -13.688 -18.510  28.752  1.00  0.00     0.159 C 
ATOM     24  C   UNL     1     -12.773 -17.686  27.937  1.00  0.00     0.005 C 
ATOM     25  C   UNL     1     -10.776 -16.210  28.210  1.00  0.00     0.020 C 
ATOM     26  C   UNL     1     -13.016 -15.212  27.607  1.00  0.00     0.017 C 
ATOM     27  O   UNL     1     -14.496 -19.303  28.195  1.00  0.00    -0.295 OA
ATOM     28  C   UNL     1     -12.263 -18.201  26.800  1.00  0.00     0.055 C 
ATOM     29  C   UNL     1     -10.358 -16.443  26.747  1.00  0.00     0.081 C 
ATOM     30  C   UNL     1     -11.113 -17.582  26.121  1.00  0.00     0.156 C 
ATOM     31  O   UNL     1     -10.738 -18.023  25.004  1.00  0.00    -0.295 OA
ENDBRANCH   9  11
ENDBRANCH   8   9
ENDBRANCH   1   8
TORSDOF 6
ENDMDL
MODEL 3
REMARK VINA RESULT:     4.799      1.878      3.629
REMARK INTER + INTRA:           5.628
REMARK INTER:                   3.577
REMARK INTRA:                   2.050
REMARK UNBOUND:                -0.854
REMARK SMILES CC[C@H](CC[C@H](C)[C@H]1CC[C@@H]2[C@H]3CC(=O)C4=CC(=O)CC[C@]4(C)[C@H]3CC[C@@]21C)C(C)C
REMARK SMILES IDX 4 1 3 2 2 3 1 4 29 5 30 6 31 7 5 8 6 9 7 10 8 11 9 12 27 13
REMARK SMILES IDX 10 14 11 15 26 16 28 17 12 18 25 19 24 20 13 21 22 22 14 23
REMARK SMILES IDX 16 24 21 25 23 26 15 27 17 28 20 29 18 30 19 31
REMARK H PARENT
REMARK Flexibility Score: inf
ROOT
ATOM      1  C   UNL     1     -10.990  -9.342  34.724  1.00  0.00     0.004 C 
ENDROOT
BRANCH   1   2
ATOM      2  C   UNL     1     -10.058  -8.484  33.812  1.00  0.00    -0.009 C 
BRANCH   2   3
ATOM      3  C   UNL     1     -10.354  -8.750  32.310  1.00  0.00     0.000 C 
ATOM      4  C   UNL     1     -11.235  -7.673  31.676  1.00  0.00     0.004 C 
ENDBRANCH   2   3
BRANCH   2   5
ATOM      5  C   UNL     1     -10.100  -6.948  34.111  1.00  0.00    -0.014 C 
ATOM      6  C   UNL     1      -9.875  -6.627  35.594  1.00  0.00     0.007 C 
ATOM      7  C   UNL     1     -11.365  -6.236  33.597  1.00  0.00     0.007 C 
ENDBRANCH   2   5
ENDBRANCH   1   2
BRANCH   1   8
ATOM      8  C   UNL     1     -10.405 -10.732  35.078  1.00  0.00     0.004 C 
BRANCH   8   9
ATOM      9  C   UNL     1     -11.525 -11.771  35.390  1.00  0.00    -0.011 C 
ATOM     10  C   UNL     1     -11.403 -12.159  36.889  1.00  0.00     0.008 C 
BRANCH   9  11
ATOM     11  C   UNL     1     -11.479 -13.042  34.452  1.00  0.00    -0.002 C 
ATOM     12  C   UNL     1     -10.021 -13.476  34.149  1.00  0.00     0.005 C 
ATOM     13  C   UNL     1     -12.213 -14.369  34.915  1.00  0.00    -0.026 C 
ATOM     14  C   UNL     1      -9.875 -14.939  34.520  1.00  0.00     0.005 C 
ATOM     15  C   UNL     1     -11.273 -15.544  34.486  1.00  0.00    -0.001 C 
ATOM     16  C   UNL     1     -13.619 -14.558  34.265  1.00  0.00     0.007 C 
ATOM     17  C   UNL     1     -12.364 -14.436  36.460  1.00  0.00     0.012 C 
ATOM     18  C   UNL     1     -11.590 -16.204  33.096  1.00  0.00     0.004 C 
ATOM     19  C   UNL     1     -13.633 -14.739  32.732  1.00  0.00     0.005 C 
ATOM     20  C   UNL     1     -12.288 -15.225  32.123  1.00  0.00     0.003 C 
ATOM     21  C   UNL     1     -12.410 -17.509  33.235  1.00  0.00     0.085 C 
ATOM     22  C   UNL     1     -12.371 -15.816  30.649  1.00  0.00    -0.000 C 
ATOM     23  C   UNL     1     -12.828 -18.055  31.899  1.00  0.00     0.159 C 
ATOM     24  C   UNL     1     -12.475 -17.342  30.654  1.00  0.00     0.005 C 
ATOM     25  C   UNL     1     -11.067 -15.428  29.884  1.00  0.00     0.020 C 
ATOM     26  C   UNL     1     -13.584 -15.234  29.871  1.00  0.00     0.017 C 
ATOM     27  O   UNL     1     -13.450 -19.151  31.848  1.00  0.00    -0.295 OA
ATOM     28  C   UNL     1     -12.139 -18.057  29.562  1.00  0.00     0.055 C 
ATOM     29  C   UNL     1     -10.991 -16.009  28.460  1.00  0.00     0.081 C 
ATOM     30  C   UNL     1     -11.471 -17.433  28.408  1.00  0.00     0.156 C 
ATOM     31  O   UNL     1     -11.277 -18.105  27.362  1.00  0.00    -0.295 OA
ENDBRANCH   9  11
ENDBRANCH   8   9
ENDBRANCH   1   8
TORSDOF 6
ENDMDL
MODEL 4
REMARK VINA RESULT:     6.480      3.080      7.866
REMARK INTER + INTRA:           7.899
REMARK INTER:                   8.585
REMARK INTRA:                  -0.686
REMARK UNBOUND:                -0.854
REMARK SMILES CC[C@H](CC[C@H](C)[C@H]1CC[C@@H]2[C@H]3CC(=O)C4=CC(=O)CC[C@]4(C)[C@H]3CC[C@@]21C)C(C)C
REMARK SMILES IDX 4 1 3 2 2 3 1 4 29 5 30 6 31 7 5 8 6 9 7 10 8 11 9 12 27 13
REMARK SMILES IDX 10 14 11 15 26 16 28 17 12 18 25 19 24 20 13 21 22 22 14 23
REMARK SMILES IDX 16 24 21 25 23 26 15 27 17 28 20 29 18 30 19 31
REMARK H PARENT
REMARK Flexibility Score: inf
ROOT
ATOM      1  C   UNL     1     -13.540 -17.753  27.814  1.00  0.00     0.004 C 
ENDROOT
BRANCH   1   2
ATOM      2  C   UNL     1     -13.243 -16.857  26.570  1.00  0.00    -0.009 C 
BRANCH   2   3
ATOM      3  C   UNL     1     -14.054 -15.533  26.635  1.00  0.00     0.000 C 
ATOM      4  C   UNL     1     -13.904 -14.807  27.972  1.00  0.00     0.004 C 
ENDBRANCH   2   3
BRANCH   2   5
ATOM      5  C   UNL     1     -11.723 -16.554  26.343  1.00  0.00    -0.014 C 
ATOM      6  C   UNL     1     -11.320 -16.623  24.865  1.00  0.00     0.007 C 
ATOM      7  C   UNL     1     -10.771 -17.411  27.197  1.00  0.00     0.007 C 
ENDBRANCH   2   5
ENDBRANCH   1   2
BRANCH   1   8
ATOM      8  C   UNL     1     -13.311 -19.264  27.560  1.00  0.00     0.004 C 
BRANCH   8   9
ATOM      9  C   UNL     1     -13.035 -20.040  28.884  1.00  0.00    -0.011 C 
ATOM     10  C   UNL     1     -14.198 -21.048  29.091  1.00  0.00     0.008 C 
BRANCH   9  11
ATOM     11  C   UNL     1     -12.852 -19.093  30.137  1.00  0.00    -0.002 C 
ATOM     12  C   UNL     1     -13.330 -19.777  31.444  1.00  0.00     0.005 C 
ATOM     13  C   UNL     1     -11.409 -18.531  30.474  1.00  0.00    -0.026 C 
ATOM     14  C   UNL     1     -12.197 -19.723  32.450  1.00  0.00     0.005 C 
ATOM     15  C   UNL     1     -11.294 -18.568  32.034  1.00  0.00    -0.001 C 
ATOM     16  C   UNL     1     -11.178 -17.074  29.966  1.00  0.00     0.007 C 
ATOM     17  C   UNL     1     -10.287 -19.442  29.904  1.00  0.00     0.012 C 
ATOM     18  C   UNL     1     -11.665 -17.238  32.782  1.00  0.00     0.004 C 
ATOM     19  C   UNL     1     -12.069 -15.989  30.608  1.00  0.00     0.005 C 
ATOM     20  C   UNL     1     -12.673 -16.375  31.987  1.00  0.00     0.003 C 
ATOM     21  C   UNL     1     -10.417 -16.406  33.161  1.00  0.00     0.085 C 
ATOM     22  C   UNL     1     -13.234 -15.169  32.858  1.00  0.00    -0.000 C 
ATOM     23  C   UNL     1     -10.787 -15.072  33.747  1.00  0.00     0.159 C 
ATOM     24  C   UNL     1     -12.205 -14.680  33.879  1.00  0.00     0.005 C 
ATOM     25  C   UNL     1     -14.489 -15.664  33.643  1.00  0.00     0.020 C 
ATOM     26  C   UNL     1     -13.659 -13.972  31.963  1.00  0.00     0.017 C 
ATOM     27  O   UNL     1      -9.875 -14.307  34.163  1.00  0.00    -0.295 OA
ATOM     28  C   UNL     1     -12.594 -13.984  34.966  1.00  0.00     0.055 C 
ATOM     29  C   UNL     1     -15.084 -14.604  34.587  1.00  0.00     0.081 C 
ATOM     30  C   UNL     1     -14.015 -13.845  35.324  1.00  0.00     0.156 C 
ATOM     31  O   UNL     1     -14.347 -13.093  36.278  1.00  0.00    -0.295 OA
ENDBRANCH   9  11
ENDBRANCH   8   9
ENDBRANCH   1   8
TORSDOF 6
ENDMDL
MODEL 5
REMARK VINA RESULT:     6.728      2.987      8.010
REMARK INTER + INTRA:           8.234
REMARK INTER:                   8.362
REMARK INTRA:                  -0.128
REMARK UNBOUND:                -0.854
REMARK SMILES CC[C@H](CC[C@H](C)[C@H]1CC[C@@H]2[C@H]3CC(=O)C4=CC(=O)CC[C@]4(C)[C@H]3CC[C@@]21C)C(C)C
REMARK SMILES IDX 4 1 3 2 2 3 1 4 29 5 30 6 31 7 5 8 6 9 7 10 8 11 9 12 27 13
REMARK SMILES IDX 10 14 11 15 26 16 28 17 12 18 25 19 24 20 13 21 22 22 14 23
REMARK SMILES IDX 16 24 21 25 23 26 15 27 17 28 20 29 18 30 19 31
REMARK H PARENT
REMARK Flexibility Score: inf
ROOT
ATOM      1  C   UNL     1     -11.428 -17.878  27.342  1.00  0.00     0.004 C 
ENDROOT
BRANCH   1   2
ATOM      2  C   UNL     1     -12.016 -16.550  26.769  1.00  0.00    -0.009 C 
BRANCH   2   3
ATOM      3  C   UNL     1     -11.314 -16.163  25.438  1.00  0.00     0.000 C 
ATOM      4  C   UNL     1     -11.006 -17.371  24.552  1.00  0.00     0.004 C 
ENDBRANCH   2   3
BRANCH   2   5
ATOM      5  C   UNL     1     -13.570 -16.560  26.582  1.00  0.00    -0.014 C 
ATOM      6  C   UNL     1     -14.237 -15.278  27.096  1.00  0.00     0.007 C 
ATOM      7  C   UNL     1     -14.271 -17.799  27.169  1.00  0.00     0.007 C 
ENDBRANCH   2   5
ENDBRANCH   1   2
BRANCH   1   8
ATOM      8  C   UNL     1     -10.031 -17.712  27.988  1.00  0.00     0.004 C 
BRANCH   8   9
ATOM      9  C   UNL     1     -10.020 -18.179  29.476  1.00  0.00    -0.011 C 
ATOM     10  C   UNL     1     -10.815 -19.511  29.557  1.00  0.00     0.008 C 
BRANCH   9  11
ATOM     11  C   UNL     1     -10.591 -17.097  30.476  1.00  0.00    -0.002 C 
ATOM     12  C   UNL     1     -10.612 -15.684  29.838  1.00  0.00     0.005 C 
ATOM     13  C   UNL     1     -12.043 -17.295  31.080  1.00  0.00    -0.026 C 
ATOM     14  C   UNL     1     -12.019 -15.131  29.955  1.00  0.00     0.005 C 
ATOM     15  C   UNL     1     -12.688 -15.869  31.109  1.00  0.00    -0.001 C 
ATOM     16  C   UNL     1     -12.039 -17.897  32.519  1.00  0.00     0.007 C 
ATOM     17  C   UNL     1     -12.931 -18.186  30.168  1.00  0.00     0.012 C 
ATOM     18  C   UNL     1     -12.553 -15.082  32.461  1.00  0.00     0.004 C 
ATOM     19  C   UNL     1     -11.388 -17.024  33.612  1.00  0.00     0.005 C 
ATOM     20  C   UNL     1     -11.306 -15.510  33.271  1.00  0.00     0.003 C 
ATOM     21  C   UNL     1     -13.828 -15.183  33.332  1.00  0.00     0.085 C 
ATOM     22  C   UNL     1     -11.040 -14.538  34.502  1.00  0.00    -0.000 C 
ATOM     23  C   UNL     1     -13.638 -14.548  34.681  1.00  0.00     0.159 C 
ATOM     24  C   UNL     1     -12.340 -13.949  35.052  1.00  0.00     0.005 C 
ATOM     25  C   UNL     1     -10.146 -13.354  34.016  1.00  0.00     0.020 C 
ATOM     26  C   UNL     1     -10.295 -15.270  35.653  1.00  0.00     0.017 C 
ATOM     27  O   UNL     1     -14.612 -14.496  35.480  1.00  0.00    -0.295 OA
ATOM     28  C   UNL     1     -12.325 -12.818  35.784  1.00  0.00     0.055 C 
ATOM     29  C   UNL     1      -9.877 -12.297  35.102  1.00  0.00     0.081 C 
ATOM     30  C   UNL     1     -11.109 -11.998  35.911  1.00  0.00     0.156 C 
ATOM     31  O   UNL     1     -11.100 -11.013  36.694  1.00  0.00    -0.295 OA
ENDBRANCH   9  11
ENDBRANCH   8   9
ENDBRANCH   1   8
TORSDOF 6
ENDMDL
MODEL 6
REMARK VINA RESULT:     7.130      1.390      2.113
REMARK INTER + INTRA:           8.776
REMARK INTER:                   9.858
REMARK INTRA:                  -1.082
REMARK UNBOUND:                -0.854
REMARK SMILES CC[C@H](CC[C@H](C)[C@H]1CC[C@@H]2[C@H]3CC(=O)C4=CC(=O)CC[C@]4(C)[C@H]3CC[C@@]21C)C(C)C
REMARK SMILES IDX 4 1 3 2 2 3 1 4 29 5 30 6 31 7 5 8 6 9 7 10 8 11 9 12 27 13
REMARK SMILES IDX 10 14 11 15 26 16 28 17 12 18 25 19 24 20 13 21 22 22 14 23
REMARK SMILES IDX 16 24 21 25 23 26 15 27 17 28 20 29 18 30 19 31
REMARK H PARENT
REMARK Flexibility Score: inf
ROOT
ATOM      1  C   UNL     1     -10.947 -14.796  34.422  1.00  0.00     0.004 C 
ENDROOT
BRANCH   1   2
ATOM      2  C   UNL     1     -10.748 -13.967  35.731  1.00  0.00    -0.009 C 
BRANCH   2   3
ATOM      3  C   UNL     1      -9.875 -12.710  35.463  1.00  0.00     0.000 C 
ATOM      4  C   UNL     1     -10.512 -11.420  35.982  1.00  0.00     0.004 C 
ENDBRANCH   2   3
BRANCH   2   5
ATOM      5  C   UNL     1     -12.081 -13.563  36.446  1.00  0.00    -0.014 C 
ATOM      6  C   UNL     1     -12.194 -14.145  37.861  1.00  0.00     0.007 C 
ATOM      7  C   UNL     1     -13.354 -13.874  35.638  1.00  0.00     0.007 C 
ENDBRANCH   2   5
ENDBRANCH   1   2
BRANCH   1   8
ATOM      8  C   UNL     1      -9.997 -16.013  34.306  1.00  0.00     0.004 C 
BRANCH   8   9
ATOM      9  C   UNL     1     -10.771 -17.323  33.962  1.00  0.00    -0.011 C 
ATOM     10  C   UNL     1      -9.875 -18.522  34.377  1.00  0.00     0.008 C 
BRANCH   9  11
ATOM     11  C   UNL     1     -11.202 -17.414  32.444  1.00  0.00    -0.002 C 
ATOM     12  C   UNL     1     -11.334 -18.886  31.975  1.00  0.00     0.005 C 
ATOM     13  C   UNL     1     -12.547 -16.715  31.982  1.00  0.00    -0.026 C 
ATOM     14  C   UNL     1     -12.716 -19.072  31.378  1.00  0.00     0.005 C 
ATOM     15  C   UNL     1     -13.198 -17.692  30.947  1.00  0.00    -0.001 C 
ATOM     16  C   UNL     1     -12.325 -15.321  31.318  1.00  0.00     0.007 C 
ATOM     17  C   UNL     1     -13.548 -16.553  33.160  1.00  0.00     0.012 C 
ATOM     18  C   UNL     1     -12.877 -17.406  29.437  1.00  0.00     0.004 C 
ATOM     19  C   UNL     1     -11.532 -15.325  29.995  1.00  0.00     0.005 C 
ATOM     20  C   UNL     1     -11.519 -16.688  29.248  1.00  0.00     0.003 C 
ATOM     21  C   UNL     1     -14.009 -16.623  28.730  1.00  0.00     0.085 C 
ATOM     22  C   UNL     1     -11.088 -16.634  27.719  1.00  0.00    -0.000 C 
ATOM     23  C   UNL     1     -13.632 -16.232  27.329  1.00  0.00     0.159 C 
ATOM     24  C   UNL     1     -12.300 -16.575  26.788  1.00  0.00     0.005 C 
ATOM     25  C   UNL     1     -10.290 -17.933  27.382  1.00  0.00     0.020 C 
ATOM     26  C   UNL     1     -10.173 -15.411  27.429  1.00  0.00     0.017 C 
ATOM     27  O   UNL     1     -14.479 -15.642  26.604  1.00  0.00    -0.295 OA
ATOM     28  C   UNL     1     -12.192 -16.940  25.495  1.00  0.00     0.055 C 
ATOM     29  C   UNL     1      -9.878 -18.037  25.902  1.00  0.00     0.081 C 
ATOM     30  C   UNL     1     -10.981 -17.599  24.980  1.00  0.00     0.156 C 
ATOM     31  O   UNL     1     -10.870 -17.821  23.746  1.00  0.00    -0.295 OA
ENDBRANCH   9  11
ENDBRANCH   8   9
ENDBRANCH   1   8
TORSDOF 6
ENDMDL
