MODEL 1
REMARK VINA RESULT:    -4.043      0.000      0.000
REMARK INTER + INTRA:          -9.699
REMARK INTER:                  -7.470
REMARK INTRA:                  -2.229
REMARK UNBOUND:                -2.229
REMARK SMILES CCCCCCCCCCCCCCCCO
REMARK SMILES IDX 9 1 8 2 7 3 6 4 5 5 4 6 3 7 2 8 1 9 10 10 11 11 12 12 13 13
REMARK SMILES IDX 14 14 15 15 16 16 17 17
REMARK H PARENT 17 18
REMARK Flexibility Score: inf
ROOT
ATOM      1  C   UNL     1      12.005 -28.103  51.076  1.00  0.00     0.000 C 
ENDROOT
BRANCH   1   2
ATOM      2  C   UNL     1      12.369 -26.971  52.051  1.00  0.00    -0.000 C 
BRANCH   2   3
ATOM      3  C   UNL     1      12.030 -27.318  53.511  1.00  0.00    -0.000 C 
BRANCH   3   4
ATOM      4  C   UNL     1      11.979 -28.833  53.764  1.00  0.00    -0.000 C 
BRANCH   4   5
ATOM      5  C   UNL     1      10.651 -29.235  54.416  1.00  0.00    -0.000 C 
BRANCH   5   6
ATOM      6  C   UNL     1      10.214 -30.635  53.957  1.00  0.00    -0.000 C 
BRANCH   6   7
ATOM      7  C   UNL     1      10.546 -30.903  52.481  1.00  0.00    -0.000 C 
BRANCH   7   8
ATOM      8  C   UNL     1       9.632 -31.965  51.852  1.00  0.00    -0.003 C 
ATOM      9  C   UNL     1       8.193 -31.467  51.759  1.00  0.00     0.004 C 
ENDBRANCH   7   8
ENDBRANCH   6   7
ENDBRANCH   5   6
ENDBRANCH   4   5
ENDBRANCH   3   4
ENDBRANCH   2   3
ENDBRANCH   1   2
BRANCH   1  10
ATOM     10  C   UNL     1      11.011 -27.661  49.986  1.00  0.00     0.000 C 
BRANCH  10  11
ATOM     11  C   UNL     1       9.748 -26.943  50.499  1.00  0.00     0.000 C 
BRANCH  11  12
ATOM     12  C   UNL     1       8.876 -27.835  51.398  1.00  0.00     0.000 C 
BRANCH  12  13
ATOM     13  C   UNL     1       8.256 -27.061  52.573  1.00  0.00     0.000 C 
BRANCH  13  14
ATOM     14  C   UNL     1       8.356 -25.535  52.397  1.00  0.00     0.002 C 
BRANCH  14  15
ATOM     15  C   UNL     1       8.079 -24.765  53.700  1.00  0.00     0.028 C 
BRANCH  15  16
ATOM     16  C   UNL     1       9.351 -24.289  54.410  1.00  0.00     0.156 C 
BRANCH  16  17
ATOM     17  O   UNL     1       9.768 -25.240  55.351  1.00  0.00    -0.396 OA
ATOM     18  H   UNL     1       8.940 -25.654  55.709  1.00  0.00     0.210 HD
ENDBRANCH  16  17
ENDBRANCH  15  16
ENDBRANCH  14  15
ENDBRANCH  13  14
ENDBRANCH  12  13
ENDBRANCH  11  12
ENDBRANCH  10  11
ENDBRANCH   1  10
TORSDOF 15
ENDMDL
MODEL 2
REMARK VINA RESULT:    -3.994      1.888      3.718
REMARK INTER + INTRA:          -9.608
REMARK INTER:                  -7.347
REMARK INTRA:                  -2.261
REMARK UNBOUND:                -2.229
REMARK SMILES CCCCCCCCCCCCCCCCO
REMARK SMILES IDX 9 1 8 2 7 3 6 4 5 5 4 6 3 7 2 8 1 9 10 10 11 11 12 12 13 13
REMARK SMILES IDX 14 14 15 15 16 16 17 17
REMARK H PARENT 17 18
REMARK Flexibility Score: inf
ROOT
ATOM      1  C   UNL     1      10.724 -25.224  51.121  1.00  0.00     0.000 C 
ENDROOT
BRANCH   1   2
ATOM      2  C   UNL     1      10.210 -26.255  50.102  1.00  0.00    -0.000 C 
BRANCH   2   3
ATOM      3  C   UNL     1      10.750 -27.670  50.371  1.00  0.00    -0.000 C 
BRANCH   3   4
ATOM      4  C   UNL     1       9.803 -28.510  51.242  1.00  0.00    -0.000 C 
BRANCH   4   5
ATOM      5  C   UNL     1      10.573 -29.212  52.367  1.00  0.00    -0.000 C 
BRANCH   5   6
ATOM      6  C   UNL     1      10.920 -28.228  53.495  1.00  0.00    -0.000 C 
BRANCH   6   7
ATOM      7  C   UNL     1      12.409 -28.262  53.872  1.00  0.00    -0.000 C 
BRANCH   7   8
ATOM      8  C   UNL     1      13.243 -27.242  53.083  1.00  0.00    -0.003 C 
ATOM      9  C   UNL     1      14.209 -27.941  52.131  1.00  0.00     0.004 C 
ENDBRANCH   7   8
ENDBRANCH   6   7
ENDBRANCH   5   6
ENDBRANCH   4   5
ENDBRANCH   3   4
ENDBRANCH   2   3
ENDBRANCH   1   2
BRANCH   1  10
ATOM     10  C   UNL     1       9.588 -24.491  51.860  1.00  0.00     0.000 C 
BRANCH  10  11
ATOM     11  C   UNL     1       8.320 -25.329  52.113  1.00  0.00     0.000 C 
BRANCH  11  12
ATOM     12  C   UNL     1       8.250 -25.895  53.541  1.00  0.00     0.000 C 
BRANCH  12  13
ATOM     13  C   UNL     1       9.104 -25.091  54.536  1.00  0.00     0.000 C 
BRANCH  13  14
ATOM     14  C   UNL     1       8.283 -24.052  55.319  1.00  0.00     0.002 C 
BRANCH  14  15
ATOM     15  C   UNL     1       8.756 -22.609  55.072  1.00  0.00     0.028 C 
BRANCH  15  16
ATOM     16  C   UNL     1       7.892 -21.848  54.060  1.00  0.00     0.156 C 
BRANCH  16  17
ATOM     17  O   UNL     1       6.783 -22.621  53.688  1.00  0.00    -0.396 OA
ATOM     18  H   UNL     1       6.502 -23.108  54.506  1.00  0.00     0.210 HD
ENDBRANCH  16  17
ENDBRANCH  15  16
ENDBRANCH  14  15
ENDBRANCH  13  14
ENDBRANCH  12  13
ENDBRANCH  11  12
ENDBRANCH  10  11
ENDBRANCH   1  10
TORSDOF 15
ENDMDL
MODEL 3
REMARK VINA RESULT:    -3.985      1.524      3.612
REMARK INTER + INTRA:          -9.593
REMARK INTER:                  -7.407
REMARK INTRA:                  -2.186
REMARK UNBOUND:                -2.229
REMARK SMILES CCCCCCCCCCCCCCCCO
REMARK SMILES IDX 9 1 8 2 7 3 6 4 5 5 4 6 3 7 2 8 1 9 10 10 11 11 12 12 13 13
REMARK SMILES IDX 14 14 15 15 16 16 17 17
REMARK H PARENT 17 18
REMARK Flexibility Score: inf
ROOT
ATOM      1  C   UNL     1      11.023 -27.423  54.277  1.00  0.00     0.000 C 
ENDROOT
BRANCH   1   2
ATOM      2  C   UNL     1      10.439 -28.699  54.906  1.00  0.00    -0.000 C 
BRANCH   2   3
ATOM      3  C   UNL     1      10.655 -29.942  54.027  1.00  0.00    -0.000 C 
BRANCH   3   4
ATOM      4  C   UNL     1      10.173 -29.738  52.583  1.00  0.00    -0.000 C 
BRANCH   4   5
ATOM      5  C   UNL     1      11.303 -30.018  51.584  1.00  0.00    -0.000 C 
BRANCH   5   6
ATOM      6  C   UNL     1      11.776 -28.720  50.910  1.00  0.00    -0.000 C 
BRANCH   6   7
ATOM      7  C   UNL     1      10.609 -27.833  50.450  1.00  0.00    -0.000 C 
BRANCH   7   8
ATOM      8  C   UNL     1      11.069 -26.448  49.973  1.00  0.00    -0.003 C 
ATOM      9  C   UNL     1      11.971 -25.782  51.007  1.00  0.00     0.004 C 
ENDBRANCH   7   8
ENDBRANCH   6   7
ENDBRANCH   5   6
ENDBRANCH   4   5
ENDBRANCH   3   4
ENDBRANCH   2   3
ENDBRANCH   1   2
BRANCH   1  10
ATOM     10  C   UNL     1       9.980 -26.302  54.110  1.00  0.00     0.000 C 
BRANCH  10  11
ATOM     11  C   UNL     1       8.728 -26.685  53.298  1.00  0.00     0.000 C 
BRANCH  11  12
ATOM     12  C   UNL     1       8.278 -25.577  52.332  1.00  0.00     0.000 C 
BRANCH  12  13
ATOM     13  C   UNL     1       9.012 -24.248  52.576  1.00  0.00     0.000 C 
BRANCH  13  14
ATOM     14  C   UNL     1       8.057 -23.103  52.958  1.00  0.00     0.002 C 
BRANCH  14  15
ATOM     15  C   UNL     1       7.521 -23.229  54.395  1.00  0.00     0.028 C 
BRANCH  15  16
ATOM     16  C   UNL     1       8.617 -23.146  55.464  1.00  0.00     0.156 C 
BRANCH  16  17
ATOM     17  O   UNL     1       8.540 -24.249  56.325  1.00  0.00    -0.396 OA
ATOM     18  H   UNL     1       9.081 -24.012  57.123  1.00  0.00     0.210 HD
ENDBRANCH  16  17
ENDBRANCH  15  16
ENDBRANCH  14  15
ENDBRANCH  13  14
ENDBRANCH  12  13
ENDBRANCH  11  12
ENDBRANCH  10  11
ENDBRANCH   1  10
TORSDOF 15
ENDMDL
MODEL 4
REMARK VINA RESULT:    -3.927      1.809      3.358
REMARK INTER + INTRA:          -9.485
REMARK INTER:                  -7.389
REMARK INTRA:                  -2.096
REMARK UNBOUND:                -2.229
REMARK SMILES CCCCCCCCCCCCCCCCO
REMARK SMILES IDX 9 1 8 2 7 3 6 4 5 5 4 6 3 7 2 8 1 9 10 10 11 11 12 12 13 13
REMARK SMILES IDX 14 14 15 15 16 16 17 17
REMARK H PARENT 17 18
REMARK Flexibility Score: inf
ROOT
ATOM      1  C   UNL     1       9.697 -26.247  54.141  1.00  0.00     0.000 C 
ENDROOT
BRANCH   1   2
ATOM      2  C   UNL     1      10.139 -27.675  54.503  1.00  0.00    -0.000 C 
BRANCH   2   3
ATOM      3  C   UNL     1      11.632 -27.757  54.865  1.00  0.00    -0.000 C 
BRANCH   3   4
ATOM      4  C   UNL     1      12.485 -28.345  53.730  1.00  0.00    -0.000 C 
BRANCH   4   5
ATOM      5  C   UNL     1      13.161 -27.233  52.920  1.00  0.00    -0.000 C 
BRANCH   5   6
ATOM      6  C   UNL     1      12.363 -26.917  51.645  1.00  0.00    -0.000 C 
BRANCH   6   7
ATOM      7  C   UNL     1      11.772 -28.176  50.991  1.00  0.00    -0.000 C 
BRANCH   7   8
ATOM      8  C   UNL     1      10.260 -28.064  50.749  1.00  0.00    -0.003 C 
ATOM      9  C   UNL     1       9.503 -29.168  51.481  1.00  0.00     0.004 C 
ENDBRANCH   7   8
ENDBRANCH   6   7
ENDBRANCH   5   6
ENDBRANCH   4   5
ENDBRANCH   3   4
ENDBRANCH   2   3
ENDBRANCH   1   2
BRANCH   1  10
ATOM     10  C   UNL     1       8.345 -26.205  53.403  1.00  0.00     0.000 C 
BRANCH  10  11
ATOM     11  C   UNL     1       8.302 -25.294  52.162  1.00  0.00     0.000 C 
BRANCH  11  12
ATOM     12  C   UNL     1       9.547 -24.401  52.030  1.00  0.00     0.000 C 
BRANCH  12  13
ATOM     13  C   UNL     1       9.290 -22.957  52.492  1.00  0.00     0.000 C 
BRANCH  13  14
ATOM     14  C   UNL     1       7.943 -22.798  53.219  1.00  0.00     0.002 C 
BRANCH  14  15
ATOM     15  C   UNL     1       8.100 -22.281  54.659  1.00  0.00     0.028 C 
BRANCH  15  16
ATOM     16  C   UNL     1       9.544 -22.328  55.170  1.00  0.00     0.156 C 
BRANCH  16  17
ATOM     17  O   UNL     1       9.564 -22.490  56.562  1.00  0.00    -0.396 OA
ATOM     18  H   UNL     1       9.591 -21.575  56.945  1.00  0.00     0.210 HD
ENDBRANCH  16  17
ENDBRANCH  15  16
ENDBRANCH  14  15
ENDBRANCH  13  14
ENDBRANCH  12  13
ENDBRANCH  11  12
ENDBRANCH  10  11
ENDBRANCH   1  10
TORSDOF 15
ENDMDL
MODEL 5
REMARK VINA RESULT:    -3.900      2.316      5.305
REMARK INTER + INTRA:          -9.435
REMARK INTER:                  -7.209
REMARK INTRA:                  -2.225
REMARK UNBOUND:                -2.229
REMARK SMILES CCCCCCCCCCCCCCCCO
REMARK SMILES IDX 9 1 8 2 7 3 6 4 5 5 4 6 3 7 2 8 1 9 10 10 11 11 12 12 13 13
REMARK SMILES IDX 14 14 15 15 16 16 17 17
REMARK H PARENT 17 18
REMARK Flexibility Score: inf
ROOT
ATOM      1  C   UNL     1      12.862 -28.164  53.772  1.00  0.00     0.000 C 
ENDROOT
BRANCH   1   2
ATOM      2  C   UNL     1      13.200 -27.020  52.801  1.00  0.00    -0.000 C 
BRANCH   2   3
ATOM      3  C   UNL     1      11.983 -26.562  51.980  1.00  0.00    -0.000 C 
BRANCH   3   4
ATOM      4  C   UNL     1      11.720 -27.459  50.761  1.00  0.00    -0.000 C 
BRANCH   4   5
ATOM      5  C   UNL     1      10.219 -27.541  50.454  1.00  0.00    -0.000 C 
BRANCH   5   6
ATOM      6  C   UNL     1       9.463 -26.363  51.089  1.00  0.00    -0.000 C 
BRANCH   6   7
ATOM      7  C   UNL     1       8.236 -26.813  51.895  1.00  0.00    -0.000 C 
BRANCH   7   8
ATOM      8  C   UNL     1       8.303 -26.384  53.368  1.00  0.00    -0.003 C 
ATOM      9  C   UNL     1       8.978 -25.023  53.513  1.00  0.00     0.004 C 
ENDBRANCH   7   8
ENDBRANCH   6   7
ENDBRANCH   5   6
ENDBRANCH   4   5
ENDBRANCH   3   4
ENDBRANCH   2   3
ENDBRANCH   1   2
BRANCH   1  10
ATOM     10  C   UNL     1      11.669 -27.839  54.691  1.00  0.00     0.000 C 
BRANCH  10  11
ATOM     11  C   UNL     1      10.573 -28.920  54.753  1.00  0.00     0.000 C 
BRANCH  11  12
ATOM     12  C   UNL     1      10.328 -29.604  53.398  1.00  0.00     0.000 C 
BRANCH  12  13
ATOM     13  C   UNL     1      10.086 -31.116  53.536  1.00  0.00     0.000 C 
BRANCH  13  14
ATOM     14  C   UNL     1       9.553 -31.752  52.240  1.00  0.00     0.002 C 
BRANCH  14  15
ATOM     15  C   UNL     1       8.377 -30.968  51.631  1.00  0.00     0.028 C 
BRANCH  15  16
ATOM     16  C   UNL     1       7.145 -31.836  51.350  1.00  0.00     0.156 C 
BRANCH  16  17
ATOM     17  O   UNL     1       7.184 -33.002  52.126  1.00  0.00    -0.396 OA
ATOM     18  H   UNL     1       6.404 -33.546  51.845  1.00  0.00     0.210 HD
ENDBRANCH  16  17
ENDBRANCH  15  16
ENDBRANCH  14  15
ENDBRANCH  13  14
ENDBRANCH  12  13
ENDBRANCH  11  12
ENDBRANCH  10  11
ENDBRANCH   1  10
TORSDOF 15
ENDMDL
MODEL 6
REMARK VINA RESULT:    -3.885      2.199      6.109
REMARK INTER + INTRA:          -9.406
REMARK INTER:                  -7.066
REMARK INTRA:                  -2.340
REMARK UNBOUND:                -2.229
REMARK SMILES CCCCCCCCCCCCCCCCO
REMARK SMILES IDX 9 1 8 2 7 3 6 4 5 5 4 6 3 7 2 8 1 9 10 10 11 11 12 12 13 13
REMARK SMILES IDX 14 14 15 15 16 16 17 17
REMARK H PARENT 17 18
REMARK Flexibility Score: inf
ROOT
ATOM      1  C   UNL     1       9.488 -25.784  54.062  1.00  0.00     0.000 C 
ENDROOT
BRANCH   1   2
ATOM      2  C   UNL     1       9.301 -24.743  55.179  1.00  0.00    -0.000 C 
BRANCH   2   3
ATOM      3  C   UNL     1       7.964 -23.991  55.067  1.00  0.00    -0.000 C 
BRANCH   3   4
ATOM      4  C   UNL     1       8.078 -22.515  55.477  1.00  0.00    -0.000 C 
BRANCH   4   5
ATOM      5  C   UNL     1       8.330 -21.624  54.254  1.00  0.00    -0.000 C 
BRANCH   5   6
ATOM      6  C   UNL     1       7.846 -22.309  52.966  1.00  0.00    -0.000 C 
BRANCH   6   7
ATOM      7  C   UNL     1       8.846 -22.165  51.808  1.00  0.00    -0.000 C 
BRANCH   7   8
ATOM      8  C   UNL     1      10.303 -22.343  52.258  1.00  0.00    -0.003 C 
ATOM      9  C   UNL     1      10.996 -23.442  51.457  1.00  0.00     0.004 C 
ENDBRANCH   7   8
ENDBRANCH   6   7
ENDBRANCH   5   6
ENDBRANCH   4   5
ENDBRANCH   3   4
ENDBRANCH   2   3
ENDBRANCH   1   2
BRANCH   1  10
ATOM     10  C   UNL     1       8.182 -26.099  53.309  1.00  0.00     0.000 C 
BRANCH  10  11
ATOM     11  C   UNL     1       8.216 -25.831  51.792  1.00  0.00     0.000 C 
BRANCH  11  12
ATOM     12  C   UNL     1       9.207 -26.740  51.045  1.00  0.00     0.000 C 
BRANCH  12  13
ATOM     13  C   UNL     1       8.998 -28.229  51.367  1.00  0.00     0.000 C 
BRANCH  13  14
ATOM     14  C   UNL     1      10.321 -28.970  51.629  1.00  0.00     0.002 C 
BRANCH  14  15
ATOM     15  C   UNL     1      11.556 -28.074  51.433  1.00  0.00     0.028 C 
BRANCH  15  16
ATOM     16  C   UNL     1      12.370 -27.866  52.715  1.00  0.00     0.156 C 
BRANCH  16  17
ATOM     17  O   UNL     1      12.684 -26.511  52.878  1.00  0.00    -0.396 OA
ATOM     18  H   UNL     1      12.038 -26.009  52.315  1.00  0.00     0.210 HD
ENDBRANCH  16  17
ENDBRANCH  15  16
ENDBRANCH  14  15
ENDBRANCH  13  14
ENDBRANCH  12  13
ENDBRANCH  11  12
ENDBRANCH  10  11
ENDBRANCH   1  10
TORSDOF 15
ENDMDL
MODEL 7
REMARK VINA RESULT:    -3.883      1.690      3.425
REMARK INTER + INTRA:          -9.403
REMARK INTER:                  -7.595
REMARK INTRA:                  -1.809
REMARK UNBOUND:                -2.229
REMARK SMILES CCCCCCCCCCCCCCCCO
REMARK SMILES IDX 9 1 8 2 7 3 6 4 5 5 4 6 3 7 2 8 1 9 10 10 11 11 12 12 13 13
REMARK SMILES IDX 14 14 15 15 16 16 17 17
REMARK H PARENT 17 18
REMARK Flexibility Score: inf
ROOT
ATOM      1  C   UNL     1      10.716 -28.525  50.894  1.00  0.00     0.000 C 
ENDROOT
BRANCH   1   2
ATOM      2  C   UNL     1      10.009 -29.491  51.860  1.00  0.00    -0.000 C 
BRANCH   2   3
ATOM      3  C   UNL     1      10.856 -29.805  53.106  1.00  0.00    -0.000 C 
BRANCH   3   4
ATOM      4  C   UNL     1      10.451 -28.962  54.325  1.00  0.00    -0.000 C 
BRANCH   4   5
ATOM      5  C   UNL     1      11.669 -28.255  54.931  1.00  0.00    -0.000 C 
BRANCH   5   6
ATOM      6  C   UNL     1      12.467 -27.509  53.850  1.00  0.00    -0.000 C 
BRANCH   6   7
ATOM      7  C   UNL     1      13.745 -28.257  53.437  1.00  0.00    -0.000 C 
BRANCH   7   8
ATOM      8  C   UNL     1      14.474 -27.582  52.267  1.00  0.00    -0.003 C 
ATOM      9  C   UNL     1      13.930 -26.179  52.015  1.00  0.00     0.004 C 
ENDBRANCH   7   8
ENDBRANCH   6   7
ENDBRANCH   5   6
ENDBRANCH   4   5
ENDBRANCH   3   4
ENDBRANCH   2   3
ENDBRANCH   1   2
BRANCH   1  10
ATOM     10  C   UNL     1      10.328 -27.052  51.125  1.00  0.00     0.000 C 
BRANCH  10  11
ATOM     11  C   UNL     1       8.850 -26.712  50.856  1.00  0.00     0.000 C 
BRANCH  11  12
ATOM     12  C   UNL     1       8.297 -25.645  51.815  1.00  0.00     0.000 C 
BRANCH  12  13
ATOM     13  C   UNL     1       8.222 -26.141  53.269  1.00  0.00     0.000 C 
BRANCH  13  14
ATOM     14  C   UNL     1       9.247 -25.449  54.185  1.00  0.00     0.002 C 
BRANCH  14  15
ATOM     15  C   UNL     1       8.971 -23.945  54.360  1.00  0.00     0.028 C 
BRANCH  15  16
ATOM     16  C   UNL     1       7.503 -23.625  54.662  1.00  0.00     0.156 C 
BRANCH  16  17
ATOM     17  O   UNL     1       6.946 -22.869  53.622  1.00  0.00    -0.396 OA
ATOM     18  H   UNL     1       7.661 -22.769  52.941  1.00  0.00     0.210 HD
ENDBRANCH  16  17
ENDBRANCH  15  16
ENDBRANCH  14  15
ENDBRANCH  13  14
ENDBRANCH  12  13
ENDBRANCH  11  12
ENDBRANCH  10  11
ENDBRANCH   1  10
TORSDOF 15
ENDMDL
MODEL 8
REMARK VINA RESULT:    -3.847      2.563      6.783
REMARK INTER + INTRA:          -9.336
REMARK INTER:                  -7.561
REMARK INTRA:                  -1.776
REMARK UNBOUND:                -2.229
REMARK SMILES CCCCCCCCCCCCCCCCO
REMARK SMILES IDX 9 1 8 2 7 3 6 4 5 5 4 6 3 7 2 8 1 9 10 10 11 11 12 12 13 13
REMARK SMILES IDX 14 14 15 15 16 16 17 17
REMARK H PARENT 17 18
REMARK Flexibility Score: inf
ROOT
ATOM      1  C   UNL     1       8.106 -24.785  53.919  1.00  0.00     0.000 C 
ENDROOT
BRANCH   1   2
ATOM      2  C   UNL     1       8.934 -24.212  55.083  1.00  0.00    -0.000 C 
BRANCH   2   3
ATOM      3  C   UNL     1       8.067 -23.474  56.116  1.00  0.00    -0.000 C 
BRANCH   3   4
ATOM      4  C   UNL     1       8.747 -22.211  56.667  1.00  0.00    -0.000 C 
BRANCH   4   5
ATOM      5  C   UNL     1       7.849 -20.981  56.487  1.00  0.00    -0.000 C 
BRANCH   5   6
ATOM      6  C   UNL     1       8.157 -20.263  55.164  1.00  0.00    -0.000 C 
BRANCH   6   7
ATOM      7  C   UNL     1       9.604 -20.482  54.696  1.00  0.00    -0.000 C 
BRANCH   7   8
ATOM      8  C   UNL     1       9.687 -21.017  53.259  1.00  0.00    -0.003 C 
ATOM      9  C   UNL     1       8.296 -21.232  52.671  1.00  0.00     0.004 C 
ENDBRANCH   7   8
ENDBRANCH   6   7
ENDBRANCH   5   6
ENDBRANCH   4   5
ENDBRANCH   3   4
ENDBRANCH   2   3
ENDBRANCH   1   2
BRANCH   1  10
ATOM     10  C   UNL     1       8.909 -24.899  52.610  1.00  0.00     0.000 C 
BRANCH  10  11
ATOM     11  C   UNL     1       8.294 -25.822  51.540  1.00  0.00     0.000 C 
BRANCH  11  12
ATOM     12  C   UNL     1       8.263 -27.298  51.968  1.00  0.00     0.000 C 
BRANCH  12  13
ATOM     13  C   UNL     1       9.451 -28.099  51.409  1.00  0.00     0.000 C 
BRANCH  13  14
ATOM     14  C   UNL     1      10.320 -28.721  52.517  1.00  0.00     0.002 C 
BRANCH  14  15
ATOM     15  C   UNL     1      11.315 -27.720  53.129  1.00  0.00     0.028 C 
BRANCH  15  16
ATOM     16  C   UNL     1      10.952 -27.295  54.556  1.00  0.00     0.156 C 
BRANCH  16  17
ATOM     17  O   UNL     1      10.508 -28.400  55.294  1.00  0.00    -0.396 OA
ATOM     18  H   UNL     1       9.743 -28.779  54.788  1.00  0.00     0.210 HD
ENDBRANCH  16  17
ENDBRANCH  15  16
ENDBRANCH  14  15
ENDBRANCH  13  14
ENDBRANCH  12  13
ENDBRANCH  11  12
ENDBRANCH  10  11
ENDBRANCH   1  10
TORSDOF 15
ENDMDL
MODEL 9
REMARK VINA RESULT:    -3.832      2.230      3.981
REMARK INTER + INTRA:          -9.309
REMARK INTER:                  -7.450
REMARK INTRA:                  -1.859
REMARK UNBOUND:                -2.229
REMARK SMILES CCCCCCCCCCCCCCCCO
REMARK SMILES IDX 9 1 8 2 7 3 6 4 5 5 4 6 3 7 2 8 1 9 10 10 11 11 12 12 13 13
REMARK SMILES IDX 14 14 15 15 16 16 17 17
REMARK H PARENT 17 18
REMARK Flexibility Score: inf
ROOT
ATOM      1  C   UNL     1      10.902 -24.803  49.502  1.00  0.00     0.000 C 
ENDROOT
BRANCH   1   2
ATOM      2  C   UNL     1      10.087 -26.100  49.364  1.00  0.00    -0.000 C 
BRANCH   2   3
ATOM      3  C   UNL     1      10.641 -27.241  50.234  1.00  0.00    -0.000 C 
BRANCH   3   4
ATOM      4  C   UNL     1       9.579 -27.847  51.164  1.00  0.00    -0.000 C 
BRANCH   4   5
ATOM      5  C   UNL     1       8.512 -26.808  51.529  1.00  0.00    -0.000 C 
BRANCH   5   6
ATOM      6  C   UNL     1       8.470 -26.571  53.047  1.00  0.00    -0.000 C 
BRANCH   6   7
ATOM      7  C   UNL     1       9.870 -26.547  53.680  1.00  0.00    -0.000 C 
BRANCH   7   8
ATOM      8  C   UNL     1      10.156 -27.791  54.533  1.00  0.00    -0.003 C 
ATOM      9  C   UNL     1      11.637 -27.887  54.887  1.00  0.00     0.004 C 
ENDBRANCH   7   8
ENDBRANCH   6   7
ENDBRANCH   5   6
ENDBRANCH   4   5
ENDBRANCH   3   4
ENDBRANCH   2   3
ENDBRANCH   1   2
BRANCH   1  10
ATOM     10  C   UNL     1      11.324 -24.509  50.954  1.00  0.00     0.000 C 
BRANCH  10  11
ATOM     11  C   UNL     1      10.653 -23.280  51.597  1.00  0.00     0.000 C 
BRANCH  11  12
ATOM     12  C   UNL     1       9.130 -23.252  51.391  1.00  0.00     0.000 C 
BRANCH  12  13
ATOM     13  C   UNL     1       8.441 -22.167  52.235  1.00  0.00     0.000 C 
BRANCH  13  14
ATOM     14  C   UNL     1       7.739 -22.739  53.479  1.00  0.00     0.002 C 
BRANCH  14  15
ATOM     15  C   UNL     1       8.551 -22.532  54.770  1.00  0.00     0.028 C 
BRANCH  15  16
ATOM     16  C   UNL     1       7.919 -23.191  56.001  1.00  0.00     0.156 C 
BRANCH  16  17
ATOM     17  O   UNL     1       8.575 -24.392  56.301  1.00  0.00    -0.396 OA
ATOM     18  H   UNL     1       8.866 -24.317  57.246  1.00  0.00     0.210 HD
ENDBRANCH  16  17
ENDBRANCH  15  16
ENDBRANCH  14  15
ENDBRANCH  13  14
ENDBRANCH  12  13
ENDBRANCH  11  12
ENDBRANCH  10  11
ENDBRANCH   1  10
TORSDOF 15
ENDMDL
