MODEL 1
REMARK VINA RESULT:    -7.006      0.000      0.000
REMARK INTER + INTRA:          -9.445
REMARK INTER:                  -8.849
REMARK INTRA:                  -0.596
REMARK UNBOUND:                -0.596
REMARK SMILES O=C(C=Cc1ccc(O)cc1)c1ccc(O)cc1O
REMARK SMILES IDX 4 1 3 2 5 3 6 4 7 5 8 6 11 7 10 8 9 9 2 11 1 12 12 13 18 14
REMARK SMILES IDX 13 15 17 16 14 17 15 18 19 19 16 21
REMARK H PARENT 9 10 19 20 16 22
REMARK Flexibility Score: inf
ROOT
ATOM      1  C   UNL     1       8.082  -2.400   1.075  1.00  0.00     0.012 C 
ATOM      2  C   UNL     1       6.858  -2.516   0.538  1.00  0.00     0.053 C 
ENDROOT
BRANCH   1   3
ATOM      3  C   UNL     1       8.488  -3.054   2.342  1.00  0.00    -0.025 A 
ATOM      4  C   UNL     1       9.452  -2.497   3.208  1.00  0.00     0.012 A 
ATOM      5  C   UNL     1       9.793  -3.146   4.399  1.00  0.00     0.047 A 
ATOM      6  C   UNL     1       9.173  -4.352   4.747  1.00  0.00     0.115 A 
ATOM      7  C   UNL     1       7.862  -4.257   2.711  1.00  0.00     0.012 A 
ATOM      8  C   UNL     1       8.206  -4.903   3.901  1.00  0.00     0.047 A 
BRANCH   6   9
ATOM      9  O   UNL     1       9.506  -5.008   5.929  1.00  0.00    -0.508 OA
ATOM     10  H   UNL     1       8.836  -5.115   6.682  1.00  0.00     0.293 HD
ENDBRANCH   6   9
ENDBRANCH   1   3
BRANCH   2  11
ATOM     11  C   UNL     1       6.483  -1.835  -0.721  1.00  0.00     0.189 C 
ATOM     12  O   UNL     1       5.372  -2.086  -1.265  1.00  0.00    -0.289 OA
BRANCH  11  13
ATOM     13  C   UNL     1       7.414  -0.896  -1.389  1.00  0.00     0.064 A 
ATOM     14  C   UNL     1       7.509   0.460  -1.004  1.00  0.00     0.130 A 
ATOM     15  C   UNL     1       8.207  -1.361  -2.453  1.00  0.00     0.020 A 
ATOM     16  C   UNL     1       8.416   1.309  -1.656  1.00  0.00     0.093 A 
ATOM     17  C   UNL     1       9.103  -0.506  -3.100  1.00  0.00     0.047 A 
ATOM     18  C   UNL     1       9.213   0.828  -2.702  1.00  0.00     0.119 A 
BRANCH  14  19
ATOM     19  O   UNL     1       6.689   0.971   0.002  1.00  0.00    -0.507 OA
ATOM     20  H   UNL     1       5.685   0.829  -0.004  1.00  0.00     0.293 HD
ENDBRANCH  14  19
BRANCH  18  21
ATOM     21  O   UNL     1      10.113   1.668  -3.354  1.00  0.00    -0.508 OA
ATOM     22  H   UNL     1      11.101   1.445  -3.409  1.00  0.00     0.293 HD
ENDBRANCH  18  21
ENDBRANCH  11  13
ENDBRANCH   2  11
TORSDOF 6
ENDMDL
MODEL 2
REMARK VINA RESULT:    -6.924      1.793      2.343
REMARK INTER + INTRA:          -9.342
REMARK INTER:                  -8.715
REMARK INTRA:                  -0.627
REMARK UNBOUND:                -0.596
REMARK SMILES O=C(C=Cc1ccc(O)cc1)c1ccc(O)cc1O
REMARK SMILES IDX 4 1 3 2 5 3 6 4 7 5 8 6 11 7 10 8 9 9 2 11 1 12 12 13 18 14
REMARK SMILES IDX 13 15 17 16 14 17 15 18 19 19 16 21
REMARK H PARENT 9 10 19 20 16 22
REMARK Flexibility Score: inf
ROOT
ATOM      1  C   UNL     1       9.375  -1.850   3.015  1.00  0.00     0.012 C 
ATOM      2  C   UNL     1       8.925  -1.637   1.770  1.00  0.00     0.053 C 
ENDROOT
BRANCH   1   3
ATOM      3  C   UNL     1       9.445  -3.192   3.644  1.00  0.00    -0.025 A 
ATOM      4  C   UNL     1       9.270  -4.384   2.911  1.00  0.00     0.012 A 
ATOM      5  C   UNL     1       9.357  -5.625   3.548  1.00  0.00     0.047 A 
ATOM      6  C   UNL     1       9.629  -5.697   4.919  1.00  0.00     0.115 A 
ATOM      7  C   UNL     1       9.733  -3.277   5.017  1.00  0.00     0.012 A 
ATOM      8  C   UNL     1       9.819  -4.521   5.650  1.00  0.00     0.047 A 
BRANCH   6   9
ATOM      9  O   UNL     1       9.717  -6.928   5.564  1.00  0.00    -0.508 OA
ATOM     10  H   UNL     1      10.006  -7.765   5.071  1.00  0.00     0.293 HD
ENDBRANCH   6   9
ENDBRANCH   1   3
BRANCH   2  11
ATOM     11  C   UNL     1       8.855  -0.281   1.180  1.00  0.00     0.189 C 
ATOM     12  O   UNL     1       8.635   0.717   1.921  1.00  0.00    -0.289 OA
BRANCH  11  13
ATOM     13  C   UNL     1       8.988  -0.076  -0.281  1.00  0.00     0.064 A 
ATOM     14  C   UNL     1       8.151   0.815  -0.988  1.00  0.00     0.130 A 
ATOM     15  C   UNL     1       9.958  -0.809  -0.988  1.00  0.00     0.020 A 
ATOM     16  C   UNL     1       8.324   0.989  -2.370  1.00  0.00     0.093 A 
ATOM     17  C   UNL     1      10.118  -0.634  -2.365  1.00  0.00     0.047 A 
ATOM     18  C   UNL     1       9.306   0.266  -3.059  1.00  0.00     0.119 A 
BRANCH  14  19
ATOM     19  O   UNL     1       7.134   1.508  -0.330  1.00  0.00    -0.507 OA
ATOM     20  H   UNL     1       6.870   2.449  -0.597  1.00  0.00     0.293 HD
ENDBRANCH  14  19
BRANCH  18  21
ATOM     21  O   UNL     1       9.480   0.432  -4.430  1.00  0.00    -0.508 OA
ATOM     22  H   UNL     1       9.672  -0.355  -5.039  1.00  0.00     0.293 HD
ENDBRANCH  18  21
ENDBRANCH  11  13
ENDBRANCH   2  11
TORSDOF 6
ENDMDL
MODEL 3
REMARK VINA RESULT:    -6.777      0.978      1.924
REMARK INTER + INTRA:          -9.156
REMARK INTER:                  -8.424
REMARK INTRA:                  -0.731
REMARK UNBOUND:                -0.596
REMARK SMILES O=C(C=Cc1ccc(O)cc1)c1ccc(O)cc1O
REMARK SMILES IDX 4 1 3 2 5 3 6 4 7 5 8 6 11 7 10 8 9 9 2 11 1 12 12 13 18 14
REMARK SMILES IDX 13 15 17 16 14 17 15 18 19 19 16 21
REMARK H PARENT 9 10 19 20 16 22
REMARK Flexibility Score: inf
ROOT
ATOM      1  C   UNL     1       7.847  -2.840   0.929  1.00  0.00     0.012 C 
ATOM      2  C   UNL     1       6.679  -2.213   0.730  1.00  0.00     0.053 C 
ENDROOT
BRANCH   1   3
ATOM      3  C   UNL     1       8.310  -3.312   2.257  1.00  0.00    -0.025 A 
ATOM      4  C   UNL     1       7.830  -4.498   2.851  1.00  0.00     0.012 A 
ATOM      5  C   UNL     1       8.306  -4.908   4.099  1.00  0.00     0.047 A 
ATOM      6  C   UNL     1       9.274  -4.148   4.769  1.00  0.00     0.115 A 
ATOM      7  C   UNL     1       9.292  -2.567   2.931  1.00  0.00     0.012 A 
ATOM      8  C   UNL     1       9.766  -2.980   4.180  1.00  0.00     0.047 A 
BRANCH   6   9
ATOM      9  O   UNL     1       9.755  -4.546   6.014  1.00  0.00    -0.508 OA
ATOM     10  H   UNL     1      10.658  -4.239   6.355  1.00  0.00     0.293 HD
ENDBRANCH   6   9
ENDBRANCH   1   3
BRANCH   2  11
ATOM     11  C   UNL     1       6.256  -1.742  -0.608  1.00  0.00     0.189 C 
ATOM     12  O   UNL     1       5.205  -2.202  -1.134  1.00  0.00    -0.289 OA
BRANCH  11  13
ATOM     13  C   UNL     1       7.075  -0.771  -1.370  1.00  0.00     0.064 A 
ATOM     14  C   UNL     1       7.440  -0.997  -2.715  1.00  0.00     0.130 A 
ATOM     15  C   UNL     1       7.524   0.397  -0.727  1.00  0.00     0.020 A 
ATOM     16  C   UNL     1       8.205  -0.042  -3.402  1.00  0.00     0.093 A 
ATOM     17  C   UNL     1       8.291   1.339  -1.418  1.00  0.00     0.047 A 
ATOM     18  C   UNL     1       8.630   1.126  -2.755  1.00  0.00     0.119 A 
BRANCH  14  19
ATOM     19  O   UNL     1       7.069  -2.176  -3.363  1.00  0.00    -0.507 OA
ATOM     20  H   UNL     1       7.244  -2.319  -4.351  1.00  0.00     0.293 HD
ENDBRANCH  14  19
BRANCH  18  21
ATOM     21  O   UNL     1       9.391   2.076  -3.431  1.00  0.00    -0.508 OA
ATOM     22  H   UNL     1       8.963   2.885  -3.868  1.00  0.00     0.293 HD
ENDBRANCH  18  21
ENDBRANCH  11  13
ENDBRANCH   2  11
TORSDOF 6
ENDMDL
MODEL 4
REMARK VINA RESULT:    -6.734      1.723      2.833
REMARK INTER + INTRA:          -9.102
REMARK INTER:                  -8.513
REMARK INTRA:                  -0.589
REMARK UNBOUND:                -0.596
REMARK SMILES O=C(C=Cc1ccc(O)cc1)c1ccc(O)cc1O
REMARK SMILES IDX 4 1 3 2 5 3 6 4 7 5 8 6 11 7 10 8 9 9 2 11 1 12 12 13 18 14
REMARK SMILES IDX 13 15 17 16 14 17 15 18 19 19 16 21
REMARK H PARENT 9 10 19 20 16 22
REMARK Flexibility Score: inf
ROOT
ATOM      1  C   UNL     1       8.632  -1.334   0.295  1.00  0.00     0.012 C 
ATOM      2  C   UNL     1       7.718  -0.380   0.066  1.00  0.00     0.053 C 
ENDROOT
BRANCH   1   3
ATOM      3  C   UNL     1       8.595  -2.242   1.467  1.00  0.00    -0.025 A 
ATOM      4  C   UNL     1       7.729  -3.353   1.539  1.00  0.00     0.012 A 
ATOM      5  C   UNL     1       7.740  -4.188   2.661  1.00  0.00     0.047 A 
ATOM      6  C   UNL     1       8.620  -3.933   3.720  1.00  0.00     0.115 A 
ATOM      7  C   UNL     1       9.485  -2.007   2.529  1.00  0.00     0.012 A 
ATOM      8  C   UNL     1       9.492  -2.843   3.650  1.00  0.00     0.047 A 
BRANCH   6   9
ATOM      9  O   UNL     1       8.639  -4.757   4.843  1.00  0.00    -0.508 OA
ATOM     10  H   UNL     1       8.489  -5.757   4.769  1.00  0.00     0.293 HD
ENDBRANCH   6   9
ENDBRANCH   1   3
BRANCH   2  11
ATOM     11  C   UNL     1       7.795   0.519  -1.107  1.00  0.00     0.189 C 
ATOM     12  O   UNL     1       7.788   1.770  -0.942  1.00  0.00    -0.289 OA
BRANCH  11  13
ATOM     13  C   UNL     1       7.831  -0.024  -2.485  1.00  0.00     0.064 A 
ATOM     14  C   UNL     1       8.548   0.616  -3.520  1.00  0.00     0.130 A 
ATOM     15  C   UNL     1       7.109  -1.195  -2.776  1.00  0.00     0.020 A 
ATOM     16  C   UNL     1       8.566   0.057  -4.807  1.00  0.00     0.093 A 
ATOM     17  C   UNL     1       7.128  -1.741  -4.063  1.00  0.00     0.047 A 
ATOM     18  C   UNL     1       7.857  -1.121  -5.079  1.00  0.00     0.119 A 
BRANCH  14  19
ATOM     19  O   UNL     1       9.220   1.815  -3.282  1.00  0.00    -0.507 OA
ATOM     20  H   UNL     1      10.068   1.851  -2.729  1.00  0.00     0.293 HD
ENDBRANCH  14  19
BRANCH  18  21
ATOM     21  O   UNL     1       7.869  -1.678  -6.355  1.00  0.00    -0.508 OA
ATOM     22  H   UNL     1       7.024  -2.037  -6.785  1.00  0.00     0.293 HD
ENDBRANCH  18  21
ENDBRANCH  11  13
ENDBRANCH   2  11
TORSDOF 6
ENDMDL
MODEL 5
REMARK VINA RESULT:    -6.642      2.602      7.114
REMARK INTER + INTRA:          -8.986
REMARK INTER:                  -8.311
REMARK INTRA:                  -0.675
REMARK UNBOUND:                -0.596
REMARK SMILES O=C(C=Cc1ccc(O)cc1)c1ccc(O)cc1O
REMARK SMILES IDX 4 1 3 2 5 3 6 4 7 5 8 6 11 7 10 8 9 9 2 11 1 12 12 13 18 14
REMARK SMILES IDX 13 15 17 16 14 17 15 18 19 19 16 21
REMARK H PARENT 9 10 19 20 16 22
REMARK Flexibility Score: inf
ROOT
ATOM      1  C   UNL     1       7.290  -1.485  -1.959  1.00  0.00     0.012 C 
ATOM      2  C   UNL     1       6.603  -1.111  -0.871  1.00  0.00     0.053 C 
ENDROOT
BRANCH   1   3
ATOM      3  C   UNL     1       6.652  -1.922  -3.224  1.00  0.00    -0.025 A 
ATOM      4  C   UNL     1       7.395  -2.236  -4.381  1.00  0.00     0.012 A 
ATOM      5  C   UNL     1       6.748  -2.656  -5.547  1.00  0.00     0.047 A 
ATOM      6  C   UNL     1       5.353  -2.778  -5.573  1.00  0.00     0.115 A 
ATOM      7  C   UNL     1       5.254  -2.065  -3.259  1.00  0.00     0.012 A 
ATOM      8  C   UNL     1       4.610  -2.483  -4.427  1.00  0.00     0.047 A 
BRANCH   6   9
ATOM      9  O   UNL     1       4.697  -3.194  -6.730  1.00  0.00    -0.508 OA
ATOM     10  H   UNL     1       3.889  -3.803  -6.690  1.00  0.00     0.293 HD
ENDBRANCH   6   9
ENDBRANCH   1   3
BRANCH   2  11
ATOM     11  C   UNL     1       7.274  -0.695   0.381  1.00  0.00     0.189 C 
ATOM     12  O   UNL     1       7.377   0.531   0.662  1.00  0.00    -0.289 OA
BRANCH  11  13
ATOM     13  C   UNL     1       7.879  -1.695   1.292  1.00  0.00     0.064 A 
ATOM     14  C   UNL     1       9.032  -1.407   2.055  1.00  0.00     0.130 A 
ATOM     15  C   UNL     1       7.303  -2.975   1.380  1.00  0.00     0.020 A 
ATOM     16  C   UNL     1       9.561  -2.380   2.916  1.00  0.00     0.093 A 
ATOM     17  C   UNL     1       7.841  -3.940   2.235  1.00  0.00     0.047 A 
ATOM     18  C   UNL     1       8.967  -3.645   3.008  1.00  0.00     0.119 A 
BRANCH  14  19
ATOM     19  O   UNL     1       9.668  -0.170   1.941  1.00  0.00    -0.507 OA
ATOM     20  H   UNL     1      10.392   0.119   2.589  1.00  0.00     0.293 HD
ENDBRANCH  14  19
BRANCH  18  21
ATOM     21  O   UNL     1       9.489  -4.616   3.859  1.00  0.00    -0.508 OA
ATOM     22  H   UNL     1       9.058  -5.528   3.950  1.00  0.00     0.293 HD
ENDBRANCH  18  21
ENDBRANCH  11  13
ENDBRANCH   2  11
TORSDOF 6
ENDMDL
MODEL 6
REMARK VINA RESULT:    -6.387      2.258      3.264
REMARK INTER + INTRA:          -8.664
REMARK INTER:                  -8.216
REMARK INTRA:                  -0.448
REMARK UNBOUND:                -0.596
REMARK SMILES O=C(C=Cc1ccc(O)cc1)c1ccc(O)cc1O
REMARK SMILES IDX 4 1 3 2 5 3 6 4 7 5 8 6 11 7 10 8 9 9 2 11 1 12 12 13 18 14
REMARK SMILES IDX 13 15 17 16 14 17 15 18 19 19 16 21
REMARK H PARENT 9 10 19 20 16 22
REMARK Flexibility Score: inf
ROOT
ATOM      1  C   UNL     1       7.615  -1.686   0.531  1.00  0.00     0.012 C 
ATOM      2  C   UNL     1       7.936  -1.905  -0.753  1.00  0.00     0.053 C 
ENDROOT
BRANCH   1   3
ATOM      3  C   UNL     1       8.056  -2.556   1.648  1.00  0.00    -0.025 A 
ATOM      4  C   UNL     1       9.130  -2.217   2.496  1.00  0.00     0.012 A 
ATOM      5  C   UNL     1       9.500  -3.065   3.544  1.00  0.00     0.047 A 
ATOM      6  C   UNL     1       8.800  -4.257   3.767  1.00  0.00     0.115 A 
ATOM      7  C   UNL     1       7.351  -3.748   1.892  1.00  0.00     0.012 A 
ATOM      8  C   UNL     1       7.725  -4.594   2.940  1.00  0.00     0.047 A 
BRANCH   6   9
ATOM      9  O   UNL     1       9.161  -5.110   4.807  1.00  0.00    -0.508 OA
ATOM     10  H   UNL     1       9.883  -5.811   4.690  1.00  0.00     0.293 HD
ENDBRANCH   6   9
ENDBRANCH   1   3
BRANCH   2  11
ATOM     11  C   UNL     1       7.465  -1.023  -1.844  1.00  0.00     0.189 C 
ATOM     12  O   UNL     1       7.650   0.223  -1.769  1.00  0.00    -0.289 OA
BRANCH  11  13
ATOM     13  C   UNL     1       6.730  -1.573  -3.007  1.00  0.00     0.064 A 
ATOM     14  C   UNL     1       5.368  -1.935  -2.925  1.00  0.00     0.130 A 
ATOM     15  C   UNL     1       7.416  -1.763  -4.220  1.00  0.00     0.020 A 
ATOM     16  C   UNL     1       4.708  -2.437  -4.057  1.00  0.00     0.093 A 
ATOM     17  C   UNL     1       6.752  -2.270  -5.340  1.00  0.00     0.047 A 
ATOM     18  C   UNL     1       5.399  -2.605  -5.265  1.00  0.00     0.119 A 
BRANCH  14  19
ATOM     19  O   UNL     1       4.674  -1.822  -1.719  1.00  0.00    -0.507 OA
ATOM     20  H   UNL     1       3.664  -1.753  -1.689  1.00  0.00     0.293 HD
ENDBRANCH  14  19
BRANCH  18  21
ATOM     21  O   UNL     1       4.750  -3.105  -6.390  1.00  0.00    -0.508 OA
ATOM     22  H   UNL     1       3.739  -3.161  -6.439  1.00  0.00     0.293 HD
ENDBRANCH  18  21
ENDBRANCH  11  13
ENDBRANCH   2  11
TORSDOF 6
ENDMDL
MODEL 7
REMARK VINA RESULT:    -6.366      2.295      7.207
REMARK INTER + INTRA:          -8.637
REMARK INTER:                  -7.934
REMARK INTRA:                  -0.702
REMARK UNBOUND:                -0.596
REMARK SMILES O=C(C=Cc1ccc(O)cc1)c1ccc(O)cc1O
REMARK SMILES IDX 4 1 3 2 5 3 6 4 7 5 8 6 11 7 10 8 9 9 2 11 1 12 12 13 18 14
REMARK SMILES IDX 13 15 17 16 14 17 15 18 19 19 16 21
REMARK H PARENT 9 10 19 20 16 22
REMARK Flexibility Score: inf
ROOT
ATOM      1  C   UNL     1       8.565  -0.685  -2.207  1.00  0.00     0.012 C 
ATOM      2  C   UNL     1       7.460  -0.817  -1.459  1.00  0.00     0.053 C 
ENDROOT
BRANCH   1   3
ATOM      3  C   UNL     1       8.620  -1.007  -3.654  1.00  0.00    -0.025 A 
ATOM      4  C   UNL     1       8.579  -0.014  -4.654  1.00  0.00     0.012 A 
ATOM      5  C   UNL     1       8.646  -0.367  -6.005  1.00  0.00     0.047 A 
ATOM      6  C   UNL     1       8.766  -1.711  -6.378  1.00  0.00     0.115 A 
ATOM      7  C   UNL     1       8.757  -2.351  -4.040  1.00  0.00     0.012 A 
ATOM      8  C   UNL     1       8.823  -2.701  -5.392  1.00  0.00     0.047 A 
BRANCH   6   9
ATOM      9  O   UNL     1       8.833  -2.074  -7.721  1.00  0.00    -0.508 OA
ATOM     10  H   UNL     1       9.524  -1.673  -8.344  1.00  0.00     0.293 HD
ENDBRANCH   6   9
ENDBRANCH   1   3
BRANCH   2  11
ATOM     11  C   UNL     1       7.446  -0.501  -0.013  1.00  0.00     0.189 C 
ATOM     12  O   UNL     1       7.069   0.638   0.378  1.00  0.00    -0.289 OA
BRANCH  11  13
ATOM     13  C   UNL     1       7.917  -1.486   0.989  1.00  0.00     0.064 A 
ATOM     14  C   UNL     1       8.949  -1.182   1.904  1.00  0.00     0.130 A 
ATOM     15  C   UNL     1       7.337  -2.767   1.013  1.00  0.00     0.020 A 
ATOM     16  C   UNL     1       9.353  -2.141   2.846  1.00  0.00     0.093 A 
ATOM     17  C   UNL     1       7.750  -3.717   1.950  1.00  0.00     0.047 A 
ATOM     18  C   UNL     1       8.754  -3.407   2.870  1.00  0.00     0.119 A 
BRANCH  14  19
ATOM     19  O   UNL     1       9.592   0.056   1.864  1.00  0.00    -0.507 OA
ATOM     20  H   UNL     1       9.382   0.743   1.150  1.00  0.00     0.293 HD
ENDBRANCH  14  19
BRANCH  18  21
ATOM     21  O   UNL     1       9.152  -4.364   3.801  1.00  0.00    -0.508 OA
ATOM     22  H   UNL     1       9.870  -5.047   3.585  1.00  0.00     0.293 HD
ENDBRANCH  18  21
ENDBRANCH  11  13
ENDBRANCH   2  11
TORSDOF 6
ENDMDL
MODEL 8
REMARK VINA RESULT:    -6.235      9.251     11.686
REMARK INTER + INTRA:          -8.472
REMARK INTER:                  -7.842
REMARK INTRA:                  -0.629
REMARK UNBOUND:                -0.596
REMARK SMILES O=C(C=Cc1ccc(O)cc1)c1ccc(O)cc1O
REMARK SMILES IDX 4 1 3 2 5 3 6 4 7 5 8 6 11 7 10 8 9 9 2 11 1 12 12 13 18 14
REMARK SMILES IDX 13 15 17 16 14 17 15 18 19 19 16 21
REMARK H PARENT 9 10 19 20 16 22
REMARK Flexibility Score: inf
ROOT
ATOM      1  C   UNL     1      -2.712  -3.988  -2.887  1.00  0.00     0.012 C 
ATOM      2  C   UNL     1      -1.471  -4.471  -2.730  1.00  0.00     0.053 C 
ENDROOT
BRANCH   1   3
ATOM      3  C   UNL     1      -3.719  -3.942  -1.798  1.00  0.00    -0.025 A 
ATOM      4  C   UNL     1      -3.559  -4.646  -0.586  1.00  0.00     0.012 A 
ATOM      5  C   UNL     1      -4.530  -4.561   0.415  1.00  0.00     0.047 A 
ATOM      6  C   UNL     1      -5.669  -3.768   0.228  1.00  0.00     0.115 A 
ATOM      7  C   UNL     1      -4.858  -3.136  -1.967  1.00  0.00     0.012 A 
ATOM      8  C   UNL     1      -5.828  -3.055  -0.964  1.00  0.00     0.047 A 
BRANCH   6   9
ATOM      9  O   UNL     1      -6.644  -3.677   1.218  1.00  0.00    -0.508 OA
ATOM     10  H   UNL     1      -6.488  -4.043   2.150  1.00  0.00     0.293 HD
ENDBRANCH   6   9
ENDBRANCH   1   3
BRANCH   2  11
ATOM     11  C   UNL     1      -0.498  -4.515  -3.844  1.00  0.00     0.189 C 
ATOM     12  O   UNL     1      -0.653  -3.762  -4.846  1.00  0.00    -0.289 OA
BRANCH  11  13
ATOM     13  C   UNL     1       0.636  -5.469  -3.831  1.00  0.00     0.064 A 
ATOM     14  C   UNL     1       1.965  -5.051  -4.062  1.00  0.00     0.130 A 
ATOM     15  C   UNL     1       0.378  -6.833  -3.608  1.00  0.00     0.020 A 
ATOM     16  C   UNL     1       3.009  -5.988  -4.026  1.00  0.00     0.093 A 
ATOM     17  C   UNL     1       1.423  -7.760  -3.579  1.00  0.00     0.047 A 
ATOM     18  C   UNL     1       2.740  -7.341  -3.783  1.00  0.00     0.119 A 
BRANCH  14  19
ATOM     19  O   UNL     1       2.249  -3.716  -4.354  1.00  0.00    -0.507 OA
ATOM     20  H   UNL     1       2.121  -3.335  -5.284  1.00  0.00     0.293 HD
ENDBRANCH  14  19
BRANCH  18  21
ATOM     21  O   UNL     1       3.771  -8.276  -3.748  1.00  0.00    -0.508 OA
ATOM     22  H   UNL     1       4.737  -7.994  -3.621  1.00  0.00     0.293 HD
ENDBRANCH  18  21
ENDBRANCH  11  13
ENDBRANCH   2  11
TORSDOF 6
ENDMDL
MODEL 9
REMARK VINA RESULT:    -6.183      3.489      5.363
REMARK INTER + INTRA:          -8.406
REMARK INTER:                  -8.054
REMARK INTRA:                  -0.351
REMARK UNBOUND:                -0.596
REMARK SMILES O=C(C=Cc1ccc(O)cc1)c1ccc(O)cc1O
REMARK SMILES IDX 4 1 3 2 5 3 6 4 7 5 8 6 11 7 10 8 9 9 2 11 1 12 12 13 18 14
REMARK SMILES IDX 13 15 17 16 14 17 15 18 19 19 16 21
REMARK H PARENT 9 10 19 20 16 22
REMARK Flexibility Score: inf
ROOT
ATOM      1  C   UNL     1       7.889  -1.993  -2.113  1.00  0.00     0.012 C 
ATOM      2  C   UNL     1       7.450  -1.144  -3.053  1.00  0.00     0.053 C 
ENDROOT
BRANCH   1   3
ATOM      3  C   UNL     1       8.128  -1.605  -0.702  1.00  0.00    -0.025 A 
ATOM      4  C   UNL     1       7.872  -2.475   0.379  1.00  0.00     0.012 A 
ATOM      5  C   UNL     1       8.126  -2.066   1.692  1.00  0.00     0.047 A 
ATOM      6  C   UNL     1       8.646  -0.791   1.945  1.00  0.00     0.115 A 
ATOM      7  C   UNL     1       8.666  -0.334  -0.435  1.00  0.00     0.012 A 
ATOM      8  C   UNL     1       8.917   0.071   0.879  1.00  0.00     0.047 A 
BRANCH   6   9
ATOM      9  O   UNL     1       8.902  -0.374   3.249  1.00  0.00    -0.508 OA
ATOM     10  H   UNL     1       8.894   0.608   3.502  1.00  0.00     0.293 HD
ENDBRANCH   6   9
ENDBRANCH   1   3
BRANCH   2  11
ATOM     11  C   UNL     1       7.237  -1.564  -4.456  1.00  0.00     0.189 C 
ATOM     12  O   UNL     1       7.849  -0.973  -5.389  1.00  0.00    -0.289 OA
BRANCH  11  13
ATOM     13  C   UNL     1       6.275  -2.638  -4.795  1.00  0.00     0.064 A 
ATOM     14  C   UNL     1       4.913  -2.561  -4.430  1.00  0.00     0.130 A 
ATOM     15  C   UNL     1       6.737  -3.778  -5.476  1.00  0.00     0.020 A 
ATOM     16  C   UNL     1       4.035  -3.597  -4.786  1.00  0.00     0.093 A 
ATOM     17  C   UNL     1       5.856  -4.807  -5.820  1.00  0.00     0.047 A 
ATOM     18  C   UNL     1       4.505  -4.718  -5.480  1.00  0.00     0.119 A 
BRANCH  14  19
ATOM     19  O   UNL     1       4.435  -1.476  -3.695  1.00  0.00    -0.507 OA
ATOM     20  H   UNL     1       3.478  -1.152  -3.783  1.00  0.00     0.293 HD
ENDBRANCH  14  19
BRANCH  18  21
ATOM     21  O   UNL     1       3.638  -5.750  -5.833  1.00  0.00    -0.508 OA
ATOM     22  H   UNL     1       3.974  -6.694  -5.989  1.00  0.00     0.293 HD
ENDBRANCH  18  21
ENDBRANCH  11  13
ENDBRANCH   2  11
TORSDOF 6
ENDMDL
