MODEL 1
REMARK VINA RESULT:    -2.960      0.000      0.000
REMARK INTER + INTRA:          -3.230
REMARK INTER:                  -3.133
REMARK INTRA:                  -0.097
REMARK UNBOUND:                -0.097
REMARK SMILES C=C(C)[C@@H]1CC=C(C)C(=O)C1
REMARK SMILES IDX 8 1 7 2 6 3 5 4 4 5 11 6 9 7 10 8 2 9 1 10 3 11
REMARK H PARENT
REMARK Flexibility Score: inf
ROOT
ATOM      1  C   UNL     1       9.630  29.911 -25.127  1.00  0.00     0.048 C 
ATOM      2  C   UNL     1       8.325  30.658 -25.120  1.00  0.00    -0.012 C 
ATOM      3  C   UNL     1       7.445  30.488 -26.121  1.00  0.00    -0.019 C 
ATOM      4  C   UNL     1       6.092  31.152 -26.119  1.00  0.00     0.036 C 
ATOM      5  C   UNL     1       6.135  32.499 -25.373  1.00  0.00     0.025 C 
ATOM      6  C   UNL     1       6.695  32.306 -23.951  1.00  0.00     0.089 C 
ATOM      7  C   UNL     1       8.002  31.565 -23.990  1.00  0.00     0.158 C 
ATOM      8  O   UNL     1       8.807  31.687 -23.028  1.00  0.00    -0.295 OA
ENDROOT
BRANCH   5   9
ATOM      9  C   UNL     1       4.770  33.174 -25.353  1.00  0.00    -0.077 C 
ATOM     10  C   UNL     1       4.557  34.303 -24.654  1.00  0.00     0.008 C 
ATOM     11  C   UNL     1       3.621  32.579 -26.125  1.00  0.00     0.039 C 
ENDBRANCH   5   9
TORSDOF 1
ENDMDL
MODEL 2
REMARK VINA RESULT:    -1.950     17.554     18.479
REMARK INTER + INTRA:          -2.161
REMARK INTER:                  -2.072
REMARK INTRA:                  -0.089
REMARK UNBOUND:                -0.097
REMARK SMILES C=C(C)[C@@H]1CC=C(C)C(=O)C1
REMARK SMILES IDX 8 1 7 2 6 3 5 4 4 5 11 6 9 7 10 8 2 9 1 10 3 11
REMARK H PARENT
REMARK Flexibility Score: inf
ROOT
ATOM      1  C   UNL     1       6.487  23.163  -5.875  1.00  0.00     0.048 C 
ATOM      2  C   UNL     1       5.707  23.129  -7.160  1.00  0.00    -0.012 C 
ATOM      3  C   UNL     1       5.294  21.955  -7.669  1.00  0.00    -0.019 C 
ATOM      4  C   UNL     1       4.443  21.875  -8.910  1.00  0.00     0.036 C 
ATOM      5  C   UNL     1       4.740  23.047  -9.864  1.00  0.00     0.025 C 
ATOM      6  C   UNL     1       4.578  24.391  -9.129  1.00  0.00     0.089 C 
ATOM      7  C   UNL     1       5.374  24.398  -7.853  1.00  0.00     0.158 C 
ATOM      8  O   UNL     1       5.720  25.502  -7.352  1.00  0.00    -0.295 OA
ENDROOT
BRANCH   5   9
ATOM      9  C   UNL     1       3.876  22.985 -11.117  1.00  0.00    -0.077 C 
ATOM     10  C   UNL     1       4.248  22.262 -12.188  1.00  0.00     0.008 C 
ATOM     11  C   UNL     1       2.576  23.743 -11.177  1.00  0.00     0.039 C 
ENDBRANCH   5   9
TORSDOF 1
ENDMDL
MODEL 3
REMARK VINA RESULT:    -1.746      3.157      5.950
REMARK INTER + INTRA:          -1.945
REMARK INTER:                  -1.848
REMARK INTRA:                  -0.096
REMARK UNBOUND:                -0.097
REMARK SMILES C=C(C)[C@@H]1CC=C(C)C(=O)C1
REMARK SMILES IDX 8 1 7 2 6 3 5 4 4 5 11 6 9 7 10 8 2 9 1 10 3 11
REMARK H PARENT
REMARK Flexibility Score: inf
ROOT
ATOM      1  C   UNL     1       0.875  36.905 -24.304  1.00  0.00     0.048 C 
ATOM      2  C   UNL     1       1.970  35.914 -24.589  1.00  0.00    -0.012 C 
ATOM      3  C   UNL     1       1.998  35.258 -25.762  1.00  0.00    -0.019 C 
ATOM      4  C   UNL     1       3.117  34.317 -26.125  1.00  0.00     0.036 C 
ATOM      5  C   UNL     1       3.708  33.645 -24.871  1.00  0.00     0.025 C 
ATOM      6  C   UNL     1       4.148  34.710 -23.850  1.00  0.00     0.089 C 
ATOM      7  C   UNL     1       3.032  35.680 -23.579  1.00  0.00     0.158 C 
ATOM      8  O   UNL     1       3.031  36.330 -22.499  1.00  0.00    -0.295 OA
ENDROOT
BRANCH   5   9
ATOM      9  C   UNL     1       4.849  32.699 -25.224  1.00  0.00    -0.077 C 
ATOM     10  C   UNL     1       6.092  32.895 -24.753  1.00  0.00     0.008 C 
ATOM     11  C   UNL     1       4.598  31.514 -26.121  1.00  0.00     0.039 C 
ENDBRANCH   5   9
TORSDOF 1
ENDMDL
MODEL 4
REMARK VINA RESULT:    -1.288     16.611     17.624
REMARK INTER + INTRA:          -1.460
REMARK INTER:                  -1.364
REMARK INTRA:                  -0.096
REMARK UNBOUND:                -0.097
REMARK SMILES C=C(C)[C@@H]1CC=C(C)C(=O)C1
REMARK SMILES IDX 8 1 7 2 6 3 5 4 4 5 11 6 9 7 10 8 2 9 1 10 3 11
REMARK H PARENT
REMARK Flexibility Score: inf
ROOT
ATOM      1  C   UNL     1       2.409  22.240 -13.321  1.00  0.00     0.048 C 
ATOM      2  C   UNL     1       3.171  22.652 -12.092  1.00  0.00    -0.012 C 
ATOM      3  C   UNL     1       4.233  21.937 -11.685  1.00  0.00    -0.019 C 
ATOM      4  C   UNL     1       5.076  22.355 -10.508  1.00  0.00     0.036 C 
ATOM      5  C   UNL     1       4.236  23.117  -9.466  1.00  0.00     0.025 C 
ATOM      6  C   UNL     1       3.519  24.310 -10.125  1.00  0.00     0.089 C 
ATOM      7  C   UNL     1       2.760  23.866 -11.344  1.00  0.00     0.158 C 
ATOM      8  O   UNL     1       1.793  24.564 -11.753  1.00  0.00    -0.295 OA
ENDROOT
BRANCH   5   9
ATOM      9  C   UNL     1       5.081  23.556  -8.276  1.00  0.00    -0.077 C 
ATOM     10  C   UNL     1       5.376  24.851  -8.067  1.00  0.00     0.008 C 
ATOM     11  C   UNL     1       5.605  22.532  -7.303  1.00  0.00     0.039 C 
ENDBRANCH   5   9
TORSDOF 1
ENDMDL
MODEL 5
REMARK VINA RESULT:    -1.199      2.255      3.556
REMARK INTER + INTRA:          -1.366
REMARK INTER:                  -1.271
REMARK INTRA:                  -0.095
REMARK UNBOUND:                -0.097
REMARK SMILES C=C(C)[C@@H]1CC=C(C)C(=O)C1
REMARK SMILES IDX 8 1 7 2 6 3 5 4 4 5 11 6 9 7 10 8 2 9 1 10 3 11
REMARK H PARENT
REMARK Flexibility Score: inf
ROOT
ATOM      1  C   UNL     1       7.240  31.286 -25.220  1.00  0.00     0.048 C 
ATOM      2  C   UNL     1       6.086  32.250 -25.256  1.00  0.00    -0.012 C 
ATOM      3  C   UNL     1       6.262  33.528 -24.881  1.00  0.00    -0.019 C 
ATOM      4  C   UNL     1       5.158  34.549 -24.975  1.00  0.00     0.036 C 
ATOM      5  C   UNL     1       3.777  33.893 -24.790  1.00  0.00     0.025 C 
ATOM      6  C   UNL     1       3.593  32.739 -25.793  1.00  0.00     0.089 C 
ATOM      7  C   UNL     1       4.757  31.789 -25.729  1.00  0.00     0.158 C 
ATOM      8  O   UNL     1       4.604  30.602 -26.125  1.00  0.00    -0.295 OA
ENDROOT
BRANCH   5   9
ATOM      9  C   UNL     1       2.650  34.913 -24.895  1.00  0.00    -0.077 C 
ATOM     10  C   UNL     1       1.921  35.036 -26.017  1.00  0.00     0.008 C 
ATOM     11  C   UNL     1       2.335  35.813 -23.728  1.00  0.00     0.039 C 
ENDBRANCH   5   9
TORSDOF 1
ENDMDL
MODEL 6
REMARK VINA RESULT:    -1.157     11.433     12.556
REMARK INTER + INTRA:          -1.322
REMARK INTER:                  -1.229
REMARK INTRA:                  -0.093
REMARK UNBOUND:                -0.097
REMARK SMILES C=C(C)[C@@H]1CC=C(C)C(=O)C1
REMARK SMILES IDX 8 1 7 2 6 3 5 4 4 5 11 6 9 7 10 8 2 9 1 10 3 11
REMARK H PARENT
REMARK Flexibility Score: inf
ROOT
ATOM      1  C   UNL     1      13.611  36.125 -18.269  1.00  0.00     0.048 C 
ATOM      2  C   UNL     1      12.945  37.229 -17.495  1.00  0.00    -0.012 C 
ATOM      3  C   UNL     1      12.096  38.068 -18.113  1.00  0.00    -0.019 C 
ATOM      4  C   UNL     1      11.344  39.139 -17.365  1.00  0.00     0.036 C 
ATOM      5  C   UNL     1      12.149  39.639 -16.150  1.00  0.00     0.025 C 
ATOM      6  C   UNL     1      12.540  38.457 -15.244  1.00  0.00     0.089 C 
ATOM      7  C   UNL     1      13.210  37.374 -16.042  1.00  0.00     0.158 C 
ATOM      8  O   UNL     1      13.969  36.557 -15.454  1.00  0.00    -0.295 OA
ENDROOT
BRANCH   5   9
ATOM      9  C   UNL     1      11.393  40.713 -15.379  1.00  0.00    -0.077 C 
ATOM     10  C   UNL     1      10.095  40.566 -15.064  1.00  0.00     0.008 C 
ATOM     11  C   UNL     1      12.099  41.975 -14.953  1.00  0.00     0.039 C 
ENDBRANCH   5   9
TORSDOF 1
ENDMDL
MODEL 7
REMARK VINA RESULT:    -0.506     11.579     12.769
REMARK INTER + INTRA:          -0.633
REMARK INTER:                  -0.541
REMARK INTRA:                  -0.091
REMARK UNBOUND:                -0.097
REMARK SMILES C=C(C)[C@@H]1CC=C(C)C(=O)C1
REMARK SMILES IDX 8 1 7 2 6 3 5 4 4 5 11 6 9 7 10 8 2 9 1 10 3 11
REMARK H PARENT
REMARK Flexibility Score: inf
ROOT
ATOM      1  C   UNL     1      13.950  36.069 -17.134  1.00  0.00     0.048 C 
ATOM      2  C   UNL     1      13.270  37.337 -16.697  1.00  0.00    -0.012 C 
ATOM      3  C   UNL     1      13.671  37.968 -15.581  1.00  0.00    -0.019 C 
ATOM      4  C   UNL     1      13.074  39.282 -15.146  1.00  0.00     0.036 C 
ATOM      5  C   UNL     1      11.604  39.400 -15.592  1.00  0.00     0.025 C 
ATOM      6  C   UNL     1      11.487  39.178 -17.112  1.00  0.00     0.089 C 
ATOM      7  C   UNL     1      12.169  37.901 -17.517  1.00  0.00     0.158 C 
ATOM      8  O   UNL     1      11.825  37.334 -18.589  1.00  0.00    -0.295 OA
ENDROOT
BRANCH   5   9
ATOM      9  C   UNL     1      10.993  40.730 -15.169  1.00  0.00    -0.077 C 
ATOM     10  C   UNL     1       9.697  40.826 -14.826  1.00  0.00     0.008 C 
ATOM     11  C   UNL     1      11.843  41.973 -15.131  1.00  0.00     0.039 C 
ENDBRANCH   5   9
TORSDOF 1
ENDMDL
MODEL 8
REMARK VINA RESULT:    -0.022     10.078     11.661
REMARK INTER + INTRA:          -0.121
REMARK INTER:                  -0.031
REMARK INTRA:                  -0.090
REMARK UNBOUND:                -0.097
REMARK SMILES C=C(C)[C@@H]1CC=C(C)C(=O)C1
REMARK SMILES IDX 8 1 7 2 6 3 5 4 4 5 11 6 9 7 10 8 2 9 1 10 3 11
REMARK H PARENT
REMARK Flexibility Score: inf
ROOT
ATOM      1  C   UNL     1      11.829  39.902 -15.091  1.00  0.00     0.048 C 
ATOM      2  C   UNL     1      12.142  38.946 -16.208  1.00  0.00    -0.012 C 
ATOM      3  C   UNL     1      11.582  39.115 -17.418  1.00  0.00    -0.019 C 
ATOM      4  C   UNL     1      11.925  38.232 -18.590  1.00  0.00     0.036 C 
ATOM      5  C   UNL     1      12.300  36.812 -18.125  1.00  0.00     0.025 C 
ATOM      6  C   UNL     1      13.434  36.872 -17.085  1.00  0.00     0.089 C 
ATOM      7  C   UNL     1      13.090  37.828 -15.977  1.00  0.00     0.158 C 
ATOM      8  O   UNL     1      13.652  37.697 -14.856  1.00  0.00    -0.295 OA
ENDROOT
BRANCH   5   9
ATOM      9  C   UNL     1      12.661  35.912 -19.300  1.00  0.00    -0.077 C 
ATOM     10  C   UNL     1      11.713  35.348 -20.067  1.00  0.00     0.008 C 
ATOM     11  C   UNL     1      14.107  35.637 -19.624  1.00  0.00     0.039 C 
ENDBRANCH   5   9
TORSDOF 1
ENDMDL
