MODEL 1
REMARK VINA RESULT:    -4.871      0.000      0.000
REMARK INTER + INTRA:         -14.624
REMARK INTER:                 -12.274
REMARK INTRA:                  -2.349
REMARK UNBOUND:                -2.349
REMARK SMILES CCCCCCCCCCCCCCCCCCCCCCCCCCCC(=O)[O-]
REMARK SMILES IDX 15 1 16 2 17 3 18 4 19 5 20 6 21 7 22 8 23 9 24 10 25 11
REMARK SMILES IDX 26 12 27 13 28 14 29 15 30 16 14 17 13 18 12 19 11 20 10 21
REMARK SMILES IDX 9 22 8 23 7 24 6 25 5 26 4 27 3 28 2 29 1 30
REMARK H PARENT
REMARK Flexibility Score: inf
ROOT
ATOM      1  C   UNL     1      52.017  48.983   3.899  1.00  0.00     0.000 C 
ENDROOT
BRANCH   1   2
ATOM      2  C   UNL     1      50.718  49.335   3.159  1.00  0.00     0.000 C 
BRANCH   2   3
ATOM      3  C   UNL     1      49.684  48.193   3.168  1.00  0.00     0.000 C 
BRANCH   3   4
ATOM      4  C   UNL     1      48.479  48.392   2.229  1.00  0.00     0.000 C 
BRANCH   4   5
ATOM      5  C   UNL     1      47.449  47.255   2.322  1.00  0.00     0.000 C 
BRANCH   5   6
ATOM      6  C   UNL     1      47.356  46.488   0.994  1.00  0.00     0.000 C 
BRANCH   6   7
ATOM      7  C   UNL     1      47.695  44.996   1.141  1.00  0.00     0.000 C 
BRANCH   7   8
ATOM      8  C   UNL     1      48.571  44.469  -0.004  1.00  0.00     0.000 C 
BRANCH   8   9
ATOM      9  C   UNL     1      47.835  43.380  -0.803  1.00  0.00     0.000 C 
BRANCH   9  10
ATOM     10  C   UNL     1      48.580  42.976  -2.085  1.00  0.00     0.000 C 
BRANCH  10  11
ATOM     11  C   UNL     1      47.826  41.918  -2.904  1.00  0.00     0.000 C 
BRANCH  11  12
ATOM     12  C   UNL     1      48.637  41.493  -4.135  1.00  0.00     0.006 C 
BRANCH  12  13
ATOM     13  C   UNL     1      49.293  40.127  -3.916  1.00  0.00     0.053 C 
BRANCH  13  14
ATOM     14  C   UNL     1      50.016  39.681  -5.148  1.00  0.00     0.041 C 
ATOM     15  O   UNL     1      51.111  39.068  -5.053  1.00  0.00    -0.550 OA
ATOM     16  O   UNL     1      49.475  39.935  -6.405  1.00  0.00    -0.550 OA
ENDBRANCH  13  14
ENDBRANCH  12  13
ENDBRANCH  11  12
ENDBRANCH  10  11
ENDBRANCH   9  10
ENDBRANCH   8   9
ENDBRANCH   7   8
ENDBRANCH   6   7
ENDBRANCH   5   6
ENDBRANCH   4   5
ENDBRANCH   3   4
ENDBRANCH   2   3
ENDBRANCH   1   2
BRANCH   1  17
ATOM     17  C   UNL     1      52.811  50.247   4.244  1.00  0.00     0.000 C 
BRANCH  17  18
ATOM     18  C   UNL     1      54.322  50.013   4.100  1.00  0.00     0.000 C 
BRANCH  18  19
ATOM     19  C   UNL     1      55.154  51.287   4.324  1.00  0.00     0.000 C 
BRANCH  19  20
ATOM     20  C   UNL     1      54.351  52.485   4.880  1.00  0.00     0.000 C 
BRANCH  20  21
ATOM     21  C   UNL     1      54.667  52.870   6.339  1.00  0.00     0.000 C 
BRANCH  21  22
ATOM     22  C   UNL     1      53.478  52.837   7.320  1.00  0.00    -0.000 C 
BRANCH  22  23
ATOM     23  C   UNL     1      52.693  51.508   7.332  1.00  0.00    -0.000 C 
BRANCH  23  24
ATOM     24  C   UNL     1      51.177  51.724   7.215  1.00  0.00    -0.000 C 
BRANCH  24  25
ATOM     25  C   UNL     1      50.473  50.465   6.696  1.00  0.00    -0.000 C 
BRANCH  25  26
ATOM     26  C   UNL     1      48.949  50.609   6.820  1.00  0.00    -0.000 C 
BRANCH  26  27
ATOM     27  C   UNL     1      48.192  49.974   5.641  1.00  0.00    -0.000 C 
BRANCH  27  28
ATOM     28  C   UNL     1      47.225  50.964   4.960  1.00  0.00    -0.000 C 
BRANCH  28  29
ATOM     29  C   UNL     1      47.828  51.592   3.695  1.00  0.00    -0.003 C 
ATOM     30  C   UNL     1      49.008  52.514   4.000  1.00  0.00     0.004 C 
ENDBRANCH  28  29
ENDBRANCH  27  28
ENDBRANCH  26  27
ENDBRANCH  25  26
ENDBRANCH  24  25
ENDBRANCH  23  24
ENDBRANCH  22  23
ENDBRANCH  21  22
ENDBRANCH  20  21
ENDBRANCH  19  20
ENDBRANCH  18  19
ENDBRANCH  17  18
ENDBRANCH   1  17
TORSDOF 26
ENDMDL
MODEL 2
REMARK VINA RESULT:    -4.699      4.394     11.420
REMARK INTER + INTRA:         -14.191
REMARK INTER:                 -11.507
REMARK INTRA:                  -2.684
REMARK UNBOUND:                -2.349
REMARK SMILES CCCCCCCCCCCCCCCCCCCCCCCCCCCC(=O)[O-]
REMARK SMILES IDX 15 1 16 2 17 3 18 4 19 5 20 6 21 7 22 8 23 9 24 10 25 11
REMARK SMILES IDX 26 12 27 13 28 14 29 15 30 16 14 17 13 18 12 19 11 20 10 21
REMARK SMILES IDX 9 22 8 23 7 24 6 25 5 26 4 27 3 28 2 29 1 30
REMARK H PARENT
REMARK Flexibility Score: inf
ROOT
ATOM      1  C   UNL     1      49.407  49.392   2.110  1.00  0.00     0.000 C 
ENDROOT
BRANCH   1   2
ATOM      2  C   UNL     1      47.917  49.165   2.411  1.00  0.00     0.000 C 
BRANCH   2   3
ATOM      3  C   UNL     1      47.088  50.462   2.383  1.00  0.00     0.000 C 
BRANCH   3   4
ATOM      4  C   UNL     1      47.178  51.325   3.656  1.00  0.00     0.000 C 
BRANCH   4   5
ATOM      5  C   UNL     1      48.323  52.349   3.610  1.00  0.00     0.000 C 
BRANCH   5   6
ATOM      6  C   UNL     1      49.395  52.022   4.661  1.00  0.00     0.000 C 
BRANCH   6   7
ATOM      7  C   UNL     1      48.976  50.884   5.607  1.00  0.00     0.000 C 
BRANCH   7   8
ATOM      8  C   UNL     1      50.096  50.469   6.570  1.00  0.00     0.000 C 
BRANCH   8   9
ATOM      9  C   UNL     1      50.799  51.703   7.162  1.00  0.00     0.000 C 
BRANCH   9  10
ATOM     10  C   UNL     1      52.304  51.736   6.854  1.00  0.00     0.000 C 
BRANCH  10  11
ATOM     11  C   UNL     1      52.799  50.458   6.162  1.00  0.00     0.000 C 
BRANCH  11  12
ATOM     12  C   UNL     1      53.017  50.692   4.662  1.00  0.00     0.006 C 
BRANCH  12  13
ATOM     13  C   UNL     1      54.390  50.177   4.220  1.00  0.00     0.053 C 
BRANCH  13  14
ATOM     14  C   UNL     1      55.384  51.294   4.165  1.00  0.00     0.041 C 
ATOM     15  O   UNL     1      56.533  51.096   3.691  1.00  0.00    -0.550 OA
ATOM     16  O   UNL     1      55.037  52.559   4.627  1.00  0.00    -0.550 OA
ENDBRANCH  13  14
ENDBRANCH  12  13
ENDBRANCH  11  12
ENDBRANCH  10  11
ENDBRANCH   9  10
ENDBRANCH   8   9
ENDBRANCH   7   8
ENDBRANCH   6   7
ENDBRANCH   5   6
ENDBRANCH   4   5
ENDBRANCH   3   4
ENDBRANCH   2   3
ENDBRANCH   1   2
BRANCH   1  17
ATOM     17  C   UNL     1      50.289  48.674   3.138  1.00  0.00     0.000 C 
BRANCH  17  18
ATOM     18  C   UNL     1      49.556  47.479   3.763  1.00  0.00     0.000 C 
BRANCH  18  19
ATOM     19  C   UNL     1      50.278  46.140   3.531  1.00  0.00     0.000 C 
BRANCH  19  20
ATOM     20  C   UNL     1      49.345  44.971   3.141  1.00  0.00     0.000 C 
BRANCH  20  21
ATOM     21  C   UNL     1      48.530  45.181   1.850  1.00  0.00     0.000 C 
BRANCH  21  22
ATOM     22  C   UNL     1      49.061  44.467   0.590  1.00  0.00    -0.000 C 
BRANCH  22  23
ATOM     23  C   UNL     1      47.963  43.932  -0.353  1.00  0.00    -0.000 C 
BRANCH  23  24
ATOM     24  C   UNL     1      48.543  43.327  -1.641  1.00  0.00    -0.000 C 
BRANCH  24  25
ATOM     25  C   UNL     1      47.672  42.176  -2.157  1.00  0.00    -0.000 C 
BRANCH  25  26
ATOM     26  C   UNL     1      48.036  41.833  -3.609  1.00  0.00    -0.000 C 
BRANCH  26  27
ATOM     27  C   UNL     1      49.314  40.984  -3.719  1.00  0.00    -0.000 C 
BRANCH  27  28
ATOM     28  C   UNL     1      49.629  40.580  -5.173  1.00  0.00    -0.000 C 
BRANCH  28  29
ATOM     29  C   UNL     1      49.576  39.059  -5.381  1.00  0.00    -0.003 C 
ATOM     30  C   UNL     1      48.149  38.511  -5.358  1.00  0.00     0.004 C 
ENDBRANCH  28  29
ENDBRANCH  27  28
ENDBRANCH  26  27
ENDBRANCH  25  26
ENDBRANCH  24  25
ENDBRANCH  23  24
ENDBRANCH  22  23
ENDBRANCH  21  22
ENDBRANCH  20  21
ENDBRANCH  19  20
ENDBRANCH  18  19
ENDBRANCH  17  18
ENDBRANCH   1  17
TORSDOF 26
ENDMDL
MODEL 3
REMARK VINA RESULT:    -4.658      4.041     11.270
REMARK INTER + INTRA:         -14.088
REMARK INTER:                 -11.813
REMARK INTRA:                  -2.275
REMARK UNBOUND:                -2.349
REMARK SMILES CCCCCCCCCCCCCCCCCCCCCCCCCCCC(=O)[O-]
REMARK SMILES IDX 15 1 16 2 17 3 18 4 19 5 20 6 21 7 22 8 23 9 24 10 25 11
REMARK SMILES IDX 26 12 27 13 28 14 29 15 30 16 14 17 13 18 12 19 11 20 10 21
REMARK SMILES IDX 9 22 8 23 7 24 6 25 5 26 4 27 3 28 2 29 1 30
REMARK H PARENT
REMARK Flexibility Score: inf
ROOT
ATOM      1  C   UNL     1      52.242  49.995   4.125  1.00  0.00     0.000 C 
ENDROOT
BRANCH   1   2
ATOM      2  C   UNL     1      53.615  49.753   4.771  1.00  0.00     0.000 C 
BRANCH   2   3
ATOM      3  C   UNL     1      54.792  50.175   3.873  1.00  0.00     0.000 C 
BRANCH   3   4
ATOM      4  C   UNL     1      55.467  51.505   4.259  1.00  0.00     0.000 C 
BRANCH   4   5
ATOM      5  C   UNL     1      54.555  52.426   5.084  1.00  0.00     0.000 C 
BRANCH   5   6
ATOM      6  C   UNL     1      55.042  52.524   6.538  1.00  0.00     0.000 C 
BRANCH   6   7
ATOM      7  C   UNL     1      53.940  52.200   7.560  1.00  0.00     0.000 C 
BRANCH   7   8
ATOM      8  C   UNL     1      52.567  52.749   7.148  1.00  0.00     0.000 C 
BRANCH   8   9
ATOM      9  C   UNL     1      51.500  51.641   7.180  1.00  0.00     0.000 C 
BRANCH   9  10
ATOM     10  C   UNL     1      50.223  52.022   6.414  1.00  0.00     0.000 C 
BRANCH  10  11
ATOM     11  C   UNL     1      50.499  52.430   4.960  1.00  0.00     0.000 C 
BRANCH  11  12
ATOM     12  C   UNL     1      49.277  53.118   4.338  1.00  0.00     0.006 C 
BRANCH  12  13
ATOM     13  C   UNL     1      48.762  52.335   3.128  1.00  0.00     0.053 C 
BRANCH  13  14
ATOM     14  C   UNL     1      47.628  51.441   3.517  1.00  0.00     0.041 C 
ATOM     15  O   UNL     1      47.213  50.560   2.719  1.00  0.00    -0.550 OA
ATOM     16  O   UNL     1      47.033  51.573   4.768  1.00  0.00    -0.550 OA
ENDBRANCH  13  14
ENDBRANCH  12  13
ENDBRANCH  11  12
ENDBRANCH  10  11
ENDBRANCH   9  10
ENDBRANCH   8   9
ENDBRANCH   7   8
ENDBRANCH   6   7
ENDBRANCH   5   6
ENDBRANCH   4   5
ENDBRANCH   3   4
ENDBRANCH   2   3
ENDBRANCH   1   2
BRANCH   1  17
ATOM     17  C   UNL     1      51.545  48.669   3.804  1.00  0.00     0.000 C 
BRANCH  17  18
ATOM     18  C   UNL     1      50.033  48.759   4.054  1.00  0.00     0.000 C 
BRANCH  18  19
ATOM     19  C   UNL     1      49.214  47.832   3.139  1.00  0.00     0.000 C 
BRANCH  19  20
ATOM     20  C   UNL     1      49.565  46.333   3.268  1.00  0.00     0.000 C 
BRANCH  20  21
ATOM     21  C   UNL     1      48.741  45.384   2.377  1.00  0.00     0.000 C 
BRANCH  21  22
ATOM     22  C   UNL     1      47.825  46.057   1.335  1.00  0.00    -0.000 C 
BRANCH  22  23
ATOM     23  C   UNL     1      47.219  45.091   0.295  1.00  0.00    -0.000 C 
BRANCH  23  24
ATOM     24  C   UNL     1      48.264  44.119  -0.276  1.00  0.00    -0.000 C 
BRANCH  24  25
ATOM     25  C   UNL     1      47.620  43.109  -1.233  1.00  0.00    -0.000 C 
BRANCH  25  26
ATOM     26  C   UNL     1      48.654  42.584  -2.239  1.00  0.00    -0.000 C 
BRANCH  26  27
ATOM     27  C   UNL     1      48.021  41.755  -3.369  1.00  0.00    -0.000 C 
BRANCH  27  28
ATOM     28  C   UNL     1      49.027  41.416  -4.487  1.00  0.00    -0.000 C 
BRANCH  28  29
ATOM     29  C   UNL     1      50.165  40.510  -3.994  1.00  0.00    -0.003 C 
ATOM     30  C   UNL     1      50.595  39.482  -5.040  1.00  0.00     0.004 C 
ENDBRANCH  28  29
ENDBRANCH  27  28
ENDBRANCH  26  27
ENDBRANCH  25  26
ENDBRANCH  24  25
ENDBRANCH  23  24
ENDBRANCH  22  23
ENDBRANCH  21  22
ENDBRANCH  20  21
ENDBRANCH  19  20
ENDBRANCH  18  19
ENDBRANCH  17  18
ENDBRANCH   1  17
TORSDOF 26
ENDMDL
MODEL 4
REMARK VINA RESULT:    -4.605      1.148      4.033
REMARK INTER + INTRA:         -13.952
REMARK INTER:                 -11.829
REMARK INTRA:                  -2.124
REMARK UNBOUND:                -2.349
REMARK SMILES CCCCCCCCCCCCCCCCCCCCCCCCCCCC(=O)[O-]
REMARK SMILES IDX 15 1 16 2 17 3 18 4 19 5 20 6 21 7 22 8 23 9 24 10 25 11
REMARK SMILES IDX 26 12 27 13 28 14 29 15 30 16 14 17 13 18 12 19 11 20 10 21
REMARK SMILES IDX 9 22 8 23 7 24 6 25 5 26 4 27 3 28 2 29 1 30
REMARK H PARENT
REMARK Flexibility Score: inf
ROOT
ATOM      1  C   UNL     1      50.440  48.604   3.119  1.00  0.00     0.000 C 
ENDROOT
BRANCH   1   2
ATOM      2  C   UNL     1      49.806  47.448   3.907  1.00  0.00     0.000 C 
BRANCH   2   3
ATOM      3  C   UNL     1      50.315  46.063   3.468  1.00  0.00     0.000 C 
BRANCH   3   4
ATOM      4  C   UNL     1      49.257  45.154   2.812  1.00  0.00     0.000 C 
BRANCH   4   5
ATOM      5  C   UNL     1      48.062  45.934   2.243  1.00  0.00     0.000 C 
BRANCH   5   6
ATOM      6  C   UNL     1      47.633  45.366   0.882  1.00  0.00     0.000 C 
BRANCH   6   7
ATOM      7  C   UNL     1      48.447  44.129   0.468  1.00  0.00     0.000 C 
BRANCH   7   8
ATOM      8  C   UNL     1      48.605  44.001  -1.054  1.00  0.00     0.000 C 
BRANCH   8   9
ATOM      9  C   UNL     1      47.792  42.813  -1.594  1.00  0.00     0.000 C 
BRANCH   9  10
ATOM     10  C   UNL     1      48.384  42.224  -2.884  1.00  0.00     0.000 C 
BRANCH  10  11
ATOM     11  C   UNL     1      48.108  40.721  -3.035  1.00  0.00     0.000 C 
BRANCH  11  12
ATOM     12  C   UNL     1      49.393  39.956  -3.374  1.00  0.00     0.006 C 
BRANCH  12  13
ATOM     13  C   UNL     1      49.877  40.293  -4.787  1.00  0.00     0.053 C 
BRANCH  13  14
ATOM     14  C   UNL     1      48.891  39.827  -5.812  1.00  0.00     0.041 C 
ATOM     15  O   UNL     1      48.251  38.758  -5.635  1.00  0.00    -0.550 OA
ATOM     16  O   UNL     1      48.671  40.581  -6.960  1.00  0.00    -0.550 OA
ENDBRANCH  13  14
ENDBRANCH  12  13
ENDBRANCH  11  12
ENDBRANCH  10  11
ENDBRANCH   9  10
ENDBRANCH   8   9
ENDBRANCH   7   8
ENDBRANCH   6   7
ENDBRANCH   5   6
ENDBRANCH   4   5
ENDBRANCH   3   4
ENDBRANCH   2   3
ENDBRANCH   1   2
BRANCH   1  17
ATOM     17  C   UNL     1      49.363  49.507   2.509  1.00  0.00     0.000 C 
BRANCH  17  18
ATOM     18  C   UNL     1      48.977  50.642   3.469  1.00  0.00     0.000 C 
BRANCH  18  19
ATOM     19  C   UNL     1      47.973  50.203   4.549  1.00  0.00     0.000 C 
BRANCH  19  20
ATOM     20  C   UNL     1      48.406  50.533   5.995  1.00  0.00     0.000 C 
BRANCH  20  21
ATOM     21  C   UNL     1      49.851  50.135   6.357  1.00  0.00     0.000 C 
BRANCH  21  22
ATOM     22  C   UNL     1      50.716  51.238   7.000  1.00  0.00    -0.000 C 
BRANCH  22  23
ATOM     23  C   UNL     1      51.003  52.445   6.082  1.00  0.00    -0.000 C 
BRANCH  23  24
ATOM     24  C   UNL     1      52.340  53.125   6.412  1.00  0.00    -0.000 C 
BRANCH  24  25
ATOM     25  C   UNL     1      53.360  52.116   6.954  1.00  0.00    -0.000 C 
BRANCH  25  26
ATOM     26  C   UNL     1      54.748  52.373   6.350  1.00  0.00    -0.000 C 
BRANCH  26  27
ATOM     27  C   UNL     1      54.735  52.398   4.812  1.00  0.00    -0.000 C 
BRANCH  27  28
ATOM     28  C   UNL     1      55.667  51.335   4.198  1.00  0.00    -0.000 C 
BRANCH  28  29
ATOM     29  C   UNL     1      54.959  49.988   3.990  1.00  0.00    -0.003 C 
ATOM     30  C   UNL     1      53.444  50.086   4.167  1.00  0.00     0.004 C 
ENDBRANCH  28  29
ENDBRANCH  27  28
ENDBRANCH  26  27
ENDBRANCH  25  26
ENDBRANCH  24  25
ENDBRANCH  23  24
ENDBRANCH  22  23
ENDBRANCH  21  22
ENDBRANCH  20  21
ENDBRANCH  19  20
ENDBRANCH  18  19
ENDBRANCH  17  18
ENDBRANCH   1  17
TORSDOF 26
ENDMDL
MODEL 5
REMARK VINA RESULT:    -4.494      4.193     12.092
REMARK INTER + INTRA:         -13.674
REMARK INTER:                 -11.451
REMARK INTRA:                  -2.223
REMARK UNBOUND:                -2.349
REMARK SMILES CCCCCCCCCCCCCCCCCCCCCCCCCCCC(=O)[O-]
REMARK SMILES IDX 15 1 16 2 17 3 18 4 19 5 20 6 21 7 22 8 23 9 24 10 25 11
REMARK SMILES IDX 26 12 27 13 28 14 29 15 30 16 14 17 13 18 12 19 11 20 10 21
REMARK SMILES IDX 9 22 8 23 7 24 6 25 5 26 4 27 3 28 2 29 1 30
REMARK H PARENT
REMARK Flexibility Score: inf
ROOT
ATOM      1  C   UNL     1      49.892  47.627   3.279  1.00  0.00     0.000 C 
ENDROOT
BRANCH   1   2
ATOM      2  C   UNL     1      49.730  48.499   4.533  1.00  0.00     0.000 C 
BRANCH   2   3
ATOM      3  C   UNL     1      48.389  49.255   4.578  1.00  0.00     0.000 C 
BRANCH   3   4
ATOM      4  C   UNL     1      48.051  50.064   3.311  1.00  0.00     0.000 C 
BRANCH   4   5
ATOM      5  C   UNL     1      49.135  51.091   2.944  1.00  0.00     0.000 C 
BRANCH   5   6
ATOM      6  C   UNL     1      48.716  52.507   3.370  1.00  0.00     0.000 C 
BRANCH   6   7
ATOM      7  C   UNL     1      49.635  53.101   4.450  1.00  0.00     0.000 C 
BRANCH   7   8
ATOM      8  C   UNL     1      50.801  52.172   4.817  1.00  0.00     0.000 C 
BRANCH   8   9
ATOM      9  C   UNL     1      50.881  51.966   6.340  1.00  0.00     0.000 C 
BRANCH   9  10
ATOM     10  C   UNL     1      51.667  50.704   6.729  1.00  0.00     0.000 C 
BRANCH  10  11
ATOM     11  C   UNL     1      52.894  50.467   5.836  1.00  0.00     0.000 C 
BRANCH  11  12
ATOM     12  C   UNL     1      53.927  51.587   6.010  1.00  0.00     0.006 C 
BRANCH  12  13
ATOM     13  C   UNL     1      54.467  52.051   4.654  1.00  0.00     0.053 C 
BRANCH  13  14
ATOM     14  C   UNL     1      55.535  51.126   4.163  1.00  0.00     0.041 C 
ATOM     15  O   UNL     1      56.749  51.419   4.321  1.00  0.00    -0.550 OA
ATOM     16  O   UNL     1      55.190  49.932   3.537  1.00  0.00    -0.550 OA
ENDBRANCH  13  14
ENDBRANCH  12  13
ENDBRANCH  11  12
ENDBRANCH  10  11
ENDBRANCH   9  10
ENDBRANCH   8   9
ENDBRANCH   7   8
ENDBRANCH   6   7
ENDBRANCH   5   6
ENDBRANCH   4   5
ENDBRANCH   3   4
ENDBRANCH   2   3
ENDBRANCH   1   2
BRANCH   1  17
ATOM     17  C   UNL     1      49.949  46.140   3.648  1.00  0.00     0.000 C 
BRANCH  17  18
ATOM     18  C   UNL     1      49.128  45.291   2.667  1.00  0.00     0.000 C 
BRANCH  18  19
ATOM     19  C   UNL     1      47.950  46.060   2.043  1.00  0.00     0.000 C 
BRANCH  19  20
ATOM     20  C   UNL     1      47.366  45.407   0.770  1.00  0.00     0.000 C 
BRANCH  20  21
ATOM     21  C   UNL     1      48.335  44.495  -0.008  1.00  0.00     0.000 C 
BRANCH  21  22
ATOM     22  C   UNL     1      47.685  43.397  -0.874  1.00  0.00    -0.000 C 
BRANCH  22  23
ATOM     23  C   UNL     1      48.587  42.855  -2.003  1.00  0.00    -0.000 C 
BRANCH  23  24
ATOM     24  C   UNL     1      47.815  41.968  -2.992  1.00  0.00    -0.000 C 
BRANCH  24  25
ATOM     25  C   UNL     1      48.761  41.048  -3.772  1.00  0.00    -0.000 C 
BRANCH  25  26
ATOM     26  C   UNL     1      47.977  39.916  -4.450  1.00  0.00    -0.000 C 
BRANCH  26  27
ATOM     27  C   UNL     1      48.829  39.112  -5.447  1.00  0.00    -0.000 C 
BRANCH  27  28
ATOM     28  C   UNL     1      50.264  39.662  -5.573  1.00  0.00    -0.000 C 
BRANCH  28  29
ATOM     29  C   UNL     1      51.324  38.618  -5.190  1.00  0.00    -0.003 C 
ATOM     30  C   UNL     1      51.914  38.861  -3.801  1.00  0.00     0.004 C 
ENDBRANCH  28  29
ENDBRANCH  27  28
ENDBRANCH  26  27
ENDBRANCH  25  26
ENDBRANCH  24  25
ENDBRANCH  23  24
ENDBRANCH  22  23
ENDBRANCH  21  22
ENDBRANCH  20  21
ENDBRANCH  19  20
ENDBRANCH  18  19
ENDBRANCH  17  18
ENDBRANCH   1  17
TORSDOF 26
ENDMDL
MODEL 6
REMARK VINA RESULT:    -4.485      1.307      4.161
REMARK INTER + INTRA:         -13.652
REMARK INTER:                 -11.479
REMARK INTRA:                  -2.173
REMARK UNBOUND:                -2.349
REMARK SMILES CCCCCCCCCCCCCCCCCCCCCCCCCCCC(=O)[O-]
REMARK SMILES IDX 15 1 16 2 17 3 18 4 19 5 20 6 21 7 22 8 23 9 24 10 25 11
REMARK SMILES IDX 26 12 27 13 28 14 29 15 30 16 14 17 13 18 12 19 11 20 10 21
REMARK SMILES IDX 9 22 8 23 7 24 6 25 5 26 4 27 3 28 2 29 1 30
REMARK H PARENT
REMARK Flexibility Score: inf
ROOT
ATOM      1  C   UNL     1      50.619  46.490   3.516  1.00  0.00     0.000 C 
ENDROOT
BRANCH   1   2
ATOM      2  C   UNL     1      49.759  45.219   3.578  1.00  0.00     0.000 C 
BRANCH   2   3
ATOM      3  C   UNL     1      49.177  44.813   2.211  1.00  0.00     0.000 C 
BRANCH   3   4
ATOM      4  C   UNL     1      48.057  45.727   1.677  1.00  0.00     0.000 C 
BRANCH   4   5
ATOM      5  C   UNL     1      47.382  45.176   0.411  1.00  0.00     0.000 C 
BRANCH   5   6
ATOM      6  C   UNL     1      48.283  44.147  -0.288  1.00  0.00     0.000 C 
BRANCH   6   7
ATOM      7  C   UNL     1      47.491  43.143  -1.142  1.00  0.00     0.000 C 
BRANCH   7   8
ATOM      8  C   UNL     1      48.267  42.670  -2.379  1.00  0.00     0.000 C 
BRANCH   8   9
ATOM      9  C   UNL     1      47.684  41.356  -2.926  1.00  0.00     0.000 C 
BRANCH   9  10
ATOM     10  C   UNL     1      47.052  41.518  -4.317  1.00  0.00     0.000 C 
BRANCH  10  11
ATOM     11  C   UNL     1      48.095  41.596  -5.440  1.00  0.00     0.000 C 
BRANCH  11  12
ATOM     12  C   UNL     1      48.512  40.195  -5.904  1.00  0.00     0.006 C 
BRANCH  12  13
ATOM     13  C   UNL     1      50.025  40.118  -6.132  1.00  0.00     0.053 C 
BRANCH  13  14
ATOM     14  C   UNL     1      50.720  39.595  -4.915  1.00  0.00     0.041 C 
ATOM     15  O   UNL     1      51.250  38.454  -4.930  1.00  0.00    -0.550 OA
ATOM     16  O   UNL     1      50.792  40.374  -3.764  1.00  0.00    -0.550 OA
ENDBRANCH  13  14
ENDBRANCH  12  13
ENDBRANCH  11  12
ENDBRANCH  10  11
ENDBRANCH   9  10
ENDBRANCH   8   9
ENDBRANCH   7   8
ENDBRANCH   6   7
ENDBRANCH   5   6
ENDBRANCH   4   5
ENDBRANCH   3   4
ENDBRANCH   2   3
ENDBRANCH   1   2
BRANCH   1  17
ATOM     17  C   UNL     1      49.778  47.736   3.816  1.00  0.00     0.000 C 
BRANCH  17  18
ATOM     18  C   UNL     1      50.212  48.924   2.946  1.00  0.00     0.000 C 
BRANCH  18  19
ATOM     19  C   UNL     1      49.134  50.017   2.836  1.00  0.00     0.000 C 
BRANCH  19  20
ATOM     20  C   UNL     1      49.463  51.317   3.604  1.00  0.00     0.000 C 
BRANCH  20  21
ATOM     21  C   UNL     1      48.833  51.431   5.006  1.00  0.00     0.000 C 
BRANCH  21  22
ATOM     22  C   UNL     1      49.482  50.575   6.112  1.00  0.00    -0.000 C 
BRANCH  22  23
ATOM     23  C   UNL     1      50.969  50.893   6.378  1.00  0.00    -0.000 C 
BRANCH  23  24
ATOM     24  C   UNL     1      51.226  52.400   6.528  1.00  0.00    -0.000 C 
BRANCH  24  25
ATOM     25  C   UNL     1      52.264  52.892   5.512  1.00  0.00    -0.000 C 
BRANCH  25  26
ATOM     26  C   UNL     1      53.619  53.124   6.195  1.00  0.00    -0.000 C 
BRANCH  26  27
ATOM     27  C   UNL     1      54.603  51.962   5.982  1.00  0.00    -0.000 C 
BRANCH  27  28
ATOM     28  C   UNL     1      55.090  51.861   4.523  1.00  0.00    -0.000 C 
BRANCH  28  29
ATOM     29  C   UNL     1      54.939  50.443   3.953  1.00  0.00    -0.003 C 
ATOM     30  C   UNL     1      53.555  49.848   4.214  1.00  0.00     0.004 C 
ENDBRANCH  28  29
ENDBRANCH  27  28
ENDBRANCH  26  27
ENDBRANCH  25  26
ENDBRANCH  24  25
ENDBRANCH  23  24
ENDBRANCH  22  23
ENDBRANCH  21  22
ENDBRANCH  20  21
ENDBRANCH  19  20
ENDBRANCH  18  19
ENDBRANCH  17  18
ENDBRANCH   1  17
TORSDOF 26
ENDMDL
MODEL 7
REMARK VINA RESULT:    -4.352      1.209      4.371
REMARK INTER + INTRA:         -13.315
REMARK INTER:                 -11.048
REMARK INTRA:                  -2.267
REMARK UNBOUND:                -2.349
REMARK SMILES CCCCCCCCCCCCCCCCCCCCCCCCCCCC(=O)[O-]
REMARK SMILES IDX 15 1 16 2 17 3 18 4 19 5 20 6 21 7 22 8 23 9 24 10 25 11
REMARK SMILES IDX 26 12 27 13 28 14 29 15 30 16 14 17 13 18 12 19 11 20 10 21
REMARK SMILES IDX 9 22 8 23 7 24 6 25 5 26 4 27 3 28 2 29 1 30
REMARK H PARENT
REMARK Flexibility Score: inf
ROOT
ATOM      1  C   UNL     1      49.580  49.185   3.832  1.00  0.00     0.000 C 
ENDROOT
BRANCH   1   2
ATOM      2  C   UNL     1      49.411  47.829   3.130  1.00  0.00     0.000 C 
BRANCH   2   3
ATOM      3  C   UNL     1      48.361  47.856   2.004  1.00  0.00     0.000 C 
BRANCH   3   4
ATOM      4  C   UNL     1      47.152  46.923   2.212  1.00  0.00     0.000 C 
BRANCH   4   5
ATOM      5  C   UNL     1      46.969  45.910   1.071  1.00  0.00     0.000 C 
BRANCH   5   6
ATOM      6  C   UNL     1      48.318  45.308   0.649  1.00  0.00     0.000 C 
BRANCH   6   7
ATOM      7  C   UNL     1      48.200  43.847   0.184  1.00  0.00     0.000 C 
BRANCH   7   8
ATOM      8  C   UNL     1      48.558  43.662  -1.297  1.00  0.00     0.000 C 
BRANCH   8   9
ATOM      9  C   UNL     1      47.627  42.635  -1.964  1.00  0.00     0.000 C 
BRANCH   9  10
ATOM     10  C   UNL     1      48.372  41.686  -2.916  1.00  0.00     0.000 C 
BRANCH  10  11
ATOM     11  C   UNL     1      47.820  41.723  -4.348  1.00  0.00     0.000 C 
BRANCH  11  12
ATOM     12  C   UNL     1      48.817  41.112  -5.340  1.00  0.00     0.006 C 
BRANCH  12  13
ATOM     13  C   UNL     1      50.158  40.820  -4.661  1.00  0.00     0.053 C 
BRANCH  13  14
ATOM     14  C   UNL     1      50.506  39.369  -4.773  1.00  0.00     0.041 C 
ATOM     15  O   UNL     1      49.693  38.561  -5.293  1.00  0.00    -0.550 OA
ATOM     16  O   UNL     1      51.735  38.909  -4.311  1.00  0.00    -0.550 OA
ENDBRANCH  13  14
ENDBRANCH  12  13
ENDBRANCH  11  12
ENDBRANCH  10  11
ENDBRANCH   9  10
ENDBRANCH   8   9
ENDBRANCH   7   8
ENDBRANCH   6   7
ENDBRANCH   5   6
ENDBRANCH   4   5
ENDBRANCH   3   4
ENDBRANCH   2   3
ENDBRANCH   1   2
BRANCH   1  17
ATOM     17  C   UNL     1      49.474  49.032   5.353  1.00  0.00     0.000 C 
BRANCH  17  18
ATOM     18  C   UNL     1      48.142  49.584   5.878  1.00  0.00     0.000 C 
BRANCH  18  19
ATOM     19  C   UNL     1      47.102  49.811   4.766  1.00  0.00     0.000 C 
BRANCH  19  20
ATOM     20  C   UNL     1      46.877  51.294   4.396  1.00  0.00     0.000 C 
BRANCH  20  21
ATOM     21  C   UNL     1      47.542  51.755   3.084  1.00  0.00     0.000 C 
BRANCH  21  22
ATOM     22  C   UNL     1      48.488  52.969   3.195  1.00  0.00    -0.000 C 
BRANCH  22  23
ATOM     23  C   UNL     1      49.171  53.125   4.570  1.00  0.00    -0.000 C 
BRANCH  23  24
ATOM     24  C   UNL     1      50.613  52.594   4.569  1.00  0.00    -0.000 C 
BRANCH  24  25
ATOM     25  C   UNL     1      50.952  51.900   5.893  1.00  0.00    -0.000 C 
BRANCH  25  26
ATOM     26  C   UNL     1      52.453  51.590   5.972  1.00  0.00    -0.000 C 
BRANCH  26  27
ATOM     27  C   UNL     1      52.912  50.582   4.906  1.00  0.00    -0.000 C 
BRANCH  27  28
ATOM     28  C   UNL     1      54.439  50.371   4.912  1.00  0.00    -0.000 C 
BRANCH  28  29
ATOM     29  C   UNL     1      55.190  51.517   4.218  1.00  0.00    -0.003 C 
ATOM     30  C   UNL     1      56.597  51.116   3.774  1.00  0.00     0.004 C 
ENDBRANCH  28  29
ENDBRANCH  27  28
ENDBRANCH  26  27
ENDBRANCH  25  26
ENDBRANCH  24  25
ENDBRANCH  23  24
ENDBRANCH  22  23
ENDBRANCH  21  22
ENDBRANCH  20  21
ENDBRANCH  19  20
ENDBRANCH  18  19
ENDBRANCH  17  18
ENDBRANCH   1  17
TORSDOF 26
ENDMDL
MODEL 8
REMARK VINA RESULT:    -3.819      4.545     13.001
REMARK INTER + INTRA:         -11.972
REMARK INTER:                  -9.582
REMARK INTRA:                  -2.390
REMARK UNBOUND:                -2.349
REMARK SMILES CCCCCCCCCCCCCCCCCCCCCCCCCCCC(=O)[O-]
REMARK SMILES IDX 15 1 16 2 17 3 18 4 19 5 20 6 21 7 22 8 23 9 24 10 25 11
REMARK SMILES IDX 26 12 27 13 28 14 29 15 30 16 14 17 13 18 12 19 11 20 10 21
REMARK SMILES IDX 9 22 8 23 7 24 6 25 5 26 4 27 3 28 2 29 1 30
REMARK H PARENT
REMARK Flexibility Score: inf
ROOT
ATOM      1  C   UNL     1      48.540  45.573   2.015  1.00  0.00     0.000 C 
ENDROOT
BRANCH   1   2
ATOM      2  C   UNL     1      47.224  46.364   1.958  1.00  0.00     0.000 C 
BRANCH   2   3
ATOM      3  C   UNL     1      47.370  47.737   1.276  1.00  0.00     0.000 C 
BRANCH   3   4
ATOM      4  C   UNL     1      47.523  48.933   2.237  1.00  0.00     0.000 C 
BRANCH   4   5
ATOM      5  C   UNL     1      48.727  49.826   1.898  1.00  0.00     0.000 C 
BRANCH   5   6
ATOM      6  C   UNL     1      49.534  50.164   3.162  1.00  0.00     0.000 C 
BRANCH   6   7
ATOM      7  C   UNL     1      50.292  48.952   3.727  1.00  0.00     0.000 C 
BRANCH   7   8
ATOM      8  C   UNL     1      49.901  48.628   5.176  1.00  0.00     0.000 C 
BRANCH   8   9
ATOM      9  C   UNL     1      49.147  49.805   5.818  1.00  0.00     0.000 C 
BRANCH   9  10
ATOM     10  C   UNL     1      50.035  50.643   6.752  1.00  0.00     0.000 C 
BRANCH  10  11
ATOM     11  C   UNL     1      50.536  51.937   6.094  1.00  0.00     0.000 C 
BRANCH  11  12
ATOM     12  C   UNL     1      52.054  52.085   6.256  1.00  0.00     0.006 C 
BRANCH  12  13
ATOM     13  C   UNL     1      52.801  51.357   5.135  1.00  0.00     0.053 C 
BRANCH  13  14
ATOM     14  C   UNL     1      54.280  51.420   5.353  1.00  0.00     0.041 C 
ATOM     15  O   UNL     1      54.757  51.272   6.508  1.00  0.00    -0.550 OA
ATOM     16  O   UNL     1      55.135  51.633   4.276  1.00  0.00    -0.550 OA
ENDBRANCH  13  14
ENDBRANCH  12  13
ENDBRANCH  11  12
ENDBRANCH  10  11
ENDBRANCH   9  10
ENDBRANCH   8   9
ENDBRANCH   7   8
ENDBRANCH   6   7
ENDBRANCH   5   6
ENDBRANCH   4   5
ENDBRANCH   3   4
ENDBRANCH   2   3
ENDBRANCH   1   2
BRANCH   1  17
ATOM     17  C   UNL     1      48.395  44.217   1.316  1.00  0.00     0.000 C 
BRANCH  17  18
ATOM     18  C   UNL     1      48.444  44.368  -0.210  1.00  0.00     0.000 C 
BRANCH  18  19
ATOM     19  C   UNL     1      47.531  43.370  -0.945  1.00  0.00     0.000 C 
BRANCH  19  20
ATOM     20  C   UNL     1      48.187  42.684  -2.164  1.00  0.00     0.000 C 
BRANCH  20  21
ATOM     21  C   UNL     1      47.259  41.764  -2.982  1.00  0.00     0.000 C 
BRANCH  21  22
ATOM     22  C   UNL     1      47.247  40.277  -2.572  1.00  0.00    -0.000 C 
BRANCH  22  23
ATOM     23  C   UNL     1      47.022  39.293  -3.740  1.00  0.00    -0.000 C 
BRANCH  23  24
ATOM     24  C   UNL     1      46.875  40.013  -5.089  1.00  0.00    -0.000 C 
BRANCH  24  25
ATOM     25  C   UNL     1      47.644  39.283  -6.196  1.00  0.00    -0.000 C 
BRANCH  25  26
ATOM     26  C   UNL     1      48.864  40.103  -6.638  1.00  0.00    -0.000 C 
BRANCH  26  27
ATOM     27  C   UNL     1      49.553  40.827  -5.469  1.00  0.00    -0.000 C 
BRANCH  27  28
ATOM     28  C   UNL     1      50.978  40.301  -5.207  1.00  0.00    -0.000 C 
BRANCH  28  29
ATOM     29  C   UNL     1      50.985  38.831  -4.762  1.00  0.00    -0.003 C 
ATOM     30  C   UNL     1      52.100  38.525  -3.763  1.00  0.00     0.004 C 
ENDBRANCH  28  29
ENDBRANCH  27  28
ENDBRANCH  26  27
ENDBRANCH  25  26
ENDBRANCH  24  25
ENDBRANCH  23  24
ENDBRANCH  22  23
ENDBRANCH  21  22
ENDBRANCH  20  21
ENDBRANCH  19  20
ENDBRANCH  18  19
ENDBRANCH  17  18
ENDBRANCH   1  17
TORSDOF 26
ENDMDL
MODEL 9
REMARK VINA RESULT:    -3.741      1.353      4.932
REMARK INTER + INTRA:         -11.777
REMARK INTER:                  -9.953
REMARK INTRA:                  -1.824
REMARK UNBOUND:                -2.349
REMARK SMILES CCCCCCCCCCCCCCCCCCCCCCCCCCCC(=O)[O-]
REMARK SMILES IDX 15 1 16 2 17 3 18 4 19 5 20 6 21 7 22 8 23 9 24 10 25 11
REMARK SMILES IDX 26 12 27 13 28 14 29 15 30 16 14 17 13 18 12 19 11 20 10 21
REMARK SMILES IDX 9 22 8 23 7 24 6 25 5 26 4 27 3 28 2 29 1 30
REMARK H PARENT
REMARK Flexibility Score: inf
ROOT
ATOM      1  C   UNL     1      47.393  46.945   2.392  1.00  0.00     0.000 C 
ENDROOT
BRANCH   1   2
ATOM      2  C   UNL     1      47.300  45.996   1.187  1.00  0.00     0.000 C 
BRANCH   2   3
ATOM      3  C   UNL     1      48.379  44.897   1.195  1.00  0.00     0.000 C 
BRANCH   3   4
ATOM      4  C   UNL     1      48.740  44.324  -0.189  1.00  0.00     0.000 C 
BRANCH   4   5
ATOM      5  C   UNL     1      47.804  43.188  -0.633  1.00  0.00     0.000 C 
BRANCH   5   6
ATOM      6  C   UNL     1      47.824  43.025  -2.161  1.00  0.00     0.000 C 
BRANCH   6   7
ATOM      7  C   UNL     1      47.783  41.553  -2.604  1.00  0.00     0.000 C 
BRANCH   7   8
ATOM      8  C   UNL     1      46.922  41.332  -3.856  1.00  0.00     0.000 C 
BRANCH   8   9
ATOM      9  C   UNL     1      46.877  39.842  -4.236  1.00  0.00     0.000 C 
BRANCH   9  10
ATOM     10  C   UNL     1      48.202  39.340  -4.833  1.00  0.00     0.000 C 
BRANCH  10  11
ATOM     11  C   UNL     1      48.846  40.354  -5.790  1.00  0.00     0.000 C 
BRANCH  11  12
ATOM     12  C   UNL     1      50.324  40.577  -5.443  1.00  0.00     0.006 C 
BRANCH  12  13
ATOM     13  C   UNL     1      50.668  39.963  -4.083  1.00  0.00     0.053 C 
BRANCH  13  14
ATOM     14  C   UNL     1      51.682  38.874  -4.233  1.00  0.00     0.041 C 
ATOM     15  O   UNL     1      51.856  38.319  -5.349  1.00  0.00    -0.550 OA
ATOM     16  O   UNL     1      52.446  38.477  -3.140  1.00  0.00    -0.550 OA
ENDBRANCH  13  14
ENDBRANCH  12  13
ENDBRANCH  11  12
ENDBRANCH  10  11
ENDBRANCH   9  10
ENDBRANCH   8   9
ENDBRANCH   7   8
ENDBRANCH   6   7
ENDBRANCH   5   6
ENDBRANCH   4   5
ENDBRANCH   3   4
ENDBRANCH   2   3
ENDBRANCH   1   2
BRANCH   1  17
ATOM     17  C   UNL     1      47.558  48.398   1.934  1.00  0.00     0.000 C 
BRANCH  17  18
ATOM     18  C   UNL     1      47.051  49.379   3.001  1.00  0.00     0.000 C 
BRANCH  18  19
ATOM     19  C   UNL     1      48.134  50.364   3.478  1.00  0.00     0.000 C 
BRANCH  19  20
ATOM     20  C   UNL     1      49.539  50.099   2.893  1.00  0.00     0.000 C 
BRANCH  20  21
ATOM     21  C   UNL     1      50.641  49.810   3.932  1.00  0.00     0.000 C 
BRANCH  21  22
ATOM     22  C   UNL     1      50.171  49.654   5.393  1.00  0.00    -0.000 C 
BRANCH  22  23
ATOM     23  C   UNL     1      50.557  50.828   6.318  1.00  0.00    -0.000 C 
BRANCH  23  24
ATOM     24  C   UNL     1      51.127  52.023   5.538  1.00  0.00    -0.000 C 
BRANCH  24  25
ATOM     25  C   UNL     1      52.130  52.814   6.386  1.00  0.00    -0.000 C 
BRANCH  25  26
ATOM     26  C   UNL     1      52.782  51.907   7.439  1.00  0.00    -0.000 C 
BRANCH  26  27
ATOM     27  C   UNL     1      54.086  51.260   6.944  1.00  0.00    -0.000 C 
BRANCH  27  28
ATOM     28  C   UNL     1      54.527  51.798   5.569  1.00  0.00    -0.000 C 
BRANCH  28  29
ATOM     29  C   UNL     1      54.125  50.863   4.419  1.00  0.00    -0.003 C 
ATOM     30  C   UNL     1      55.330  50.213   3.740  1.00  0.00     0.004 C 
ENDBRANCH  28  29
ENDBRANCH  27  28
ENDBRANCH  26  27
ENDBRANCH  25  26
ENDBRANCH  24  25
ENDBRANCH  23  24
ENDBRANCH  22  23
ENDBRANCH  21  22
ENDBRANCH  20  21
ENDBRANCH  19  20
ENDBRANCH  18  19
ENDBRANCH  17  18
ENDBRANCH   1  17
TORSDOF 26
ENDMDL
