MODEL 1
REMARK VINA RESULT:    -3.469      0.000      0.000
REMARK INTER + INTRA:          -4.698
REMARK INTER:                  -4.483
REMARK INTRA:                  -0.216
REMARK UNBOUND:                -0.216
REMARK SMILES CCCCCCC(=O)[O-]
REMARK SMILES IDX 5 1 6 2 7 3 8 4 9 5 4 6 3 7 2 8 1 9
REMARK H PARENT
REMARK Flexibility Score: inf
ROOT
ATOM      1  C   UNL     1      -6.133  -4.654  -2.242  1.00  0.00     0.006 C 
ENDROOT
BRANCH   1   2
ATOM      2  C   UNL     1      -6.738  -5.814  -3.043  1.00  0.00     0.053 C 
BRANCH   2   3
ATOM      3  C   UNL     1      -7.834  -5.349  -3.952  1.00  0.00     0.041 C 
ATOM      4  O   UNL     1      -8.774  -4.642  -3.503  1.00  0.00    -0.550 OA
ATOM      5  O   UNL     1      -7.799  -5.671  -5.303  1.00  0.00    -0.550 OA
ENDBRANCH   2   3
ENDBRANCH   1   2
BRANCH   1   6
ATOM      6  C   UNL     1      -4.867  -5.069  -1.480  1.00  0.00     0.000 C 
BRANCH   6   7
ATOM      7  C   UNL     1      -4.456  -6.506  -1.838  1.00  0.00    -0.000 C 
BRANCH   7   8
ATOM      8  C   UNL     1      -3.098  -6.572  -2.552  1.00  0.00    -0.003 C 
ATOM      9  C   UNL     1      -2.148  -5.455  -2.120  1.00  0.00     0.004 C 
ENDBRANCH   7   8
ENDBRANCH   6   7
ENDBRANCH   1   6
TORSDOF 5
ENDMDL
MODEL 2
REMARK VINA RESULT:    -3.466     14.977     16.569
REMARK INTER + INTRA:          -4.695
REMARK INTER:                  -4.566
REMARK INTRA:                  -0.129
REMARK UNBOUND:                -0.216
REMARK SMILES CCCCCCC(=O)[O-]
REMARK SMILES IDX 5 1 6 2 7 3 8 4 9 5 4 6 3 7 2 8 1 9
REMARK H PARENT
REMARK Flexibility Score: inf
ROOT
ATOM      1  C   UNL     1       5.834   6.479  -2.622  1.00  0.00     0.006 C 
ENDROOT
BRANCH   1   2
ATOM      2  C   UNL     1       6.798   5.313  -2.367  1.00  0.00     0.053 C 
BRANCH   2   3
ATOM      3  C   UNL     1       7.847   5.217  -3.432  1.00  0.00     0.041 C 
ATOM      4  O   UNL     1       8.878   4.519  -3.246  1.00  0.00    -0.550 OA
ATOM      5  O   UNL     1       7.670   5.874  -4.642  1.00  0.00    -0.550 OA
ENDBRANCH   2   3
ENDBRANCH   1   2
BRANCH   1   6
ATOM      6  C   UNL     1       4.581   6.403  -1.739  1.00  0.00     0.000 C 
BRANCH   6   7
ATOM      7  C   UNL     1       3.316   6.721  -2.551  1.00  0.00    -0.000 C 
BRANCH   7   8
ATOM      8  C   UNL     1       2.215   5.666  -2.367  1.00  0.00    -0.003 C 
ATOM      9  C   UNL     1       1.951   5.336  -0.897  1.00  0.00     0.004 C 
ENDBRANCH   7   8
ENDBRANCH   6   7
ENDBRANCH   1   6
TORSDOF 5
ENDMDL
MODEL 3
REMARK VINA RESULT:    -3.440      7.892      8.580
REMARK INTER + INTRA:          -4.661
REMARK INTER:                  -4.541
REMARK INTRA:                  -0.120
REMARK UNBOUND:                -0.216
REMARK SMILES CCCCCCC(=O)[O-]
REMARK SMILES IDX 5 1 6 2 7 3 8 4 9 5 4 6 3 7 2 8 1 9
REMARK H PARENT
REMARK Flexibility Score: inf
ROOT
ATOM      1  C   UNL     1      -4.050  -4.153   4.928  1.00  0.00     0.006 C 
ENDROOT
BRANCH   1   2
ATOM      2  C   UNL     1      -5.515  -3.695   4.913  1.00  0.00     0.053 C 
BRANCH   2   3
ATOM      3  C   UNL     1      -5.956  -3.204   6.257  1.00  0.00     0.041 C 
ATOM      4  O   UNL     1      -6.117  -4.015   7.208  1.00  0.00    -0.550 OA
ATOM      5  O   UNL     1      -6.159  -1.847   6.468  1.00  0.00    -0.550 OA
ENDBRANCH   2   3
ENDBRANCH   1   2
BRANCH   1   6
ATOM      6  C   UNL     1      -3.485  -4.344   3.513  1.00  0.00     0.000 C 
BRANCH   6   7
ATOM      7  C   UNL     1      -3.021  -5.793   3.298  1.00  0.00    -0.000 C 
BRANCH   7   8
ATOM      8  C   UNL     1      -1.922  -6.214   4.284  1.00  0.00    -0.003 C 
ATOM      9  C   UNL     1      -1.347  -7.596   3.975  1.00  0.00     0.004 C 
ENDBRANCH   7   8
ENDBRANCH   6   7
ENDBRANCH   1   6
TORSDOF 5
ENDMDL
MODEL 4
REMARK VINA RESULT:    -3.427      1.715      2.416
REMARK INTER + INTRA:          -4.645
REMARK INTER:                  -4.304
REMARK INTRA:                  -0.340
REMARK UNBOUND:                -0.216
REMARK SMILES CCCCCCC(=O)[O-]
REMARK SMILES IDX 5 1 6 2 7 3 8 4 9 5 4 6 3 7 2 8 1 9
REMARK H PARENT
REMARK Flexibility Score: inf
ROOT
ATOM      1  C   UNL     1      -4.480  -6.417  -1.779  1.00  0.00     0.006 C 
ENDROOT
BRANCH   1   2
ATOM      2  C   UNL     1      -5.699  -6.401  -2.711  1.00  0.00     0.053 C 
BRANCH   2   3
ATOM      3  C   UNL     1      -5.676  -5.223  -3.635  1.00  0.00     0.041 C 
ATOM      4  O   UNL     1      -5.554  -4.057  -3.175  1.00  0.00    -0.550 OA
ATOM      5  O   UNL     1      -5.756  -5.416  -5.008  1.00  0.00    -0.550 OA
ENDBRANCH   2   3
ENDBRANCH   1   2
BRANCH   1   6
ATOM      6  C   UNL     1      -3.163  -6.593  -2.547  1.00  0.00     0.000 C 
BRANCH   6   7
ATOM      7  C   UNL     1      -2.193  -5.439  -2.247  1.00  0.00    -0.000 C 
BRANCH   7   8
ATOM      8  C   UNL     1      -2.509  -4.733  -0.920  1.00  0.00    -0.003 C 
ATOM      9  C   UNL     1      -1.532  -5.105   0.196  1.00  0.00     0.004 C 
ENDBRANCH   7   8
ENDBRANCH   6   7
ENDBRANCH   1   6
TORSDOF 5
ENDMDL
MODEL 5
REMARK VINA RESULT:    -3.421     16.278     17.188
REMARK INTER + INTRA:          -4.637
REMARK INTER:                  -4.533
REMARK INTRA:                  -0.103
REMARK UNBOUND:                -0.216
REMARK SMILES CCCCCCC(=O)[O-]
REMARK SMILES IDX 5 1 6 2 7 3 8 4 9 5 4 6 3 7 2 8 1 9
REMARK H PARENT
REMARK Flexibility Score: inf
ROOT
ATOM      1  C   UNL     1       4.336   4.476   4.766  1.00  0.00     0.006 C 
ENDROOT
BRANCH   1   2
ATOM      2  C   UNL     1       4.421   3.597   6.021  1.00  0.00     0.053 C 
BRANCH   2   3
ATOM      3  C   UNL     1       5.755   3.717   6.693  1.00  0.00     0.041 C 
ATOM      4  O   UNL     1       6.680   2.909   6.415  1.00  0.00    -0.550 OA
ATOM      5  O   UNL     1       5.985   4.742   7.601  1.00  0.00    -0.550 OA
ENDBRANCH   2   3
ENDBRANCH   1   2
BRANCH   1   6
ATOM      6  C   UNL     1       2.987   5.198   4.651  1.00  0.00     0.000 C 
BRANCH   6   7
ATOM      7  C   UNL     1       2.773   5.740   3.229  1.00  0.00    -0.000 C 
BRANCH   7   8
ATOM      8  C   UNL     1       1.477   6.554   3.096  1.00  0.00    -0.003 C 
ATOM      9  C   UNL     1       1.402   7.714   4.088  1.00  0.00     0.004 C 
ENDBRANCH   7   8
ENDBRANCH   6   7
ENDBRANCH   1   6
TORSDOF 5
ENDMDL
MODEL 6
REMARK VINA RESULT:    -3.397     14.408     15.970
REMARK INTER + INTRA:          -4.606
REMARK INTER:                  -4.388
REMARK INTRA:                  -0.218
REMARK UNBOUND:                -0.216
REMARK SMILES CCCCCCC(=O)[O-]
REMARK SMILES IDX 5 1 6 2 7 3 8 4 9 5 4 6 3 7 2 8 1 9
REMARK H PARENT
REMARK Flexibility Score: inf
ROOT
ATOM      1  C   UNL     1       5.137   5.234  -1.845  1.00  0.00     0.006 C 
ENDROOT
BRANCH   1   2
ATOM      2  C   UNL     1       6.593   5.271  -2.328  1.00  0.00     0.053 C 
BRANCH   2   3
ATOM      3  C   UNL     1       6.680   5.450  -3.812  1.00  0.00     0.041 C 
ATOM      4  O   UNL     1       5.675   5.233  -4.538  1.00  0.00    -0.550 OA
ATOM      5  O   UNL     1       7.865   5.889  -4.390  1.00  0.00    -0.550 OA
ENDBRANCH   2   3
ENDBRANCH   1   2
BRANCH   1   6
ATOM      6  C   UNL     1       4.522   6.637  -1.739  1.00  0.00     0.000 C 
BRANCH   6   7
ATOM      7  C   UNL     1       3.148   6.688  -2.426  1.00  0.00    -0.000 C 
BRANCH   7   8
ATOM      8  C   UNL     1       2.461   5.315  -2.475  1.00  0.00    -0.003 C 
ATOM      9  C   UNL     1       1.530   5.076  -1.286  1.00  0.00     0.004 C 
ENDBRANCH   7   8
ENDBRANCH   6   7
ENDBRANCH   1   6
TORSDOF 5
ENDMDL
MODEL 7
REMARK VINA RESULT:    -3.395     14.632     16.114
REMARK INTER + INTRA:          -4.603
REMARK INTER:                  -4.417
REMARK INTRA:                  -0.186
REMARK UNBOUND:                -0.216
REMARK SMILES CCCCCCC(=O)[O-]
REMARK SMILES IDX 5 1 6 2 7 3 8 4 9 5 4 6 3 7 2 8 1 9
REMARK H PARENT
REMARK Flexibility Score: inf
ROOT
ATOM      1  C   UNL     1       4.561   6.126  -3.114  1.00  0.00     0.006 C 
ENDROOT
BRANCH   1   2
ATOM      2  C   UNL     1       5.870   6.646  -2.505  1.00  0.00     0.053 C 
BRANCH   2   3
ATOM      3  C   UNL     1       7.041   5.801  -2.902  1.00  0.00     0.041 C 
ATOM      4  O   UNL     1       7.540   5.910  -4.053  1.00  0.00    -0.550 OA
ATOM      5  O   UNL     1       7.600   4.917  -1.989  1.00  0.00    -0.550 OA
ENDBRANCH   2   3
ENDBRANCH   1   2
BRANCH   1   6
ATOM      6  C   UNL     1       3.324   6.646  -2.368  1.00  0.00     0.000 C 
BRANCH   6   7
ATOM      7  C   UNL     1       2.228   5.571  -2.304  1.00  0.00    -0.000 C 
BRANCH   7   8
ATOM      8  C   UNL     1       1.814   5.235  -0.864  1.00  0.00    -0.003 C 
ATOM      9  C   UNL     1       3.005   5.162   0.093  1.00  0.00     0.004 C 
ENDBRANCH   7   8
ENDBRANCH   6   7
ENDBRANCH   1   6
TORSDOF 5
ENDMDL
MODEL 8
REMARK VINA RESULT:    -3.376      1.797      2.254
REMARK INTER + INTRA:          -4.579
REMARK INTER:                  -4.263
REMARK INTRA:                  -0.316
REMARK UNBOUND:                -0.216
REMARK SMILES CCCCCCC(=O)[O-]
REMARK SMILES IDX 5 1 6 2 7 3 8 4 9 5 4 6 3 7 2 8 1 9
REMARK H PARENT
REMARK Flexibility Score: inf
ROOT
ATOM      1  C   UNL     1      -5.627  -6.389  -2.800  1.00  0.00     0.006 C 
ENDROOT
BRANCH   1   2
ATOM      2  C   UNL     1      -5.888  -4.932  -3.201  1.00  0.00     0.053 C 
BRANCH   2   3
ATOM      3  C   UNL     1      -5.391  -4.639  -4.583  1.00  0.00     0.041 C 
ATOM      4  O   UNL     1      -4.453  -3.817  -4.760  1.00  0.00    -0.550 OA
ATOM      5  O   UNL     1      -5.942  -5.299  -5.673  1.00  0.00    -0.550 OA
ENDBRANCH   2   3
ENDBRANCH   1   2
BRANCH   1   6
ATOM      6  C   UNL     1      -4.465  -6.521  -1.805  1.00  0.00     0.000 C 
BRANCH   6   7
ATOM      7  C   UNL     1      -3.118  -6.597  -2.540  1.00  0.00    -0.000 C 
BRANCH   7   8
ATOM      8  C   UNL     1      -2.195  -5.415  -2.205  1.00  0.00    -0.003 C 
ATOM      9  C   UNL     1      -2.309  -4.971  -0.747  1.00  0.00     0.004 C 
ENDBRANCH   7   8
ENDBRANCH   6   7
ENDBRANCH   1   6
TORSDOF 5
ENDMDL
MODEL 9
REMARK VINA RESULT:    -3.369      2.310      3.197
REMARK INTER + INTRA:          -4.569
REMARK INTER:                  -4.315
REMARK INTRA:                  -0.254
REMARK UNBOUND:                -0.216
REMARK SMILES CCCCCCC(=O)[O-]
REMARK SMILES IDX 5 1 6 2 7 3 8 4 9 5 4 6 3 7 2 8 1 9
REMARK H PARENT
REMARK Flexibility Score: inf
ROOT
ATOM      1  C   UNL     1      -3.042  -6.195  -2.337  1.00  0.00     0.006 C 
ENDROOT
BRANCH   1   2
ATOM      2  C   UNL     1      -4.463  -6.554  -1.885  1.00  0.00     0.053 C 
BRANCH   2   3
ATOM      3  C   UNL     1      -5.454  -6.399  -2.998  1.00  0.00     0.041 C 
ATOM      4  O   UNL     1      -5.168  -5.707  -4.011  1.00  0.00    -0.550 OA
ATOM      5  O   UNL     1      -6.681  -7.045  -2.930  1.00  0.00    -0.550 OA
ENDBRANCH   2   3
ENDBRANCH   1   2
BRANCH   1   6
ATOM      6  C   UNL     1      -2.304  -5.330  -1.305  1.00  0.00     0.000 C 
BRANCH   6   7
ATOM      7  C   UNL     1      -3.270  -4.817  -0.226  1.00  0.00    -0.000 C 
BRANCH   7   8
ATOM      8  C   UNL     1      -2.737  -5.037   1.197  1.00  0.00    -0.003 C 
ATOM      9  C   UNL     1      -1.237  -5.329   1.229  1.00  0.00     0.004 C 
ENDBRANCH   7   8
ENDBRANCH   6   7
ENDBRANCH   1   6
TORSDOF 5
ENDMDL
