MODEL 1
REMARK VINA RESULT:    -2.927      0.000      0.000
REMARK INTER + INTRA:         -12.813
REMARK INTER:                  -7.377
REMARK INTRA:                  -5.436
REMARK UNBOUND:                -5.436
REMARK SMILES CCCCCCCCCCCCCCCCCCCCCCCCCCCC(=O)[O-]
REMARK SMILES IDX 15 1 16 2 17 3 18 4 19 5 20 6 21 7 22 8 23 9 24 10 25 11
REMARK SMILES IDX 26 12 27 13 28 14 29 15 30 16 14 17 13 18 12 19 11 20 10 21
REMARK SMILES IDX 9 22 8 23 7 24 6 25 5 26 4 27 3 28 2 29 1 30
REMARK H PARENT
REMARK Flexibility Score: inf
ROOT
ATOM      1  C   UNL     1      57.059  26.169  52.018  1.00  0.00     0.000 C 
ENDROOT
BRANCH   1   2
ATOM      2  C   UNL     1      56.459  26.658  50.687  1.00  0.00     0.000 C 
BRANCH   2   3
ATOM      3  C   UNL     1      54.988  26.271  50.453  1.00  0.00     0.000 C 
BRANCH   3   4
ATOM      4  C   UNL     1      54.066  27.493  50.300  1.00  0.00     0.000 C 
BRANCH   4   5
ATOM      5  C   UNL     1      54.804  28.819  50.569  1.00  0.00     0.000 C 
BRANCH   5   6
ATOM      6  C   UNL     1      53.863  30.029  50.728  1.00  0.00     0.000 C 
BRANCH   6   7
ATOM      7  C   UNL     1      53.900  30.616  52.152  1.00  0.00     0.000 C 
BRANCH   7   8
ATOM      8  C   UNL     1      52.967  29.866  53.127  1.00  0.00     0.000 C 
BRANCH   8   9
ATOM      9  C   UNL     1      53.697  29.230  54.323  1.00  0.00     0.000 C 
BRANCH   9  10
ATOM     10  C   UNL     1      54.314  27.845  54.049  1.00  0.00     0.000 C 
BRANCH  10  11
ATOM     11  C   UNL     1      53.304  26.687  53.926  1.00  0.00     0.000 C 
BRANCH  11  12
ATOM     12  C   UNL     1      53.919  25.274  53.856  1.00  0.00     0.006 C 
BRANCH  12  13
ATOM     13  C   UNL     1      52.911  24.166  53.498  1.00  0.00     0.053 C 
BRANCH  13  14
ATOM     14  C   UNL     1      53.523  22.799  53.539  1.00  0.00     0.041 C 
ATOM     15  O   UNL     1      53.201  21.933  52.684  1.00  0.00    -0.550 OA
ATOM     16  O   UNL     1      54.473  22.488  54.506  1.00  0.00    -0.550 OA
ENDBRANCH  13  14
ENDBRANCH  12  13
ENDBRANCH  11  12
ENDBRANCH  10  11
ENDBRANCH   9  10
ENDBRANCH   8   9
ENDBRANCH   7   8
ENDBRANCH   6   7
ENDBRANCH   5   6
ENDBRANCH   4   5
ENDBRANCH   3   4
ENDBRANCH   2   3
ENDBRANCH   1   2
BRANCH   1  17
ATOM     17  C   UNL     1      58.575  25.923  51.930  1.00  0.00     0.000 C 
BRANCH  17  18
ATOM     18  C   UNL     1      59.104  25.935  50.484  1.00  0.00     0.000 C 
BRANCH  18  19
ATOM     19  C   UNL     1      60.495  26.575  50.294  1.00  0.00     0.000 C 
BRANCH  19  20
ATOM     20  C   UNL     1      60.492  28.090  50.000  1.00  0.00     0.000 C 
BRANCH  20  21
ATOM     21  C   UNL     1      59.253  28.599  49.241  1.00  0.00     0.000 C 
BRANCH  21  22
ATOM     22  C   UNL     1      58.448  29.633  50.046  1.00  0.00    -0.000 C 
BRANCH  22  23
ATOM     23  C   UNL     1      58.804  29.627  51.542  1.00  0.00    -0.000 C 
BRANCH  23  24
ATOM     24  C   UNL     1      57.734  30.308  52.414  1.00  0.00    -0.000 C 
BRANCH  24  25
ATOM     25  C   UNL     1      57.396  29.499  53.684  1.00  0.00    -0.000 C 
BRANCH  25  26
ATOM     26  C   UNL     1      57.740  30.226  55.000  1.00  0.00    -0.000 C 
BRANCH  26  27
ATOM     27  C   UNL     1      56.572  30.980  55.663  1.00  0.00    -0.000 C 
BRANCH  27  28
ATOM     28  C   UNL     1      56.555  32.501  55.416  1.00  0.00    -0.000 C 
BRANCH  28  29
ATOM     29  C   UNL     1      55.537  32.922  54.344  1.00  0.00    -0.003 C 
ATOM     30  C   UNL     1      56.148  33.930  53.373  1.00  0.00     0.004 C 
ENDBRANCH  28  29
ENDBRANCH  27  28
ENDBRANCH  26  27
ENDBRANCH  25  26
ENDBRANCH  24  25
ENDBRANCH  23  24
ENDBRANCH  22  23
ENDBRANCH  21  22
ENDBRANCH  20  21
ENDBRANCH  19  20
ENDBRANCH  18  19
ENDBRANCH  17  18
ENDBRANCH   1  17
TORSDOF 26
ENDMDL
MODEL 2
REMARK VINA RESULT:    -2.896      4.894      8.988
REMARK INTER + INTRA:         -12.735
REMARK INTER:                  -7.661
REMARK INTRA:                  -5.074
REMARK UNBOUND:                -5.436
REMARK SMILES CCCCCCCCCCCCCCCCCCCCCCCCCCCC(=O)[O-]
REMARK SMILES IDX 15 1 16 2 17 3 18 4 19 5 20 6 21 7 22 8 23 9 24 10 25 11
REMARK SMILES IDX 26 12 27 13 28 14 29 15 30 16 14 17 13 18 12 19 11 20 10 21
REMARK SMILES IDX 9 22 8 23 7 24 6 25 5 26 4 27 3 28 2 29 1 30
REMARK H PARENT
REMARK Flexibility Score: inf
ROOT
ATOM      1  C   UNL     1      60.258  29.887  51.327  1.00  0.00     0.000 C 
ENDROOT
BRANCH   1   2
ATOM      2  C   UNL     1      61.482  30.822  51.311  1.00  0.00     0.000 C 
BRANCH   2   3
ATOM      3  C   UNL     1      62.314  30.831  52.607  1.00  0.00     0.000 C 
BRANCH   3   4
ATOM      4  C   UNL     1      63.190  29.576  52.761  1.00  0.00     0.000 C 
BRANCH   4   5
ATOM      5  C   UNL     1      62.516  28.495  53.629  1.00  0.00     0.000 C 
BRANCH   5   6
ATOM      6  C   UNL     1      62.272  27.168  52.884  1.00  0.00     0.000 C 
BRANCH   6   7
ATOM      7  C   UNL     1      63.546  26.639  52.198  1.00  0.00     0.000 C 
BRANCH   7   8
ATOM      8  C   UNL     1      63.393  26.530  50.665  1.00  0.00     0.000 C 
BRANCH   8   9
ATOM      9  C   UNL     1      64.255  27.535  49.880  1.00  0.00     0.000 C 
BRANCH   9  10
ATOM     10  C   UNL     1      63.464  28.588  49.080  1.00  0.00     0.000 C 
BRANCH  10  11
ATOM     11  C   UNL     1      64.229  29.240  47.912  1.00  0.00     0.000 C 
BRANCH  11  12
ATOM     12  C   UNL     1      65.061  30.486  48.277  1.00  0.00     0.006 C 
BRANCH  12  13
ATOM     13  C   UNL     1      64.835  30.995  49.712  1.00  0.00     0.053 C 
BRANCH  13  14
ATOM     14  C   UNL     1      64.569  32.469  49.763  1.00  0.00     0.041 C 
ATOM     15  O   UNL     1      63.483  32.934  49.328  1.00  0.00    -0.550 OA
ATOM     16  O   UNL     1      65.511  33.329  50.318  1.00  0.00    -0.550 OA
ENDBRANCH  13  14
ENDBRANCH  12  13
ENDBRANCH  11  12
ENDBRANCH  10  11
ENDBRANCH   9  10
ENDBRANCH   8   9
ENDBRANCH   7   8
ENDBRANCH   6   7
ENDBRANCH   5   6
ENDBRANCH   4   5
ENDBRANCH   3   4
ENDBRANCH   2   3
ENDBRANCH   1   2
BRANCH   1  17
ATOM     17  C   UNL     1      59.473  29.915  50.005  1.00  0.00     0.000 C 
BRANCH  17  18
ATOM     18  C   UNL     1      59.061  28.512  49.520  1.00  0.00     0.000 C 
BRANCH  18  19
ATOM     19  C   UNL     1      60.097  27.396  49.769  1.00  0.00     0.000 C 
BRANCH  19  20
ATOM     20  C   UNL     1      59.542  26.114  50.425  1.00  0.00     0.000 C 
BRANCH  20  21
ATOM     21  C   UNL     1      58.013  26.087  50.602  1.00  0.00     0.000 C 
BRANCH  21  22
ATOM     22  C   UNL     1      57.588  26.013  52.078  1.00  0.00    -0.000 C 
BRANCH  22  23
ATOM     23  C   UNL     1      58.544  26.777  53.009  1.00  0.00    -0.000 C 
BRANCH  23  24
ATOM     24  C   UNL     1      57.967  28.123  53.484  1.00  0.00    -0.000 C 
BRANCH  24  25
ATOM     25  C   UNL     1      56.506  28.337  53.035  1.00  0.00    -0.000 C 
BRANCH  25  26
ATOM     26  C   UNL     1      56.334  29.430  51.960  1.00  0.00    -0.000 C 
BRANCH  26  27
ATOM     27  C   UNL     1      55.587  28.991  50.687  1.00  0.00    -0.000 C 
BRANCH  27  28
ATOM     28  C   UNL     1      54.055  28.903  50.828  1.00  0.00    -0.000 C 
BRANCH  28  29
ATOM     29  C   UNL     1      53.455  27.696  50.090  1.00  0.00    -0.003 C 
ATOM     30  C   UNL     1      54.428  26.520  50.079  1.00  0.00     0.004 C 
ENDBRANCH  28  29
ENDBRANCH  27  28
ENDBRANCH  26  27
ENDBRANCH  25  26
ENDBRANCH  24  25
ENDBRANCH  23  24
ENDBRANCH  22  23
ENDBRANCH  21  22
ENDBRANCH  20  21
ENDBRANCH  19  20
ENDBRANCH  18  19
ENDBRANCH  17  18
ENDBRANCH   1  17
TORSDOF 26
ENDMDL
MODEL 3
REMARK VINA RESULT:    -2.884      4.604      8.713
REMARK INTER + INTRA:         -12.703
REMARK INTER:                  -7.779
REMARK INTRA:                  -4.923
REMARK UNBOUND:                -5.436
REMARK SMILES CCCCCCCCCCCCCCCCCCCCCCCCCCCC(=O)[O-]
REMARK SMILES IDX 15 1 16 2 17 3 18 4 19 5 20 6 21 7 22 8 23 9 24 10 25 11
REMARK SMILES IDX 26 12 27 13 28 14 29 15 30 16 14 17 13 18 12 19 11 20 10 21
REMARK SMILES IDX 9 22 8 23 7 24 6 25 5 26 4 27 3 28 2 29 1 30
REMARK H PARENT
REMARK Flexibility Score: inf
ROOT
ATOM      1  C   UNL     1      57.524  29.916  51.938  1.00  0.00     0.000 C 
ENDROOT
BRANCH   1   2
ATOM      2  C   UNL     1      58.381  29.165  52.973  1.00  0.00     0.000 C 
BRANCH   2   3
ATOM      3  C   UNL     1      59.283  30.057  53.845  1.00  0.00     0.000 C 
BRANCH   3   4
ATOM      4  C   UNL     1      60.584  30.466  53.133  1.00  0.00     0.000 C 
BRANCH   4   5
ATOM      5  C   UNL     1      61.342  29.255  52.557  1.00  0.00     0.000 C 
BRANCH   5   6
ATOM      6  C   UNL     1      62.293  29.614  51.399  1.00  0.00     0.000 C 
BRANCH   6   7
ATOM      7  C   UNL     1      63.045  28.384  50.856  1.00  0.00     0.000 C 
BRANCH   7   8
ATOM      8  C   UNL     1      63.347  28.492  49.345  1.00  0.00     0.000 C 
BRANCH   8   9
ATOM      9  C   UNL     1      64.829  28.754  49.023  1.00  0.00     0.000 C 
BRANCH   9  10
ATOM     10  C   UNL     1      65.093  29.959  48.100  1.00  0.00     0.000 C 
BRANCH  10  11
ATOM     11  C   UNL     1      65.743  31.180  48.781  1.00  0.00     0.000 C 
BRANCH  11  12
ATOM     12  C   UNL     1      64.829  32.410  48.951  1.00  0.00     0.006 C 
BRANCH  12  13
ATOM     13  C   UNL     1      64.124  32.486  50.318  1.00  0.00     0.053 C 
BRANCH  13  14
ATOM     14  C   UNL     1      62.765  33.111  50.229  1.00  0.00     0.041 C 
ATOM     15  O   UNL     1      62.300  33.463  49.114  1.00  0.00    -0.550 OA
ATOM     16  O   UNL     1      61.998  33.280  51.377  1.00  0.00    -0.550 OA
ENDBRANCH  13  14
ENDBRANCH  12  13
ENDBRANCH  11  12
ENDBRANCH  10  11
ENDBRANCH   9  10
ENDBRANCH   8   9
ENDBRANCH   7   8
ENDBRANCH   6   7
ENDBRANCH   5   6
ENDBRANCH   4   5
ENDBRANCH   3   4
ENDBRANCH   2   3
ENDBRANCH   1   2
BRANCH   1  17
ATOM     17  C   UNL     1      57.483  29.206  50.574  1.00  0.00     0.000 C 
BRANCH  17  18
ATOM     18  C   UNL     1      58.650  29.606  49.652  1.00  0.00     0.000 C 
BRANCH  18  19
ATOM     19  C   UNL     1      59.669  28.488  49.354  1.00  0.00     0.000 C 
BRANCH  19  20
ATOM     20  C   UNL     1      59.202  27.058  49.699  1.00  0.00     0.000 C 
BRANCH  20  21
ATOM     21  C   UNL     1      60.093  26.311  50.708  1.00  0.00     0.000 C 
BRANCH  21  22
ATOM     22  C   UNL     1      59.318  25.849  51.954  1.00  0.00    -0.000 C 
BRANCH  22  23
ATOM     23  C   UNL     1      57.855  25.493  51.644  1.00  0.00    -0.000 C 
BRANCH  23  24
ATOM     24  C   UNL     1      56.902  25.810  52.810  1.00  0.00    -0.000 C 
BRANCH  24  25
ATOM     25  C   UNL     1      55.509  26.275  52.335  1.00  0.00    -0.000 C 
BRANCH  25  26
ATOM     26  C   UNL     1      55.377  26.391  50.803  1.00  0.00    -0.000 C 
BRANCH  26  27
ATOM     27  C   UNL     1      54.247  27.312  50.305  1.00  0.00    -0.000 C 
BRANCH  27  28
ATOM     28  C   UNL     1      53.846  28.436  51.279  1.00  0.00    -0.000 C 
BRANCH  28  29
ATOM     29  C   UNL     1      53.844  29.825  50.622  1.00  0.00    -0.003 C 
ATOM     30  C   UNL     1      53.637  30.924  51.661  1.00  0.00     0.004 C 
ENDBRANCH  28  29
ENDBRANCH  27  28
ENDBRANCH  26  27
ENDBRANCH  25  26
ENDBRANCH  24  25
ENDBRANCH  23  24
ENDBRANCH  22  23
ENDBRANCH  21  22
ENDBRANCH  20  21
ENDBRANCH  19  20
ENDBRANCH  18  19
ENDBRANCH  17  18
ENDBRANCH   1  17
TORSDOF 26
ENDMDL
MODEL 4
REMARK VINA RESULT:    -2.848      4.036      7.932
REMARK INTER + INTRA:         -12.614
REMARK INTER:                  -7.588
REMARK INTRA:                  -5.026
REMARK UNBOUND:                -5.436
REMARK SMILES CCCCCCCCCCCCCCCCCCCCCCCCCCCC(=O)[O-]
REMARK SMILES IDX 15 1 16 2 17 3 18 4 19 5 20 6 21 7 22 8 23 9 24 10 25 11
REMARK SMILES IDX 26 12 27 13 28 14 29 15 30 16 14 17 13 18 12 19 11 20 10 21
REMARK SMILES IDX 9 22 8 23 7 24 6 25 5 26 4 27 3 28 2 29 1 30
REMARK H PARENT
REMARK Flexibility Score: inf
ROOT
ATOM      1  C   UNL     1      57.331  29.853  51.847  1.00  0.00     0.000 C 
ENDROOT
BRANCH   1   2
ATOM      2  C   UNL     1      57.956  29.032  52.989  1.00  0.00     0.000 C 
BRANCH   2   3
ATOM      3  C   UNL     1      58.443  29.856  54.195  1.00  0.00     0.000 C 
BRANCH   3   4
ATOM      4  C   UNL     1      59.862  30.416  54.001  1.00  0.00     0.000 C 
BRANCH   4   5
ATOM      5  C   UNL     1      60.800  29.407  53.311  1.00  0.00     0.000 C 
BRANCH   5   6
ATOM      6  C   UNL     1      61.604  30.009  52.142  1.00  0.00     0.000 C 
BRANCH   6   7
ATOM      7  C   UNL     1      61.104  31.412  51.749  1.00  0.00     0.000 C 
BRANCH   7   8
ATOM      8  C   UNL     1      62.252  32.351  51.316  1.00  0.00     0.000 C 
BRANCH   8   9
ATOM      9  C   UNL     1      62.548  32.316  49.806  1.00  0.00     0.000 C 
BRANCH   9  10
ATOM     10  C   UNL     1      64.037  32.172  49.437  1.00  0.00     0.000 C 
BRANCH  10  11
ATOM     11  C   UNL     1      64.449  30.792  48.885  1.00  0.00     0.000 C 
BRANCH  11  12
ATOM     12  C   UNL     1      65.453  30.005  49.751  1.00  0.00     0.006 C 
BRANCH  12  13
ATOM     13  C   UNL     1      64.803  28.951  50.667  1.00  0.00     0.053 C 
BRANCH  13  14
ATOM     14  C   UNL     1      64.381  27.723  49.921  1.00  0.00     0.041 C 
ATOM     15  O   UNL     1      63.174  27.554  49.606  1.00  0.00    -0.550 OA
ATOM     16  O   UNL     1      65.327  26.774  49.547  1.00  0.00    -0.550 OA
ENDBRANCH  13  14
ENDBRANCH  12  13
ENDBRANCH  11  12
ENDBRANCH  10  11
ENDBRANCH   9  10
ENDBRANCH   8   9
ENDBRANCH   7   8
ENDBRANCH   6   7
ENDBRANCH   5   6
ENDBRANCH   4   5
ENDBRANCH   3   4
ENDBRANCH   2   3
ENDBRANCH   1   2
BRANCH   1  17
ATOM     17  C   UNL     1      57.456  29.159  50.480  1.00  0.00     0.000 C 
BRANCH  17  18
ATOM     18  C   UNL     1      58.681  29.630  49.675  1.00  0.00     0.000 C 
BRANCH  18  19
ATOM     19  C   UNL     1      59.795  28.579  49.492  1.00  0.00     0.000 C 
BRANCH  19  20
ATOM     20  C   UNL     1      59.381  27.121  49.778  1.00  0.00     0.000 C 
BRANCH  20  21
ATOM     21  C   UNL     1      60.188  26.424  50.889  1.00  0.00     0.000 C 
BRANCH  21  22
ATOM     22  C   UNL     1      59.309  25.972  52.066  1.00  0.00    -0.000 C 
BRANCH  22  23
ATOM     23  C   UNL     1      57.913  25.506  51.619  1.00  0.00    -0.000 C 
BRANCH  23  24
ATOM     24  C   UNL     1      56.859  25.621  52.734  1.00  0.00    -0.000 C 
BRANCH  24  25
ATOM     25  C   UNL     1      55.463  26.010  52.198  1.00  0.00    -0.000 C 
BRANCH  25  26
ATOM     26  C   UNL     1      55.432  26.299  50.684  1.00  0.00    -0.000 C 
BRANCH  26  27
ATOM     27  C   UNL     1      54.246  27.155  50.200  1.00  0.00    -0.000 C 
BRANCH  27  28
ATOM     28  C   UNL     1      53.796  28.256  51.178  1.00  0.00    -0.000 C 
BRANCH  28  29
ATOM     29  C   UNL     1      53.814  29.658  50.549  1.00  0.00    -0.003 C 
ATOM     30  C   UNL     1      53.605  30.738  51.608  1.00  0.00     0.004 C 
ENDBRANCH  28  29
ENDBRANCH  27  28
ENDBRANCH  26  27
ENDBRANCH  25  26
ENDBRANCH  24  25
ENDBRANCH  23  24
ENDBRANCH  22  23
ENDBRANCH  21  22
ENDBRANCH  20  21
ENDBRANCH  19  20
ENDBRANCH  18  19
ENDBRANCH  17  18
ENDBRANCH   1  17
TORSDOF 26
ENDMDL
MODEL 5
REMARK VINA RESULT:    -2.802      2.995      5.864
REMARK INTER + INTRA:         -12.496
REMARK INTER:                  -7.475
REMARK INTRA:                  -5.021
REMARK UNBOUND:                -5.436
REMARK SMILES CCCCCCCCCCCCCCCCCCCCCCCCCCCC(=O)[O-]
REMARK SMILES IDX 15 1 16 2 17 3 18 4 19 5 20 6 21 7 22 8 23 9 24 10 25 11
REMARK SMILES IDX 26 12 27 13 28 14 29 15 30 16 14 17 13 18 12 19 11 20 10 21
REMARK SMILES IDX 9 22 8 23 7 24 6 25 5 26 4 27 3 28 2 29 1 30
REMARK H PARENT
REMARK Flexibility Score: inf
ROOT
ATOM      1  C   UNL     1      54.643  28.962  50.671  1.00  0.00     0.000 C 
ENDROOT
BRANCH   1   2
ATOM      2  C   UNL     1      53.735  30.203  50.749  1.00  0.00     0.000 C 
BRANCH   2   3
ATOM      3  C   UNL     1      53.270  30.583  52.166  1.00  0.00     0.000 C 
BRANCH   3   4
ATOM      4  C   UNL     1      54.301  30.222  53.249  1.00  0.00     0.000 C 
BRANCH   4   5
ATOM      5  C   UNL     1      54.734  31.447  54.076  1.00  0.00     0.000 C 
BRANCH   5   6
ATOM      6  C   UNL     1      56.125  31.990  53.695  1.00  0.00     0.000 C 
BRANCH   6   7
ATOM      7  C   UNL     1      56.186  33.529  53.739  1.00  0.00     0.000 C 
BRANCH   7   8
ATOM      8  C   UNL     1      55.102  34.139  54.655  1.00  0.00     0.000 C 
BRANCH   8   9
ATOM      9  C   UNL     1      55.616  34.538  56.049  1.00  0.00     0.000 C 
BRANCH   9  10
ATOM     10  C   UNL     1      55.349  33.507  57.163  1.00  0.00     0.000 C 
BRANCH  10  11
ATOM     11  C   UNL     1      56.604  32.967  57.876  1.00  0.00     0.000 C 
BRANCH  11  12
ATOM     12  C   UNL     1      57.828  32.721  56.971  1.00  0.00     0.006 C 
BRANCH  12  13
ATOM     13  C   UNL     1      58.082  31.237  56.646  1.00  0.00     0.053 C 
BRANCH  13  14
ATOM     14  C   UNL     1      58.103  30.376  57.872  1.00  0.00     0.041 C 
ATOM     15  O   UNL     1      57.261  29.451  58.012  1.00  0.00    -0.550 OA
ATOM     16  O   UNL     1      59.072  30.577  58.849  1.00  0.00    -0.550 OA
ENDBRANCH  13  14
ENDBRANCH  12  13
ENDBRANCH  11  12
ENDBRANCH  10  11
ENDBRANCH   9  10
ENDBRANCH   8   9
ENDBRANCH   7   8
ENDBRANCH   6   7
ENDBRANCH   5   6
ENDBRANCH   4   5
ENDBRANCH   3   4
ENDBRANCH   2   3
ENDBRANCH   1   2
BRANCH   1  17
ATOM     17  C   UNL     1      53.860  27.671  50.377  1.00  0.00     0.000 C 
BRANCH  17  18
ATOM     18  C   UNL     1      54.748  26.412  50.392  1.00  0.00     0.000 C 
BRANCH  18  19
ATOM     19  C   UNL     1      56.267  26.674  50.435  1.00  0.00     0.000 C 
BRANCH  19  20
ATOM     20  C   UNL     1      57.028  25.968  51.576  1.00  0.00     0.000 C 
BRANCH  20  21
ATOM     21  C   UNL     1      58.554  25.891  51.387  1.00  0.00     0.000 C 
BRANCH  21  22
ATOM     22  C   UNL     1      59.005  26.376  50.000  1.00  0.00    -0.000 C 
BRANCH  22  23
ATOM     23  C   UNL     1      59.901  27.624  50.070  1.00  0.00    -0.000 C 
BRANCH  23  24
ATOM     24  C   UNL     1      59.341  28.808  49.263  1.00  0.00    -0.000 C 
BRANCH  24  25
ATOM     25  C   UNL     1      58.257  29.596  50.030  1.00  0.00    -0.000 C 
BRANCH  25  26
ATOM     26  C   UNL     1      58.686  30.033  51.446  1.00  0.00    -0.000 C 
BRANCH  26  27
ATOM     27  C   UNL     1      57.934  29.349  52.604  1.00  0.00    -0.000 C 
BRANCH  27  28
ATOM     28  C   UNL     1      58.814  28.941  53.800  1.00  0.00    -0.000 C 
BRANCH  28  29
ATOM     29  C   UNL     1      58.207  27.796  54.626  1.00  0.00    -0.003 C 
ATOM     30  C   UNL     1      56.694  27.954  54.757  1.00  0.00     0.004 C 
ENDBRANCH  28  29
ENDBRANCH  27  28
ENDBRANCH  26  27
ENDBRANCH  25  26
ENDBRANCH  24  25
ENDBRANCH  23  24
ENDBRANCH  22  23
ENDBRANCH  21  22
ENDBRANCH  20  21
ENDBRANCH  19  20
ENDBRANCH  18  19
ENDBRANCH  17  18
ENDBRANCH   1  17
TORSDOF 26
ENDMDL
MODEL 6
REMARK VINA RESULT:    -2.782      2.366      5.375
REMARK INTER + INTRA:         -12.445
REMARK INTER:                  -7.117
REMARK INTRA:                  -5.328
REMARK UNBOUND:                -5.436
REMARK SMILES CCCCCCCCCCCCCCCCCCCCCCCCCCCC(=O)[O-]
REMARK SMILES IDX 15 1 16 2 17 3 18 4 19 5 20 6 21 7 22 8 23 9 24 10 25 11
REMARK SMILES IDX 26 12 27 13 28 14 29 15 30 16 14 17 13 18 12 19 11 20 10 21
REMARK SMILES IDX 9 22 8 23 7 24 6 25 5 26 4 27 3 28 2 29 1 30
REMARK H PARENT
REMARK Flexibility Score: inf
ROOT
ATOM      1  C   UNL     1      54.822  26.554  53.887  1.00  0.00     0.000 C 
ENDROOT
BRANCH   1   2
ATOM      2  C   UNL     1      55.044  25.908  55.267  1.00  0.00     0.000 C 
BRANCH   2   3
ATOM      3  C   UNL     1      55.910  26.728  56.240  1.00  0.00     0.000 C 
BRANCH   3   4
ATOM      4  C   UNL     1      55.995  28.215  55.855  1.00  0.00     0.000 C 
BRANCH   4   5
ATOM      5  C   UNL     1      57.446  28.677  55.623  1.00  0.00     0.000 C 
BRANCH   5   6
ATOM      6  C   UNL     1      58.270  27.714  54.746  1.00  0.00     0.000 C 
BRANCH   6   7
ATOM      7  C   UNL     1      58.907  28.423  53.536  1.00  0.00     0.000 C 
BRANCH   7   8
ATOM      8  C   UNL     1      57.905  29.321  52.779  1.00  0.00     0.000 C 
BRANCH   8   9
ATOM      9  C   UNL     1      58.511  30.042  51.561  1.00  0.00     0.000 C 
BRANCH   9  10
ATOM     10  C   UNL     1      58.061  29.498  50.191  1.00  0.00     0.000 C 
BRANCH  10  11
ATOM     11  C   UNL     1      59.188  28.927  49.307  1.00  0.00     0.000 C 
BRANCH  11  12
ATOM     12  C   UNL     1      60.081  27.864  49.977  1.00  0.00     0.006 C 
BRANCH  12  13
ATOM     13  C   UNL     1      59.476  26.448  49.988  1.00  0.00     0.053 C 
BRANCH  13  14
ATOM     14  C   UNL     1      60.224  25.510  50.886  1.00  0.00     0.041 C 
ATOM     15  O   UNL     1      61.272  24.944  50.480  1.00  0.00    -0.550 OA
ATOM     16  O   UNL     1      59.779  25.283  52.184  1.00  0.00    -0.550 OA
ENDBRANCH  13  14
ENDBRANCH  12  13
ENDBRANCH  11  12
ENDBRANCH  10  11
ENDBRANCH   9  10
ENDBRANCH   8   9
ENDBRANCH   7   8
ENDBRANCH   6   7
ENDBRANCH   5   6
ENDBRANCH   4   5
ENDBRANCH   3   4
ENDBRANCH   2   3
ENDBRANCH   1   2
BRANCH   1  17
ATOM     17  C   UNL     1      55.180  25.612  52.726  1.00  0.00     0.000 C 
BRANCH  17  18
ATOM     18  C   UNL     1      56.245  26.199  51.780  1.00  0.00     0.000 C 
BRANCH  18  19
ATOM     19  C   UNL     1      55.734  26.608  50.384  1.00  0.00     0.000 C 
BRANCH  19  20
ATOM     20  C   UNL     1      54.208  26.507  50.182  1.00  0.00     0.000 C 
BRANCH  20  21
ATOM     21  C   UNL     1      53.454  27.848  50.255  1.00  0.00     0.000 C 
BRANCH  21  22
ATOM     22  C   UNL     1      54.395  29.047  50.453  1.00  0.00    -0.000 C 
BRANCH  22  23
ATOM     23  C   UNL     1      53.804  30.117  51.385  1.00  0.00    -0.000 C 
BRANCH  23  24
ATOM     24  C   UNL     1      54.422  30.090  52.795  1.00  0.00    -0.000 C 
BRANCH  24  25
ATOM     25  C   UNL     1      54.974  31.464  53.232  1.00  0.00    -0.000 C 
BRANCH  25  26
ATOM     26  C   UNL     1      55.241  31.578  54.746  1.00  0.00    -0.000 C 
BRANCH  26  27
ATOM     27  C   UNL     1      56.458  32.437  55.139  1.00  0.00    -0.000 C 
BRANCH  27  28
ATOM     28  C   UNL     1      56.399  33.903  54.671  1.00  0.00    -0.000 C 
BRANCH  28  29
ATOM     29  C   UNL     1      57.483  34.246  53.638  1.00  0.00    -0.003 C 
ATOM     30  C   UNL     1      58.455  33.082  53.455  1.00  0.00     0.004 C 
ENDBRANCH  28  29
ENDBRANCH  27  28
ENDBRANCH  26  27
ENDBRANCH  25  26
ENDBRANCH  24  25
ENDBRANCH  23  24
ENDBRANCH  22  23
ENDBRANCH  21  22
ENDBRANCH  20  21
ENDBRANCH  19  20
ENDBRANCH  18  19
ENDBRANCH  17  18
ENDBRANCH   1  17
TORSDOF 26
ENDMDL
MODEL 7
REMARK VINA RESULT:    -2.773      3.494      6.191
REMARK INTER + INTRA:         -12.423
REMARK INTER:                  -6.424
REMARK INTRA:                  -5.999
REMARK UNBOUND:                -5.436
REMARK SMILES CCCCCCCCCCCCCCCCCCCCCCCCCCCC(=O)[O-]
REMARK SMILES IDX 15 1 16 2 17 3 18 4 19 5 20 6 21 7 22 8 23 9 24 10 25 11
REMARK SMILES IDX 26 12 27 13 28 14 29 15 30 16 14 17 13 18 12 19 11 20 10 21
REMARK SMILES IDX 9 22 8 23 7 24 6 25 5 26 4 27 3 28 2 29 1 30
REMARK H PARENT
REMARK Flexibility Score: inf
ROOT
ATOM      1  C   UNL     1      55.817  28.760  50.719  1.00  0.00     0.000 C 
ENDROOT
BRANCH   1   2
ATOM      2  C   UNL     1      54.580  29.609  51.063  1.00  0.00     0.000 C 
BRANCH   2   3
ATOM      3  C   UNL     1      53.257  29.115  50.450  1.00  0.00     0.000 C 
BRANCH   3   4
ATOM      4  C   UNL     1      53.310  27.636  50.031  1.00  0.00     0.000 C 
BRANCH   4   5
ATOM      5  C   UNL     1      52.927  26.687  51.183  1.00  0.00     0.000 C 
BRANCH   5   6
ATOM      6  C   UNL     1      53.990  25.610  51.476  1.00  0.00     0.000 C 
BRANCH   6   7
ATOM      7  C   UNL     1      54.533  25.698  52.915  1.00  0.00     0.000 C 
BRANCH   7   8
ATOM      8  C   UNL     1      54.016  26.943  53.669  1.00  0.00     0.000 C 
BRANCH   8   9
ATOM      9  C   UNL     1      55.118  27.732  54.398  1.00  0.00     0.000 C 
BRANCH   9  10
ATOM     10  C   UNL     1      54.751  29.185  54.756  1.00  0.00     0.000 C 
BRANCH  10  11
ATOM     11  C   UNL     1      55.921  30.189  54.715  1.00  0.00     0.000 C 
BRANCH  11  12
ATOM     12  C   UNL     1      55.518  31.677  54.694  1.00  0.00     0.006 C 
BRANCH  12  13
ATOM     13  C   UNL     1      55.827  32.394  53.366  1.00  0.00     0.053 C 
BRANCH  13  14
ATOM     14  C   UNL     1      55.646  33.878  53.460  1.00  0.00     0.041 C 
ATOM     15  O   UNL     1      56.648  34.639  53.502  1.00  0.00    -0.550 OA
ATOM     16  O   UNL     1      54.367  34.426  53.471  1.00  0.00    -0.550 OA
ENDBRANCH  13  14
ENDBRANCH  12  13
ENDBRANCH  11  12
ENDBRANCH  10  11
ENDBRANCH   9  10
ENDBRANCH   8   9
ENDBRANCH   7   8
ENDBRANCH   6   7
ENDBRANCH   5   6
ENDBRANCH   4   5
ENDBRANCH   3   4
ENDBRANCH   2   3
ENDBRANCH   1   2
BRANCH   1  17
ATOM     17  C   UNL     1      57.071  29.194  51.497  1.00  0.00     0.000 C 
BRANCH  17  18
ATOM     18  C   UNL     1      58.240  29.595  50.579  1.00  0.00     0.000 C 
BRANCH  18  19
ATOM     19  C   UNL     1      59.432  30.273  51.286  1.00  0.00     0.000 C 
BRANCH  19  20
ATOM     20  C   UNL     1      59.120  30.886  52.667  1.00  0.00     0.000 C 
BRANCH  20  21
ATOM     21  C   UNL     1      59.709  30.117  53.865  1.00  0.00     0.000 C 
BRANCH  21  22
ATOM     22  C   UNL     1      60.756  29.074  53.443  1.00  0.00    -0.000 C 
BRANCH  22  23
ATOM     23  C   UNL     1      60.368  27.644  53.856  1.00  0.00    -0.000 C 
BRANCH  23  24
ATOM     24  C   UNL     1      58.873  27.504  54.193  1.00  0.00    -0.000 C 
BRANCH  24  25
ATOM     25  C   UNL     1      58.208  26.310  53.474  1.00  0.00    -0.000 C 
BRANCH  25  26
ATOM     26  C   UNL     1      59.078  25.684  52.365  1.00  0.00    -0.000 C 
BRANCH  26  27
ATOM     27  C   UNL     1      58.538  25.850  50.931  1.00  0.00    -0.000 C 
BRANCH  27  28
ATOM     28  C   UNL     1      59.542  26.438  49.921  1.00  0.00    -0.000 C 
BRANCH  28  29
ATOM     29  C   UNL     1      60.983  26.459  50.454  1.00  0.00    -0.003 C 
ATOM     30  C   UNL     1      61.700  27.745  50.049  1.00  0.00     0.004 C 
ENDBRANCH  28  29
ENDBRANCH  27  28
ENDBRANCH  26  27
ENDBRANCH  25  26
ENDBRANCH  24  25
ENDBRANCH  23  24
ENDBRANCH  22  23
ENDBRANCH  21  22
ENDBRANCH  20  21
ENDBRANCH  19  20
ENDBRANCH  18  19
ENDBRANCH  17  18
ENDBRANCH   1  17
TORSDOF 26
ENDMDL
MODEL 8
REMARK VINA RESULT:    -2.720      4.451      7.537
REMARK INTER + INTRA:         -12.291
REMARK INTER:                  -6.748
REMARK INTRA:                  -5.544
REMARK UNBOUND:                -5.436
REMARK SMILES CCCCCCCCCCCCCCCCCCCCCCCCCCCC(=O)[O-]
REMARK SMILES IDX 15 1 16 2 17 3 18 4 19 5 20 6 21 7 22 8 23 9 24 10 25 11
REMARK SMILES IDX 26 12 27 13 28 14 29 15 30 16 14 17 13 18 12 19 11 20 10 21
REMARK SMILES IDX 9 22 8 23 7 24 6 25 5 26 4 27 3 28 2 29 1 30
REMARK H PARENT
REMARK Flexibility Score: inf
ROOT
ATOM      1  C   UNL     1      58.156  30.035  51.934  1.00  0.00     0.000 C 
ENDROOT
BRANCH   1   2
ATOM      2  C   UNL     1      57.717  29.378  50.612  1.00  0.00     0.000 C 
BRANCH   2   3
ATOM      3  C   UNL     1      58.838  29.184  49.576  1.00  0.00     0.000 C 
BRANCH   3   4
ATOM      4  C   UNL     1      59.395  27.750  49.561  1.00  0.00     0.000 C 
BRANCH   4   5
ATOM      5  C   UNL     1      60.724  27.631  50.331  1.00  0.00     0.000 C 
BRANCH   5   6
ATOM      6  C   UNL     1      61.729  28.753  50.007  1.00  0.00     0.000 C 
BRANCH   6   7
ATOM      7  C   UNL     1      62.492  29.235  51.255  1.00  0.00     0.000 C 
BRANCH   7   8
ATOM      8  C   UNL     1      61.624  29.199  52.532  1.00  0.00     0.000 C 
BRANCH   8   9
ATOM      9  C   UNL     1      62.019  30.252  53.584  1.00  0.00     0.000 C 
BRANCH   9  10
ATOM     10  C   UNL     1      60.887  30.678  54.537  1.00  0.00     0.000 C 
BRANCH  10  11
ATOM     11  C   UNL     1      60.367  32.116  54.342  1.00  0.00     0.000 C 
BRANCH  11  12
ATOM     12  C   UNL     1      60.495  32.680  52.913  1.00  0.00     0.006 C 
BRANCH  12  13
ATOM     13  C   UNL     1      60.455  34.217  52.836  1.00  0.00     0.053 C 
BRANCH  13  14
ATOM     14  C   UNL     1      61.777  34.807  52.450  1.00  0.00     0.041 C 
ATOM     15  O   UNL     1      62.394  35.561  53.248  1.00  0.00    -0.550 OA
ATOM     16  O   UNL     1      62.345  34.502  51.217  1.00  0.00    -0.550 OA
ENDBRANCH  13  14
ENDBRANCH  12  13
ENDBRANCH  11  12
ENDBRANCH  10  11
ENDBRANCH   9  10
ENDBRANCH   8   9
ENDBRANCH   7   8
ENDBRANCH   6   7
ENDBRANCH   5   6
ENDBRANCH   4   5
ENDBRANCH   3   4
ENDBRANCH   2   3
ENDBRANCH   1   2
BRANCH   1  17
ATOM     17  C   UNL     1      57.945  29.119  53.151  1.00  0.00     0.000 C 
BRANCH  17  18
ATOM     18  C   UNL     1      57.899  27.625  52.779  1.00  0.00     0.000 C 
BRANCH  18  19
ATOM     19  C   UNL     1      56.754  26.819  53.425  1.00  0.00     0.000 C 
BRANCH  19  20
ATOM     20  C   UNL     1      55.892  25.995  52.445  1.00  0.00     0.000 C 
BRANCH  20  21
ATOM     21  C   UNL     1      56.174  26.258  50.955  1.00  0.00     0.000 C 
BRANCH  21  22
ATOM     22  C   UNL     1      54.902  26.600  50.161  1.00  0.00    -0.000 C 
BRANCH  22  23
ATOM     23  C   UNL     1      53.975  27.567  50.916  1.00  0.00    -0.000 C 
BRANCH  23  24
ATOM     24  C   UNL     1      54.025  29.000  50.357  1.00  0.00    -0.000 C 
BRANCH  24  25
ATOM     25  C   UNL     1      54.046  30.073  51.467  1.00  0.00    -0.000 C 
BRANCH  25  26
ATOM     26  C   UNL     1      54.305  29.509  52.878  1.00  0.00    -0.000 C 
BRANCH  26  27
ATOM     27  C   UNL     1      54.612  30.559  53.963  1.00  0.00    -0.000 C 
BRANCH  27  28
ATOM     28  C   UNL     1      55.246  31.864  53.446  1.00  0.00    -0.000 C 
BRANCH  28  29
ATOM     29  C   UNL     1      56.466  32.304  54.269  1.00  0.00    -0.003 C 
ATOM     30  C   UNL     1      56.919  33.707  53.874  1.00  0.00     0.004 C 
ENDBRANCH  28  29
ENDBRANCH  27  28
ENDBRANCH  26  27
ENDBRANCH  25  26
ENDBRANCH  24  25
ENDBRANCH  23  24
ENDBRANCH  22  23
ENDBRANCH  21  22
ENDBRANCH  20  21
ENDBRANCH  19  20
ENDBRANCH  18  19
ENDBRANCH  17  18
ENDBRANCH   1  17
TORSDOF 26
ENDMDL
MODEL 9
REMARK VINA RESULT:    -2.708      3.120      6.711
REMARK INTER + INTRA:         -12.261
REMARK INTER:                  -6.337
REMARK INTRA:                  -5.924
REMARK UNBOUND:                -5.436
REMARK SMILES CCCCCCCCCCCCCCCCCCCCCCCCCCCC(=O)[O-]
REMARK SMILES IDX 15 1 16 2 17 3 18 4 19 5 20 6 21 7 22 8 23 9 24 10 25 11
REMARK SMILES IDX 26 12 27 13 28 14 29 15 30 16 14 17 13 18 12 19 11 20 10 21
REMARK SMILES IDX 9 22 8 23 7 24 6 25 5 26 4 27 3 28 2 29 1 30
REMARK H PARENT
REMARK Flexibility Score: inf
ROOT
ATOM      1  C   UNL     1      54.284  27.506  50.415  1.00  0.00     0.000 C 
ENDROOT
BRANCH   1   2
ATOM      2  C   UNL     1      55.582  26.679  50.412  1.00  0.00     0.000 C 
BRANCH   2   3
ATOM      3  C   UNL     1      56.874  27.491  50.613  1.00  0.00     0.000 C 
BRANCH   3   4
ATOM      4  C   UNL     1      58.132  26.731  50.159  1.00  0.00     0.000 C 
BRANCH   4   5
ATOM      5  C   UNL     1      59.234  27.677  49.645  1.00  0.00     0.000 C 
BRANCH   5   6
ATOM      6  C   UNL     1      58.844  29.167  49.698  1.00  0.00     0.000 C 
BRANCH   6   7
ATOM      7  C   UNL     1      59.887  30.019  50.447  1.00  0.00     0.000 C 
BRANCH   7   8
ATOM      8  C   UNL     1      59.587  30.131  51.958  1.00  0.00     0.000 C 
BRANCH   8   9
ATOM      9  C   UNL     1      58.122  30.477  52.278  1.00  0.00     0.000 C 
BRANCH   9  10
ATOM     10  C   UNL     1      57.820  30.720  53.769  1.00  0.00     0.000 C 
BRANCH  10  11
ATOM     11  C   UNL     1      59.050  31.019  54.650  1.00  0.00     0.000 C 
BRANCH  11  12
ATOM     12  C   UNL     1      59.177  30.163  55.926  1.00  0.00     0.006 C 
BRANCH  12  13
ATOM     13  C   UNL     1      57.828  29.717  56.521  1.00  0.00     0.053 C 
BRANCH  13  14
ATOM     14  C   UNL     1      57.289  30.697  57.519  1.00  0.00     0.041 C 
ATOM     15  O   UNL     1      56.102  30.599  57.927  1.00  0.00    -0.550 OA
ATOM     16  O   UNL     1      58.108  31.703  58.021  1.00  0.00    -0.550 OA
ENDBRANCH  13  14
ENDBRANCH  12  13
ENDBRANCH  11  12
ENDBRANCH  10  11
ENDBRANCH   9  10
ENDBRANCH   8   9
ENDBRANCH   7   8
ENDBRANCH   6   7
ENDBRANCH   5   6
ENDBRANCH   4   5
ENDBRANCH   3   4
ENDBRANCH   2   3
ENDBRANCH   1   2
BRANCH   1  17
ATOM     17  C   UNL     1      54.545  29.021  50.466  1.00  0.00     0.000 C 
BRANCH  17  18
ATOM     18  C   UNL     1      53.600  29.763  51.429  1.00  0.00     0.000 C 
BRANCH  18  19
ATOM     19  C   UNL     1      54.182  30.064  52.826  1.00  0.00     0.000 C 
BRANCH  19  20
ATOM     20  C   UNL     1      54.145  28.889  53.824  1.00  0.00     0.000 C 
BRANCH  20  21
ATOM     21  C   UNL     1      55.490  28.167  54.026  1.00  0.00     0.000 C 
BRANCH  21  22
ATOM     22  C   UNL     1      55.327  26.649  54.206  1.00  0.00    -0.000 C 
BRANCH  22  23
ATOM     23  C   UNL     1      56.631  25.877  53.943  1.00  0.00    -0.000 C 
BRANCH  23  24
ATOM     24  C   UNL     1      57.861  26.548  54.578  1.00  0.00    -0.000 C 
BRANCH  24  25
ATOM     25  C   UNL     1      58.914  26.976  53.534  1.00  0.00    -0.000 C 
BRANCH  25  26
ATOM     26  C   UNL     1      60.334  27.148  54.110  1.00  0.00    -0.000 C 
BRANCH  26  27
ATOM     27  C   UNL     1      61.476  27.098  53.077  1.00  0.00    -0.000 C 
BRANCH  27  28
ATOM     28  C   UNL     1      61.362  25.970  52.034  1.00  0.00    -0.000 C 
BRANCH  28  29
ATOM     29  C   UNL     1      62.413  26.079  50.919  1.00  0.00    -0.003 C 
ATOM     30  C   UNL     1      62.779  27.536  50.648  1.00  0.00     0.004 C 
ENDBRANCH  28  29
ENDBRANCH  27  28
ENDBRANCH  26  27
ENDBRANCH  25  26
ENDBRANCH  24  25
ENDBRANCH  23  24
ENDBRANCH  22  23
ENDBRANCH  21  22
ENDBRANCH  20  21
ENDBRANCH  19  20
ENDBRANCH  18  19
ENDBRANCH  17  18
ENDBRANCH   1  17
TORSDOF 26
ENDMDL
