MODEL 1
REMARK VINA RESULT:    -4.516      0.000      0.000
REMARK INTER + INTRA:          -7.816
REMARK INTER:                  -6.891
REMARK INTRA:                  -0.925
REMARK UNBOUND:                -0.925
REMARK SMILES O=C([O-])CCCCCCCCC(=O)[O-]
REMARK SMILES IDX 7 1 6 2 5 3 4 4 2 5 1 6 3 7 8 8 9 9 10 10 11 11 12 12 13 13
REMARK SMILES IDX 14 14
REMARK H PARENT
REMARK Flexibility Score: inf
ROOT
ATOM      1  C   UNL     1      63.375  30.213  13.570  1.00  0.00     0.000 C 
ENDROOT
BRANCH   1   2
ATOM      2  C   UNL     1      63.430  31.383  12.577  1.00  0.00     0.000 C 
BRANCH   2   3
ATOM      3  C   UNL     1      62.858  32.662  13.204  1.00  0.00     0.006 C 
BRANCH   3   4
ATOM      4  C   UNL     1      61.334  32.755  13.048  1.00  0.00     0.053 C 
BRANCH   4   5
ATOM      5  C   UNL     1      60.638  32.758  14.375  1.00  0.00     0.041 C 
ATOM      6  O   UNL     1      61.105  33.428  15.333  1.00  0.00    -0.550 OA
ATOM      7  O   UNL     1      59.456  32.048  14.541  1.00  0.00    -0.550 OA
ENDBRANCH   4   5
ENDBRANCH   3   4
ENDBRANCH   2   3
ENDBRANCH   1   2
BRANCH   1   8
ATOM      8  C   UNL     1      62.579  29.013  13.030  1.00  0.00     0.000 C 
BRANCH   8   9
ATOM      9  C   UNL     1      61.121  29.005  13.510  1.00  0.00     0.000 C 
BRANCH   9  10
ATOM     10  C   UNL     1      60.162  28.717  12.348  1.00  0.00     0.006 C 
BRANCH  10  11
ATOM     11  C   UNL     1      60.432  29.653  11.166  1.00  0.00     0.053 C 
BRANCH  11  12
ATOM     12  C   UNL     1      60.674  28.865   9.918  1.00  0.00     0.041 C 
ATOM     13  O   UNL     1      61.849  28.657   9.518  1.00  0.00    -0.550 OA
ATOM     14  O   UNL     1      59.600  28.401   9.169  1.00  0.00    -0.550 OA
ENDBRANCH  11  12
ENDBRANCH  10  11
ENDBRANCH   9  10
ENDBRANCH   8   9
ENDBRANCH   1   8
TORSDOF 9
ENDMDL
MODEL 2
REMARK VINA RESULT:    -4.485      0.475      5.296
REMARK INTER + INTRA:          -7.770
REMARK INTER:                  -6.894
REMARK INTRA:                  -0.876
REMARK UNBOUND:                -0.925
REMARK SMILES O=C([O-])CCCCCCCCC(=O)[O-]
REMARK SMILES IDX 7 1 6 2 5 3 4 4 2 5 1 6 3 7 8 8 9 9 10 10 11 11 12 12 13 13
REMARK SMILES IDX 14 14
REMARK H PARENT
REMARK Flexibility Score: inf
ROOT
ATOM      1  C   UNL     1      62.601  28.978  13.404  1.00  0.00     0.000 C 
ENDROOT
BRANCH   1   2
ATOM      2  C   UNL     1      61.091  29.260  13.410  1.00  0.00     0.000 C 
BRANCH   2   3
ATOM      3  C   UNL     1      60.383  28.474  12.298  1.00  0.00     0.006 C 
BRANCH   3   4
ATOM      4  C   UNL     1      60.241  29.291  11.007  1.00  0.00     0.053 C 
BRANCH   4   5
ATOM      5  C   UNL     1      61.107  28.752   9.910  1.00  0.00     0.041 C 
ATOM      6  O   UNL     1      62.344  28.986   9.907  1.00  0.00    -0.550 OA
ATOM      7  O   UNL     1      60.553  27.964   8.909  1.00  0.00    -0.550 OA
ENDBRANCH   4   5
ENDBRANCH   3   4
ENDBRANCH   2   3
ENDBRANCH   1   2
BRANCH   1   8
ATOM      8  C   UNL     1      63.444  30.264  13.377  1.00  0.00     0.000 C 
BRANCH   8   9
ATOM      9  C   UNL     1      62.884  31.320  12.413  1.00  0.00     0.000 C 
BRANCH   9  10
ATOM     10  C   UNL     1      62.618  32.642  13.142  1.00  0.00     0.006 C 
BRANCH  10  11
ATOM     11  C   UNL     1      61.130  33.005  13.098  1.00  0.00     0.053 C 
BRANCH  11  12
ATOM     12  C   UNL     1      60.532  32.928  14.467  1.00  0.00     0.041 C 
ATOM     13  O   UNL     1      59.556  32.165  14.690  1.00  0.00    -0.550 OA
ATOM     14  O   UNL     1      61.020  33.736  15.486  1.00  0.00    -0.550 OA
ENDBRANCH  11  12
ENDBRANCH  10  11
ENDBRANCH   9  10
ENDBRANCH   8   9
ENDBRANCH   1   8
TORSDOF 9
ENDMDL
MODEL 3
REMARK VINA RESULT:    -4.453     13.249     14.397
REMARK INTER + INTRA:          -7.721
REMARK INTER:                  -6.777
REMARK INTRA:                  -0.944
REMARK UNBOUND:                -0.925
REMARK SMILES O=C([O-])CCCCCCCCC(=O)[O-]
REMARK SMILES IDX 7 1 6 2 5 3 4 4 2 5 1 6 3 7 8 8 9 9 10 10 11 11 12 12 13 13
REMARK SMILES IDX 14 14
REMARK H PARENT
REMARK Flexibility Score: inf
ROOT
ATOM      1  C   UNL     1      63.988  30.029  26.270  1.00  0.00     0.000 C 
ENDROOT
BRANCH   1   2
ATOM      2  C   UNL     1      65.406  29.475  26.471  1.00  0.00     0.000 C 
BRANCH   2   3
ATOM      3  C   UNL     1      65.695  28.336  25.483  1.00  0.00     0.006 C 
BRANCH   3   4
ATOM      4  C   UNL     1      64.821  27.103  25.746  1.00  0.00     0.053 C 
BRANCH   4   5
ATOM      5  C   UNL     1      64.725  26.221  24.539  1.00  0.00     0.041 C 
ATOM      6  O   UNL     1      65.719  26.077  23.779  1.00  0.00    -0.550 OA
ATOM      7  O   UNL     1      63.548  25.532  24.272  1.00  0.00    -0.550 OA
ENDBRANCH   4   5
ENDBRANCH   3   4
ENDBRANCH   2   3
ENDBRANCH   1   2
BRANCH   1   8
ATOM      8  C   UNL     1      63.243  30.248  27.597  1.00  0.00     0.000 C 
BRANCH   8   9
ATOM      9  C   UNL     1      62.831  28.930  28.269  1.00  0.00     0.000 C 
BRANCH   9  10
ATOM     10  C   UNL     1      61.415  28.518  27.847  1.00  0.00     0.006 C 
BRANCH  10  11
ATOM     11  C   UNL     1      61.433  27.189  27.086  1.00  0.00     0.053 C 
BRANCH  11  12
ATOM     12  C   UNL     1      60.820  27.353  25.732  1.00  0.00     0.041 C 
ATOM     13  O   UNL     1      61.318  28.159  24.903  1.00  0.00    -0.550 OA
ATOM     14  O   UNL     1      59.667  26.651  25.401  1.00  0.00    -0.550 OA
ENDBRANCH  11  12
ENDBRANCH  10  11
ENDBRANCH   9  10
ENDBRANCH   8   9
ENDBRANCH   1   8
TORSDOF 9
ENDMDL
MODEL 4
REMARK VINA RESULT:    -4.387     12.611     14.147
REMARK INTER + INTRA:          -7.621
REMARK INTER:                  -6.581
REMARK INTRA:                  -1.040
REMARK UNBOUND:                -0.925
REMARK SMILES O=C([O-])CCCCCCCCC(=O)[O-]
REMARK SMILES IDX 7 1 6 2 5 3 4 4 2 5 1 6 3 7 8 8 9 9 10 10 11 11 12 12 13 13
REMARK SMILES IDX 14 14
REMARK H PARENT
REMARK Flexibility Score: inf
ROOT
ATOM      1  C   UNL     1      63.169  30.175  27.621  1.00  0.00     0.000 C 
ENDROOT
BRANCH   1   2
ATOM      2  C   UNL     1      62.894  28.818  28.286  1.00  0.00     0.000 C 
BRANCH   2   3
ATOM      3  C   UNL     1      61.474  28.329  27.968  1.00  0.00     0.006 C 
BRANCH   3   4
ATOM      4  C   UNL     1      61.471  27.134  27.006  1.00  0.00     0.053 C 
BRANCH   4   5
ATOM      5  C   UNL     1      60.749  27.447  25.732  1.00  0.00     0.041 C 
ATOM      6  O   UNL     1      61.162  28.369  24.980  1.00  0.00    -0.550 OA
ATOM      7  O   UNL     1      59.639  26.699  25.359  1.00  0.00    -0.550 OA
ENDBRANCH   4   5
ENDBRANCH   3   4
ENDBRANCH   2   3
ENDBRANCH   1   2
BRANCH   1   8
ATOM      8  C   UNL     1      63.991  30.047  26.328  1.00  0.00     0.000 C 
BRANCH   8   9
ATOM      9  C   UNL     1      65.348  29.364  26.554  1.00  0.00     0.000 C 
BRANCH   9  10
ATOM     10  C   UNL     1      65.663  28.379  25.422  1.00  0.00     0.006 C 
BRANCH  10  11
ATOM     11  C   UNL     1      64.812  27.111  25.544  1.00  0.00     0.053 C 
BRANCH  11  12
ATOM     12  C   UNL     1      64.204  26.759  24.223  1.00  0.00     0.041 C 
ATOM     13  O   UNL     1      63.931  25.561  23.949  1.00  0.00    -0.550 OA
ATOM     14  O   UNL     1      63.984  27.749  23.273  1.00  0.00    -0.550 OA
ENDBRANCH  11  12
ENDBRANCH  10  11
ENDBRANCH   9  10
ENDBRANCH   8   9
ENDBRANCH   1   8
TORSDOF 9
ENDMDL
MODEL 5
REMARK VINA RESULT:    -4.372      1.775      2.371
REMARK INTER + INTRA:          -7.597
REMARK INTER:                  -6.616
REMARK INTRA:                  -0.981
REMARK UNBOUND:                -0.925
REMARK SMILES O=C([O-])CCCCCCCCC(=O)[O-]
REMARK SMILES IDX 7 1 6 2 5 3 4 4 2 5 1 6 3 7 8 8 9 9 10 10 11 11 12 12 13 13
REMARK SMILES IDX 14 14
REMARK H PARENT
REMARK Flexibility Score: inf
ROOT
ATOM      1  C   UNL     1      64.080  30.423  11.924  1.00  0.00     0.000 C 
ENDROOT
BRANCH   1   2
ATOM      2  C   UNL     1      63.481  31.836  11.858  1.00  0.00     0.000 C 
BRANCH   2   3
ATOM      3  C   UNL     1      62.760  32.187  13.167  1.00  0.00     0.006 C 
BRANCH   3   4
ATOM      4  C   UNL     1      61.250  32.375  12.967  1.00  0.00     0.053 C 
BRANCH   4   5
ATOM      5  C   UNL     1      60.527  32.503  14.273  1.00  0.00     0.041 C 
ATOM      6  O   UNL     1      61.065  33.108  15.237  1.00  0.00    -0.550 OA
ATOM      7  O   UNL     1      59.246  31.984  14.413  1.00  0.00    -0.550 OA
ENDBRANCH   4   5
ENDBRANCH   3   4
ENDBRANCH   2   3
ENDBRANCH   1   2
BRANCH   1   8
ATOM      8  C   UNL     1      63.734  29.574  10.689  1.00  0.00     0.000 C 
BRANCH   8   9
ATOM      9  C   UNL     1      62.343  29.893  10.122  1.00  0.00     0.000 C 
BRANCH   9  10
ATOM     10  C   UNL     1      61.356  28.758  10.420  1.00  0.00     0.006 C 
BRANCH  10  11
ATOM     11  C   UNL     1      60.138  29.277  11.191  1.00  0.00     0.053 C 
BRANCH  11  12
ATOM     12  C   UNL     1      60.069  28.648  12.546  1.00  0.00     0.041 C 
ATOM     13  O   UNL     1      59.031  28.034  12.908  1.00  0.00    -0.550 OA
ATOM     14  O   UNL     1      61.132  28.782  13.430  1.00  0.00    -0.550 OA
ENDBRANCH  11  12
ENDBRANCH  10  11
ENDBRANCH   9  10
ENDBRANCH   8   9
ENDBRANCH   1   8
TORSDOF 9
ENDMDL
MODEL 6
REMARK VINA RESULT:    -4.354      1.789      4.786
REMARK INTER + INTRA:          -7.570
REMARK INTER:                  -6.587
REMARK INTRA:                  -0.982
REMARK UNBOUND:                -0.925
REMARK SMILES O=C([O-])CCCCCCCCC(=O)[O-]
REMARK SMILES IDX 7 1 6 2 5 3 4 4 2 5 1 6 3 7 8 8 9 9 10 10 11 11 12 12 13 13
REMARK SMILES IDX 14 14
REMARK H PARENT
REMARK Flexibility Score: inf
ROOT
ATOM      1  C   UNL     1      63.450  29.826  10.989  1.00  0.00     0.000 C 
ENDROOT
BRANCH   1   2
ATOM      2  C   UNL     1      62.545  29.412   9.820  1.00  0.00     0.000 C 
BRANCH   2   3
ATOM      3  C   UNL     1      61.341  28.601  10.319  1.00  0.00     0.006 C 
BRANCH   3   4
ATOM      4  C   UNL     1      60.396  29.439  11.191  1.00  0.00     0.053 C 
BRANCH   4   5
ATOM      5  C   UNL     1      60.087  28.758  12.489  1.00  0.00     0.041 C 
ATOM      6  O   UNL     1      58.963  28.219  12.669  1.00  0.00    -0.550 OA
ATOM      7  O   UNL     1      61.052  28.689  13.486  1.00  0.00    -0.550 OA
ENDBRANCH   4   5
ENDBRANCH   3   4
ENDBRANCH   2   3
ENDBRANCH   1   2
BRANCH   1   8
ATOM      8  C   UNL     1      64.123  31.190  10.764  1.00  0.00     0.000 C 
BRANCH   8   9
ATOM      9  C   UNL     1      63.858  32.177  11.910  1.00  0.00     0.000 C 
BRANCH   9  10
ATOM     10  C   UNL     1      62.826  31.613  12.894  1.00  0.00     0.006 C 
BRANCH  10  11
ATOM     11  C   UNL     1      61.581  32.503  12.956  1.00  0.00     0.053 C 
BRANCH  11  12
ATOM     12  C   UNL     1      60.797  32.222  14.198  1.00  0.00     0.041 C 
ATOM     13  O   UNL     1      59.565  31.972  14.128  1.00  0.00    -0.550 OA
ATOM     14  O   UNL     1      61.416  32.285  15.440  1.00  0.00    -0.550 OA
ENDBRANCH  11  12
ENDBRANCH  10  11
ENDBRANCH   9  10
ENDBRANCH   8   9
ENDBRANCH   1   8
TORSDOF 9
ENDMDL
MODEL 7
REMARK VINA RESULT:    -4.287      2.538      3.604
REMARK INTER + INTRA:          -7.468
REMARK INTER:                  -6.802
REMARK INTRA:                  -0.666
REMARK UNBOUND:                -0.925
REMARK SMILES O=C([O-])CCCCCCCCC(=O)[O-]
REMARK SMILES IDX 7 1 6 2 5 3 4 4 2 5 1 6 3 7 8 8 9 9 10 10 11 11 12 12 13 13
REMARK SMILES IDX 14 14
REMARK H PARENT
REMARK Flexibility Score: inf
ROOT
ATOM      1  C   UNL     1      60.747  32.689  13.887  1.00  0.00     0.000 C 
ENDROOT
BRANCH   1   2
ATOM      2  C   UNL     1      61.100  33.762  14.928  1.00  0.00     0.000 C 
BRANCH   2   3
ATOM      3  C   UNL     1      61.562  33.119  16.243  1.00  0.00     0.006 C 
BRANCH   3   4
ATOM      4  C   UNL     1      62.990  33.534  16.623  1.00  0.00     0.053 C 
BRANCH   4   5
ATOM      5  C   UNL     1      63.000  34.550  17.723  1.00  0.00     0.041 C 
ATOM      6  O   UNL     1      63.943  35.380  17.810  1.00  0.00    -0.550 OA
ATOM      7  O   UNL     1      61.950  34.603  18.632  1.00  0.00    -0.550 OA
ENDBRANCH   4   5
ENDBRANCH   3   4
ENDBRANCH   2   3
ENDBRANCH   1   2
BRANCH   1   8
ATOM      8  C   UNL     1      61.957  32.268  13.036  1.00  0.00     0.000 C 
BRANCH   8   9
ATOM      9  C   UNL     1      62.614  30.975  13.539  1.00  0.00     0.000 C 
BRANCH   9  10
ATOM     10  C   UNL     1      61.557  29.959  13.987  1.00  0.00     0.006 C 
BRANCH  10  11
ATOM     11  C   UNL     1      61.423  28.820  12.972  1.00  0.00     0.053 C 
BRANCH  11  12
ATOM     12  C   UNL     1      60.103  28.895  12.272  1.00  0.00     0.041 C 
ATOM     13  O   UNL     1      59.110  28.266  12.723  1.00  0.00    -0.550 OA
ATOM     14  O   UNL     1      59.982  29.619  11.093  1.00  0.00    -0.550 OA
ENDBRANCH  11  12
ENDBRANCH  10  11
ENDBRANCH   9  10
ENDBRANCH   8   9
ENDBRANCH   1   8
TORSDOF 9
ENDMDL
MODEL 8
REMARK VINA RESULT:    -4.275      1.697      2.503
REMARK INTER + INTRA:          -7.449
REMARK INTER:                  -6.561
REMARK INTRA:                  -0.888
REMARK UNBOUND:                -0.925
REMARK SMILES O=C([O-])CCCCCCCCC(=O)[O-]
REMARK SMILES IDX 7 1 6 2 5 3 4 4 2 5 1 6 3 7 8 8 9 9 10 10 11 11 12 12 13 13
REMARK SMILES IDX 14 14
REMARK H PARENT
REMARK Flexibility Score: inf
ROOT
ATOM      1  C   UNL     1      64.514  32.028  11.408  1.00  0.00     0.000 C 
ENDROOT
BRANCH   1   2
ATOM      2  C   UNL     1      63.886  32.750  12.609  1.00  0.00     0.000 C 
BRANCH   2   3
ATOM      3  C   UNL     1      62.680  31.968  13.149  1.00  0.00     0.006 C 
BRANCH   3   4
ATOM      4  C   UNL     1      61.355  32.705  12.913  1.00  0.00     0.053 C 
BRANCH   4   5
ATOM      5  C   UNL     1      60.575  32.867  14.182  1.00  0.00     0.041 C 
ATOM      6  O   UNL     1      59.611  32.098  14.435  1.00  0.00    -0.550 OA
ATOM      7  O   UNL     1      60.935  33.846  15.100  1.00  0.00    -0.550 OA
ENDBRANCH   4   5
ENDBRANCH   3   4
ENDBRANCH   2   3
ENDBRANCH   1   2
BRANCH   1   8
ATOM      8  C   UNL     1      64.241  30.515  11.417  1.00  0.00     0.000 C 
BRANCH   8   9
ATOM      9  C   UNL     1      64.082  29.933  10.004  1.00  0.00     0.000 C 
BRANCH   9  10
ATOM     10  C   UNL     1      62.669  29.375   9.796  1.00  0.00     0.006 C 
BRANCH  10  11
ATOM     11  C   UNL     1      62.054  28.925  11.124  1.00  0.00     0.053 C 
BRANCH  11  12
ATOM     12  C   UNL     1      60.646  29.418  11.243  1.00  0.00     0.041 C 
ATOM     13  O   UNL     1      60.072  29.942  10.253  1.00  0.00    -0.550 OA
ATOM     14  O   UNL     1      59.985  29.343  12.462  1.00  0.00    -0.550 OA
ENDBRANCH  11  12
ENDBRANCH  10  11
ENDBRANCH   9  10
ENDBRANCH   8   9
ENDBRANCH   1   8
TORSDOF 9
ENDMDL
MODEL 9
REMARK VINA RESULT:    -4.239     11.892     14.022
REMARK INTER + INTRA:          -7.394
REMARK INTER:                  -6.369
REMARK INTRA:                  -1.025
REMARK UNBOUND:                -0.925
REMARK SMILES O=C([O-])CCCCCCCCC(=O)[O-]
REMARK SMILES IDX 7 1 6 2 5 3 4 4 2 5 1 6 3 7 8 8 9 9 10 10 11 11 12 12 13 13
REMARK SMILES IDX 14 14
REMARK H PARENT
REMARK Flexibility Score: inf
ROOT
ATOM      1  C   UNL     1      63.820  25.948  24.616  1.00  0.00     0.000 C 
ENDROOT
BRANCH   1   2
ATOM      2  C   UNL     1      65.349  26.066  24.692  1.00  0.00     0.000 C 
BRANCH   2   3
ATOM      3  C   UNL     1      65.882  26.998  23.595  1.00  0.00     0.006 C 
BRANCH   3   4
ATOM      4  C   UNL     1      66.006  28.450  24.074  1.00  0.00     0.053 C 
BRANCH   4   5
ATOM      5  C   UNL     1      64.997  29.341  23.416  1.00  0.00     0.041 C 
ATOM      6  O   UNL     1      64.074  28.845  22.719  1.00  0.00    -0.550 OA
ATOM      7  O   UNL     1      65.057  30.717  23.602  1.00  0.00    -0.550 OA
ENDBRANCH   4   5
ENDBRANCH   3   4
ENDBRANCH   2   3
ENDBRANCH   1   2
BRANCH   1   8
ATOM      8  C   UNL     1      63.109  26.717  25.743  1.00  0.00     0.000 C 
BRANCH   8   9
ATOM      9  C   UNL     1      61.884  27.497  25.246  1.00  0.00     0.000 C 
BRANCH   9  10
ATOM     10  C   UNL     1      62.016  28.990  25.569  1.00  0.00     0.006 C 
BRANCH  10  11
ATOM     11  C   UNL     1      63.110  29.233  26.613  1.00  0.00     0.053 C 
BRANCH  11  12
ATOM     12  C   UNL     1      62.507  29.657  27.914  1.00  0.00     0.041 C 
ATOM     13  O   UNL     1      61.490  29.067  28.365  1.00  0.00    -0.550 OA
ATOM     14  O   UNL     1      63.038  30.738  28.607  1.00  0.00    -0.550 OA
ENDBRANCH  11  12
ENDBRANCH  10  11
ENDBRANCH   9  10
ENDBRANCH   8   9
ENDBRANCH   1   8
TORSDOF 9
ENDMDL
