MODEL 1
REMARK VINA RESULT:    -2.587      0.000      0.000
REMARK INTER + INTRA:          -2.933
REMARK INTER:                  -3.947
REMARK INTRA:                   1.015
REMARK UNBOUND:                 1.015
REMARK SMILES CC1=CCC[C@H](C)C(=O)C[C@@H](C(C)C)C(=O)C1
REMARK SMILES IDX 8 1 9 2 6 3 7 4 5 5 4 6 3 7 2 8 1 9 10 11 11 12 15 13 16 14
REMARK SMILES IDX 17 15 12 17 13 18 14 19
REMARK H PARENT
REMARK Flexibility Score: 70.00
ROOT
ATOM      1  C   UNL     1      10.314   9.438   0.004  1.00  0.00     0.136 C 
ATOM      2  O   UNL     1       9.693   9.498  -1.047  1.00  0.00    -0.299 OA
ENDROOT
BRANCH   1   3
ATOM      3  C   UNL     1      11.531  10.327   0.186  1.00  0.00     0.053 C 
ATOM      4  C   UNL     1      11.889  11.042  -1.124  1.00  0.00     0.016 C 
BRANCH   3   5
ATOM      5  C   UNL     1      11.322  11.335   1.333  1.00  0.00     0.015 C 
BRANCH   5   6
ATOM      6  C   UNL     1      12.574  11.465   2.222  1.00  0.00     0.028 C 
BRANCH   6   7
ATOM      7  C   UNL     1      12.413  10.716   3.519  1.00  0.00    -0.028 C 
ATOM      8  C   UNL     1      12.433   9.369   3.638  1.00  0.00    -0.070 CG0
ATOM      9  C   UNL     1      12.233   8.774   5.008  1.00  0.00     0.039 C 
ATOM     10  G   UNL     1      12.637   8.428   2.461  1.00  0.00     0.000 G0
ENDBRANCH   6   7
ENDBRANCH   5   6
ENDBRANCH   3   5
ENDBRANCH   1   3
BRANCH   1  11
ATOM     11  C   UNL     1       9.811   8.539   1.117  1.00  0.00     0.087 C 
BRANCH  11  12
ATOM     12  C   UNL     1      10.569   7.196   1.284  1.00  0.00     0.066 C 
BRANCH  12  13
ATOM     13  C   UNL     1      11.600   7.296   2.402  1.00  0.00     0.140 C 
ATOM     14  O   UNL     1      11.612   6.425   3.262  1.00  0.00    -0.299 OA
BRANCH  13  15
ATOM     15  C   UNL     1      12.631   8.403   2.459  1.00  0.00     0.106 CG0
ATOM     16  G   UNL     1      12.421   9.333   3.644  1.00  0.00     0.000 G0
ENDBRANCH  13  15
ENDBRANCH  12  13
BRANCH  12  17
ATOM     17  C   UNL     1      11.138   6.571  -0.034  1.00  0.00    -0.006 C 
ATOM     18  C   UNL     1      12.666   6.395   0.060  1.00  0.00     0.008 C 
ATOM     19  C   UNL     1      10.511   5.202  -0.351  1.00  0.00     0.008 C 
ENDBRANCH  12  17
ENDBRANCH  11  12
ENDBRANCH   1  11
TORSDOF 1
ENDMDL
MODEL 2
REMARK VINA RESULT:    -2.009      1.682      4.016
REMARK INTER + INTRA:          -2.051
REMARK INTER:                  -3.387
REMARK INTRA:                   1.336
REMARK UNBOUND:                 1.015
REMARK SMILES CC1=CCC[C@H](C)C(=O)C[C@@H](C(C)C)C(=O)C1
REMARK SMILES IDX 8 1 9 2 6 3 7 4 5 5 4 6 3 7 2 8 1 9 10 11 11 12 15 13 16 14
REMARK SMILES IDX 17 15 12 17 13 18 14 19
REMARK H PARENT
REMARK Flexibility Score: 70.00
ROOT
ATOM      1  C   UNL     1      10.922  11.011   1.982  1.00  0.00     0.136 C 
ATOM      2  O   UNL     1       9.926  10.761   2.644  1.00  0.00    -0.299 OA
ENDROOT
BRANCH   1   3
ATOM      3  C   UNL     1      10.750  11.420   0.530  1.00  0.00     0.053 C 
ATOM      4  C   UNL     1      12.032  12.066  -0.013  1.00  0.00     0.016 C 
BRANCH   3   5
ATOM      5  C   UNL     1      10.315  10.225  -0.341  1.00  0.00     0.015 C 
BRANCH   5   6
ATOM      6  C   UNL     1      11.497   9.622  -1.125  1.00  0.00     0.028 C 
BRANCH   6   7
ATOM      7  C   UNL     1      11.537   8.122  -1.001  1.00  0.00    -0.028 C 
ATOM      8  C   UNL     1      12.230   7.445  -0.057  1.00  0.00    -0.070 CG0
ATOM      9  C   UNL     1      12.184   5.939  -0.084  1.00  0.00     0.039 C 
ATOM     10  G   UNL     1      13.057   8.127   1.023  1.00  0.00     0.000 G0
ENDBRANCH   6   7
ENDBRANCH   5   6
ENDBRANCH   3   5
ENDBRANCH   1   3
BRANCH   1  11
ATOM     11  C   UNL     1      12.285  10.980   2.644  1.00  0.00     0.087 C 
BRANCH  11  12
ATOM     12  C   UNL     1      12.719   9.604   3.215  1.00  0.00     0.066 C 
BRANCH  12  13
ATOM     13  C   UNL     1      12.300   8.477   2.278  1.00  0.00     0.140 C 
ATOM     14  O   UNL     1      11.274   7.861   2.532  1.00  0.00    -0.299 OA
BRANCH  13  15
ATOM     15  C   UNL     1      13.081   8.128   1.029  1.00  0.00     0.106 CG0
ATOM     16  G   UNL     1      12.225   7.431  -0.017  1.00  0.00     0.000 G0
ENDBRANCH  13  15
ENDBRANCH  12  13
BRANCH  12  17
ATOM     17  C   UNL     1      12.341   9.342   4.712  1.00  0.00    -0.006 C 
ATOM     18  C   UNL     1      13.088  10.317   5.643  1.00  0.00     0.008 C 
ATOM     19  C   UNL     1      10.830   9.488   4.969  1.00  0.00     0.008 C 
ENDBRANCH  12  17
ENDBRANCH  11  12
ENDBRANCH   1  11
TORSDOF 1
ENDMDL
