MODEL 1
REMARK VINA RESULT:    -2.774      0.000      0.000
REMARK INTER + INTRA:          -7.829
REMARK INTER:                  -5.044
REMARK INTRA:                  -2.784
REMARK UNBOUND:                -2.784
REMARK SMILES CCCCCCCCCCCCCCCC(=O)[O-]
REMARK SMILES IDX 9 1 10 2 11 3 12 4 13 5 14 6 15 7 16 8 17 9 18 10 8 11 7 12
REMARK SMILES IDX 6 13 5 14 4 15 3 16 2 17 1 18
REMARK H PARENT
REMARK Flexibility Score: inf
ROOT
ATOM      1  C   UNL     1     -13.836 -21.854  19.698  1.00  0.00     0.000 C 
ENDROOT
BRANCH   1   2
ATOM      2  C   UNL     1     -12.661 -22.681  19.145  1.00  0.00     0.000 C 
BRANCH   2   3
ATOM      3  C   UNL     1     -11.340 -21.895  19.094  1.00  0.00     0.000 C 
BRANCH   3   4
ATOM      4  C   UNL     1     -10.846 -21.501  20.501  1.00  0.00     0.000 C 
BRANCH   4   5
ATOM      5  C   UNL     1     -10.692 -19.985  20.696  1.00  0.00     0.000 C 
BRANCH   5   6
ATOM      6  C   UNL     1     -11.095 -19.181  19.452  1.00  0.00     0.006 C 
BRANCH   6   7
ATOM      7  C   UNL     1     -12.389 -18.401  19.701  1.00  0.00     0.053 C 
BRANCH   7   8
ATOM      8  C   UNL     1     -13.158 -18.230  18.431  1.00  0.00     0.041 C 
ATOM      9  O   UNL     1     -13.144 -19.131  17.549  1.00  0.00    -0.550 OA
ATOM     10  O   UNL     1     -13.897 -17.076  18.220  1.00  0.00    -0.550 OA
ENDBRANCH   7   8
ENDBRANCH   6   7
ENDBRANCH   5   6
ENDBRANCH   4   5
ENDBRANCH   3   4
ENDBRANCH   2   3
ENDBRANCH   1   2
BRANCH   1  11
ATOM     11  C   UNL     1     -14.793 -22.622  20.627  1.00  0.00     0.000 C 
BRANCH  11  12
ATOM     12  C   UNL     1     -15.044 -21.902  21.959  1.00  0.00    -0.000 C 
BRANCH  12  13
ATOM     13  C   UNL     1     -14.080 -20.723  22.137  1.00  0.00    -0.000 C 
BRANCH  13  14
ATOM     14  C   UNL     1     -13.144 -20.954  23.328  1.00  0.00    -0.000 C 
BRANCH  14  15
ATOM     15  C   UNL     1     -13.293 -22.379  23.878  1.00  0.00    -0.000 C 
BRANCH  15  16
ATOM     16  C   UNL     1     -12.090 -23.248  23.482  1.00  0.00    -0.000 C 
BRANCH  16  17
ATOM     17  C   UNL     1     -12.509 -24.559  22.795  1.00  0.00    -0.003 C 
ATOM     18  C   UNL     1     -11.521 -25.004  21.716  1.00  0.00     0.004 C 
ENDBRANCH  16  17
ENDBRANCH  15  16
ENDBRANCH  14  15
ENDBRANCH  13  14
ENDBRANCH  12  13
ENDBRANCH  11  12
ENDBRANCH   1  11
TORSDOF 14
ENDMDL
MODEL 2
REMARK VINA RESULT:    -2.767      8.879     10.923
REMARK INTER + INTRA:          -7.815
REMARK INTER:                  -5.746
REMARK INTRA:                  -2.070
REMARK UNBOUND:                -2.784
REMARK SMILES CCCCCCCCCCCCCCCC(=O)[O-]
REMARK SMILES IDX 9 1 10 2 11 3 12 4 13 5 14 6 15 7 16 8 17 9 18 10 8 11 7 12
REMARK SMILES IDX 6 13 5 14 4 15 3 16 2 17 1 18
REMARK H PARENT
REMARK Flexibility Score: inf
ROOT
ATOM      1  C   UNL     1     -19.136 -15.637  25.034  1.00  0.00     0.000 C 
ENDROOT
BRANCH   1   2
ATOM      2  C   UNL     1     -18.135 -15.877  26.180  1.00  0.00     0.000 C 
BRANCH   2   3
ATOM      3  C   UNL     1     -16.723 -16.230  25.684  1.00  0.00     0.000 C 
BRANCH   3   4
ATOM      4  C   UNL     1     -15.632 -15.439  26.435  1.00  0.00     0.000 C 
BRANCH   4   5
ATOM      5  C   UNL     1     -16.039 -15.033  27.860  1.00  0.00     0.000 C 
BRANCH   5   6
ATOM      6  C   UNL     1     -14.908 -15.219  28.880  1.00  0.00     0.006 C 
BRANCH   6   7
ATOM      7  C   UNL     1     -14.535 -16.698  29.017  1.00  0.00     0.053 C 
BRANCH   7   8
ATOM      8  C   UNL     1     -13.059 -16.859  29.193  1.00  0.00     0.041 C 
ATOM      9  O   UNL     1     -12.257 -16.086  28.603  1.00  0.00    -0.550 OA
ATOM     10  O   UNL     1     -12.565 -17.862  30.013  1.00  0.00    -0.550 OA
ENDBRANCH   7   8
ENDBRANCH   6   7
ENDBRANCH   5   6
ENDBRANCH   4   5
ENDBRANCH   3   4
ENDBRANCH   2   3
ENDBRANCH   1   2
BRANCH   1  11
ATOM     11  C   UNL     1     -18.667 -16.117  23.649  1.00  0.00     0.000 C 
BRANCH  11  12
ATOM     12  C   UNL     1     -18.756 -15.026  22.573  1.00  0.00    -0.000 C 
BRANCH  12  13
ATOM     13  C   UNL     1     -17.748 -13.903  22.845  1.00  0.00    -0.000 C 
BRANCH  13  14
ATOM     14  C   UNL     1     -18.422 -12.529  22.763  1.00  0.00    -0.000 C 
BRANCH  14  15
ATOM     15  C   UNL     1     -18.640 -11.936  24.162  1.00  0.00    -0.000 C 
BRANCH  15  16
ATOM     16  C   UNL     1     -17.534 -12.390  25.127  1.00  0.00    -0.000 C 
BRANCH  16  17
ATOM     17  C   UNL     1     -17.897 -12.141  26.601  1.00  0.00    -0.003 C 
ATOM     18  C   UNL     1     -16.803 -11.392  27.362  1.00  0.00     0.004 C 
ENDBRANCH  16  17
ENDBRANCH  15  16
ENDBRANCH  14  15
ENDBRANCH  13  14
ENDBRANCH  12  13
ENDBRANCH  11  12
ENDBRANCH   1  11
TORSDOF 14
ENDMDL
MODEL 3
REMARK VINA RESULT:    -2.717      9.077     10.633
REMARK INTER + INTRA:          -7.726
REMARK INTER:                  -5.946
REMARK INTRA:                  -1.780
REMARK UNBOUND:                -2.784
REMARK SMILES CCCCCCCCCCCCCCCC(=O)[O-]
REMARK SMILES IDX 9 1 10 2 11 3 12 4 13 5 14 6 15 7 16 8 17 9 18 10 8 11 7 12
REMARK SMILES IDX 6 13 5 14 4 15 3 16 2 17 1 18
REMARK H PARENT
REMARK Flexibility Score: inf
ROOT
ATOM      1  C   UNL     1     -15.181 -16.051  30.208  1.00  0.00     0.000 C 
ENDROOT
BRANCH   1   2
ATOM      2  C   UNL     1     -16.541 -16.507  29.648  1.00  0.00     0.000 C 
BRANCH   2   3
ATOM      3  C   UNL     1     -16.414 -17.368  28.380  1.00  0.00     0.000 C 
BRANCH   3   4
ATOM      4  C   UNL     1     -16.998 -16.659  27.140  1.00  0.00     0.000 C 
BRANCH   4   5
ATOM      5  C   UNL     1     -15.939 -15.942  26.288  1.00  0.00     0.000 C 
BRANCH   5   6
ATOM      6  C   UNL     1     -16.315 -14.489  25.969  1.00  0.00     0.006 C 
BRANCH   6   7
ATOM      7  C   UNL     1     -17.235 -13.913  27.049  1.00  0.00     0.053 C 
BRANCH   7   8
ATOM      8  C   UNL     1     -18.491 -13.374  26.445  1.00  0.00     0.041 C 
ATOM      9  O   UNL     1     -18.441 -12.470  25.567  1.00  0.00    -0.550 OA
ATOM     10  O   UNL     1     -19.721 -13.872  26.845  1.00  0.00    -0.550 OA
ENDBRANCH   7   8
ENDBRANCH   6   7
ENDBRANCH   5   6
ENDBRANCH   4   5
ENDBRANCH   3   4
ENDBRANCH   2   3
ENDBRANCH   1   2
BRANCH   1  11
ATOM     11  C   UNL     1     -14.768 -14.618  29.828  1.00  0.00     0.000 C 
BRANCH  11  12
ATOM     12  C   UNL     1     -13.629 -14.574  28.799  1.00  0.00    -0.000 C 
BRANCH  12  13
ATOM     13  C   UNL     1     -12.989 -15.957  28.629  1.00  0.00    -0.000 C 
BRANCH  13  14
ATOM     14  C   UNL     1     -11.577 -15.985  29.222  1.00  0.00    -0.000 C 
BRANCH  14  15
ATOM     15  C   UNL     1     -11.402 -17.175  30.175  1.00  0.00    -0.000 C 
BRANCH  15  16
ATOM     16  C   UNL     1     -10.256 -16.921  31.166  1.00  0.00    -0.000 C 
BRANCH  16  17
ATOM     17  C   UNL     1      -9.047 -16.236  30.508  1.00  0.00    -0.003 C 
ATOM     18  C   UNL     1      -7.745 -17.012  30.710  1.00  0.00     0.004 C 
ENDBRANCH  16  17
ENDBRANCH  15  16
ENDBRANCH  14  15
ENDBRANCH  13  14
ENDBRANCH  12  13
ENDBRANCH  11  12
ENDBRANCH   1  11
TORSDOF 14
ENDMDL
MODEL 4
REMARK VINA RESULT:    -2.697      8.747     10.570
REMARK INTER + INTRA:          -7.688
REMARK INTER:                  -5.674
REMARK INTRA:                  -2.015
REMARK UNBOUND:                -2.784
REMARK SMILES CCCCCCCCCCCCCCCC(=O)[O-]
REMARK SMILES IDX 9 1 10 2 11 3 12 4 13 5 14 6 15 7 16 8 17 9 18 10 8 11 7 12
REMARK SMILES IDX 6 13 5 14 4 15 3 16 2 17 1 18
REMARK H PARENT
REMARK Flexibility Score: inf
ROOT
ATOM      1  C   UNL     1     -15.724 -16.551  29.814  1.00  0.00     0.000 C 
ENDROOT
BRANCH   1   2
ATOM      2  C   UNL     1     -15.072 -17.226  28.594  1.00  0.00     0.000 C 
BRANCH   2   3
ATOM      3  C   UNL     1     -14.784 -16.247  27.444  1.00  0.00     0.000 C 
BRANCH   3   4
ATOM      4  C   UNL     1     -16.076 -15.620  26.880  1.00  0.00     0.000 C 
BRANCH   4   5
ATOM      5  C   UNL     1     -16.506 -16.213  25.529  1.00  0.00     0.000 C 
BRANCH   5   6
ATOM      6  C   UNL     1     -17.678 -15.454  24.892  1.00  0.00     0.006 C 
BRANCH   6   7
ATOM      7  C   UNL     1     -17.334 -13.973  24.706  1.00  0.00     0.053 C 
BRANCH   7   8
ATOM      8  C   UNL     1     -18.408 -13.104  25.277  1.00  0.00     0.041 C 
ATOM      9  O   UNL     1     -19.197 -13.554  26.151  1.00  0.00    -0.550 OA
ATOM     10  O   UNL     1     -18.537 -11.792  24.848  1.00  0.00    -0.550 OA
ENDBRANCH   7   8
ENDBRANCH   6   7
ENDBRANCH   5   6
ENDBRANCH   4   5
ENDBRANCH   3   4
ENDBRANCH   2   3
ENDBRANCH   1   2
BRANCH   1  11
ATOM     11  C   UNL     1     -14.778 -16.299  31.002  1.00  0.00     0.000 C 
BRANCH  11  12
ATOM     12  C   UNL     1     -14.761 -14.833  31.456  1.00  0.00    -0.000 C 
BRANCH  12  13
ATOM     13  C   UNL     1     -14.784 -13.885  30.251  1.00  0.00    -0.000 C 
BRANCH  13  14
ATOM     14  C   UNL     1     -13.460 -13.123  30.127  1.00  0.00    -0.000 C 
BRANCH  14  15
ATOM     15  C   UNL     1     -12.544 -13.775  29.082  1.00  0.00    -0.000 C 
BRANCH  15  16
ATOM     16  C   UNL     1     -11.498 -14.676  29.756  1.00  0.00    -0.000 C 
BRANCH  16  17
ATOM     17  C   UNL     1     -11.544 -16.124  29.238  1.00  0.00    -0.003 C 
ATOM     18  C   UNL     1     -11.209 -17.150  30.322  1.00  0.00     0.004 C 
ENDBRANCH  16  17
ENDBRANCH  15  16
ENDBRANCH  14  15
ENDBRANCH  13  14
ENDBRANCH  12  13
ENDBRANCH  11  12
ENDBRANCH   1  11
TORSDOF 14
ENDMDL
MODEL 5
REMARK VINA RESULT:    -2.679      1.055      2.631
REMARK INTER + INTRA:          -7.655
REMARK INTER:                  -5.444
REMARK INTRA:                  -2.211
REMARK UNBOUND:                -2.784
REMARK SMILES CCCCCCCCCCCCCCCC(=O)[O-]
REMARK SMILES IDX 9 1 10 2 11 3 12 4 13 5 14 6 15 7 16 8 17 9 18 10 8 11 7 12
REMARK SMILES IDX 6 13 5 14 4 15 3 16 2 17 1 18
REMARK H PARENT
REMARK Flexibility Score: inf
ROOT
ATOM      1  C   UNL     1     -11.226 -23.442  19.735  1.00  0.00     0.000 C 
ENDROOT
BRANCH   1   2
ATOM      2  C   UNL     1     -11.476 -21.926  19.619  1.00  0.00     0.000 C 
BRANCH   2   3
ATOM      3  C   UNL     1     -10.178 -21.104  19.559  1.00  0.00     0.000 C 
BRANCH   3   4
ATOM      4  C   UNL     1     -10.346 -19.710  20.200  1.00  0.00     0.000 C 
BRANCH   4   5
ATOM      5  C   UNL     1     -11.792 -19.395  20.611  1.00  0.00     0.000 C 
BRANCH   5   6
ATOM      6  C   UNL     1     -12.415 -18.265  19.779  1.00  0.00     0.006 C 
BRANCH   6   7
ATOM      7  C   UNL     1     -13.346 -18.829  18.701  1.00  0.00     0.053 C 
BRANCH   7   8
ATOM      8  C   UNL     1     -13.636 -17.799  17.659  1.00  0.00     0.041 C 
ATOM      9  O   UNL     1     -14.802 -17.338  17.522  1.00  0.00    -0.550 OA
ATOM     10  O   UNL     1     -12.618 -17.340  16.837  1.00  0.00    -0.550 OA
ENDBRANCH   7   8
ENDBRANCH   6   7
ENDBRANCH   5   6
ENDBRANCH   4   5
ENDBRANCH   3   4
ENDBRANCH   2   3
ENDBRANCH   1   2
BRANCH   1  11
ATOM     11  C   UNL     1     -11.595 -24.060  21.096  1.00  0.00     0.000 C 
BRANCH  11  12
ATOM     12  C   UNL     1     -11.614 -23.033  22.237  1.00  0.00    -0.000 C 
BRANCH  12  13
ATOM     13  C   UNL     1     -12.326 -23.596  23.472  1.00  0.00    -0.000 C 
BRANCH  13  14
ATOM     14  C   UNL     1     -13.158 -22.513  24.167  1.00  0.00    -0.000 C 
BRANCH  14  15
ATOM     15  C   UNL     1     -13.270 -21.256  23.294  1.00  0.00    -0.000 C 
BRANCH  15  16
ATOM     16  C   UNL     1     -14.689 -21.110  22.723  1.00  0.00    -0.000 C 
BRANCH  16  17
ATOM     17  C   UNL     1     -14.768 -21.484  21.233  1.00  0.00    -0.003 C 
ATOM     18  C   UNL     1     -15.166 -22.943  21.010  1.00  0.00     0.004 C 
ENDBRANCH  16  17
ENDBRANCH  15  16
ENDBRANCH  14  15
ENDBRANCH  13  14
ENDBRANCH  12  13
ENDBRANCH  11  12
ENDBRANCH   1  11
TORSDOF 14
ENDMDL
MODEL 6
REMARK VINA RESULT:    -2.656      3.227      5.766
REMARK INTER + INTRA:          -7.614
REMARK INTER:                  -5.178
REMARK INTRA:                  -2.436
REMARK UNBOUND:                -2.784
REMARK SMILES CCCCCCCCCCCCCCCC(=O)[O-]
REMARK SMILES IDX 9 1 10 2 11 3 12 4 13 5 14 6 15 7 16 8 17 9 18 10 8 11 7 12
REMARK SMILES IDX 6 13 5 14 4 15 3 16 2 17 1 18
REMARK H PARENT
REMARK Flexibility Score: inf
ROOT
ATOM      1  C   UNL     1     -14.353 -23.536  20.393  1.00  0.00     0.000 C 
ENDROOT
BRANCH   1   2
ATOM      2  C   UNL     1     -15.221 -22.531  21.173  1.00  0.00     0.000 C 
BRANCH   2   3
ATOM      3  C   UNL     1     -14.482 -21.222  21.500  1.00  0.00     0.000 C 
BRANCH   3   4
ATOM      4  C   UNL     1     -14.218 -21.069  23.013  1.00  0.00     0.000 C 
BRANCH   4   5
ATOM      5  C   UNL     1     -12.734 -21.185  23.391  1.00  0.00     0.000 C 
BRANCH   5   6
ATOM      6  C   UNL     1     -12.370 -22.563  23.960  1.00  0.00     0.006 C 
BRANCH   6   7
ATOM      7  C   UNL     1     -13.607 -23.262  24.532  1.00  0.00     0.053 C 
BRANCH   7   8
ATOM      8  C   UNL     1     -13.794 -24.606  23.906  1.00  0.00     0.041 C 
ATOM      9  O   UNL     1     -12.801 -25.256  23.480  1.00  0.00    -0.550 OA
ATOM     10  O   UNL     1     -15.066 -25.147  23.796  1.00  0.00    -0.550 OA
ENDBRANCH   7   8
ENDBRANCH   6   7
ENDBRANCH   5   6
ENDBRANCH   4   5
ENDBRANCH   3   4
ENDBRANCH   2   3
ENDBRANCH   1   2
BRANCH   1  11
ATOM     11  C   UNL     1     -13.079 -22.944  19.763  1.00  0.00     0.000 C 
BRANCH  11  12
ATOM     12  C   UNL     1     -11.789 -23.494  20.389  1.00  0.00    -0.000 C 
BRANCH  12  13
ATOM     13  C   UNL     1     -10.745 -22.384  20.560  1.00  0.00    -0.000 C 
BRANCH  13  14
ATOM     14  C   UNL     1     -10.740 -21.444  19.351  1.00  0.00    -0.000 C 
BRANCH  14  15
ATOM     15  C   UNL     1     -10.366 -20.014  19.764  1.00  0.00    -0.000 C 
BRANCH  15  16
ATOM     16  C   UNL     1     -11.491 -19.370  20.588  1.00  0.00    -0.000 C 
BRANCH  16  17
ATOM     17  C   UNL     1     -12.476 -18.570  19.718  1.00  0.00    -0.003 C 
ATOM     18  C   UNL     1     -11.957 -18.337  18.299  1.00  0.00     0.004 C 
ENDBRANCH  16  17
ENDBRANCH  15  16
ENDBRANCH  14  15
ENDBRANCH  13  14
ENDBRANCH  12  13
ENDBRANCH  11  12
ENDBRANCH   1  11
TORSDOF 14
ENDMDL
MODEL 7
REMARK VINA RESULT:    -2.649      8.369     10.605
REMARK INTER + INTRA:          -7.601
REMARK INTER:                  -6.150
REMARK INTRA:                  -1.451
REMARK UNBOUND:                -2.784
REMARK SMILES CCCCCCCCCCCCCCCC(=O)[O-]
REMARK SMILES IDX 9 1 10 2 11 3 12 4 13 5 14 6 15 7 16 8 17 9 18 10 8 11 7 12
REMARK SMILES IDX 6 13 5 14 4 15 3 16 2 17 1 18
REMARK H PARENT
REMARK Flexibility Score: inf
ROOT
ATOM      1  C   UNL     1     -17.411 -12.451  25.702  1.00  0.00     0.000 C 
ENDROOT
BRANCH   1   2
ATOM      2  C   UNL     1     -16.742 -13.522  26.585  1.00  0.00     0.000 C 
BRANCH   2   3
ATOM      3  C   UNL     1     -16.302 -14.766  25.796  1.00  0.00     0.000 C 
BRANCH   3   4
ATOM      4  C   UNL     1     -15.722 -15.860  26.717  1.00  0.00     0.000 C 
BRANCH   4   5
ATOM      5  C   UNL     1     -15.992 -15.611  28.209  1.00  0.00     0.000 C 
BRANCH   5   6
ATOM      6  C   UNL     1     -14.705 -15.514  29.039  1.00  0.00     0.006 C 
BRANCH   6   7
ATOM      7  C   UNL     1     -13.964 -16.855  29.057  1.00  0.00     0.053 C 
BRANCH   7   8
ATOM      8  C   UNL     1     -12.531 -16.664  29.434  1.00  0.00     0.041 C 
ATOM      9  O   UNL     1     -11.762 -15.985  28.701  1.00  0.00    -0.550 OA
ATOM     10  O   UNL     1     -12.041 -17.232  30.600  1.00  0.00    -0.550 OA
ENDBRANCH   7   8
ENDBRANCH   6   7
ENDBRANCH   5   6
ENDBRANCH   4   5
ENDBRANCH   3   4
ENDBRANCH   2   3
ENDBRANCH   1   2
BRANCH   1  11
ATOM     11  C   UNL     1     -18.543 -12.968  24.797  1.00  0.00     0.000 C 
BRANCH  11  12
ATOM     12  C   UNL     1     -18.797 -12.068  23.580  1.00  0.00    -0.000 C 
BRANCH  12  13
ATOM     13  C   UNL     1     -18.478 -12.807  22.275  1.00  0.00    -0.000 C 
BRANCH  13  14
ATOM     14  C   UNL     1     -18.216 -14.294  22.535  1.00  0.00    -0.000 C 
BRANCH  14  15
ATOM     15  C   UNL     1     -19.306 -15.166  21.898  1.00  0.00    -0.000 C 
BRANCH  15  16
ATOM     16  C   UNL     1     -19.282 -16.587  22.483  1.00  0.00    -0.000 C 
BRANCH  16  17
ATOM     17  C   UNL     1     -18.872 -16.608  23.965  1.00  0.00    -0.003 C 
ATOM     18  C   UNL     1     -17.962 -17.788  24.310  1.00  0.00     0.004 C 
ENDBRANCH  16  17
ENDBRANCH  15  16
ENDBRANCH  14  15
ENDBRANCH  13  14
ENDBRANCH  12  13
ENDBRANCH  11  12
ENDBRANCH   1  11
TORSDOF 14
ENDMDL
MODEL 8
REMARK VINA RESULT:    -2.642      2.274      3.572
REMARK INTER + INTRA:          -7.588
REMARK INTER:                  -5.153
REMARK INTRA:                  -2.435
REMARK UNBOUND:                -2.784
REMARK SMILES CCCCCCCCCCCCCCCC(=O)[O-]
REMARK SMILES IDX 9 1 10 2 11 3 12 4 13 5 14 6 15 7 16 8 17 9 18 10 8 11 7 12
REMARK SMILES IDX 6 13 5 14 4 15 3 16 2 17 1 18
REMARK H PARENT
REMARK Flexibility Score: inf
ROOT
ATOM      1  C   UNL     1     -12.508 -22.706  18.775  1.00  0.00     0.000 C 
ENDROOT
BRANCH   1   2
ATOM      2  C   UNL     1     -13.879 -22.005  18.748  1.00  0.00     0.000 C 
BRANCH   2   3
ATOM      3  C   UNL     1     -13.806 -20.520  19.139  1.00  0.00     0.000 C 
BRANCH   3   4
ATOM      4  C   UNL     1     -12.374 -19.958  19.009  1.00  0.00     0.000 C 
BRANCH   4   5
ATOM      5  C   UNL     1     -11.973 -19.030  20.165  1.00  0.00     0.000 C 
BRANCH   5   6
ATOM      6  C   UNL     1     -10.657 -19.447  20.836  1.00  0.00     0.006 C 
BRANCH   6   7
ATOM      7  C   UNL     1      -9.672 -20.005  19.804  1.00  0.00     0.053 C 
BRANCH   7   8
ATOM      8  C   UNL     1      -8.446 -19.155  19.727  1.00  0.00     0.041 C 
ATOM      9  O   UNL     1      -8.134 -18.579  18.650  1.00  0.00    -0.550 OA
ATOM     10  O   UNL     1      -7.646 -18.992  20.848  1.00  0.00    -0.550 OA
ENDBRANCH   7   8
ENDBRANCH   6   7
ENDBRANCH   5   6
ENDBRANCH   4   5
ENDBRANCH   3   4
ENDBRANCH   2   3
ENDBRANCH   1   2
BRANCH   1  11
ATOM     11  C   UNL     1     -12.427 -23.943  19.689  1.00  0.00     0.000 C 
BRANCH  11  12
ATOM     12  C   UNL     1     -11.310 -23.844  20.736  1.00  0.00    -0.000 C 
BRANCH  12  13
ATOM     13  C   UNL     1     -11.552 -22.667  21.688  1.00  0.00    -0.000 C 
BRANCH  13  14
ATOM     14  C   UNL     1     -12.144 -23.149  23.017  1.00  0.00    -0.000 C 
BRANCH  14  15
ATOM     15  C   UNL     1     -12.767 -21.984  23.798  1.00  0.00    -0.000 C 
BRANCH  15  16
ATOM     16  C   UNL     1     -13.402 -20.962  22.844  1.00  0.00    -0.000 C 
BRANCH  16  17
ATOM     17  C   UNL     1     -14.938 -21.037  22.834  1.00  0.00    -0.003 C 
ATOM     18  C   UNL     1     -15.467 -22.210  22.008  1.00  0.00     0.004 C 
ENDBRANCH  16  17
ENDBRANCH  15  16
ENDBRANCH  14  15
ENDBRANCH  13  14
ENDBRANCH  12  13
ENDBRANCH  11  12
ENDBRANCH   1  11
TORSDOF 14
ENDMDL
MODEL 9
REMARK VINA RESULT:    -2.600      2.508      3.792
REMARK INTER + INTRA:          -7.511
REMARK INTER:                  -5.208
REMARK INTRA:                  -2.303
REMARK UNBOUND:                -2.784
REMARK SMILES CCCCCCCCCCCCCCCC(=O)[O-]
REMARK SMILES IDX 9 1 10 2 11 3 12 4 13 5 14 6 15 7 16 8 17 9 18 10 8 11 7 12
REMARK SMILES IDX 6 13 5 14 4 15 3 16 2 17 1 18
REMARK H PARENT
REMARK Flexibility Score: inf
ROOT
ATOM      1  C   UNL     1     -11.970 -24.864  22.753  1.00  0.00     0.000 C 
ENDROOT
BRANCH   1   2
ATOM      2  C   UNL     1     -11.866 -25.245  21.264  1.00  0.00     0.000 C 
BRANCH   2   3
ATOM      3  C   UNL     1     -11.938 -24.031  20.324  1.00  0.00     0.000 C 
BRANCH   3   4
ATOM      4  C   UNL     1     -10.903 -22.949  20.696  1.00  0.00     0.000 C 
BRANCH   4   5
ATOM      5  C   UNL     1     -11.009 -21.678  19.839  1.00  0.00     0.000 C 
BRANCH   5   6
ATOM      6  C   UNL     1     -10.550 -20.417  20.583  1.00  0.00     0.006 C 
BRANCH   6   7
ATOM      7  C   UNL     1      -9.912 -19.415  19.617  1.00  0.00     0.053 C 
BRANCH   7   8
ATOM      8  C   UNL     1      -8.421 -19.487  19.688  1.00  0.00     0.041 C 
ATOM      9  O   UNL     1      -7.779 -20.236  18.903  1.00  0.00    -0.550 OA
ATOM     10  O   UNL     1      -7.734 -18.722  20.618  1.00  0.00    -0.550 OA
ENDBRANCH   7   8
ENDBRANCH   6   7
ENDBRANCH   5   6
ENDBRANCH   4   5
ENDBRANCH   3   4
ENDBRANCH   2   3
ENDBRANCH   1   2
BRANCH   1  11
ATOM     11  C   UNL     1     -13.406 -24.757  23.299  1.00  0.00     0.000 C 
BRANCH  11  12
ATOM     12  C   UNL     1     -13.641 -23.485  24.124  1.00  0.00    -0.000 C 
BRANCH  12  13
ATOM     13  C   UNL     1     -12.394 -22.592  24.125  1.00  0.00    -0.000 C 
BRANCH  13  14
ATOM     14  C   UNL     1     -12.675 -21.256  23.431  1.00  0.00    -0.000 C 
BRANCH  14  15
ATOM     15  C   UNL     1     -14.139 -21.164  22.982  1.00  0.00    -0.000 C 
BRANCH  15  16
ATOM     16  C   UNL     1     -14.237 -21.036  21.454  1.00  0.00    -0.000 C 
BRANCH  16  17
ATOM     17  C   UNL     1     -14.951 -22.234  20.805  1.00  0.00    -0.003 C 
ATOM     18  C   UNL     1     -16.474 -22.134  20.893  1.00  0.00     0.004 C 
ENDBRANCH  16  17
ENDBRANCH  15  16
ENDBRANCH  14  15
ENDBRANCH  13  14
ENDBRANCH  12  13
ENDBRANCH  11  12
ENDBRANCH   1  11
TORSDOF 14
ENDMDL
