MODEL 1
REMARK VINA RESULT:    -2.668      0.000      0.000
REMARK INTER + INTRA:         -12.378
REMARK INTER:                  -6.958
REMARK INTRA:                  -5.419
REMARK UNBOUND:                -5.419
REMARK SMILES CCCCCCCCCCCCCCCCCCCCCCCCCCCCCO
REMARK SMILES IDX 16 1 15 2 14 3 13 4 12 5 11 6 10 7 9 8 8 9 7 10 6 11 5 12
REMARK SMILES IDX 4 13 3 14 2 15 1 16 17 17 18 18 19 19 20 20 21 21 22 22
REMARK SMILES IDX 23 23 24 24 25 25 26 26 27 27 28 28 29 29 30 30
REMARK H PARENT 30 31
REMARK Flexibility Score: inf
ROOT
ATOM      1  C   UNL     1      -1.783   6.562  -5.324  1.00  0.00     0.000 C 
ENDROOT
BRANCH   1   2
ATOM      2  C   UNL     1      -1.190   5.424  -4.477  1.00  0.00     0.000 C 
BRANCH   2   3
ATOM      3  C   UNL     1      -2.254   4.363  -4.168  1.00  0.00     0.000 C 
BRANCH   3   4
ATOM      4  C   UNL     1      -3.249   4.223  -5.329  1.00  0.00     0.000 C 
BRANCH   4   5
ATOM      5  C   UNL     1      -3.066   2.912  -6.112  1.00  0.00     0.000 C 
BRANCH   5   6
ATOM      6  C   UNL     1      -3.494   3.036  -7.582  1.00  0.00     0.000 C 
BRANCH   6   7
ATOM      7  C   UNL     1      -3.740   4.500  -7.965  1.00  0.00     0.000 C 
BRANCH   7   8
ATOM      8  C   UNL     1      -5.214   4.726  -8.333  1.00  0.00    -0.000 C 
BRANCH   8   9
ATOM      9  C   UNL     1      -5.612   6.213  -8.296  1.00  0.00    -0.000 C 
BRANCH   9  10
ATOM     10  C   UNL     1      -4.607   7.110  -7.538  1.00  0.00    -0.000 C 
BRANCH  10  11
ATOM     11  C   UNL     1      -5.195   7.771  -6.276  1.00  0.00    -0.000 C 
BRANCH  11  12
ATOM     12  C   UNL     1      -6.454   7.085  -5.713  1.00  0.00    -0.000 C 
BRANCH  12  13
ATOM     13  C   UNL     1      -6.206   6.162  -4.501  1.00  0.00    -0.000 C 
BRANCH  13  14
ATOM     14  C   UNL     1      -5.966   6.890  -3.163  1.00  0.00    -0.000 C 
BRANCH  14  15
ATOM     15  C   UNL     1      -4.525   6.804  -2.629  1.00  0.00    -0.003 C 
ATOM     16  C   UNL     1      -3.812   8.155  -2.619  1.00  0.00     0.004 C 
ENDBRANCH  14  15
ENDBRANCH  13  14
ENDBRANCH  12  13
ENDBRANCH  11  12
ENDBRANCH  10  11
ENDBRANCH   9  10
ENDBRANCH   8   9
ENDBRANCH   7   8
ENDBRANCH   6   7
ENDBRANCH   5   6
ENDBRANCH   4   5
ENDBRANCH   3   4
ENDBRANCH   2   3
ENDBRANCH   1   2
BRANCH   1  17
ATOM     17  C   UNL     1      -0.978   6.829  -6.605  1.00  0.00     0.000 C 
BRANCH  17  18
ATOM     18  C   UNL     1       0.498   6.419  -6.475  1.00  0.00     0.000 C 
BRANCH  18  19
ATOM     19  C   UNL     1       0.994   5.581  -7.667  1.00  0.00     0.000 C 
BRANCH  19  20
ATOM     20  C   UNL     1      -0.115   4.761  -8.358  1.00  0.00     0.000 C 
BRANCH  20  21
ATOM     21  C   UNL     1       0.095   3.244  -8.202  1.00  0.00     0.000 C 
BRANCH  21  22
ATOM     22  C   UNL     1       1.127   2.905  -7.114  1.00  0.00     0.000 C 
BRANCH  22  23
ATOM     23  C   UNL     1       0.468   2.421  -5.810  1.00  0.00     0.000 C 
BRANCH  23  24
ATOM     24  C   UNL     1       1.341   2.682  -4.569  1.00  0.00     0.000 C 
BRANCH  24  25
ATOM     25  C   UNL     1       2.831   2.927  -4.868  1.00  0.00     0.000 C 
BRANCH  25  26
ATOM     26  C   UNL     1       3.765   2.243  -3.857  1.00  0.00     0.000 C 
BRANCH  26  27
ATOM     27  C   UNL     1       3.126   0.961  -3.300  1.00  0.00     0.002 C 
BRANCH  27  28
ATOM     28  C   UNL     1       4.166  -0.113  -2.947  1.00  0.00     0.028 C 
BRANCH  28  29
ATOM     29  C   UNL     1       4.610  -0.051  -1.480  1.00  0.00     0.156 C 
BRANCH  29  30
ATOM     30  O   UNL     1       4.535  -1.326  -0.900  1.00  0.00    -0.396 OA
ATOM     31  H   UNL     1       3.633  -1.398  -0.494  1.00  0.00     0.210 HD
ENDBRANCH  29  30
ENDBRANCH  28  29
ENDBRANCH  27  28
ENDBRANCH  26  27
ENDBRANCH  25  26
ENDBRANCH  24  25
ENDBRANCH  23  24
ENDBRANCH  22  23
ENDBRANCH  21  22
ENDBRANCH  20  21
ENDBRANCH  19  20
ENDBRANCH  18  19
ENDBRANCH  17  18
ENDBRANCH   1  17
TORSDOF 28
ENDMDL
MODEL 2
REMARK VINA RESULT:    -2.667      3.043      9.852
REMARK INTER + INTRA:         -12.374
REMARK INTER:                  -8.085
REMARK INTRA:                  -4.289
REMARK UNBOUND:                -5.419
REMARK SMILES CCCCCCCCCCCCCCCCCCCCCCCCCCCCCO
REMARK SMILES IDX 16 1 15 2 14 3 13 4 12 5 11 6 10 7 9 8 8 9 7 10 6 11 5 12
REMARK SMILES IDX 4 13 3 14 2 15 1 16 17 17 18 18 19 19 20 20 21 21 22 22
REMARK SMILES IDX 23 23 24 24 25 25 26 26 27 27 28 28 29 29 30 30
REMARK H PARENT 30 31
REMARK Flexibility Score: inf
ROOT
ATOM      1  C   UNL     1      -0.148   2.938  -4.346  1.00  0.00     0.000 C 
ENDROOT
BRANCH   1   2
ATOM      2  C   UNL     1       1.028   1.961  -4.184  1.00  0.00     0.000 C 
BRANCH   2   3
ATOM      3  C   UNL     1       2.358   2.648  -4.516  1.00  0.00     0.000 C 
BRANCH   3   4
ATOM      4  C   UNL     1       3.529   1.963  -3.795  1.00  0.00     0.000 C 
BRANCH   4   5
ATOM      5  C   UNL     1       3.106   0.676  -3.067  1.00  0.00     0.000 C 
BRANCH   5   6
ATOM      6  C   UNL     1       4.287  -0.036  -2.391  1.00  0.00     0.000 C 
BRANCH   6   7
ATOM      7  C   UNL     1       5.555   0.059  -3.247  1.00  0.00     0.000 C 
BRANCH   7   8
ATOM      8  C   UNL     1       5.645  -1.125  -4.222  1.00  0.00    -0.000 C 
BRANCH   8   9
ATOM      9  C   UNL     1       6.948  -1.927  -4.060  1.00  0.00    -0.000 C 
BRANCH   9  10
ATOM     10  C   UNL     1       7.301  -2.258  -2.592  1.00  0.00    -0.000 C 
BRANCH  10  11
ATOM     11  C   UNL     1       6.341  -3.270  -1.936  1.00  0.00    -0.000 C 
BRANCH  11  12
ATOM     12  C   UNL     1       5.910  -2.916  -0.501  1.00  0.00    -0.000 C 
BRANCH  12  13
ATOM     13  C   UNL     1       6.655  -1.719   0.128  1.00  0.00    -0.000 C 
BRANCH  13  14
ATOM     14  C   UNL     1       5.752  -0.666   0.800  1.00  0.00    -0.000 C 
BRANCH  14  15
ATOM     15  C   UNL     1       6.241   0.787   0.667  1.00  0.00    -0.003 C 
ATOM     16  C   UNL     1       5.161   1.812   1.008  1.00  0.00     0.004 C 
ENDBRANCH  14  15
ENDBRANCH  13  14
ENDBRANCH  12  13
ENDBRANCH  11  12
ENDBRANCH  10  11
ENDBRANCH   9  10
ENDBRANCH   8   9
ENDBRANCH   7   8
ENDBRANCH   6   7
ENDBRANCH   5   6
ENDBRANCH   4   5
ENDBRANCH   3   4
ENDBRANCH   2   3
ENDBRANCH   1   2
BRANCH   1  17
ATOM     17  C   UNL     1      -1.424   2.251  -4.857  1.00  0.00     0.000 C 
BRANCH  17  18
ATOM     18  C   UNL     1      -2.468   3.252  -5.378  1.00  0.00     0.000 C 
BRANCH  18  19
ATOM     19  C   UNL     1      -2.592   4.505  -4.492  1.00  0.00     0.000 C 
BRANCH  19  20
ATOM     20  C   UNL     1      -2.352   5.829  -5.246  1.00  0.00     0.000 C 
BRANCH  20  21
ATOM     21  C   UNL     1      -2.406   5.650  -6.775  1.00  0.00     0.000 C 
BRANCH  21  22
ATOM     22  C   UNL     1      -1.115   6.119  -7.465  1.00  0.00     0.000 C 
BRANCH  22  23
ATOM     23  C   UNL     1       0.102   6.078  -6.525  1.00  0.00     0.000 C 
BRANCH  23  24
ATOM     24  C   UNL     1       1.185   5.090  -6.996  1.00  0.00     0.000 C 
BRANCH  24  25
ATOM     25  C   UNL     1       0.784   4.219  -8.201  1.00  0.00     0.000 C 
BRANCH  25  26
ATOM     26  C   UNL     1       0.669   2.728  -7.848  1.00  0.00     0.000 C 
BRANCH  26  27
ATOM     27  C   UNL     1      -0.242   1.996  -8.847  1.00  0.00     0.002 C 
BRANCH  27  28
ATOM     28  C   UNL     1      -1.620   2.663  -8.988  1.00  0.00     0.028 C 
BRANCH  28  29
ATOM     29  C   UNL     1      -2.754   1.648  -9.176  1.00  0.00     0.156 C 
BRANCH  29  30
ATOM     30  O   UNL     1      -3.662   1.736  -8.111  1.00  0.00    -0.396 OA
ATOM     31  H   UNL     1      -4.507   1.323  -8.424  1.00  0.00     0.210 HD
ENDBRANCH  29  30
ENDBRANCH  28  29
ENDBRANCH  27  28
ENDBRANCH  26  27
ENDBRANCH  25  26
ENDBRANCH  24  25
ENDBRANCH  23  24
ENDBRANCH  22  23
ENDBRANCH  21  22
ENDBRANCH  20  21
ENDBRANCH  19  20
ENDBRANCH  18  19
ENDBRANCH  17  18
ENDBRANCH   1  17
TORSDOF 28
ENDMDL
MODEL 3
REMARK VINA RESULT:    -2.612      2.203      5.883
REMARK INTER + INTRA:         -12.231
REMARK INTER:                  -8.084
REMARK INTRA:                  -4.147
REMARK UNBOUND:                -5.419
REMARK SMILES CCCCCCCCCCCCCCCCCCCCCCCCCCCCCO
REMARK SMILES IDX 16 1 15 2 14 3 13 4 12 5 11 6 10 7 9 8 8 9 7 10 6 11 5 12
REMARK SMILES IDX 4 13 3 14 2 15 1 16 17 17 18 18 19 19 20 20 21 21 22 22
REMARK SMILES IDX 23 23 24 24 25 25 26 26 27 27 28 28 29 29 30 30
REMARK H PARENT 30 31
REMARK Flexibility Score: inf
ROOT
ATOM      1  C   UNL     1       2.157   2.090  -4.126  1.00  0.00     0.000 C 
ENDROOT
BRANCH   1   2
ATOM      2  C   UNL     1       0.899   2.328  -4.976  1.00  0.00     0.000 C 
BRANCH   2   3
ATOM      3  C   UNL     1       1.270   2.878  -6.359  1.00  0.00     0.000 C 
BRANCH   3   4
ATOM      4  C   UNL     1       0.165   2.590  -7.384  1.00  0.00     0.000 C 
BRANCH   4   5
ATOM      5  C   UNL     1      -0.025   3.738  -8.390  1.00  0.00     0.000 C 
BRANCH   5   6
ATOM      6  C   UNL     1      -1.440   4.335  -8.347  1.00  0.00     0.000 C 
BRANCH   6   7
ATOM      7  C   UNL     1      -2.501   3.266  -8.635  1.00  0.00     0.000 C 
BRANCH   7   8
ATOM      8  C   UNL     1      -3.625   3.319  -7.590  1.00  0.00    -0.000 C 
BRANCH   8   9
ATOM      9  C   UNL     1      -3.090   3.421  -6.151  1.00  0.00    -0.000 C 
BRANCH   9  10
ATOM     10  C   UNL     1      -3.617   4.648  -5.373  1.00  0.00    -0.000 C 
BRANCH  10  11
ATOM     11  C   UNL     1      -2.654   5.148  -4.278  1.00  0.00    -0.000 C 
BRANCH  11  12
ATOM     12  C   UNL     1      -1.169   5.175  -4.686  1.00  0.00    -0.000 C 
BRANCH  12  13
ATOM     13  C   UNL     1      -0.717   6.456  -5.417  1.00  0.00    -0.000 C 
BRANCH  13  14
ATOM     14  C   UNL     1       0.757   6.469  -5.866  1.00  0.00    -0.000 C 
BRANCH  14  15
ATOM     15  C   UNL     1       1.770   6.807  -4.758  1.00  0.00    -0.003 C 
ATOM     16  C   UNL     1       2.838   5.730  -4.578  1.00  0.00     0.004 C 
ENDBRANCH  14  15
ENDBRANCH  13  14
ENDBRANCH  12  13
ENDBRANCH  11  12
ENDBRANCH  10  11
ENDBRANCH   9  10
ENDBRANCH   8   9
ENDBRANCH   7   8
ENDBRANCH   6   7
ENDBRANCH   5   6
ENDBRANCH   4   5
ENDBRANCH   3   4
ENDBRANCH   2   3
ENDBRANCH   1   2
BRANCH   1  17
ATOM     17  C   UNL     1       2.119   0.752  -3.372  1.00  0.00     0.000 C 
BRANCH  17  18
ATOM     18  C   UNL     1       3.521   0.226  -3.025  1.00  0.00     0.000 C 
BRANCH  18  19
ATOM     19  C   UNL     1       4.648   1.141  -3.538  1.00  0.00     0.000 C 
BRANCH  19  20
ATOM     20  C   UNL     1       5.910   0.380  -3.996  1.00  0.00     0.000 C 
BRANCH  20  21
ATOM     21  C   UNL     1       5.652  -1.128  -4.170  1.00  0.00     0.000 C 
BRANCH  21  22
ATOM     22  C   UNL     1       6.732  -1.988  -3.493  1.00  0.00     0.000 C 
BRANCH  22  23
ATOM     23  C   UNL     1       6.200  -2.731  -2.254  1.00  0.00     0.000 C 
BRANCH  23  24
ATOM     24  C   UNL     1       6.269  -1.878  -0.974  1.00  0.00     0.000 C 
BRANCH  24  25
ATOM     25  C   UNL     1       4.956  -1.811  -0.172  1.00  0.00     0.000 C 
BRANCH  25  26
ATOM     26  C   UNL     1       4.776  -0.477   0.569  1.00  0.00     0.000 C 
BRANCH  26  27
ATOM     27  C   UNL     1       5.663   0.617  -0.045  1.00  0.00     0.002 C 
BRANCH  27  28
ATOM     28  C   UNL     1       6.065   1.694   0.975  1.00  0.00     0.028 C 
BRANCH  28  29
ATOM     29  C   UNL     1       5.636   3.104   0.550  1.00  0.00     0.156 C 
BRANCH  29  30
ATOM     30  O   UNL     1       4.871   3.042  -0.623  1.00  0.00    -0.396 OA
ATOM     31  H   UNL     1       4.161   2.367  -0.462  1.00  0.00     0.210 HD
ENDBRANCH  29  30
ENDBRANCH  28  29
ENDBRANCH  27  28
ENDBRANCH  26  27
ENDBRANCH  25  26
ENDBRANCH  24  25
ENDBRANCH  23  24
ENDBRANCH  22  23
ENDBRANCH  21  22
ENDBRANCH  20  21
ENDBRANCH  19  20
ENDBRANCH  18  19
ENDBRANCH  17  18
ENDBRANCH   1  17
TORSDOF 28
ENDMDL
MODEL 4
REMARK VINA RESULT:    -2.601      1.333      3.068
REMARK INTER + INTRA:         -12.202
REMARK INTER:                  -6.855
REMARK INTRA:                  -5.347
REMARK UNBOUND:                -5.419
REMARK SMILES CCCCCCCCCCCCCCCCCCCCCCCCCCCCCO
REMARK SMILES IDX 16 1 15 2 14 3 13 4 12 5 11 6 10 7 9 8 8 9 7 10 6 11 5 12
REMARK SMILES IDX 4 13 3 14 2 15 1 16 17 17 18 18 19 19 20 20 21 21 22 22
REMARK SMILES IDX 23 23 24 24 25 25 26 26 27 27 28 28 29 29 30 30
REMARK H PARENT 30 31
REMARK Flexibility Score: inf
ROOT
ATOM      1  C   UNL     1      -1.891   2.924  -5.070  1.00  0.00     0.000 C 
ENDROOT
BRANCH   1   2
ATOM      2  C   UNL     1      -2.212   4.182  -4.247  1.00  0.00     0.000 C 
BRANCH   2   3
ATOM      3  C   UNL     1      -1.055   5.185  -4.310  1.00  0.00     0.000 C 
BRANCH   3   4
ATOM      4  C   UNL     1      -1.576   6.628  -4.374  1.00  0.00     0.000 C 
BRANCH   4   5
ATOM      5  C   UNL     1      -1.876   7.087  -5.812  1.00  0.00     0.000 C 
BRANCH   5   6
ATOM      6  C   UNL     1      -0.979   6.398  -6.851  1.00  0.00     0.000 C 
BRANCH   6   7
ATOM      7  C   UNL     1      -1.365   6.812  -8.277  1.00  0.00     0.000 C 
BRANCH   7   8
ATOM      8  C   UNL     1      -1.602   8.327  -8.358  1.00  0.00    -0.000 C 
BRANCH   8   9
ATOM      9  C   UNL     1      -2.812   8.690  -9.237  1.00  0.00    -0.000 C 
BRANCH   9  10
ATOM     10  C   UNL     1      -4.168   8.225  -8.657  1.00  0.00    -0.000 C 
BRANCH  10  11
ATOM     11  C   UNL     1      -4.608   9.008  -7.405  1.00  0.00    -0.000 C 
BRANCH  11  12
ATOM     12  C   UNL     1      -5.777   8.377  -6.625  1.00  0.00    -0.000 C 
BRANCH  12  13
ATOM     13  C   UNL     1      -5.581   6.895  -6.243  1.00  0.00    -0.000 C 
BRANCH  13  14
ATOM     14  C   UNL     1      -6.217   6.475  -4.903  1.00  0.00    -0.000 C 
BRANCH  14  15
ATOM     15  C   UNL     1      -5.221   5.972  -3.842  1.00  0.00    -0.003 C 
ATOM     16  C   UNL     1      -4.875   7.033  -2.800  1.00  0.00     0.004 C 
ENDBRANCH  14  15
ENDBRANCH  13  14
ENDBRANCH  12  13
ENDBRANCH  11  12
ENDBRANCH  10  11
ENDBRANCH   9  10
ENDBRANCH   8   9
ENDBRANCH   7   8
ENDBRANCH   6   7
ENDBRANCH   5   6
ENDBRANCH   4   5
ENDBRANCH   3   4
ENDBRANCH   2   3
ENDBRANCH   1   2
BRANCH   1  17
ATOM     17  C   UNL     1      -2.989   2.585  -6.089  1.00  0.00     0.000 C 
BRANCH  17  18
ATOM     18  C   UNL     1      -3.738   3.829  -6.591  1.00  0.00     0.000 C 
BRANCH  18  19
ATOM     19  C   UNL     1      -3.624   4.024  -8.114  1.00  0.00     0.000 C 
BRANCH  19  20
ATOM     20  C   UNL     1      -3.296   2.729  -8.886  1.00  0.00     0.000 C 
BRANCH  20  21
ATOM     21  C   UNL     1      -1.978   2.836  -9.674  1.00  0.00     0.000 C 
BRANCH  21  22
ATOM     22  C   UNL     1      -0.787   2.237  -8.906  1.00  0.00     0.000 C 
BRANCH  22  23
ATOM     23  C   UNL     1       0.123   3.318  -8.299  1.00  0.00     0.000 C 
BRANCH  23  24
ATOM     24  C   UNL     1       1.173   2.739  -7.332  1.00  0.00     0.000 C 
BRANCH  24  25
ATOM     25  C   UNL     1       1.536   3.656  -6.149  1.00  0.00     0.000 C 
BRANCH  25  26
ATOM     26  C   UNL     1       2.303   2.923  -5.038  1.00  0.00     0.000 C 
BRANCH  26  27
ATOM     27  C   UNL     1       1.337   2.179  -4.102  1.00  0.00     0.002 C 
BRANCH  27  28
ATOM     28  C   UNL     1       1.976   0.940  -3.456  1.00  0.00     0.028 C 
BRANCH  28  29
ATOM     29  C   UNL     1       3.469   1.130  -3.156  1.00  0.00     0.156 C 
BRANCH  29  30
ATOM     30  O   UNL     1       3.759   0.685  -1.858  1.00  0.00    -0.396 OA
ATOM     31  H   UNL     1       4.483   1.269  -1.515  1.00  0.00     0.210 HD
ENDBRANCH  29  30
ENDBRANCH  28  29
ENDBRANCH  27  28
ENDBRANCH  26  27
ENDBRANCH  25  26
ENDBRANCH  24  25
ENDBRANCH  23  24
ENDBRANCH  22  23
ENDBRANCH  21  22
ENDBRANCH  20  21
ENDBRANCH  19  20
ENDBRANCH  18  19
ENDBRANCH  17  18
ENDBRANCH   1  17
TORSDOF 28
ENDMDL
MODEL 5
REMARK VINA RESULT:    -2.588      2.772      8.527
REMARK INTER + INTRA:         -12.169
REMARK INTER:                  -7.004
REMARK INTRA:                  -5.164
REMARK UNBOUND:                -5.419
REMARK SMILES CCCCCCCCCCCCCCCCCCCCCCCCCCCCCO
REMARK SMILES IDX 16 1 15 2 14 3 13 4 12 5 11 6 10 7 9 8 8 9 7 10 6 11 5 12
REMARK SMILES IDX 4 13 3 14 2 15 1 16 17 17 18 18 19 19 20 20 21 21 22 22
REMARK SMILES IDX 23 23 24 24 25 25 26 26 27 27 28 28 29 29 30 30
REMARK H PARENT 30 31
REMARK Flexibility Score: inf
ROOT
ATOM      1  C   UNL     1       2.243   3.119  -4.736  1.00  0.00     0.000 C 
ENDROOT
BRANCH   1   2
ATOM      2  C   UNL     1       1.208   2.169  -4.112  1.00  0.00     0.000 C 
BRANCH   2   3
ATOM      3  C   UNL     1       1.893   0.939  -3.504  1.00  0.00     0.000 C 
BRANCH   3   4
ATOM      4  C   UNL     1       3.390   1.195  -3.278  1.00  0.00     0.000 C 
BRANCH   4   5
ATOM      5  C   UNL     1       4.176  -0.096  -2.992  1.00  0.00     0.000 C 
BRANCH   5   6
ATOM      6  C   UNL     1       5.532  -0.135  -3.712  1.00  0.00     0.000 C 
BRANCH   6   7
ATOM      7  C   UNL     1       5.879   1.232  -4.314  1.00  0.00     0.000 C 
BRANCH   7   8
ATOM      8  C   UNL     1       7.146   1.809  -3.664  1.00  0.00    -0.000 C 
BRANCH   8   9
ATOM      9  C   UNL     1       7.008   3.304  -3.326  1.00  0.00    -0.000 C 
BRANCH   9  10
ATOM     10  C   UNL     1       5.706   3.658  -2.572  1.00  0.00    -0.000 C 
BRANCH  10  11
ATOM     11  C   UNL     1       5.145   5.049  -2.924  1.00  0.00    -0.000 C 
BRANCH  11  12
ATOM     12  C   UNL     1       6.138   5.986  -3.637  1.00  0.00    -0.000 C 
BRANCH  12  13
ATOM     13  C   UNL     1       5.533   6.831  -4.777  1.00  0.00    -0.000 C 
BRANCH  13  14
ATOM     14  C   UNL     1       5.102   6.035  -6.025  1.00  0.00    -0.000 C 
BRANCH  14  15
ATOM     15  C   UNL     1       6.149   5.036  -6.550  1.00  0.00    -0.003 C 
ATOM     16  C   UNL     1       5.553   3.671  -6.887  1.00  0.00     0.004 C 
ENDBRANCH  14  15
ENDBRANCH  13  14
ENDBRANCH  12  13
ENDBRANCH  11  12
ENDBRANCH  10  11
ENDBRANCH   9  10
ENDBRANCH   8   9
ENDBRANCH   7   8
ENDBRANCH   6   7
ENDBRANCH   5   6
ENDBRANCH   4   5
ENDBRANCH   3   4
ENDBRANCH   2   3
ENDBRANCH   1   2
BRANCH   1  17
ATOM     17  C   UNL     1       2.003   3.358  -6.234  1.00  0.00     0.000 C 
BRANCH  17  18
ATOM     18  C   UNL     1       0.749   2.639  -6.756  1.00  0.00     0.000 C 
BRANCH  18  19
ATOM     19  C   UNL     1       0.228   3.227  -8.080  1.00  0.00     0.000 C 
BRANCH  19  20
ATOM     20  C   UNL     1      -0.359   4.647  -7.945  1.00  0.00     0.000 C 
BRANCH  20  21
ATOM     21  C   UNL     1      -1.831   4.716  -8.390  1.00  0.00     0.000 C 
BRANCH  21  22
ATOM     22  C   UNL     1      -2.588   3.406  -8.114  1.00  0.00     0.000 C 
BRANCH  22  23
ATOM     23  C   UNL     1      -3.384   3.454  -6.799  1.00  0.00     0.000 C 
BRANCH  23  24
ATOM     24  C   UNL     1      -2.687   2.699  -5.653  1.00  0.00     0.000 C 
BRANCH  24  25
ATOM     25  C   UNL     1      -2.107   3.599  -4.546  1.00  0.00     0.000 C 
BRANCH  25  26
ATOM     26  C   UNL     1      -2.679   5.025  -4.574  1.00  0.00     0.000 C 
BRANCH  26  27
ATOM     27  C   UNL     1      -1.570   6.056  -4.838  1.00  0.00     0.002 C 
BRANCH  27  28
ATOM     28  C   UNL     1      -0.222   5.644  -4.225  1.00  0.00     0.028 C 
BRANCH  28  29
ATOM     29  C   UNL     1       0.874   6.696  -4.440  1.00  0.00     0.156 C 
BRANCH  29  30
ATOM     30  O   UNL     1       1.957   6.444  -3.585  1.00  0.00    -0.396 OA
ATOM     31  H   UNL     1       1.922   5.479  -3.360  1.00  0.00     0.210 HD
ENDBRANCH  29  30
ENDBRANCH  28  29
ENDBRANCH  27  28
ENDBRANCH  26  27
ENDBRANCH  25  26
ENDBRANCH  24  25
ENDBRANCH  23  24
ENDBRANCH  22  23
ENDBRANCH  21  22
ENDBRANCH  20  21
ENDBRANCH  19  20
ENDBRANCH  18  19
ENDBRANCH  17  18
ENDBRANCH   1  17
TORSDOF 28
ENDMDL
MODEL 6
REMARK VINA RESULT:    -2.556      3.031      6.789
REMARK INTER + INTRA:         -12.084
REMARK INTER:                  -6.514
REMARK INTRA:                  -5.570
REMARK UNBOUND:                -5.419
REMARK SMILES CCCCCCCCCCCCCCCCCCCCCCCCCCCCCO
REMARK SMILES IDX 16 1 15 2 14 3 13 4 12 5 11 6 10 7 9 8 8 9 7 10 6 11 5 12
REMARK SMILES IDX 4 13 3 14 2 15 1 16 17 17 18 18 19 19 20 20 21 21 22 22
REMARK SMILES IDX 23 23 24 24 25 25 26 26 27 27 28 28 29 29 30 30
REMARK H PARENT 30 31
REMARK Flexibility Score: inf
ROOT
ATOM      1  C   UNL     1       1.168   3.657  -4.514  1.00  0.00     0.000 C 
ENDROOT
BRANCH   1   2
ATOM      2  C   UNL     1       2.549   3.589  -5.186  1.00  0.00     0.000 C 
BRANCH   2   3
ATOM      3  C   UNL     1       2.620   4.542  -6.385  1.00  0.00     0.000 C 
BRANCH   3   4
ATOM      4  C   UNL     1       2.650   3.764  -7.709  1.00  0.00     0.000 C 
BRANCH   4   5
ATOM      5  C   UNL     1       1.284   3.743  -8.415  1.00  0.00     0.000 C 
BRANCH   5   6
ATOM      6  C   UNL     1       0.487   2.463  -8.124  1.00  0.00     0.000 C 
BRANCH   6   7
ATOM      7  C   UNL     1      -0.955   2.580  -8.631  1.00  0.00     0.000 C 
BRANCH   7   8
ATOM      8  C   UNL     1      -1.043   3.573  -9.800  1.00  0.00    -0.000 C 
BRANCH   8   9
ATOM      9  C   UNL     1      -2.169   4.605  -9.617  1.00  0.00    -0.000 C 
BRANCH   9  10
ATOM     10  C   UNL     1      -1.698   6.073  -9.723  1.00  0.00    -0.000 C 
BRANCH  10  11
ATOM     11  C   UNL     1      -1.589   6.789  -8.363  1.00  0.00    -0.000 C 
BRANCH  11  12
ATOM     12  C   UNL     1      -0.192   6.744  -7.718  1.00  0.00    -0.000 C 
BRANCH  12  13
ATOM     13  C   UNL     1      -0.004   7.681  -6.506  1.00  0.00    -0.000 C 
BRANCH  13  14
ATOM     14  C   UNL     1      -1.309   8.166  -5.844  1.00  0.00    -0.000 C 
BRANCH  14  15
ATOM     15  C   UNL     1      -1.398   7.919  -4.328  1.00  0.00    -0.003 C 
ATOM     16  C   UNL     1      -0.264   7.043  -3.799  1.00  0.00     0.004 C 
ENDBRANCH  14  15
ENDBRANCH  13  14
ENDBRANCH  12  13
ENDBRANCH  11  12
ENDBRANCH  10  11
ENDBRANCH   9  10
ENDBRANCH   8   9
ENDBRANCH   7   8
ENDBRANCH   6   7
ENDBRANCH   5   6
ENDBRANCH   4   5
ENDBRANCH   3   4
ENDBRANCH   2   3
ENDBRANCH   1   2
BRANCH   1  17
ATOM     17  C   UNL     1       0.493   2.282  -4.405  1.00  0.00     0.000 C 
BRANCH  17  18
ATOM     18  C   UNL     1      -0.986   2.312  -4.823  1.00  0.00     0.000 C 
BRANCH  18  19
ATOM     19  C   UNL     1      -1.680   3.642  -4.477  1.00  0.00     0.000 C 
BRANCH  19  20
ATOM     20  C   UNL     1      -2.155   4.437  -5.710  1.00  0.00     0.000 C 
BRANCH  20  21
ATOM     21  C   UNL     1      -3.462   3.876  -6.300  1.00  0.00     0.000 C 
BRANCH  21  22
ATOM     22  C   UNL     1      -4.458   4.985  -6.678  1.00  0.00     0.000 C 
BRANCH  22  23
ATOM     23  C   UNL     1      -4.347   6.212  -5.755  1.00  0.00     0.000 C 
BRANCH  23  24
ATOM     24  C   UNL     1      -5.202   6.078  -4.481  1.00  0.00     0.000 C 
BRANCH  24  25
ATOM     25  C   UNL     1      -4.400   6.025  -3.168  1.00  0.00     0.000 C 
BRANCH  25  26
ATOM     26  C   UNL     1      -4.766   7.159  -2.197  1.00  0.00     0.000 C 
BRANCH  26  27
ATOM     27  C   UNL     1      -6.289   7.357  -2.133  1.00  0.00     0.002 C 
BRANCH  27  28
ATOM     28  C   UNL     1      -6.929   6.629  -0.941  1.00  0.00     0.028 C 
BRANCH  28  29
ATOM     29  C   UNL     1      -6.002   6.556   0.279  1.00  0.00     0.156 C 
BRANCH  29  30
ATOM     30  O   UNL     1      -5.860   5.226   0.698  1.00  0.00    -0.396 OA
ATOM     31  H   UNL     1      -6.776   4.881   0.858  1.00  0.00     0.210 HD
ENDBRANCH  29  30
ENDBRANCH  28  29
ENDBRANCH  27  28
ENDBRANCH  26  27
ENDBRANCH  25  26
ENDBRANCH  24  25
ENDBRANCH  23  24
ENDBRANCH  22  23
ENDBRANCH  21  22
ENDBRANCH  20  21
ENDBRANCH  19  20
ENDBRANCH  18  19
ENDBRANCH  17  18
ENDBRANCH   1  17
TORSDOF 28
ENDMDL
MODEL 7
REMARK VINA RESULT:    -2.533      1.529      3.111
REMARK INTER + INTRA:         -12.025
REMARK INTER:                  -6.799
REMARK INTRA:                  -5.227
REMARK UNBOUND:                -5.419
REMARK SMILES CCCCCCCCCCCCCCCCCCCCCCCCCCCCCO
REMARK SMILES IDX 16 1 15 2 14 3 13 4 12 5 11 6 10 7 9 8 8 9 7 10 6 11 5 12
REMARK SMILES IDX 4 13 3 14 2 15 1 16 17 17 18 18 19 19 20 20 21 21 22 22
REMARK SMILES IDX 23 23 24 24 25 25 26 26 27 27 28 28 29 29 30 30
REMARK H PARENT 30 31
REMARK Flexibility Score: inf
ROOT
ATOM      1  C   UNL     1      -0.779   3.754  -4.121  1.00  0.00     0.000 C 
ENDROOT
BRANCH   1   2
ATOM      2  C   UNL     1      -2.263   3.921  -4.486  1.00  0.00     0.000 C 
BRANCH   2   3
ATOM      3  C   UNL     1      -2.671   2.928  -5.581  1.00  0.00     0.000 C 
BRANCH   3   4
ATOM      4  C   UNL     1      -3.362   3.646  -6.749  1.00  0.00     0.000 C 
BRANCH   4   5
ATOM      5  C   UNL     1      -2.379   4.055  -7.860  1.00  0.00     0.000 C 
BRANCH   5   6
ATOM      6  C   UNL     1      -2.435   5.557  -8.176  1.00  0.00     0.000 C 
BRANCH   6   7
ATOM      7  C   UNL     1      -3.393   6.288  -7.228  1.00  0.00     0.000 C 
BRANCH   7   8
ATOM      8  C   UNL     1      -2.751   7.576  -6.691  1.00  0.00    -0.000 C 
BRANCH   8   9
ATOM      9  C   UNL     1      -1.572   7.298  -5.743  1.00  0.00    -0.000 C 
BRANCH   9  10
ATOM     10  C   UNL     1      -1.863   7.641  -4.264  1.00  0.00    -0.000 C 
BRANCH  10  11
ATOM     11  C   UNL     1      -3.206   8.367  -4.049  1.00  0.00    -0.000 C 
BRANCH  11  12
ATOM     12  C   UNL     1      -4.012   7.888  -2.828  1.00  0.00    -0.000 C 
BRANCH  12  13
ATOM     13  C   UNL     1      -4.484   6.420  -2.894  1.00  0.00    -0.000 C 
BRANCH  13  14
ATOM     14  C   UNL     1      -5.245   6.034  -4.178  1.00  0.00    -0.000 C 
BRANCH  14  15
ATOM     15  C   UNL     1      -6.610   6.722  -4.355  1.00  0.00    -0.003 C 
ATOM     16  C   UNL     1      -7.577   6.430  -3.210  1.00  0.00     0.004 C 
ENDBRANCH  14  15
ENDBRANCH  13  14
ENDBRANCH  12  13
ENDBRANCH  11  12
ENDBRANCH  10  11
ENDBRANCH   9  10
ENDBRANCH   8   9
ENDBRANCH   7   8
ENDBRANCH   6   7
ENDBRANCH   5   6
ENDBRANCH   4   5
ENDBRANCH   3   4
ENDBRANCH   2   3
ENDBRANCH   1   2
BRANCH   1  17
ATOM     17  C   UNL     1      -0.268   2.324  -4.356  1.00  0.00     0.000 C 
BRANCH  17  18
ATOM     18  C   UNL     1       1.020   2.285  -5.194  1.00  0.00     0.000 C 
BRANCH  18  19
ATOM     19  C   UNL     1       0.789   2.659  -6.669  1.00  0.00     0.000 C 
BRANCH  19  20
ATOM     20  C   UNL     1       1.699   3.796  -7.175  1.00  0.00     0.000 C 
BRANCH  20  21
ATOM     21  C   UNL     1       1.061   5.185  -6.987  1.00  0.00     0.000 C 
BRANCH  21  22
ATOM     22  C   UNL     1       1.980   6.153  -6.225  1.00  0.00     0.000 C 
BRANCH  22  23
ATOM     23  C   UNL     1       2.353   5.632  -4.826  1.00  0.00     0.000 C 
BRANCH  23  24
ATOM     24  C   UNL     1       3.862   5.371  -4.671  1.00  0.00     0.000 C 
BRANCH  24  25
ATOM     25  C   UNL     1       4.241   3.899  -4.423  1.00  0.00     0.000 C 
BRANCH  25  26
ATOM     26  C   UNL     1       5.160   3.714  -3.205  1.00  0.00     0.000 C 
BRANCH  26  27
ATOM     27  C   UNL     1       5.313   2.225  -2.854  1.00  0.00     0.002 C 
BRANCH  27  28
ATOM     28  C   UNL     1       4.469   1.314  -3.759  1.00  0.00     0.028 C 
BRANCH  28  29
ATOM     29  C   UNL     1       3.932   0.080  -3.024  1.00  0.00     0.156 C 
BRANCH  29  30
ATOM     30  O   UNL     1       2.530   0.092  -3.020  1.00  0.00    -0.396 OA
ATOM     31  H   UNL     1       2.251   0.656  -3.787  1.00  0.00     0.210 HD
ENDBRANCH  29  30
ENDBRANCH  28  29
ENDBRANCH  27  28
ENDBRANCH  26  27
ENDBRANCH  25  26
ENDBRANCH  24  25
ENDBRANCH  23  24
ENDBRANCH  22  23
ENDBRANCH  21  22
ENDBRANCH  20  21
ENDBRANCH  19  20
ENDBRANCH  18  19
ENDBRANCH  17  18
ENDBRANCH   1  17
TORSDOF 28
ENDMDL
MODEL 8
REMARK VINA RESULT:    -2.517      2.341      5.494
REMARK INTER + INTRA:         -11.984
REMARK INTER:                  -7.825
REMARK INTRA:                  -4.159
REMARK UNBOUND:                -5.419
REMARK SMILES CCCCCCCCCCCCCCCCCCCCCCCCCCCCCO
REMARK SMILES IDX 16 1 15 2 14 3 13 4 12 5 11 6 10 7 9 8 8 9 7 10 6 11 5 12
REMARK SMILES IDX 4 13 3 14 2 15 1 16 17 17 18 18 19 19 20 20 21 21 22 22
REMARK SMILES IDX 23 23 24 24 25 25 26 26 27 27 28 28 29 29 30 30
REMARK H PARENT 30 31
REMARK Flexibility Score: inf
ROOT
ATOM      1  C   UNL     1       0.138   2.384  -5.876  1.00  0.00     0.000 C 
ENDROOT
BRANCH   1   2
ATOM      2  C   UNL     1       1.047   3.362  -6.637  1.00  0.00     0.000 C 
BRANCH   2   3
ATOM      3  C   UNL     1       0.759   3.315  -8.142  1.00  0.00     0.000 C 
BRANCH   3   4
ATOM      4  C   UNL     1      -0.197   2.164  -8.487  1.00  0.00     0.000 C 
BRANCH   4   5
ATOM      5  C   UNL     1      -1.476   2.646  -9.191  1.00  0.00     0.000 C 
BRANCH   5   6
ATOM      6  C   UNL     1      -2.755   2.177  -8.481  1.00  0.00     0.000 C 
BRANCH   6   7
ATOM      7  C   UNL     1      -3.342   3.290  -7.603  1.00  0.00     0.000 C 
BRANCH   7   8
ATOM      8  C   UNL     1      -2.751   4.655  -7.987  1.00  0.00    -0.000 C 
BRANCH   8   9
ATOM      9  C   UNL     1      -2.220   5.432  -6.769  1.00  0.00    -0.000 C 
BRANCH   9  10
ATOM     10  C   UNL     1      -2.658   4.841  -5.410  1.00  0.00    -0.000 C 
BRANCH  10  11
ATOM     11  C   UNL     1      -1.701   5.178  -4.250  1.00  0.00    -0.000 C 
BRANCH  11  12
ATOM     12  C   UNL     1      -0.702   6.312  -4.544  1.00  0.00    -0.000 C 
BRANCH  12  13
ATOM     13  C   UNL     1       0.703   6.118  -3.935  1.00  0.00    -0.000 C 
BRANCH  13  14
ATOM     14  C   UNL     1       1.877   6.395  -4.894  1.00  0.00    -0.000 C 
BRANCH  14  15
ATOM     15  C   UNL     1       1.472   6.941  -6.275  1.00  0.00    -0.003 C 
ATOM     16  C   UNL     1       2.586   6.825  -7.312  1.00  0.00     0.004 C 
ENDBRANCH  14  15
ENDBRANCH  13  14
ENDBRANCH  12  13
ENDBRANCH  11  12
ENDBRANCH  10  11
ENDBRANCH   9  10
ENDBRANCH   8   9
ENDBRANCH   7   8
ENDBRANCH   6   7
ENDBRANCH   5   6
ENDBRANCH   4   5
ENDBRANCH   3   4
ENDBRANCH   2   3
ENDBRANCH   1   2
BRANCH   1  17
ATOM     17  C   UNL     1       0.465   2.313  -4.377  1.00  0.00     0.000 C 
BRANCH  17  18
ATOM     18  C   UNL     1       1.943   1.991  -4.106  1.00  0.00     0.000 C 
BRANCH  18  19
ATOM     19  C   UNL     1       2.137   0.692  -3.303  1.00  0.00     0.000 C 
BRANCH  19  20
ATOM     20  C   UNL     1       3.580   0.477  -2.803  1.00  0.00     0.000 C 
BRANCH  20  21
ATOM     21  C   UNL     1       4.595   1.366  -3.544  1.00  0.00     0.000 C 
BRANCH  21  22
ATOM     22  C   UNL     1       5.760   0.556  -4.137  1.00  0.00     0.000 C 
BRANCH  22  23
ATOM     23  C   UNL     1       5.495  -0.959  -4.111  1.00  0.00     0.000 C 
BRANCH  23  24
ATOM     24  C   UNL     1       6.788  -1.792  -4.175  1.00  0.00     0.000 C 
BRANCH  24  25
ATOM     25  C   UNL     1       7.161  -2.506  -2.863  1.00  0.00     0.000 C 
BRANCH  25  26
ATOM     26  C   UNL     1       6.703  -1.740  -1.612  1.00  0.00     0.000 C 
BRANCH  26  27
ATOM     27  C   UNL     1       6.174  -2.705  -0.540  1.00  0.00     0.002 C 
BRANCH  27  28
ATOM     28  C   UNL     1       4.733  -2.382  -0.114  1.00  0.00     0.028 C 
BRANCH  28  29
ATOM     29  C   UNL     1       4.040  -3.563   0.579  1.00  0.00     0.156 C 
BRANCH  29  30
ATOM     30  O   UNL     1       2.846  -3.137   1.177  1.00  0.00    -0.396 OA
ATOM     31  H   UNL     1       2.471  -3.923   1.651  1.00  0.00     0.210 HD
ENDBRANCH  29  30
ENDBRANCH  28  29
ENDBRANCH  27  28
ENDBRANCH  26  27
ENDBRANCH  25  26
ENDBRANCH  24  25
ENDBRANCH  23  24
ENDBRANCH  22  23
ENDBRANCH  21  22
ENDBRANCH  20  21
ENDBRANCH  19  20
ENDBRANCH  18  19
ENDBRANCH  17  18
ENDBRANCH   1  17
TORSDOF 28
ENDMDL
MODEL 9
REMARK VINA RESULT:    -2.516      8.888     12.684
REMARK INTER + INTRA:         -11.980
REMARK INTER:                  -6.583
REMARK INTRA:                  -5.397
REMARK UNBOUND:                -5.419
REMARK SMILES CCCCCCCCCCCCCCCCCCCCCCCCCCCCCO
REMARK SMILES IDX 16 1 15 2 14 3 13 4 12 5 11 6 10 7 9 8 8 9 7 10 6 11 5 12
REMARK SMILES IDX 4 13 3 14 2 15 1 16 17 17 18 18 19 19 20 20 21 21 22 22
REMARK SMILES IDX 23 23 24 24 25 25 26 26 27 27 28 28 29 29 30 30
REMARK H PARENT 30 31
REMARK Flexibility Score: inf
ROOT
ATOM      1  C   UNL     1       5.844  -3.038   2.152  1.00  0.00     0.000 C 
ENDROOT
BRANCH   1   2
ATOM      2  C   UNL     1       5.438  -3.514   3.556  1.00  0.00     0.000 C 
BRANCH   2   3
ATOM      3  C   UNL     1       5.650  -5.025   3.702  1.00  0.00     0.000 C 
BRANCH   3   4
ATOM      4  C   UNL     1       5.101  -5.781   2.484  1.00  0.00     0.000 C 
BRANCH   4   5
ATOM      5  C   UNL     1       6.195  -6.538   1.712  1.00  0.00     0.000 C 
BRANCH   5   6
ATOM      6  C   UNL     1       6.154  -6.261   0.202  1.00  0.00     0.000 C 
BRANCH   6   7
ATOM      7  C   UNL     1       4.732  -5.920  -0.260  1.00  0.00     0.000 C 
BRANCH   7   8
ATOM      8  C   UNL     1       4.227  -6.954  -1.278  1.00  0.00    -0.000 C 
BRANCH   8   9
ATOM      9  C   UNL     1       2.844  -7.518  -0.911  1.00  0.00    -0.000 C 
BRANCH   9  10
ATOM     10  C   UNL     1       2.793  -8.201   0.475  1.00  0.00    -0.000 C 
BRANCH  10  11
ATOM     11  C   UNL     1       1.525  -7.866   1.285  1.00  0.00    -0.000 C 
BRANCH  11  12
ATOM     12  C   UNL     1       0.329  -7.384   0.444  1.00  0.00    -0.000 C 
BRANCH  12  13
ATOM     13  C   UNL     1      -0.227  -5.999   0.835  1.00  0.00    -0.000 C 
BRANCH  13  14
ATOM     14  C   UNL     1       0.334  -4.815   0.022  1.00  0.00    -0.000 C 
BRANCH  14  15
ATOM     15  C   UNL     1       1.678  -4.261   0.526  1.00  0.00    -0.003 C 
ATOM     16  C   UNL     1       1.766  -4.206   2.050  1.00  0.00     0.004 C 
ENDBRANCH  14  15
ENDBRANCH  13  14
ENDBRANCH  12  13
ENDBRANCH  11  12
ENDBRANCH  10  11
ENDBRANCH   9  10
ENDBRANCH   8   9
ENDBRANCH   7   8
ENDBRANCH   6   7
ENDBRANCH   5   6
ENDBRANCH   4   5
ENDBRANCH   3   4
ENDBRANCH   2   3
ENDBRANCH   1   2
BRANCH   1  17
ATOM     17  C   UNL     1       4.728  -2.255   1.444  1.00  0.00     0.000 C 
BRANCH  17  18
ATOM     18  C   UNL     1       4.907  -2.213  -0.082  1.00  0.00     0.000 C 
BRANCH  18  19
ATOM     19  C   UNL     1       6.348  -2.525  -0.525  1.00  0.00     0.000 C 
BRANCH  19  20
ATOM     20  C   UNL     1       6.453  -3.079  -1.961  1.00  0.00     0.000 C 
BRANCH  20  21
ATOM     21  C   UNL     1       7.190  -2.115  -2.908  1.00  0.00     0.000 C 
BRANCH  21  22
ATOM     22  C   UNL     1       6.374  -1.798  -4.172  1.00  0.00     0.000 C 
BRANCH  22  23
ATOM     23  C   UNL     1       5.783  -0.378  -4.148  1.00  0.00     0.000 C 
BRANCH  23  24
ATOM     24  C   UNL     1       4.452  -0.299  -3.378  1.00  0.00     0.000 C 
BRANCH  24  25
ATOM     25  C   UNL     1       4.459   0.663  -2.175  1.00  0.00     0.000 C 
BRANCH  25  26
ATOM     26  C   UNL     1       5.857   1.216  -1.859  1.00  0.00     0.000 C 
BRANCH  26  27
ATOM     27  C   UNL     1       5.828   2.095  -0.599  1.00  0.00     0.002 C 
BRANCH  27  28
ATOM     28  C   UNL     1       6.114   1.299   0.684  1.00  0.00     0.028 C 
BRANCH  28  29
ATOM     29  C   UNL     1       5.061   1.531   1.775  1.00  0.00     0.156 C 
BRANCH  29  30
ATOM     30  O   UNL     1       3.839   0.957   1.394  1.00  0.00    -0.396 OA
ATOM     31  H   UNL     1       3.126   1.532   1.775  1.00  0.00     0.210 HD
ENDBRANCH  29  30
ENDBRANCH  28  29
ENDBRANCH  27  28
ENDBRANCH  26  27
ENDBRANCH  25  26
ENDBRANCH  24  25
ENDBRANCH  23  24
ENDBRANCH  22  23
ENDBRANCH  21  22
ENDBRANCH  20  21
ENDBRANCH  19  20
ENDBRANCH  18  19
ENDBRANCH  17  18
ENDBRANCH   1  17
TORSDOF 28
ENDMDL
