MODEL 1
REMARK VINA RESULT:    -5.561      0.000      0.000
REMARK INTER + INTRA:          -5.886
REMARK INTER:                  -5.886
REMARK INTRA:                   0.000
REMARK UNBOUND:                 0.000
REMARK SMILES O=c1ccc2cc(O)c(O)cc2o1
REMARK SMILES IDX 4 1 3 2 2 3 1 4 13 5 12 6 11 7 9 8 7 9 6 10 5 11 8 12 10 14
REMARK H PARENT 8 13 10 15
REMARK Flexibility Score: inf
ROOT
ATOM      1  C   UNL     1     -13.789  24.654 -28.762  1.00  0.00     0.019 A 
ATOM      2  C   UNL     1     -14.268  25.146 -27.548  1.00  0.00     0.094 A 
ATOM      3  C   UNL     1     -15.225  24.406 -26.846  1.00  0.00     0.336 A 
ATOM      4  O   UNL     1     -15.669  24.834 -25.749  1.00  0.00    -0.246 OA
ATOM      5  O   UNL     1     -15.671  23.251 -27.331  1.00  0.00    -0.423 OA
ATOM      6  C   UNL     1     -15.241  22.745 -28.485  1.00  0.00     0.142 A 
ATOM      7  C   UNL     1     -15.746  21.524 -28.945  1.00  0.00     0.098 A 
ATOM      8  C   UNL     1     -15.296  20.987 -30.160  1.00  0.00     0.161 A 
ATOM      9  C   UNL     1     -14.337  21.674 -30.918  1.00  0.00     0.158 A 
ATOM     10  C   UNL     1     -13.827  22.899 -30.462  1.00  0.00     0.062 A 
ATOM     11  C   UNL     1     -14.275  23.437 -29.248  1.00  0.00     0.022 A 
ENDROOT
BRANCH   9  12
ATOM     12  O   UNL     1     -13.896  21.133 -32.125  1.00  0.00    -0.504 OA
ATOM     13  H   UNL     1     -14.461  21.179 -32.965  1.00  0.00     0.293 HD
ENDBRANCH   9  12
BRANCH   8  14
ATOM     14  O   UNL     1     -15.797  19.771 -30.621  1.00  0.00    -0.504 OA
ATOM     15  H   UNL     1     -16.542  19.732 -31.308  1.00  0.00     0.293 HD
ENDBRANCH   8  14
TORSDOF 2
ENDMDL
MODEL 2
REMARK VINA RESULT:    -5.261      6.860     10.029
REMARK INTER + INTRA:          -5.568
REMARK INTER:                  -5.568
REMARK INTRA:                   0.000
REMARK UNBOUND:                 0.000
REMARK SMILES O=c1ccc2cc(O)c(O)cc2o1
REMARK SMILES IDX 4 1 3 2 2 3 1 4 13 5 12 6 11 7 9 8 7 9 6 10 5 11 8 12 10 14
REMARK H PARENT 8 13 10 15
REMARK Flexibility Score: inf
ROOT
ATOM      1  C   UNL     1     -10.881  26.404 -22.647  1.00  0.00     0.019 A 
ATOM      2  C   UNL     1     -11.489  25.787 -23.740  1.00  0.00     0.094 A 
ATOM      3  C   UNL     1     -12.772  25.250 -23.589  1.00  0.00     0.336 A 
ATOM      4  O   UNL     1     -13.337  24.690 -24.565  1.00  0.00    -0.246 OA
ATOM      5  O   UNL     1     -13.400  25.326 -22.420  1.00  0.00    -0.423 OA
ATOM      6  C   UNL     1     -12.857  25.905 -21.351  1.00  0.00     0.142 A 
ATOM      7  C   UNL     1     -13.565  25.956 -20.146  1.00  0.00     0.098 A 
ATOM      8  C   UNL     1     -12.997  26.565 -19.018  1.00  0.00     0.161 A 
ATOM      9  C   UNL     1     -11.714  27.125 -19.095  1.00  0.00     0.158 A 
ATOM     10  C   UNL     1     -10.998  27.077 -20.301  1.00  0.00     0.062 A 
ATOM     11  C   UNL     1     -11.565  26.469 -21.430  1.00  0.00     0.022 A 
ENDROOT
BRANCH   9  12
ATOM     12  O   UNL     1     -11.156  27.728 -17.969  1.00  0.00    -0.504 OA
ATOM     13  H   UNL     1     -11.734  28.096 -17.223  1.00  0.00     0.293 HD
ENDBRANCH   9  12
BRANCH   8  14
ATOM     14  O   UNL     1     -13.700  26.617 -17.816  1.00  0.00    -0.504 OA
ATOM     15  H   UNL     1     -13.657  27.429 -17.212  1.00  0.00     0.293 HD
ENDBRANCH   8  14
TORSDOF 2
ENDMDL
MODEL 3
REMARK VINA RESULT:    -5.229     14.347     16.002
REMARK INTER + INTRA:          -5.535
REMARK INTER:                  -5.535
REMARK INTRA:                   0.000
REMARK UNBOUND:                 0.000
REMARK SMILES O=c1ccc2cc(O)c(O)cc2o1
REMARK SMILES IDX 4 1 3 2 2 3 1 4 13 5 12 6 11 7 9 8 7 9 6 10 5 11 8 12 10 14
REMARK H PARENT 8 13 10 15
REMARK Flexibility Score: inf
ROOT
ATOM      1  C   UNL     1     -24.743  28.527 -19.099  1.00  0.00     0.019 A 
ATOM      2  C   UNL     1     -24.898  29.086 -17.831  1.00  0.00     0.094 A 
ATOM      3  C   UNL     1     -26.160  29.060 -17.227  1.00  0.00     0.336 A 
ATOM      4  O   UNL     1     -26.319  29.560 -16.083  1.00  0.00    -0.246 OA
ATOM      5  O   UNL     1     -27.196  28.511 -17.856  1.00  0.00    -0.423 OA
ATOM      6  C   UNL     1     -27.092  27.966 -19.066  1.00  0.00     0.142 A 
ATOM      7  C   UNL     1     -28.216  27.402 -19.678  1.00  0.00     0.098 A 
ATOM      8  C   UNL     1     -28.112  26.826 -20.953  1.00  0.00     0.161 A 
ATOM      9  C   UNL     1     -26.877  26.816 -21.619  1.00  0.00     0.158 A 
ATOM     10  C   UNL     1     -25.746  27.381 -21.010  1.00  0.00     0.062 A 
ATOM     11  C   UNL     1     -25.849  27.956 -19.736  1.00  0.00     0.022 A 
ENDROOT
BRANCH   9  12
ATOM     12  O   UNL     1     -26.783  26.243 -22.886  1.00  0.00    -0.504 OA
ATOM     13  H   UNL     1     -26.078  25.548 -23.102  1.00  0.00     0.293 HD
ENDBRANCH   9  12
BRANCH   8  14
ATOM     14  O   UNL     1     -29.230  26.264 -21.565  1.00  0.00    -0.504 OA
ATOM     15  H   UNL     1     -29.143  25.504 -22.231  1.00  0.00     0.293 HD
ENDBRANCH   8  14
TORSDOF 2
ENDMDL
MODEL 4
REMARK VINA RESULT:    -5.171     18.133     19.273
REMARK INTER + INTRA:          -5.473
REMARK INTER:                  -5.473
REMARK INTRA:                   0.000
REMARK UNBOUND:                 0.000
REMARK SMILES O=c1ccc2cc(O)c(O)cc2o1
REMARK SMILES IDX 4 1 3 2 2 3 1 4 13 5 12 6 11 7 9 8 7 9 6 10 5 11 8 12 10 14
REMARK H PARENT 8 13 10 15
REMARK Flexibility Score: inf
ROOT
ATOM      1  C   UNL     1     -21.269  31.680 -14.901  1.00  0.00     0.019 A 
ATOM      2  C   UNL     1     -22.330  31.062 -14.240  1.00  0.00     0.094 A 
ATOM      3  C   UNL     1     -22.253  30.880 -12.855  1.00  0.00     0.336 A 
ATOM      4  O   UNL     1     -23.201  30.325 -12.240  1.00  0.00    -0.246 OA
ATOM      5  O   UNL     1     -21.182  31.290 -12.181  1.00  0.00    -0.423 OA
ATOM      6  C   UNL     1     -20.148  31.885 -12.772  1.00  0.00     0.142 A 
ATOM      7  C   UNL     1     -19.048  32.296 -12.012  1.00  0.00     0.098 A 
ATOM      8  C   UNL     1     -17.956  32.922 -12.630  1.00  0.00     0.161 A 
ATOM      9  C   UNL     1     -17.964  33.138 -14.016  1.00  0.00     0.158 A 
ATOM     10  C   UNL     1     -19.064  32.727 -14.784  1.00  0.00     0.062 A 
ATOM     11  C   UNL     1     -20.156  32.101 -14.167  1.00  0.00     0.022 A 
ENDROOT
BRANCH   9  12
ATOM     12  O   UNL     1     -16.874  33.760 -14.623  1.00  0.00    -0.504 OA
ATOM     13  H   UNL     1     -15.994  33.276 -14.757  1.00  0.00     0.293 HD
ENDBRANCH   9  12
BRANCH   8  14
ATOM     14  O   UNL     1     -16.859  33.332 -11.875  1.00  0.00    -0.504 OA
ATOM     15  H   UNL     1     -16.935  33.501 -10.878  1.00  0.00     0.293 HD
ENDBRANCH   8  14
TORSDOF 2
ENDMDL
MODEL 5
REMARK VINA RESULT:    -5.153     18.606     19.798
REMARK INTER + INTRA:          -5.454
REMARK INTER:                  -5.454
REMARK INTRA:                   0.000
REMARK UNBOUND:                 0.000
REMARK SMILES O=c1ccc2cc(O)c(O)cc2o1
REMARK SMILES IDX 4 1 3 2 2 3 1 4 13 5 12 6 11 7 9 8 7 9 6 10 5 11 8 12 10 14
REMARK H PARENT 8 13 10 15
REMARK Flexibility Score: inf
ROOT
ATOM      1  C   UNL     1     -21.215  32.011 -11.877  1.00  0.00     0.019 A 
ATOM      2  C   UNL     1     -22.468  32.582 -12.099  1.00  0.00     0.094 A 
ATOM      3  C   UNL     1     -22.591  33.599 -13.051  1.00  0.00     0.336 A 
ATOM      4  O   UNL     1     -23.714  34.127 -13.266  1.00  0.00    -0.246 OA
ATOM      5  O   UNL     1     -21.527  34.015 -13.734  1.00  0.00    -0.423 OA
ATOM      6  C   UNL     1     -20.314  33.498 -13.554  1.00  0.00     0.142 A 
ATOM      7  C   UNL     1     -19.232  33.974 -14.300  1.00  0.00     0.098 A 
ATOM      8  C   UNL     1     -17.952  33.433 -14.115  1.00  0.00     0.161 A 
ATOM      9  C   UNL     1     -17.753  32.409 -13.176  1.00  0.00     0.158 A 
ATOM     10  C   UNL     1     -18.835  31.927 -12.423  1.00  0.00     0.062 A 
ATOM     11  C   UNL     1     -20.115  32.467 -12.608  1.00  0.00     0.022 A 
ENDROOT
BRANCH   9  12
ATOM     12  O   UNL     1     -16.477  31.877 -12.997  1.00  0.00    -0.504 OA
ATOM     13  H   UNL     1     -16.023  31.883 -12.091  1.00  0.00     0.293 HD
ENDBRANCH   9  12
BRANCH   8  14
ATOM     14  O   UNL     1     -16.872  33.905 -14.857  1.00  0.00    -0.504 OA
ATOM     15  H   UNL     1     -16.546  33.421 -15.686  1.00  0.00     0.293 HD
ENDBRANCH   8  14
TORSDOF 2
ENDMDL
MODEL 6
REMARK VINA RESULT:    -4.999     13.203     15.402
REMARK INTER + INTRA:          -5.291
REMARK INTER:                  -5.291
REMARK INTRA:                   0.000
REMARK UNBOUND:                 0.000
REMARK SMILES O=c1ccc2cc(O)c(O)cc2o1
REMARK SMILES IDX 4 1 3 2 2 3 1 4 13 5 12 6 11 7 9 8 7 9 6 10 5 11 8 12 10 14
REMARK H PARENT 8 13 10 15
REMARK Flexibility Score: inf
ROOT
ATOM      1  C   UNL     1     -15.395  19.001 -15.620  1.00  0.00     0.019 A 
ATOM      2  C   UNL     1     -16.193  18.463 -16.629  1.00  0.00     0.094 A 
ATOM      3  C   UNL     1     -17.512  18.911 -16.763  1.00  0.00     0.336 A 
ATOM      4  O   UNL     1     -18.247  18.437 -17.668  1.00  0.00    -0.246 OA
ATOM      5  O   UNL     1     -17.996  19.835 -15.938  1.00  0.00    -0.423 OA
ATOM      6  C   UNL     1     -17.269  20.375 -14.962  1.00  0.00     0.142 A 
ATOM      7  C   UNL     1     -17.831  21.344 -14.125  1.00  0.00     0.098 A 
ATOM      8  C   UNL     1     -17.070  21.916 -13.095  1.00  0.00     0.161 A 
ATOM      9  C   UNL     1     -15.739  21.516 -12.902  1.00  0.00     0.158 A 
ATOM     10  C   UNL     1     -15.170  20.543 -13.738  1.00  0.00     0.062 A 
ATOM     11  C   UNL     1     -15.930  19.971 -14.767  1.00  0.00     0.022 A 
ENDROOT
BRANCH   9  12
ATOM     12  O   UNL     1     -14.990  22.088 -11.875  1.00  0.00    -0.504 OA
ATOM     13  H   UNL     1     -14.523  22.979 -11.993  1.00  0.00     0.293 HD
ENDBRANCH   9  12
BRANCH   8  14
ATOM     14  O   UNL     1     -17.627  22.881 -12.260  1.00  0.00    -0.504 OA
ATOM     15  H   UNL     1     -17.134  23.224 -11.443  1.00  0.00     0.293 HD
ENDBRANCH   8  14
TORSDOF 2
ENDMDL
MODEL 7
REMARK VINA RESULT:    -4.872     14.237     16.424
REMARK INTER + INTRA:          -5.157
REMARK INTER:                  -5.157
REMARK INTRA:                   0.000
REMARK UNBOUND:                 0.000
REMARK SMILES O=c1ccc2cc(O)c(O)cc2o1
REMARK SMILES IDX 4 1 3 2 2 3 1 4 13 5 12 6 11 7 9 8 7 9 6 10 5 11 8 12 10 14
REMARK H PARENT 8 13 10 15
REMARK Flexibility Score: inf
ROOT
ATOM      1  C   UNL     1     -28.788  28.502 -18.526  1.00  0.00     0.019 A 
ATOM      2  C   UNL     1     -28.498  29.230 -17.372  1.00  0.00     0.094 A 
ATOM      3  C   UNL     1     -27.165  29.531 -17.076  1.00  0.00     0.336 A 
ATOM      4  O   UNL     1     -26.885  30.188 -16.039  1.00  0.00    -0.246 OA
ATOM      5  O   UNL     1     -26.188  29.128 -17.884  1.00  0.00    -0.423 OA
ATOM      6  C   UNL     1     -26.419  28.432 -18.994  1.00  0.00     0.142 A 
ATOM      7  C   UNL     1     -25.352  28.035 -19.807  1.00  0.00     0.098 A 
ATOM      8  C   UNL     1     -25.590  27.302 -20.978  1.00  0.00     0.161 A 
ATOM      9  C   UNL     1     -26.903  26.963 -21.338  1.00  0.00     0.158 A 
ATOM     10  C   UNL     1     -27.978  27.358 -20.527  1.00  0.00     0.062 A 
ATOM     11  C   UNL     1     -27.741  28.091 -19.357  1.00  0.00     0.022 A 
ENDROOT
BRANCH   9  12
ATOM     12  O   UNL     1     -27.131  26.233 -22.504  1.00  0.00    -0.504 OA
ATOM     13  H   UNL     1     -26.546  25.446 -22.759  1.00  0.00     0.293 HD
ENDBRANCH   9  12
BRANCH   8  14
ATOM     14  O   UNL     1     -24.529  26.905 -21.789  1.00  0.00    -0.504 OA
ATOM     15  H   UNL     1     -24.050  27.562 -22.394  1.00  0.00     0.293 HD
ENDBRANCH   8  14
TORSDOF 2
ENDMDL
MODEL 8
REMARK VINA RESULT:    -4.781     10.948     12.468
REMARK INTER + INTRA:          -5.060
REMARK INTER:                  -5.060
REMARK INTRA:                   0.000
REMARK UNBOUND:                 0.000
REMARK SMILES O=c1ccc2cc(O)c(O)cc2o1
REMARK SMILES IDX 4 1 3 2 2 3 1 4 13 5 12 6 11 7 9 8 7 9 6 10 5 11 8 12 10 14
REMARK H PARENT 8 13 10 15
REMARK Flexibility Score: inf
ROOT
ATOM      1  C   UNL     1     -21.347  31.913 -21.426  1.00  0.00     0.019 A 
ATOM      2  C   UNL     1     -22.401  31.406 -22.186  1.00  0.00     0.094 A 
ATOM      3  C   UNL     1     -22.322  30.093 -22.663  1.00  0.00     0.336 A 
ATOM      4  O   UNL     1     -23.264  29.617 -23.351  1.00  0.00    -0.246 OA
ATOM      5  O   UNL     1     -21.257  29.342 -22.396  1.00  0.00    -0.423 OA
ATOM      6  C   UNL     1     -20.230  29.786 -21.675  1.00  0.00     0.142 A 
ATOM      7  C   UNL     1     -19.137  28.951 -21.425  1.00  0.00     0.098 A 
ATOM      8  C   UNL     1     -18.052  29.415 -20.667  1.00  0.00     0.161 A 
ATOM      9  C   UNL     1     -18.062  30.721 -20.155  1.00  0.00     0.158 A 
ATOM     10  C   UNL     1     -19.156  31.564 -20.403  1.00  0.00     0.062 A 
ATOM     11  C   UNL     1     -20.240  31.102 -21.161  1.00  0.00     0.022 A 
ENDROOT
BRANCH   9  12
ATOM     12  O   UNL     1     -16.979  31.174 -19.403  1.00  0.00    -0.504 OA
ATOM     13  H   UNL     1     -16.259  30.541 -19.076  1.00  0.00     0.293 HD
ENDBRANCH   9  12
BRANCH   8  14
ATOM     14  O   UNL     1     -16.962  28.585 -20.416  1.00  0.00    -0.504 OA
ATOM     15  H   UNL     1     -16.259  28.404 -21.125  1.00  0.00     0.293 HD
ENDBRANCH   8  14
TORSDOF 2
ENDMDL
MODEL 9
REMARK VINA RESULT:    -4.760     10.976     12.635
REMARK INTER + INTRA:          -5.038
REMARK INTER:                  -5.038
REMARK INTRA:                   0.000
REMARK UNBOUND:                 0.000
REMARK SMILES O=c1ccc2cc(O)c(O)cc2o1
REMARK SMILES IDX 4 1 3 2 2 3 1 4 13 5 12 6 11 7 9 8 7 9 6 10 5 11 8 12 10 14
REMARK H PARENT 8 13 10 15
REMARK Flexibility Score: inf
ROOT
ATOM      1  C   UNL     1     -21.251  29.597 -22.496  1.00  0.00     0.019 A 
ATOM      2  C   UNL     1     -22.229  30.553 -22.771  1.00  0.00     0.094 A 
ATOM      3  C   UNL     1     -22.065  31.852 -22.279  1.00  0.00     0.336 A 
ATOM      4  O   UNL     1     -22.937  32.728 -22.517  1.00  0.00    -0.246 OA
ATOM      5  O   UNL     1     -20.993  32.169 -21.559  1.00  0.00    -0.423 OA
ATOM      6  C   UNL     1     -20.036  31.288 -21.274  1.00  0.00     0.142 A 
ATOM      7  C   UNL     1     -18.930  31.678 -20.512  1.00  0.00     0.098 A 
ATOM      8  C   UNL     1     -17.919  30.755 -20.209  1.00  0.00     0.161 A 
ATOM      9  C   UNL     1     -18.016  29.433 -20.669  1.00  0.00     0.158 A 
ATOM     10  C   UNL     1     -19.124  29.036 -21.433  1.00  0.00     0.062 A 
ATOM     11  C   UNL     1     -20.134  29.958 -21.737  1.00  0.00     0.022 A 
ENDROOT
BRANCH   9  12
ATOM     12  O   UNL     1     -17.008  28.521 -20.362  1.00  0.00    -0.504 OA
ATOM     13  H   UNL     1     -17.110  27.532 -20.557  1.00  0.00     0.293 HD
ENDBRANCH   9  12
BRANCH   8  14
ATOM     14  O   UNL     1     -16.816  31.141 -19.450  1.00  0.00    -0.504 OA
ATOM     15  H   UNL     1     -16.500  32.104 -19.426  1.00  0.00     0.293 HD
ENDBRANCH   8  14
TORSDOF 2
ENDMDL
