MODEL 1
REMARK VINA RESULT:     4.267      0.000      0.000
REMARK INTER + INTRA:           8.052
REMARK INTER:                   6.262
REMARK INTRA:                   1.790
REMARK UNBOUND:                 1.790
REMARK SMILES O=c1c(O[C@@H]2O[C@H](CO)[C@@H](O)[C@@H](O)[C@@H]2O)c(-c2ccc(O)c(O)c2)oc2cc(O)cc(O)c12
REMARK SMILES IDX 4 1 3 2 16 3 25 4 2 5 26 6 1 7 33 8 27 9 31 10 28 11 30 12
REMARK SMILES IDX 17 13 18 14 19 15 20 16 24 17 22 18 21 19 23 21 32 23 29 25
REMARK SMILES IDX 5 27 14 28 6 29 12 30 7 31 10 32 15 33 13 35 8 37 9 38 11 40
REMARK H PARENT 21 20 23 22 32 24 29 26 15 34 13 36 9 39 11 41
REMARK Flexibility Score: inf
ROOT
ATOM      1  O   UNL     1       8.160  69.458   0.003  1.00  0.00    -0.454 OA
ENDROOT
BRANCH   1   2
ATOM      2  C   UNL     1       9.126  70.211  -0.696  1.00  0.00     0.214 A 
ATOM      3  C   UNL     1       9.748  71.281  -0.021  1.00  0.00     0.180 A 
ATOM      4  O   UNL     1      10.709  71.980  -0.612  1.00  0.00    -0.452 OA
ATOM      5  C   UNL     1       9.532  69.934  -2.023  1.00  0.00     0.239 A 
ATOM      6  C   UNL     1      11.122  71.750  -1.851  1.00  0.00     0.146 A 
ATOM      7  O   UNL     1       9.008  68.988  -2.666  1.00  0.00    -0.285 OA
ATOM      8  C   UNL     1      10.543  70.717  -2.622  1.00  0.00     0.111 A 
ATOM      9  C   UNL     1      12.138  72.548  -2.387  1.00  0.00     0.094 A 
ATOM     10  C   UNL     1      11.004  70.505  -3.945  1.00  0.00     0.134 A 
ATOM     11  C   UNL     1      12.589  72.333  -3.693  1.00  0.00     0.123 A 
ATOM     12  C   UNL     1      12.024  71.318  -4.466  1.00  0.00     0.093 A 
BRANCH   3  13
ATOM     13  C   UNL     1       9.369  71.655   1.359  1.00  0.00     0.025 A 
ATOM     14  C   UNL     1       8.545  72.765   1.576  1.00  0.00     0.016 A 
ATOM     15  C   UNL     1       8.170  73.125   2.872  1.00  0.00     0.051 A 
ATOM     16  C   UNL     1       8.597  72.375   3.973  1.00  0.00     0.157 A 
ATOM     17  C   UNL     1       9.779  70.882   2.459  1.00  0.00     0.062 A 
ATOM     18  C   UNL     1       9.409  71.235   3.763  1.00  0.00     0.158 A 
BRANCH  16  19
ATOM     19  O   UNL     1       8.196  72.793   5.243  1.00  0.00    -0.504 OA
ATOM     20  H   UNL     1       8.077  72.172   6.030  1.00  0.00     0.293 HD
ENDBRANCH  16  19
BRANCH  18  21
ATOM     21  O   UNL     1       9.860  70.427   4.810  1.00  0.00    -0.504 OA
ATOM     22  H   UNL     1       9.855  69.418   4.787  1.00  0.00     0.293 HD
ENDBRANCH  18  21
ENDBRANCH   3  13
BRANCH  10  23
ATOM     23  O   UNL     1      10.461  69.500  -4.745  1.00  0.00    -0.507 OA
ATOM     24  H   UNL     1       9.513  69.165  -4.610  1.00  0.00     0.293 HD
ENDBRANCH  10  23
BRANCH  11  25
ATOM     25  O   UNL     1      13.600  73.125  -4.233  1.00  0.00    -0.508 OA
ATOM     26  H   UNL     1      13.960  73.934  -3.741  1.00  0.00     0.293 HD
ENDBRANCH  11  25
ENDBRANCH   1   2
BRANCH   1  27
ATOM     27  C   UNL     1       8.383  68.309   0.822  1.00  0.00     0.339 C 
ATOM     28  C   UNL     1       8.440  67.036  -0.062  1.00  0.00     0.214 C 
ATOM     29  O   UNL     1       9.607  68.456   1.518  1.00  0.00    -0.332 OA
ATOM     30  C   UNL     1       9.367  65.961   0.562  1.00  0.00     0.180 C 
ATOM     31  C   UNL     1       9.706  67.496   2.563  1.00  0.00     0.179 C 
ATOM     32  C   UNL     1       9.343  66.046   2.098  1.00  0.00     0.177 C 
BRANCH  28  33
ATOM     33  O   UNL     1       8.853  67.332  -1.374  1.00  0.00    -0.384 OA
ATOM     34  H   UNL     1       9.646  66.768  -1.573  1.00  0.00     0.211 HD
ENDBRANCH  28  33
BRANCH  30  35
ATOM     35  O   UNL     1       8.979  64.677   0.146  1.00  0.00    -0.387 OA
ATOM     36  H   UNL     1       9.484  64.482  -0.686  1.00  0.00     0.211 HD
ENDBRANCH  30  35
BRANCH  31  37
ATOM     37  C   UNL     1      11.133  67.545   3.122  1.00  0.00     0.191 C 
BRANCH  37  38
ATOM     38  O   UNL     1      12.056  67.481   2.071  1.00  0.00    -0.394 OA
ATOM     39  H   UNL     1      11.644  67.971   1.313  1.00  0.00     0.210 HD
ENDBRANCH  37  38
ENDBRANCH  31  37
BRANCH  32  40
ATOM     40  O   UNL     1       8.061  65.718   2.576  1.00  0.00    -0.387 OA
ATOM     41  H   UNL     1       8.149  65.531   3.547  1.00  0.00     0.211 HD
ENDBRANCH  32  40
ENDBRANCH   1  27
TORSDOF 12
ENDMDL
MODEL 2
REMARK VINA RESULT:     6.889      1.707      6.182
REMARK INTER + INTRA:          11.901
REMARK INTER:                  11.387
REMARK INTRA:                   0.514
REMARK UNBOUND:                 1.790
REMARK SMILES O=c1c(O[C@@H]2O[C@H](CO)[C@@H](O)[C@@H](O)[C@@H]2O)c(-c2ccc(O)c(O)c2)oc2cc(O)cc(O)c12
REMARK SMILES IDX 4 1 3 2 16 3 25 4 2 5 26 6 1 7 33 8 27 9 31 10 28 11 30 12
REMARK SMILES IDX 17 13 18 14 19 15 20 16 24 17 22 18 21 19 23 21 32 23 29 25
REMARK SMILES IDX 5 27 14 28 6 29 12 30 7 31 10 32 15 33 13 35 8 37 9 38 11 40
REMARK H PARENT 21 20 23 22 32 24 29 26 15 34 13 36 9 39 11 41
REMARK Flexibility Score: inf
ROOT
ATOM      1  O   UNL     1      11.194  68.747  -0.110  1.00  0.00    -0.454 OA
ENDROOT
BRANCH   1   2
ATOM      2  C   UNL     1      10.554  69.629   0.786  1.00  0.00     0.214 A 
ATOM      3  C   UNL     1      10.365  70.965   0.379  1.00  0.00     0.180 A 
ATOM      4  O   UNL     1       9.711  71.818   1.158  1.00  0.00    -0.452 OA
ATOM      5  C   UNL     1      10.059  69.242   2.053  1.00  0.00     0.239 A 
ATOM      6  C   UNL     1       9.228  71.495   2.349  1.00  0.00     0.146 A 
ATOM      7  O   UNL     1      10.201  68.059   2.460  1.00  0.00    -0.285 OA
ATOM      8  C   UNL     1       9.388  70.187   2.859  1.00  0.00     0.111 A 
ATOM      9  C   UNL     1       8.559  72.469   3.097  1.00  0.00     0.094 A 
ATOM     10  C   UNL     1       8.866  69.880   4.141  1.00  0.00     0.134 A 
ATOM     11  C   UNL     1       8.045  72.159   4.361  1.00  0.00     0.123 A 
ATOM     12  C   UNL     1       8.199  70.872   4.877  1.00  0.00     0.093 A 
BRANCH   3  13
ATOM     13  C   UNL     1      10.869  71.461  -0.921  1.00  0.00     0.025 A 
ATOM     14  C   UNL     1      11.609  72.649  -0.970  1.00  0.00     0.016 A 
ATOM     15  C   UNL     1      12.101  73.125  -2.186  1.00  0.00     0.051 A 
ATOM     16  C   UNL     1      11.877  72.418  -3.373  1.00  0.00     0.157 A 
ATOM     17  C   UNL     1      10.665  70.733  -2.105  1.00  0.00     0.062 A 
ATOM     18  C   UNL     1      11.154  71.202  -3.331  1.00  0.00     0.158 A 
BRANCH  16  19
ATOM     19  O   UNL     1      12.387  72.953  -4.558  1.00  0.00    -0.504 OA
ATOM     20  H   UNL     1      11.861  73.550  -5.180  1.00  0.00     0.293 HD
ENDBRANCH  16  19
BRANCH  18  21
ATOM     21  O   UNL     1      10.905  70.433  -4.469  1.00  0.00    -0.504 OA
ATOM     22  H   UNL     1       9.995  70.076  -4.723  1.00  0.00     0.293 HD
ENDBRANCH  18  21
ENDBRANCH   3  13
BRANCH  10  23
ATOM     23  O   UNL     1       9.002  68.604   4.687  1.00  0.00    -0.507 OA
ATOM     24  H   UNL     1       8.210  67.979   4.788  1.00  0.00     0.293 HD
ENDBRANCH  10  23
BRANCH  11  25
ATOM     25  O   UNL     1       7.378  73.125   5.111  1.00  0.00    -0.508 OA
ATOM     26  H   UNL     1       6.855  72.882   5.944  1.00  0.00     0.293 HD
ENDBRANCH  11  25
ENDBRANCH   1   2
BRANCH   1  27
ATOM     27  C   UNL     1      10.585  67.963  -1.137  1.00  0.00     0.339 C 
ATOM     28  C   UNL     1      10.574  66.469  -0.721  1.00  0.00     0.214 C 
ATOM     29  O   UNL     1       9.258  68.405  -1.346  1.00  0.00    -0.332 OA
ATOM     30  C   UNL     1       9.360  65.724  -1.335  1.00  0.00     0.180 C 
ATOM     31  C   UNL     1       8.735  67.868  -2.556  1.00  0.00     0.179 C 
ATOM     32  C   UNL     1       8.984  66.329  -2.699  1.00  0.00     0.177 C 
BRANCH  28  33
ATOM     33  O   UNL     1      10.579  66.319   0.679  1.00  0.00    -0.384 OA
ATOM     34  H   UNL     1      11.490  66.547   1.001  1.00  0.00     0.211 HD
ENDBRANCH  28  33
BRANCH  30  35
ATOM     35  O   UNL     1       9.644  64.357  -1.478  1.00  0.00    -0.387 OA
ATOM     36  H   UNL     1      10.042  64.057  -0.619  1.00  0.00     0.211 HD
ENDBRANCH  30  35
BRANCH  31  37
ATOM     37  C   UNL     1       7.236  68.184  -2.610  1.00  0.00     0.191 C 
BRANCH  37  38
ATOM     38  O   UNL     1       6.728  68.291  -1.309  1.00  0.00    -0.394 OA
ATOM     39  H   UNL     1       7.033  69.171  -0.966  1.00  0.00     0.210 HD
ENDBRANCH  37  38
ENDBRANCH  31  37
BRANCH  32  40
ATOM     40  O   UNL     1      10.025  66.115  -3.621  1.00  0.00    -0.387 OA
ATOM     41  H   UNL     1      10.564  66.948  -3.653  1.00  0.00     0.211 HD
ENDBRANCH  32  40
ENDBRANCH   1  27
TORSDOF 12
ENDMDL
