MODEL 1
REMARK VINA RESULT:    -4.713      0.000      0.000
REMARK INTER + INTRA:          -5.150
REMARK INTER:                  -4.988
REMARK INTRA:                  -0.162
REMARK UNBOUND:                -0.162
REMARK SMILES CC1=CC=C(C(C)C)CC1
REMARK SMILES IDX 1 1 2 2 3 3 4 4 5 5 9 6 10 7 6 8 7 9 8 10
REMARK H PARENT
REMARK Flexibility Score: inf
ROOT
ATOM      1  C   UNL     1      30.075  29.747  11.501  1.00  0.00     0.039 C 
ATOM      2  C   UNL     1      29.693  28.308  11.693  1.00  0.00    -0.073 C 
ATOM      3  C   UNL     1      28.398  27.956  11.694  1.00  0.00    -0.001 C 
ATOM      4  C   UNL     1      28.000  26.547  11.875  1.00  0.00    -0.001 C 
ATOM      5  C   UNL     1      28.911  25.556  11.817  1.00  0.00    -0.067 C 
ATOM      6  C   UNL     1      30.342  25.891  11.452  1.00  0.00     0.035 C 
ATOM      7  C   UNL     1      30.751  27.271  11.988  1.00  0.00     0.035 C 
ENDROOT
BRANCH   5   8
ATOM      8  C   UNL     1      28.514  24.106  12.022  1.00  0.00     0.009 C 
ATOM      9  C   UNL     1      29.011  23.581  13.375  1.00  0.00     0.012 C 
ATOM     10  C   UNL     1      26.999  23.912  11.877  1.00  0.00     0.012 C 
ENDBRANCH   5   8
TORSDOF 1
ENDMDL
MODEL 2
REMARK VINA RESULT:    -4.578      0.300      1.573
REMARK INTER + INTRA:          -5.007
REMARK INTER:                  -4.862
REMARK INTRA:                  -0.145
REMARK UNBOUND:                -0.162
REMARK SMILES CC1=CC=C(C(C)C)CC1
REMARK SMILES IDX 1 1 2 2 3 3 4 4 5 5 9 6 10 7 6 8 7 9 8 10
REMARK H PARENT
REMARK Flexibility Score: inf
ROOT
ATOM      1  C   UNL     1      30.247  29.755  11.504  1.00  0.00     0.039 C 
ATOM      2  C   UNL     1      29.842  28.310  11.563  1.00  0.00    -0.073 C 
ATOM      3  C   UNL     1      30.742  27.379  11.914  1.00  0.00    -0.001 C 
ATOM      4  C   UNL     1      30.366  25.954  11.985  1.00  0.00    -0.001 C 
ATOM      5  C   UNL     1      29.075  25.575  11.923  1.00  0.00    -0.067 C 
ATOM      6  C   UNL     1      27.995  26.636  11.892  1.00  0.00     0.035 C 
ATOM      7  C   UNL     1      28.458  27.887  11.130  1.00  0.00     0.035 C 
ENDROOT
BRANCH   5   8
ATOM      8  C   UNL     1      28.680  24.110  11.975  1.00  0.00     0.009 C 
ATOM      9  C   UNL     1      29.244  23.428  13.227  1.00  0.00     0.012 C 
ATOM     10  C   UNL     1      27.158  23.936  11.887  1.00  0.00     0.012 C 
ENDBRANCH   5   8
TORSDOF 1
ENDMDL
MODEL 3
REMARK VINA RESULT:    -4.548      1.278      4.308
REMARK INTER + INTRA:          -4.975
REMARK INTER:                  -4.830
REMARK INTRA:                  -0.145
REMARK UNBOUND:                -0.162
REMARK SMILES CC1=CC=C(C(C)C)CC1
REMARK SMILES IDX 1 1 2 2 3 3 4 4 5 5 9 6 10 7 6 8 7 9 8 10
REMARK H PARENT
REMARK Flexibility Score: inf
ROOT
ATOM      1  C   UNL     1      29.887  22.024  13.531  1.00  0.00     0.039 C 
ATOM      2  C   UNL     1      29.660  23.325  12.818  1.00  0.00    -0.073 C 
ATOM      3  C   UNL     1      28.447  23.899  12.847  1.00  0.00    -0.001 C 
ATOM      4  C   UNL     1      28.201  25.180  12.158  1.00  0.00    -0.001 C 
ATOM      5  C   UNL     1      29.223  25.917  11.681  1.00  0.00    -0.067 C 
ATOM      6  C   UNL     1      30.644  25.472  11.956  1.00  0.00     0.035 C 
ATOM      7  C   UNL     1      30.759  23.941  11.984  1.00  0.00     0.035 C 
ENDROOT
BRANCH   5   8
ATOM      8  C   UNL     1      28.979  27.227  10.954  1.00  0.00     0.009 C 
ATOM      9  C   UNL     1      28.126  28.180  11.799  1.00  0.00     0.012 C 
ATOM     10  C   UNL     1      30.298  27.889  10.532  1.00  0.00     0.012 C 
ENDBRANCH   5   8
TORSDOF 1
ENDMDL
MODEL 4
REMARK VINA RESULT:    -4.523      1.265      4.594
REMARK INTER + INTRA:          -4.949
REMARK INTER:                  -4.784
REMARK INTRA:                  -0.164
REMARK UNBOUND:                -0.162
REMARK SMILES CC1=CC=C(C(C)C)CC1
REMARK SMILES IDX 1 1 2 2 3 3 4 4 5 5 9 6 10 7 6 8 7 9 8 10
REMARK H PARENT
REMARK Flexibility Score: inf
ROOT
ATOM      1  C   UNL     1      29.902  21.853  13.721  1.00  0.00     0.039 C 
ATOM      2  C   UNL     1      29.690  23.190  13.073  1.00  0.00    -0.073 C 
ATOM      3  C   UNL     1      30.731  23.843  12.534  1.00  0.00    -0.001 C 
ATOM      4  C   UNL     1      30.545  25.155  11.886  1.00  0.00    -0.001 C 
ATOM      5  C   UNL     1      29.312  25.627  11.617  1.00  0.00    -0.067 C 
ATOM      6  C   UNL     1      28.111  24.745  11.884  1.00  0.00     0.035 C 
ATOM      7  C   UNL     1      28.332  23.852  13.114  1.00  0.00     0.035 C 
ENDROOT
BRANCH   5   8
ATOM      8  C   UNL     1      29.111  26.985  10.969  1.00  0.00     0.009 C 
ATOM      9  C   UNL     1      28.307  27.920  11.880  1.00  0.00     0.012 C 
ATOM     10  C   UNL     1      30.449  27.619  10.566  1.00  0.00     0.012 C 
ENDBRANCH   5   8
TORSDOF 1
ENDMDL
MODEL 5
REMARK VINA RESULT:    -4.427      1.997      3.739
REMARK INTER + INTRA:          -4.847
REMARK INTER:                  -4.684
REMARK INTRA:                  -0.163
REMARK UNBOUND:                -0.162
REMARK SMILES CC1=CC=C(C(C)C)CC1
REMARK SMILES IDX 1 1 2 2 3 3 4 4 5 5 9 6 10 7 6 8 7 9 8 10
REMARK H PARENT
REMARK Flexibility Score: inf
ROOT
ATOM      1  C   UNL     1      27.994  26.628  11.840  1.00  0.00     0.039 C 
ATOM      2  C   UNL     1      28.765  25.373  12.132  1.00  0.00    -0.073 C 
ATOM      3  C   UNL     1      30.072  25.309  11.837  1.00  0.00    -0.001 C 
ATOM      4  C   UNL     1      30.851  24.088  12.120  1.00  0.00    -0.001 C 
ATOM      5  C   UNL     1      30.339  23.100  12.879  1.00  0.00    -0.067 C 
ATOM      6  C   UNL     1      28.990  23.300  13.538  1.00  0.00     0.035 C 
ATOM      7  C   UNL     1      28.056  24.148  12.661  1.00  0.00     0.035 C 
ENDROOT
BRANCH   5   8
ATOM      8  C   UNL     1      31.124  21.832  13.160  1.00  0.00     0.009 C 
ATOM      9  C   UNL     1      30.258  20.791  13.877  1.00  0.00     0.012 C 
ATOM     10  C   UNL     1      31.736  21.255  11.876  1.00  0.00     0.012 C 
ENDBRANCH   5   8
TORSDOF 1
ENDMDL
MODEL 6
REMARK VINA RESULT:    -4.173      1.453      2.269
REMARK INTER + INTRA:          -4.579
REMARK INTER:                  -4.441
REMARK INTRA:                  -0.138
REMARK UNBOUND:                -0.162
REMARK SMILES CC1=CC=C(C(C)C)CC1
REMARK SMILES IDX 1 1 2 2 3 3 4 4 5 5 9 6 10 7 6 8 7 9 8 10
REMARK H PARENT
REMARK Flexibility Score: inf
ROOT
ATOM      1  C   UNL     1      27.950  28.253  11.535  1.00  0.00     0.039 C 
ATOM      2  C   UNL     1      28.659  26.977  11.885  1.00  0.00    -0.073 C 
ATOM      3  C   UNL     1      27.972  25.827  11.946  1.00  0.00    -0.001 C 
ATOM      4  C   UNL     1      28.649  24.560  12.283  1.00  0.00    -0.001 C 
ATOM      5  C   UNL     1      29.993  24.479  12.314  1.00  0.00    -0.067 C 
ATOM      6  C   UNL     1      30.813  25.680  11.889  1.00  0.00     0.035 C 
ATOM      7  C   UNL     1      30.121  26.997  12.270  1.00  0.00     0.035 C 
ENDROOT
BRANCH   5   8
ATOM      8  C   UNL     1      30.698  23.186  12.678  1.00  0.00     0.009 C 
ATOM      9  C   UNL     1      29.764  22.243  13.447  1.00  0.00     0.012 C 
ATOM     10  C   UNL     1      31.283  22.496  11.439  1.00  0.00     0.012 C 
ENDBRANCH   5   8
TORSDOF 1
ENDMDL
MODEL 7
REMARK VINA RESULT:    -3.993      1.088      4.283
REMARK INTER + INTRA:          -4.389
REMARK INTER:                  -4.229
REMARK INTRA:                  -0.159
REMARK UNBOUND:                -0.162
REMARK SMILES CC1=CC=C(C(C)C)CC1
REMARK SMILES IDX 1 1 2 2 3 3 4 4 5 5 9 6 10 7 6 8 7 9 8 10
REMARK H PARENT
REMARK Flexibility Score: inf
ROOT
ATOM      1  C   UNL     1      27.511  23.776  12.297  1.00  0.00     0.039 C 
ATOM      2  C   UNL     1      28.364  24.974  11.998  1.00  0.00    -0.073 C 
ATOM      3  C   UNL     1      27.798  26.186  11.890  1.00  0.00    -0.001 C 
ATOM      4  C   UNL     1      28.618  27.378  11.602  1.00  0.00    -0.001 C 
ATOM      5  C   UNL     1      29.963  27.327  11.665  1.00  0.00    -0.067 C 
ATOM      6  C   UNL     1      30.630  26.055  12.145  1.00  0.00     0.035 C 
ATOM      7  C   UNL     1      29.840  24.809  11.717  1.00  0.00     0.035 C 
ENDROOT
BRANCH   5   8
ATOM      8  C   UNL     1      30.815  28.543  11.351  1.00  0.00     0.009 C 
ATOM      9  C   UNL     1      31.430  28.442   9.950  1.00  0.00     0.012 C 
ATOM     10  C   UNL     1      30.018  29.844  11.514  1.00  0.00     0.012 C 
ENDBRANCH   5   8
TORSDOF 1
ENDMDL
MODEL 8
REMARK VINA RESULT:    -3.990      2.412      5.288
REMARK INTER + INTRA:          -4.385
REMARK INTER:                  -4.246
REMARK INTRA:                  -0.139
REMARK UNBOUND:                -0.162
REMARK SMILES CC1=CC=C(C(C)C)CC1
REMARK SMILES IDX 1 1 2 2 3 3 4 4 5 5 9 6 10 7 6 8 7 9 8 10
REMARK H PARENT
REMARK Flexibility Score: inf
ROOT
ATOM      1  C   UNL     1      31.903  20.045  13.102  1.00  0.00     0.039 C 
ATOM      2  C   UNL     1      31.250  21.380  12.890  1.00  0.00    -0.073 C 
ATOM      3  C   UNL     1      31.460  22.051  11.747  1.00  0.00    -0.001 C 
ATOM      4  C   UNL     1      30.824  23.362  11.515  1.00  0.00    -0.001 C 
ATOM      5  C   UNL     1      29.850  23.814  12.328  1.00  0.00    -0.067 C 
ATOM      6  C   UNL     1      29.330  22.912  13.427  1.00  0.00     0.035 C 
ATOM      7  C   UNL     1      30.443  22.019  13.996  1.00  0.00     0.035 C 
ENDROOT
BRANCH   5   8
ATOM      8  C   UNL     1      29.204  25.170  12.108  1.00  0.00     0.009 C 
ATOM      9  C   UNL     1      29.727  25.831  10.827  1.00  0.00     0.012 C 
ATOM     10  C   UNL     1      27.674  25.068  12.094  1.00  0.00     0.012 C 
ENDBRANCH   5   8
TORSDOF 1
ENDMDL
MODEL 9
REMARK VINA RESULT:    -3.874      2.258      5.406
REMARK INTER + INTRA:          -4.262
REMARK INTER:                  -4.123
REMARK INTRA:                  -0.138
REMARK UNBOUND:                -0.162
REMARK SMILES CC1=CC=C(C(C)C)CC1
REMARK SMILES IDX 1 1 2 2 3 3 4 4 5 5 9 6 10 7 6 8 7 9 8 10
REMARK H PARENT
REMARK Flexibility Score: inf
ROOT
ATOM      1  C   UNL     1      30.584  20.012  14.156  1.00  0.00     0.039 C 
ATOM      2  C   UNL     1      30.529  21.342  13.463  1.00  0.00    -0.073 C 
ATOM      3  C   UNL     1      29.520  22.188  13.722  1.00  0.00    -0.001 C 
ATOM      4  C   UNL     1      29.448  23.503  13.056  1.00  0.00    -0.001 C 
ATOM      5  C   UNL     1      30.493  23.983  12.353  1.00  0.00    -0.067 C 
ATOM      6  C   UNL     1      31.793  23.206  12.344  1.00  0.00     0.035 C 
ATOM      7  C   UNL     1      31.544  21.691  12.399  1.00  0.00     0.035 C 
ENDROOT
BRANCH   5   8
ATOM      8  C   UNL     1      30.421  25.325  11.649  1.00  0.00     0.009 C 
ATOM      9  C   UNL     1      29.000  25.898  11.693  1.00  0.00     0.012 C 
ATOM     10  C   UNL     1      31.438  26.318  12.227  1.00  0.00     0.012 C 
ENDBRANCH   5   8
TORSDOF 1
ENDMDL
