MODEL 1
REMARK VINA RESULT:    -7.284      0.000      0.000
REMARK INTER + INTRA:         -10.902
REMARK INTER:                 -10.052
REMARK INTRA:                  -0.849
REMARK UNBOUND:                -0.849
REMARK SMILES CC[C@@H](CC[C@H](C)[C@@H]1CC[C@@H]2[C@@H]3CC=C4C[C@@H](O)CC[C@]4(C)[C@H]3CC[C@]21C)C(C)C
REMARK SMILES IDX 5 1 4 2 3 3 2 4 1 5 28 6 29 7 30 8 6 9 7 10 8 11 9 12 26 13
REMARK SMILES IDX 10 14 11 15 25 16 27 17 12 18 24 19 23 20 13 21 21 22 14 23
REMARK SMILES IDX 15 24 20 25 22 26 16 27 19 28 17 29 18 30
REMARK H PARENT 18 31
REMARK Flexibility Score: inf
ROOT
ATOM      1  C   UNL     1     -12.169  11.612  -9.902  1.00  0.00     0.004 C 
ENDROOT
BRANCH   1   2
ATOM      2  C   UNL     1     -11.765  12.804 -10.794  1.00  0.00     0.004 C 
BRANCH   2   3
ATOM      3  C   UNL     1     -12.566  12.838 -12.135  1.00  0.00    -0.009 C 
BRANCH   3   4
ATOM      4  C   UNL     1     -13.166  11.438 -12.431  1.00  0.00     0.000 C 
ATOM      5  C   UNL     1     -14.685  11.374 -12.266  1.00  0.00     0.004 C 
ENDBRANCH   3   4
BRANCH   3   6
ATOM      6  C   UNL     1     -11.749  13.426 -13.337  1.00  0.00    -0.014 C 
ATOM      7  C   UNL     1     -12.609  13.586 -14.601  1.00  0.00     0.007 C 
ATOM      8  C   UNL     1     -11.022  14.747 -13.017  1.00  0.00     0.007 C 
ENDBRANCH   3   6
ENDBRANCH   2   3
ENDBRANCH   1   2
BRANCH   1   9
ATOM      9  C   UNL     1     -13.354  11.946  -8.949  1.00  0.00    -0.011 C 
ATOM     10  C   UNL     1     -13.244  13.417  -8.502  1.00  0.00     0.008 C 
BRANCH   9  11
ATOM     11  C   UNL     1     -13.380  10.975  -7.717  1.00  0.00    -0.002 C 
ATOM     12  C   UNL     1     -11.957  10.532  -7.266  1.00  0.00     0.005 C 
ATOM     13  C   UNL     1     -14.159   9.623  -7.863  1.00  0.00    -0.026 C 
ATOM     14  C   UNL     1     -12.069   9.102  -6.716  1.00  0.00     0.005 C 
ATOM     15  C   UNL     1     -13.566   8.854  -6.668  1.00  0.00    -0.001 C 
ATOM     16  C   UNL     1     -15.714   9.732  -7.670  1.00  0.00     0.007 C 
ATOM     17  C   UNL     1     -13.809   8.959  -9.234  1.00  0.00     0.012 C 
ATOM     18  C   UNL     1     -14.114   7.419  -6.423  1.00  0.00     0.000 C 
ATOM     19  C   UNL     1     -16.340   8.607  -6.792  1.00  0.00     0.005 C 
ATOM     20  C   UNL     1     -15.572   7.268  -6.935  1.00  0.00     0.003 C 
ATOM     21  C   UNL     1     -13.275   6.256  -6.956  1.00  0.00     0.031 C 
ATOM     22  C   UNL     1     -16.250   5.992  -6.321  1.00  0.00    -0.008 C 
ATOM     23  C   UNL     1     -13.951   4.934  -6.668  1.00  0.00    -0.027 C 
ATOM     24  C   UNL     1     -15.285   4.793  -6.440  1.00  0.00    -0.065 C 
ATOM     25  C   UNL     1     -17.549   5.665  -7.126  1.00  0.00     0.014 C 
ATOM     26  C   UNL     1     -16.618   6.210  -4.828  1.00  0.00     0.016 C 
ATOM     27  C   UNL     1     -15.842   3.402  -6.210  1.00  0.00     0.063 C 
ATOM     28  C   UNL     1     -18.125   4.268  -6.838  1.00  0.00     0.033 C 
ATOM     29  C   UNL     1     -17.078   3.172  -7.084  1.00  0.00     0.118 C 
BRANCH  29  30
ATOM     30  O   UNL     1     -17.623   1.914  -6.783  1.00  0.00    -0.393 OA
ATOM     31  H   UNL     1     -17.686   1.418  -7.642  1.00  0.00     0.210 HD
ENDBRANCH  29  30
ENDBRANCH   9  11
ENDBRANCH   1   9
TORSDOF 7
ENDMDL
MODEL 2
REMARK VINA RESULT:    -6.760      1.186      2.467
REMARK INTER + INTRA:         -10.179
REMARK INTER:                  -9.238
REMARK INTRA:                  -0.941
REMARK UNBOUND:                -0.849
REMARK SMILES CC[C@@H](CC[C@H](C)[C@@H]1CC[C@@H]2[C@@H]3CC=C4C[C@@H](O)CC[C@]4(C)[C@H]3CC[C@]21C)C(C)C
REMARK SMILES IDX 5 1 4 2 3 3 2 4 1 5 28 6 29 7 30 8 6 9 7 10 8 11 9 12 26 13
REMARK SMILES IDX 10 14 11 15 25 16 27 17 12 18 24 19 23 20 13 21 21 22 14 23
REMARK SMILES IDX 15 24 20 25 22 26 16 27 19 28 17 29 18 30
REMARK H PARENT 18 31
REMARK Flexibility Score: inf
ROOT
ATOM      1  C   UNL     1     -12.806  13.182  -9.093  1.00  0.00     0.004 C 
ENDROOT
BRANCH   1   2
ATOM      2  C   UNL     1     -11.849  12.930 -10.276  1.00  0.00     0.004 C 
BRANCH   2   3
ATOM      3  C   UNL     1     -12.607  12.826 -11.639  1.00  0.00    -0.009 C 
BRANCH   3   4
ATOM      4  C   UNL     1     -13.210  11.406 -11.803  1.00  0.00     0.000 C 
ATOM      5  C   UNL     1     -14.740  11.384 -11.799  1.00  0.00     0.004 C 
ENDBRANCH   3   4
BRANCH   3   6
ATOM      6  C   UNL     1     -11.748  13.279 -12.868  1.00  0.00    -0.014 C 
ATOM      7  C   UNL     1     -12.575  13.344 -14.162  1.00  0.00     0.007 C 
ATOM      8  C   UNL     1     -10.991  14.603 -12.654  1.00  0.00     0.007 C 
ENDBRANCH   3   6
ENDBRANCH   2   3
ENDBRANCH   1   2
BRANCH   1   9
ATOM      9  C   UNL     1     -12.922  11.957  -8.139  1.00  0.00    -0.011 C 
ATOM     10  C   UNL     1     -11.833  10.929  -8.502  1.00  0.00     0.008 C 
BRANCH   9  11
ATOM     11  C   UNL     1     -14.354  11.321  -8.207  1.00  0.00    -0.002 C 
ATOM     12  C   UNL     1     -15.437  12.191  -7.504  1.00  0.00     0.005 C 
ATOM     13  C   UNL     1     -14.558   9.899  -7.582  1.00  0.00    -0.026 C 
ATOM     14  C   UNL     1     -16.486  11.237  -6.913  1.00  0.00     0.005 C 
ATOM     15  C   UNL     1     -16.095   9.883  -7.475  1.00  0.00    -0.001 C 
ATOM     16  C   UNL     1     -14.105   8.703  -8.494  1.00  0.00     0.007 C 
ATOM     17  C   UNL     1     -13.861   9.835  -6.184  1.00  0.00     0.012 C 
ATOM     18  C   UNL     1     -16.739   8.585  -6.910  1.00  0.00     0.000 C 
ATOM     19  C   UNL     1     -15.099   7.504  -8.537  1.00  0.00     0.005 C 
ATOM     20  C   UNL     1     -15.860   7.338  -7.196  1.00  0.00     0.003 C 
ATOM     21  C   UNL     1     -17.128   8.592  -5.430  1.00  0.00     0.031 C 
ATOM     22  C   UNL     1     -16.688   6.017  -7.011  1.00  0.00    -0.008 C 
ATOM     23  C   UNL     1     -17.711   7.256  -5.025  1.00  0.00    -0.027 C 
ATOM     24  C   UNL     1     -17.477   6.090  -5.686  1.00  0.00    -0.065 C 
ATOM     25  C   UNL     1     -15.706   4.803  -6.936  1.00  0.00     0.014 C 
ATOM     26  C   UNL     1     -17.678   5.799  -8.187  1.00  0.00     0.016 C 
ATOM     27  C   UNL     1     -18.086   4.812  -5.145  1.00  0.00     0.063 C 
ATOM     28  C   UNL     1     -16.358   3.504  -6.434  1.00  0.00     0.033 C 
ATOM     29  C   UNL     1     -17.027   3.709  -5.067  1.00  0.00     0.118 C 
BRANCH  29  30
ATOM     30  O   UNL     1     -17.639   2.516  -4.651  1.00  0.00    -0.393 OA
ATOM     31  H   UNL     1     -18.430   2.775  -4.108  1.00  0.00     0.210 HD
ENDBRANCH  29  30
ENDBRANCH   9  11
ENDBRANCH   1   9
TORSDOF 7
ENDMDL
MODEL 3
REMARK VINA RESULT:    -6.663      1.512      2.681
REMARK INTER + INTRA:         -10.045
REMARK INTER:                  -9.829
REMARK INTRA:                  -0.216
REMARK UNBOUND:                -0.849
REMARK SMILES CC[C@@H](CC[C@H](C)[C@@H]1CC[C@@H]2[C@@H]3CC=C4C[C@@H](O)CC[C@]4(C)[C@H]3CC[C@]21C)C(C)C
REMARK SMILES IDX 5 1 4 2 3 3 2 4 1 5 28 6 29 7 30 8 6 9 7 10 8 11 9 12 26 13
REMARK SMILES IDX 10 14 11 15 25 16 27 17 12 18 24 19 23 20 13 21 21 22 14 23
REMARK SMILES IDX 15 24 20 25 22 26 16 27 19 28 17 29 18 30
REMARK H PARENT 18 31
REMARK Flexibility Score: inf
ROOT
ATOM      1  C   UNL     1     -12.628  11.792 -10.940  1.00  0.00     0.004 C 
ENDROOT
BRANCH   1   2
ATOM      2  C   UNL     1     -13.203  12.248 -12.297  1.00  0.00     0.004 C 
BRANCH   2   3
ATOM      3  C   UNL     1     -12.087  12.729 -13.280  1.00  0.00    -0.009 C 
BRANCH   3   4
ATOM      4  C   UNL     1     -11.806  14.240 -13.067  1.00  0.00     0.000 C 
ATOM      5  C   UNL     1     -10.481  14.524 -12.357  1.00  0.00     0.004 C 
ENDBRANCH   3   4
BRANCH   3   6
ATOM      6  C   UNL     1     -12.370  12.358 -14.776  1.00  0.00    -0.014 C 
ATOM      7  C   UNL     1     -13.155  11.043 -14.910  1.00  0.00     0.007 C 
ATOM      8  C   UNL     1     -13.062  13.474 -15.581  1.00  0.00     0.007 C 
ENDBRANCH   3   6
ENDBRANCH   2   3
ENDBRANCH   1   2
BRANCH   1   9
ATOM      9  C   UNL     1     -12.753  12.882  -9.835  1.00  0.00    -0.011 C 
ATOM     10  C   UNL     1     -11.380  13.079  -9.162  1.00  0.00     0.008 C 
BRANCH   9  11
ATOM     11  C   UNL     1     -13.854  12.500  -8.785  1.00  0.00    -0.002 C 
ATOM     12  C   UNL     1     -13.693  13.258  -7.435  1.00  0.00     0.005 C 
ATOM     13  C   UNL     1     -13.970  10.998  -8.355  1.00  0.00    -0.026 C 
ATOM     14  C   UNL     1     -14.183  12.325  -6.317  1.00  0.00     0.005 C 
ATOM     15  C   UNL     1     -14.804  11.162  -7.070  1.00  0.00    -0.001 C 
ATOM     16  C   UNL     1     -14.763  10.082  -9.355  1.00  0.00     0.007 C 
ATOM     17  C   UNL     1     -12.546  10.420  -8.072  1.00  0.00     0.012 C 
ATOM     18  C   UNL     1     -15.186   9.856  -6.316  1.00  0.00     0.000 C 
ATOM     19  C   UNL     1     -15.769   9.101  -8.681  1.00  0.00     0.005 C 
ATOM     20  C   UNL     1     -15.281   8.645  -7.282  1.00  0.00     0.003 C 
ATOM     21  C   UNL     1     -14.318   9.470  -5.116  1.00  0.00     0.031 C 
ATOM     22  C   UNL     1     -16.059   7.457  -6.613  1.00  0.00    -0.008 C 
ATOM     23  C   UNL     1     -14.794   8.169  -4.510  1.00  0.00    -0.027 C 
ATOM     24  C   UNL     1     -15.521   7.235  -5.182  1.00  0.00    -0.065 C 
ATOM     25  C   UNL     1     -15.815   6.154  -7.441  1.00  0.00     0.014 C 
ATOM     26  C   UNL     1     -17.583   7.742  -6.550  1.00  0.00     0.016 C 
ATOM     27  C   UNL     1     -15.893   5.950  -4.470  1.00  0.00     0.063 C 
ATOM     28  C   UNL     1     -16.248   4.866  -6.719  1.00  0.00     0.033 C 
ATOM     29  C   UNL     1     -15.566   4.740  -5.349  1.00  0.00     0.118 C 
BRANCH  29  30
ATOM     30  O   UNL     1     -16.004   3.574  -4.703  1.00  0.00    -0.393 OA
ATOM     31  H   UNL     1     -15.766   3.673  -3.743  1.00  0.00     0.210 HD
ENDBRANCH  29  30
ENDBRANCH   9  11
ENDBRANCH   1   9
TORSDOF 7
ENDMDL
MODEL 4
REMARK VINA RESULT:    -6.464     14.109     16.577
REMARK INTER + INTRA:          -9.769
REMARK INTER:                  -8.994
REMARK INTRA:                  -0.775
REMARK UNBOUND:                -0.849
REMARK SMILES CC[C@@H](CC[C@H](C)[C@@H]1CC[C@@H]2[C@@H]3CC=C4C[C@@H](O)CC[C@]4(C)[C@H]3CC[C@]21C)C(C)C
REMARK SMILES IDX 5 1 4 2 3 3 2 4 1 5 28 6 29 7 30 8 6 9 7 10 8 11 9 12 26 13
REMARK SMILES IDX 10 14 11 15 25 16 27 17 12 18 24 19 23 20 13 21 21 22 14 23
REMARK SMILES IDX 15 24 20 25 22 26 16 27 19 28 17 29 18 30
REMARK H PARENT 18 31
REMARK Flexibility Score: inf
ROOT
ATOM      1  C   UNL     1       1.302   2.539  -9.566  1.00  0.00     0.004 C 
ENDROOT
BRANCH   1   2
ATOM      2  C   UNL     1       0.902   3.436  -8.376  1.00  0.00     0.004 C 
BRANCH   2   3
ATOM      3  C   UNL     1      -0.505   3.068  -7.805  1.00  0.00    -0.009 C 
BRANCH   3   4
ATOM      4  C   UNL     1      -1.486   4.254  -8.005  1.00  0.00     0.000 C 
ATOM      5  C   UNL     1      -2.657   3.933  -8.935  1.00  0.00     0.004 C 
ENDBRANCH   3   4
BRANCH   3   6
ATOM      6  C   UNL     1      -0.464   2.543  -6.329  1.00  0.00    -0.014 C 
ATOM      7  C   UNL     1      -1.574   3.158  -5.463  1.00  0.00     0.007 C 
ATOM      8  C   UNL     1      -0.482   1.007  -6.207  1.00  0.00     0.007 C 
ENDBRANCH   3   6
ENDBRANCH   2   3
ENDBRANCH   1   2
BRANCH   1   9
ATOM      9  C   UNL     1       0.533   1.186  -9.587  1.00  0.00    -0.011 C 
ATOM     10  C   UNL     1       1.350   0.128  -8.819  1.00  0.00     0.008 C 
BRANCH   9  11
ATOM     11  C   UNL     1       0.240   0.725 -11.057  1.00  0.00    -0.002 C 
ATOM     12  C   UNL     1       1.532   0.562 -11.910  1.00  0.00     0.005 C 
ATOM     13  C   UNL     1      -0.676   1.636 -11.944  1.00  0.00    -0.026 C 
ATOM     14  C   UNL     1       1.180   0.925 -13.360  1.00  0.00     0.005 C 
ATOM     15  C   UNL     1      -0.330   1.071 -13.335  1.00  0.00    -0.001 C 
ATOM     16  C   UNL     1      -2.218   1.462 -11.700  1.00  0.00     0.007 C 
ATOM     17  C   UNL     1      -0.246   3.130 -11.782  1.00  0.00     0.012 C 
ATOM     18  C   UNL     1      -1.076   1.701 -14.547  1.00  0.00     0.000 C 
ATOM     19  C   UNL     1      -3.079   1.398 -12.998  1.00  0.00     0.005 C 
ATOM     20  C   UNL     1      -2.468   2.252 -14.138  1.00  0.00     0.003 C 
ATOM     21  C   UNL     1      -0.327   2.774 -15.340  1.00  0.00     0.031 C 
ATOM     22  C   UNL     1      -3.367   2.492 -15.403  1.00  0.00    -0.008 C 
ATOM     23  C   UNL     1      -1.190   3.308 -16.461  1.00  0.00    -0.027 C 
ATOM     24  C   UNL     1      -2.549   3.241 -16.476  1.00  0.00    -0.065 C 
ATOM     25  C   UNL     1      -4.589   3.380 -15.002  1.00  0.00     0.014 C 
ATOM     26  C   UNL     1      -3.883   1.152 -15.993  1.00  0.00     0.016 C 
ATOM     27  C   UNL     1      -3.295   3.859 -17.642  1.00  0.00     0.063 C 
ATOM     28  C   UNL     1      -5.362   3.954 -16.201  1.00  0.00     0.033 C 
ATOM     29  C   UNL     1      -4.435   4.746 -17.134  1.00  0.00     0.118 C 
BRANCH  29  30
ATOM     30  O   UNL     1      -5.163   5.229 -18.233  1.00  0.00    -0.393 OA
ATOM     31  H   UNL     1      -5.698   4.467 -18.580  1.00  0.00     0.210 HD
ENDBRANCH  29  30
ENDBRANCH   9  11
ENDBRANCH   1   9
TORSDOF 7
ENDMDL
MODEL 5
REMARK VINA RESULT:    -6.433      3.499      8.610
REMARK INTER + INTRA:          -9.727
REMARK INTER:                  -7.981
REMARK INTRA:                  -1.746
REMARK UNBOUND:                -0.849
REMARK SMILES CC[C@@H](CC[C@H](C)[C@@H]1CC[C@@H]2[C@@H]3CC=C4C[C@@H](O)CC[C@]4(C)[C@H]3CC[C@]21C)C(C)C
REMARK SMILES IDX 5 1 4 2 3 3 2 4 1 5 28 6 29 7 30 8 6 9 7 10 8 11 9 12 26 13
REMARK SMILES IDX 10 14 11 15 25 16 27 17 12 18 24 19 23 20 13 21 21 22 14 23
REMARK SMILES IDX 15 24 20 25 22 26 16 27 19 28 17 29 18 30
REMARK H PARENT 18 31
REMARK Flexibility Score: inf
ROOT
ATOM      1  C   UNL     1     -15.938   9.255  -5.220  1.00  0.00     0.004 C 
ENDROOT
BRANCH   1   2
ATOM      2  C   UNL     1     -16.680   8.034  -5.799  1.00  0.00     0.004 C 
BRANCH   2   3
ATOM      3  C   UNL     1     -15.720   6.831  -6.069  1.00  0.00    -0.009 C 
BRANCH   3   4
ATOM      4  C   UNL     1     -14.392   7.026  -5.290  1.00  0.00     0.000 C 
ATOM      5  C   UNL     1     -14.036   5.851  -4.377  1.00  0.00     0.004 C 
ENDBRANCH   3   4
BRANCH   3   6
ATOM      6  C   UNL     1     -15.505   6.532  -7.592  1.00  0.00    -0.014 C 
ATOM      7  C   UNL     1     -16.548   7.235  -8.475  1.00  0.00     0.007 C 
ATOM      8  C   UNL     1     -14.083   6.842  -8.100  1.00  0.00     0.007 C 
ENDBRANCH   3   6
ENDBRANCH   2   3
ENDBRANCH   1   2
BRANCH   1   9
ATOM      9  C   UNL     1     -15.799  10.419  -6.245  1.00  0.00    -0.011 C 
ATOM     10  C   UNL     1     -17.130  10.585  -7.005  1.00  0.00     0.008 C 
BRANCH   9  11
ATOM     11  C   UNL     1     -14.606  10.165  -7.231  1.00  0.00    -0.002 C 
ATOM     12  C   UNL     1     -13.214  10.333  -6.553  1.00  0.00     0.005 C 
ATOM     13  C   UNL     1     -14.505  11.063  -8.510  1.00  0.00    -0.026 C 
ATOM     14  C   UNL     1     -12.243  10.871  -7.614  1.00  0.00     0.005 C 
ATOM     15  C   UNL     1     -13.041  10.788  -8.903  1.00  0.00    -0.001 C 
ATOM     16  C   UNL     1     -15.434  10.628  -9.700  1.00  0.00     0.007 C 
ATOM     17  C   UNL     1     -14.749  12.558  -8.124  1.00  0.00     0.012 C 
ATOM     18  C   UNL     1     -12.522  11.490 -10.191  1.00  0.00     0.000 C 
ATOM     19  C   UNL     1     -14.751  10.650 -11.100  1.00  0.00     0.005 C 
ATOM     20  C   UNL     1     -13.671  11.758 -11.198  1.00  0.00     0.003 C 
ATOM     21  C   UNL     1     -11.714  12.776 -10.002  1.00  0.00     0.031 C 
ATOM     22  C   UNL     1     -13.100  12.065 -12.628  1.00  0.00    -0.008 C 
ATOM     23  C   UNL     1     -11.308  13.352 -11.340  1.00  0.00    -0.027 C 
ATOM     24  C   UNL     1     -11.952  13.090 -12.510  1.00  0.00    -0.065 C 
ATOM     25  C   UNL     1     -14.231  12.688 -13.509  1.00  0.00     0.014 C 
ATOM     26  C   UNL     1     -12.570  10.778 -13.315  1.00  0.00     0.016 C 
ATOM     27  C   UNL     1     -11.470  13.773 -13.774  1.00  0.00     0.063 C 
ATOM     28  C   UNL     1     -13.724  13.329 -14.812  1.00  0.00     0.033 C 
ATOM     29  C   UNL     1     -12.650  14.389 -14.530  1.00  0.00     0.118 C 
BRANCH  29  30
ATOM     30  O   UNL     1     -12.186  14.933 -15.738  1.00  0.00    -0.393 OA
ATOM     31  H   UNL     1     -12.178  15.920 -15.622  1.00  0.00     0.210 HD
ENDBRANCH  29  30
ENDBRANCH   9  11
ENDBRANCH   1   9
TORSDOF 7
ENDMDL
MODEL 6
REMARK VINA RESULT:    -6.201      3.217      8.186
REMARK INTER + INTRA:          -9.407
REMARK INTER:                  -8.727
REMARK INTRA:                  -0.681
REMARK UNBOUND:                -0.849
REMARK SMILES CC[C@@H](CC[C@H](C)[C@@H]1CC[C@@H]2[C@@H]3CC=C4C[C@@H](O)CC[C@]4(C)[C@H]3CC[C@]21C)C(C)C
REMARK SMILES IDX 5 1 4 2 3 3 2 4 1 5 28 6 29 7 30 8 6 9 7 10 8 11 9 12 26 13
REMARK SMILES IDX 10 14 11 15 25 16 27 17 12 18 24 19 23 20 13 21 21 22 14 23
REMARK SMILES IDX 15 24 20 25 22 26 16 27 19 28 17 29 18 30
REMARK H PARENT 18 31
REMARK Flexibility Score: inf
ROOT
ATOM      1  C   UNL     1     -18.125   9.267  -5.328  1.00  0.00     0.004 C 
ENDROOT
BRANCH   1   2
ATOM      2  C   UNL     1     -17.470   7.940  -4.893  1.00  0.00     0.004 C 
BRANCH   2   3
ATOM      3  C   UNL     1     -16.666   7.269  -6.053  1.00  0.00    -0.009 C 
BRANCH   3   4
ATOM      4  C   UNL     1     -17.590   6.316  -6.857  1.00  0.00     0.000 C 
ATOM      5  C   UNL     1     -17.524   6.529  -8.370  1.00  0.00     0.004 C 
ENDBRANCH   3   4
BRANCH   3   6
ATOM      6  C   UNL     1     -15.337   6.587  -5.580  1.00  0.00    -0.014 C 
ATOM      7  C   UNL     1     -14.091   7.316  -6.107  1.00  0.00     0.007 C 
ATOM      8  C   UNL     1     -15.236   6.396  -4.054  1.00  0.00     0.007 C 
ENDBRANCH   3   6
ENDBRANCH   2   3
ENDBRANCH   1   2
BRANCH   1   9
ATOM      9  C   UNL     1     -17.297  10.516  -4.907  1.00  0.00    -0.011 C 
ATOM     10  C   UNL     1     -18.002  11.787  -5.419  1.00  0.00     0.008 C 
BRANCH   9  11
ATOM     11  C   UNL     1     -15.824  10.424  -5.441  1.00  0.00    -0.002 C 
ATOM     12  C   UNL     1     -14.806  11.183  -4.540  1.00  0.00     0.005 C 
ATOM     13  C   UNL     1     -15.528  10.973  -6.878  1.00  0.00    -0.026 C 
ATOM     14  C   UNL     1     -13.697  11.729  -5.453  1.00  0.00     0.005 C 
ATOM     15  C   UNL     1     -13.994  11.091  -6.797  1.00  0.00    -0.001 C 
ATOM     16  C   UNL     1     -15.896   9.993  -8.050  1.00  0.00     0.007 C 
ATOM     17  C   UNL     1     -16.225  12.360  -7.066  1.00  0.00     0.012 C 
ATOM     18  C   UNL     1     -13.266  11.590  -8.078  1.00  0.00     0.000 C 
ATOM     19  C   UNL     1     -14.823   9.893  -9.175  1.00  0.00     0.005 C 
ATOM     20  C   UNL     1     -14.058  11.229  -9.364  1.00  0.00     0.003 C 
ATOM     21  C   UNL     1     -12.885  13.071  -8.127  1.00  0.00     0.031 C 
ATOM     22  C   UNL     1     -13.144  11.348 -10.634  1.00  0.00    -0.008 C 
ATOM     23  C   UNL     1     -12.215  13.407  -9.440  1.00  0.00    -0.027 C 
ATOM     24  C   UNL     1     -12.367  12.681 -10.581  1.00  0.00    -0.065 C 
ATOM     25  C   UNL     1     -14.042  11.349 -11.914  1.00  0.00     0.014 C 
ATOM     26  C   UNL     1     -12.137  10.170 -10.721  1.00  0.00     0.016 C 
ATOM     27  C   UNL     1     -11.676  13.156 -11.844  1.00  0.00     0.063 C 
ATOM     28  C   UNL     1     -13.306  11.784 -13.192  1.00  0.00     0.033 C 
ATOM     29  C   UNL     1     -12.658  13.165 -13.018  1.00  0.00     0.118 C 
BRANCH  29  30
ATOM     30  O   UNL     1     -11.970  13.521 -14.188  1.00  0.00    -0.393 OA
ATOM     31  H   UNL     1     -12.659  13.704 -14.881  1.00  0.00     0.210 HD
ENDBRANCH  29  30
ENDBRANCH   9  11
ENDBRANCH   1   9
TORSDOF 7
ENDMDL
MODEL 7
REMARK VINA RESULT:    -6.155     14.363     16.167
REMARK INTER + INTRA:          -9.343
REMARK INTER:                  -8.742
REMARK INTRA:                  -0.601
REMARK UNBOUND:                -0.849
REMARK SMILES CC[C@@H](CC[C@H](C)[C@@H]1CC[C@@H]2[C@@H]3CC=C4C[C@@H](O)CC[C@]4(C)[C@H]3CC[C@]21C)C(C)C
REMARK SMILES IDX 5 1 4 2 3 3 2 4 1 5 28 6 29 7 30 8 6 9 7 10 8 11 9 12 26 13
REMARK SMILES IDX 10 14 11 15 25 16 27 17 12 18 24 19 23 20 13 21 21 22 14 23
REMARK SMILES IDX 15 24 20 25 22 26 16 27 19 28 17 29 18 30
REMARK H PARENT 18 31
REMARK Flexibility Score: inf
ROOT
ATOM      1  C   UNL     1      -1.829   0.160 -14.755  1.00  0.00     0.004 C 
ENDROOT
BRANCH   1   2
ATOM      2  C   UNL     1      -3.106   0.867 -15.255  1.00  0.00     0.004 C 
BRANCH   2   3
ATOM      3  C   UNL     1      -3.308   2.266 -14.587  1.00  0.00    -0.009 C 
BRANCH   3   4
ATOM      4  C   UNL     1      -4.583   2.253 -13.704  1.00  0.00     0.000 C 
ATOM      5  C   UNL     1      -4.336   2.698 -12.261  1.00  0.00     0.004 C 
ENDBRANCH   3   4
BRANCH   3   6
ATOM      6  C   UNL     1      -3.273   3.456 -15.606  1.00  0.00    -0.014 C 
ATOM      7  C   UNL     1      -1.874   4.081 -15.722  1.00  0.00     0.007 C 
ATOM      8  C   UNL     1      -3.817   3.104 -17.004  1.00  0.00     0.007 C 
ENDBRANCH   3   6
ENDBRANCH   2   3
ENDBRANCH   1   2
BRANCH   1   9
ATOM      9  C   UNL     1      -0.525   0.902 -15.173  1.00  0.00    -0.011 C 
ATOM     10  C   UNL     1       0.169   0.109 -16.298  1.00  0.00     0.008 C 
BRANCH   9  11
ATOM     11  C   UNL     1       0.428   1.105 -13.944  1.00  0.00    -0.002 C 
ATOM     12  C   UNL     1       1.303  -0.148 -13.643  1.00  0.00     0.005 C 
ATOM     13  C   UNL     1      -0.220   1.445 -12.559  1.00  0.00    -0.026 C 
ATOM     14  C   UNL     1       1.527  -0.203 -12.124  1.00  0.00     0.005 C 
ATOM     15  C   UNL     1       0.967   1.119 -11.632  1.00  0.00    -0.001 C 
ATOM     16  C   UNL     1      -0.611   2.953 -12.363  1.00  0.00     0.007 C 
ATOM     17  C   UNL     1      -1.447   0.509 -12.308  1.00  0.00     0.012 C 
ATOM     18  C   UNL     1       0.748   1.359 -10.111  1.00  0.00     0.000 C 
ATOM     19  C   UNL     1      -0.231   3.549 -10.974  1.00  0.00     0.005 C 
ATOM     20  C   UNL     1      -0.292   2.481  -9.852  1.00  0.00     0.003 C 
ATOM     21  C   UNL     1       0.387   0.138  -9.262  1.00  0.00     0.031 C 
ATOM     22  C   UNL     1      -0.197   3.000  -8.374  1.00  0.00    -0.008 C 
ATOM     23  C   UNL     1       0.179   0.535  -7.818  1.00  0.00    -0.027 C 
ATOM     24  C   UNL     1      -0.139   1.794  -7.411  1.00  0.00    -0.065 C 
ATOM     25  C   UNL     1      -1.474   3.838  -8.042  1.00  0.00     0.014 C 
ATOM     26  C   UNL     1       1.061   3.886  -8.164  1.00  0.00     0.016 C 
ATOM     27  C   UNL     1      -0.368   2.047  -5.935  1.00  0.00     0.063 C 
ATOM     28  C   UNL     1      -1.658   4.126  -6.542  1.00  0.00     0.033 C 
ATOM     29  C   UNL     1      -1.667   2.828  -5.723  1.00  0.00     0.118 C 
BRANCH  29  30
ATOM     30  O   UNL     1      -1.805   3.125  -4.358  1.00  0.00    -0.393 OA
ATOM     31  H   UNL     1      -2.169   4.049  -4.302  1.00  0.00     0.210 HD
ENDBRANCH  29  30
ENDBRANCH   9  11
ENDBRANCH   1   9
TORSDOF 7
ENDMDL
MODEL 8
REMARK VINA RESULT:    -6.019      2.916      8.798
REMARK INTER + INTRA:          -9.155
REMARK INTER:                  -7.362
REMARK INTRA:                  -1.794
REMARK UNBOUND:                -0.849
REMARK SMILES CC[C@@H](CC[C@H](C)[C@@H]1CC[C@@H]2[C@@H]3CC=C4C[C@@H](O)CC[C@]4(C)[C@H]3CC[C@]21C)C(C)C
REMARK SMILES IDX 5 1 4 2 3 3 2 4 1 5 28 6 29 7 30 8 6 9 7 10 8 11 9 12 26 13
REMARK SMILES IDX 10 14 11 15 25 16 27 17 12 18 24 19 23 20 13 21 21 22 14 23
REMARK SMILES IDX 15 24 20 25 22 26 16 27 19 28 17 29 18 30
REMARK H PARENT 18 31
REMARK Flexibility Score: inf
ROOT
ATOM      1  C   UNL     1     -15.246   4.925  -3.323  1.00  0.00     0.004 C 
ENDROOT
BRANCH   1   2
ATOM      2  C   UNL     1     -15.801   3.882  -4.315  1.00  0.00     0.004 C 
BRANCH   2   3
ATOM      3  C   UNL     1     -17.358   3.953  -4.438  1.00  0.00    -0.009 C 
BRANCH   3   4
ATOM      4  C   UNL     1     -18.012   2.885  -3.522  1.00  0.00     0.000 C 
ATOM      5  C   UNL     1     -17.174   1.615  -3.364  1.00  0.00     0.004 C 
ENDBRANCH   3   4
BRANCH   3   6
ATOM      6  C   UNL     1     -17.872   3.896  -5.918  1.00  0.00    -0.014 C 
ATOM      7  C   UNL     1     -18.095   5.297  -6.509  1.00  0.00     0.007 C 
ATOM      8  C   UNL     1     -16.987   3.056  -6.859  1.00  0.00     0.007 C 
ENDBRANCH   3   6
ENDBRANCH   2   3
ENDBRANCH   1   2
BRANCH   1   9
ATOM      9  C   UNL     1     -14.051   5.735  -3.904  1.00  0.00    -0.011 C 
ATOM     10  C   UNL     1     -12.904   5.752  -2.875  1.00  0.00     0.008 C 
BRANCH   9  11
ATOM     11  C   UNL     1     -14.490   7.189  -4.296  1.00  0.00    -0.002 C 
ATOM     12  C   UNL     1     -16.017   7.431  -4.106  1.00  0.00     0.005 C 
ATOM     13  C   UNL     1     -14.219   7.669  -5.762  1.00  0.00    -0.026 C 
ATOM     14  C   UNL     1     -16.465   8.428  -5.186  1.00  0.00     0.005 C 
ATOM     15  C   UNL     1     -15.161   8.887  -5.812  1.00  0.00    -0.001 C 
ATOM     16  C   UNL     1     -12.751   8.158  -6.037  1.00  0.00     0.007 C 
ATOM     17  C   UNL     1     -14.635   6.549  -6.769  1.00  0.00     0.012 C 
ATOM     18  C   UNL     1     -15.174   9.702  -7.137  1.00  0.00     0.000 C 
ATOM     19  C   UNL     1     -12.649   9.471  -6.870  1.00  0.00     0.005 C 
ATOM     20  C   UNL     1     -13.816   9.606  -7.882  1.00  0.00     0.003 C 
ATOM     21  C   UNL     1     -16.306   9.405  -8.123  1.00  0.00     0.031 C 
ATOM     22  C   UNL     1     -13.690  10.737  -8.962  1.00  0.00    -0.008 C 
ATOM     23  C   UNL     1     -16.165  10.252  -9.368  1.00  0.00    -0.027 C 
ATOM     24  C   UNL     1     -14.994  10.805  -9.786  1.00  0.00    -0.065 C 
ATOM     25  C   UNL     1     -12.510  10.394  -9.929  1.00  0.00     0.014 C 
ATOM     26  C   UNL     1     -13.424  12.119  -8.307  1.00  0.00     0.016 C 
ATOM     27  C   UNL     1     -14.982  11.593 -11.080  1.00  0.00     0.063 C 
ATOM     28  C   UNL     1     -12.489  11.242 -11.212  1.00  0.00     0.033 C 
ATOM     29  C   UNL     1     -13.820  11.141 -11.969  1.00  0.00     0.118 C 
BRANCH  29  30
ATOM     30  O   UNL     1     -13.780  11.949 -13.116  1.00  0.00    -0.393 OA
ATOM     31  H   UNL     1     -13.588  12.874 -12.807  1.00  0.00     0.210 HD
ENDBRANCH  29  30
ENDBRANCH   9  11
ENDBRANCH   1   9
TORSDOF 7
ENDMDL
MODEL 9
REMARK VINA RESULT:    -5.919      3.184      9.416
REMARK INTER + INTRA:          -9.018
REMARK INTER:                  -7.649
REMARK INTRA:                  -1.369
REMARK UNBOUND:                -0.849
REMARK SMILES CC[C@@H](CC[C@H](C)[C@@H]1CC[C@@H]2[C@@H]3CC=C4C[C@@H](O)CC[C@]4(C)[C@H]3CC[C@]21C)C(C)C
REMARK SMILES IDX 5 1 4 2 3 3 2 4 1 5 28 6 29 7 30 8 6 9 7 10 8 11 9 12 26 13
REMARK SMILES IDX 10 14 11 15 25 16 27 17 12 18 24 19 23 20 13 21 21 22 14 23
REMARK SMILES IDX 15 24 20 25 22 26 16 27 19 28 17 29 18 30
REMARK H PARENT 18 31
REMARK Flexibility Score: inf
ROOT
ATOM      1  C   UNL     1     -15.040   4.940  -6.908  1.00  0.00     0.004 C 
ENDROOT
BRANCH   1   2
ATOM      2  C   UNL     1     -15.490   3.870  -5.892  1.00  0.00     0.004 C 
BRANCH   2   3
ATOM      3  C   UNL     1     -16.860   3.226  -6.279  1.00  0.00    -0.009 C 
BRANCH   3   4
ATOM      4  C   UNL     1     -17.897   4.334  -6.600  1.00  0.00     0.000 C 
ATOM      5  C   UNL     1     -18.125   5.314  -5.448  1.00  0.00     0.004 C 
ENDBRANCH   3   4
BRANCH   3   6
ATOM      6  C   UNL     1     -17.377   2.180  -5.233  1.00  0.00    -0.014 C 
ATOM      7  C   UNL     1     -17.409   0.754  -5.804  1.00  0.00     0.007 C 
ATOM      8  C   UNL     1     -16.615   2.200  -3.894  1.00  0.00     0.007 C 
ENDBRANCH   3   6
ENDBRANCH   2   3
ENDBRANCH   1   2
BRANCH   1   9
ATOM      9  C   UNL     1     -14.329   6.150  -6.235  1.00  0.00    -0.011 C 
ATOM     10  C   UNL     1     -14.499   6.052  -4.707  1.00  0.00     0.008 C 
BRANCH   9  11
ATOM     11  C   UNL     1     -14.885   7.510  -6.786  1.00  0.00    -0.002 C 
ATOM     12  C   UNL     1     -16.099   7.325  -7.743  1.00  0.00     0.005 C 
ATOM     13  C   UNL     1     -13.910   8.428  -7.599  1.00  0.00    -0.026 C 
ATOM     14  C   UNL     1     -16.039   8.447  -8.791  1.00  0.00     0.005 C 
ATOM     15  C   UNL     1     -14.935   9.354  -8.279  1.00  0.00    -0.001 C 
ATOM     16  C   UNL     1     -12.943   9.305  -6.725  1.00  0.00     0.007 C 
ATOM     17  C   UNL     1     -13.109   7.564  -8.628  1.00  0.00     0.012 C 
ATOM     18  C   UNL     1     -14.362  10.478  -9.190  1.00  0.00     0.000 C 
ATOM     19  C   UNL     1     -12.799  10.783  -7.198  1.00  0.00     0.005 C 
ATOM     20  C   UNL     1     -12.943  10.913  -8.736  1.00  0.00     0.003 C 
ATOM     21  C   UNL     1     -14.342  10.208 -10.696  1.00  0.00     0.031 C 
ATOM     22  C   UNL     1     -12.554  12.297  -9.368  1.00  0.00    -0.008 C 
ATOM     23  C   UNL     1     -13.732  11.375 -11.439  1.00  0.00    -0.027 C 
ATOM     24  C   UNL     1     -12.888  12.281 -10.876  1.00  0.00    -0.065 C 
ATOM     25  C   UNL     1     -11.016  12.522  -9.203  1.00  0.00     0.014 C 
ATOM     26  C   UNL     1     -13.316  13.465  -8.686  1.00  0.00     0.016 C 
ATOM     27  C   UNL     1     -12.308  13.377 -11.747  1.00  0.00     0.063 C 
ATOM     28  C   UNL     1     -10.460  13.673 -10.059  1.00  0.00     0.033 C 
ATOM     29  C   UNL     1     -10.794  13.475 -11.544  1.00  0.00     0.118 C 
BRANCH  29  30
ATOM     30  O   UNL     1     -10.301  14.555 -12.293  1.00  0.00    -0.393 OA
ATOM     31  H   UNL     1     -10.867  14.620 -13.108  1.00  0.00     0.210 HD
ENDBRANCH  29  30
ENDBRANCH   9  11
ENDBRANCH   1   9
TORSDOF 7
ENDMDL
