MODEL 1
REMARK VINA RESULT:    -2.790      0.000      0.000
REMARK INTER + INTRA:          -2.872
REMARK INTER:                  -2.872
REMARK INTRA:                   0.000
REMARK UNBOUND:                 0.000
REMARK SMILES CC1(C)[C@@H]2CC[C@@](C)(C2)[C@H]1O
REMARK SMILES IDX 1 1 2 2 4 3 5 4 6 5 7 6 9 7 10 8 8 9 3 10 11 11
REMARK H PARENT 11 12
REMARK Flexibility Score: inf
ROOT
ATOM      1  C   UNL     1     128.582 110.681 119.137  1.00  0.00     0.014 C 
ATOM      2  C   UNL     1     128.052 112.045 118.630  1.00  0.00    -0.006 C 
ATOM      3  C   UNL     1     129.178 113.111 118.407  1.00  0.00    -0.002 C 
ATOM      4  C   UNL     1     130.125 113.191 119.623  1.00  0.00     0.005 C 
ATOM      5  C   UNL     1     129.226 113.793 120.714  1.00  0.00     0.010 C 
ATOM      6  C   UNL     1     127.912 114.082 119.954  1.00  0.00    -0.006 C 
ATOM      7  C   UNL     1     128.425 114.419 118.570  1.00  0.00     0.013 C 
ATOM      8  C   UNL     1     127.162 112.743 119.715  1.00  0.00     0.126 C 
ATOM      9  C   UNL     1     127.069 115.189 120.600  1.00  0.00     0.014 C 
ATOM     10  C   UNL     1     127.309 111.783 117.293  1.00  0.00     0.014 C 
ENDROOT
BRANCH   8  11
ATOM     11  O   UNL     1     125.854 112.985 119.256  1.00  0.00    -0.392 OA
ATOM     12  H   UNL     1     125.899 113.798 118.688  1.00  0.00     0.211 HD
ENDBRANCH   8  11
TORSDOF 1
ENDMDL
MODEL 2
REMARK VINA RESULT:    -2.737     14.188     15.293
REMARK INTER + INTRA:          -2.817
REMARK INTER:                  -2.817
REMARK INTRA:                   0.000
REMARK UNBOUND:                 0.000
REMARK SMILES CC1(C)[C@@H]2CC[C@@](C)(C2)[C@H]1O
REMARK SMILES IDX 1 1 2 2 4 3 5 4 6 5 7 6 9 7 10 8 8 9 3 10 11 11
REMARK H PARENT 11 12
REMARK Flexibility Score: inf
ROOT
ATOM      1  C   UNL     1     128.521 128.700 118.755  1.00  0.00     0.014 C 
ATOM      2  C   UNL     1     127.143 128.078 118.421  1.00  0.00    -0.006 C 
ATOM      3  C   UNL     1     125.996 129.137 118.284  1.00  0.00    -0.002 C 
ATOM      4  C   UNL     1     125.997 130.123 119.471  1.00  0.00     0.005 C 
ATOM      5  C   UNL     1     125.572 129.236 120.651  1.00  0.00     0.010 C 
ATOM      6  C   UNL     1     125.276 127.880 119.970  1.00  0.00    -0.006 C 
ATOM      7  C   UNL     1     124.759 128.321 118.618  1.00  0.00     0.013 C 
ATOM      8  C   UNL     1     126.621 127.195 119.606  1.00  0.00     0.126 C 
ATOM      9  C   UNL     1     124.298 127.005 120.764  1.00  0.00     0.014 C 
ATOM     10  C   UNL     1     127.298 127.300 117.088  1.00  0.00     0.014 C 
ENDROOT
BRANCH   8  11
ATOM     11  O   UNL     1     126.405 125.858 119.219  1.00  0.00    -0.392 OA
ATOM     12  H   UNL     1     127.296 125.482 118.993  1.00  0.00     0.211 HD
ENDBRANCH   8  11
TORSDOF 1
ENDMDL
MODEL 3
REMARK VINA RESULT:    -2.631     12.352     13.808
REMARK INTER + INTRA:          -2.707
REMARK INTER:                  -2.707
REMARK INTRA:                   0.000
REMARK UNBOUND:                 0.000
REMARK SMILES CC1(C)[C@@H]2CC[C@@](C)(C2)[C@H]1O
REMARK SMILES IDX 1 1 2 2 4 3 5 4 6 5 7 6 9 7 10 8 8 9 3 10 11 11
REMARK H PARENT 11 12
REMARK Flexibility Score: inf
ROOT
ATOM      1  C   UNL     1     129.771 124.507 116.480  1.00  0.00     0.014 C 
ATOM      2  C   UNL     1     129.462 126.021 116.394  1.00  0.00    -0.006 C 
ATOM      3  C   UNL     1     129.982 126.837 117.627  1.00  0.00    -0.002 C 
ATOM      4  C   UNL     1     129.581 126.164 118.956  1.00  0.00     0.005 C 
ATOM      5  C   UNL     1     128.056 126.344 118.982  1.00  0.00     0.010 C 
ATOM      6  C   UNL     1     127.790 127.194 117.719  1.00  0.00    -0.006 C 
ATOM      7  C   UNL     1     129.048 128.034 117.643  1.00  0.00     0.013 C 
ATOM      8  C   UNL     1     127.918 126.287 116.465  1.00  0.00     0.126 C 
ATOM      9  C   UNL     1     126.493 128.009 117.798  1.00  0.00     0.014 C 
ATOM     10  C   UNL     1     130.125 126.555 115.097  1.00  0.00     0.014 C 
ENDROOT
BRANCH   8  11
ATOM     11  O   UNL     1     127.441 126.955 115.321  1.00  0.00    -0.392 OA
ATOM     12  H   UNL     1     127.180 127.866 115.614  1.00  0.00     0.211 HD
ENDBRANCH   8  11
TORSDOF 1
ENDMDL
MODEL 4
REMARK VINA RESULT:    -2.622      1.197      3.105
REMARK INTER + INTRA:          -2.698
REMARK INTER:                  -2.698
REMARK INTRA:                   0.000
REMARK UNBOUND:                 0.000
REMARK SMILES CC1(C)[C@@H]2CC[C@@](C)(C2)[C@H]1O
REMARK SMILES IDX 1 1 2 2 4 3 5 4 6 5 7 6 9 7 10 8 8 9 3 10 11 11
REMARK H PARENT 11 12
REMARK Flexibility Score: inf
ROOT
ATOM      1  C   UNL     1     127.833 115.069 118.941  1.00  0.00     0.014 C 
ATOM      2  C   UNL     1     127.515 113.611 119.353  1.00  0.00    -0.006 C 
ATOM      3  C   UNL     1     128.536 113.014 120.381  1.00  0.00    -0.002 C 
ATOM      4  C   UNL     1     129.992 113.263 119.937  1.00  0.00     0.005 C 
ATOM      5  C   UNL     1     130.125 112.373 118.692  1.00  0.00     0.010 C 
ATOM      6  C   UNL     1     128.763 111.644 118.646  1.00  0.00    -0.006 C 
ATOM      7  C   UNL     1     128.430 111.522 120.118  1.00  0.00     0.013 C 
ATOM      8  C   UNL     1     127.679 112.633 118.139  1.00  0.00     0.126 C 
ATOM      9  C   UNL     1     128.817 110.304 117.900  1.00  0.00     0.014 C 
ATOM     10  C   UNL     1     126.091 113.604 119.968  1.00  0.00     0.014 C 
ENDROOT
BRANCH   8  11
ATOM     11  O   UNL     1     126.485 111.947 117.843  1.00  0.00    -0.392 OA
ATOM     12  H   UNL     1     125.916 112.007 118.655  1.00  0.00     0.211 HD
ENDBRANCH   8  11
TORSDOF 1
ENDMDL
MODEL 5
REMARK VINA RESULT:    -2.616     13.454     15.459
REMARK INTER + INTRA:          -2.693
REMARK INTER:                  -2.693
REMARK INTRA:                   0.000
REMARK UNBOUND:                 0.000
REMARK SMILES CC1(C)[C@@H]2CC[C@@](C)(C2)[C@H]1O
REMARK SMILES IDX 1 1 2 2 4 3 5 4 6 5 7 6 9 7 10 8 8 9 3 10 11 11
REMARK H PARENT 11 12
REMARK Flexibility Score: inf
ROOT
ATOM      1  C   UNL     1     124.036 127.860 118.925  1.00  0.00     0.014 C 
ATOM      2  C   UNL     1     125.496 127.520 119.311  1.00  0.00    -0.006 C 
ATOM      3  C   UNL     1     126.121 128.523 120.340  1.00  0.00    -0.002 C 
ATOM      4  C   UNL     1     125.882 129.987 119.915  1.00  0.00     0.005 C 
ATOM      5  C   UNL     1     126.755 130.122 118.657  1.00  0.00     0.010 C 
ATOM      6  C   UNL     1     127.467 128.751 118.586  1.00  0.00    -0.006 C 
ATOM      7  C   UNL     1     127.607 128.402 120.052  1.00  0.00     0.013 C 
ATOM      8  C   UNL     1     126.457 127.684 118.083  1.00  0.00     0.126 C 
ATOM      9  C   UNL     1     128.795 128.798 117.820  1.00  0.00     0.014 C 
ATOM     10  C   UNL     1     125.494 126.090 119.911  1.00  0.00     0.014 C 
ENDROOT
BRANCH   8  11
ATOM     11  O   UNL     1     127.123 126.485 117.765  1.00  0.00    -0.392 OA
ATOM     12  H   UNL     1     126.459 125.906 117.308  1.00  0.00     0.211 HD
ENDBRANCH   8  11
TORSDOF 1
ENDMDL
MODEL 6
REMARK VINA RESULT:    -2.540     20.747     22.187
REMARK INTER + INTRA:          -2.614
REMARK INTER:                  -2.614
REMARK INTRA:                   0.000
REMARK UNBOUND:                 0.000
REMARK SMILES CC1(C)[C@@H]2CC[C@@](C)(C2)[C@H]1O
REMARK SMILES IDX 1 1 2 2 4 3 5 4 6 5 7 6 9 7 10 8 8 9 3 10 11 11
REMARK H PARENT 11 12
REMARK Flexibility Score: inf
ROOT
ATOM      1  C   UNL     1     112.860 130.045 119.350  1.00  0.00     0.014 C 
ATOM      2  C   UNL     1     112.960 128.820 118.409  1.00  0.00    -0.006 C 
ATOM      3  C   UNL     1     112.070 128.943 117.125  1.00  0.00    -0.002 C 
ATOM      4  C   UNL     1     110.632 129.380 117.477  1.00  0.00     0.005 C 
ATOM      5  C   UNL     1     110.078 128.156 118.222  1.00  0.00     0.010 C 
ATOM      6  C   UNL     1     111.231 127.133 118.105  1.00  0.00    -0.006 C 
ATOM      7  C   UNL     1     111.823 127.490 116.759  1.00  0.00     0.013 C 
ATOM      8  C   UNL     1     112.364 127.537 119.086  1.00  0.00     0.126 C 
ATOM      9  C   UNL     1     110.763 125.677 118.221  1.00  0.00     0.014 C 
ATOM     10  C   UNL     1     114.449 128.672 118.000  1.00  0.00     0.014 C 
ENDROOT
BRANCH   8  11
ATOM     11  O   UNL     1     113.315 126.504 119.196  1.00  0.00    -0.392 OA
ATOM     12  H   UNL     1     113.777 126.451 118.320  1.00  0.00     0.211 HD
ENDBRANCH   8  11
TORSDOF 1
ENDMDL
MODEL 7
REMARK VINA RESULT:    -2.532     12.423     14.064
REMARK INTER + INTRA:          -2.606
REMARK INTER:                  -2.606
REMARK INTRA:                   0.000
REMARK UNBOUND:                 0.000
REMARK SMILES CC1(C)[C@@H]2CC[C@@](C)(C2)[C@H]1O
REMARK SMILES IDX 1 1 2 2 4 3 5 4 6 5 7 6 9 7 10 8 8 9 3 10 11 11
REMARK H PARENT 11 12
REMARK Flexibility Score: inf
ROOT
ATOM      1  C   UNL     1     129.970 126.206 119.465  1.00  0.00     0.014 C 
ATOM      2  C   UNL     1     128.764 126.102 118.501  1.00  0.00    -0.006 C 
ATOM      3  C   UNL     1     128.912 126.985 117.215  1.00  0.00    -0.002 C 
ATOM      4  C   UNL     1     129.341 128.425 117.569  1.00  0.00     0.005 C 
ATOM      5  C   UNL     1     128.102 128.982 118.287  1.00  0.00     0.010 C 
ATOM      6  C   UNL     1     127.083 127.828 118.156  1.00  0.00    -0.006 C 
ATOM      7  C   UNL     1     127.466 127.230 116.820  1.00  0.00     0.013 C 
ATOM      8  C   UNL     1     127.468 126.700 119.150  1.00  0.00     0.126 C 
ATOM      9  C   UNL     1     125.624 128.296 118.242  1.00  0.00     0.014 C 
ATOM     10  C   UNL     1     128.624 124.611 118.096  1.00  0.00     0.014 C 
ENDROOT
BRANCH   8  11
ATOM     11  O   UNL     1     126.433 125.750 119.245  1.00  0.00    -0.392 OA
ATOM     12  H   UNL     1     125.933 125.958 120.076  1.00  0.00     0.211 HD
ENDBRANCH   8  11
TORSDOF 1
ENDMDL
MODEL 8
REMARK VINA RESULT:    -2.282     14.755     16.158
REMARK INTER + INTRA:          -2.348
REMARK INTER:                  -2.348
REMARK INTRA:                   0.000
REMARK UNBOUND:                 0.000
REMARK SMILES CC1(C)[C@@H]2CC[C@@](C)(C2)[C@H]1O
REMARK SMILES IDX 1 1 2 2 4 3 5 4 6 5 7 6 9 7 10 8 8 9 3 10 11 11
REMARK H PARENT 11 12
REMARK Flexibility Score: inf
ROOT
ATOM      1  C   UNL     1     125.293 127.101 120.550  1.00  0.00     0.014 C 
ATOM      2  C   UNL     1     125.658 128.575 120.246  1.00  0.00    -0.006 C 
ATOM      3  C   UNL     1     125.597 128.933 118.722  1.00  0.00    -0.002 C 
ATOM      4  C   UNL     1     126.344 127.887 117.868  1.00  0.00     0.005 C 
ATOM      5  C   UNL     1     127.812 128.110 118.265  1.00  0.00     0.010 C 
ATOM      6  C   UNL     1     127.729 129.328 119.212  1.00  0.00    -0.006 C 
ATOM      7  C   UNL     1     126.567 130.098 118.622  1.00  0.00     0.013 C 
ATOM      8  C   UNL     1     127.162 128.864 120.581  1.00  0.00     0.126 C 
ATOM      9  C   UNL     1     129.037 130.125 119.290  1.00  0.00     0.014 C 
ATOM     10  C   UNL     1     124.663 129.468 121.033  1.00  0.00     0.014 C 
ENDROOT
BRANCH   8  11
ATOM     11  O   UNL     1     127.306 129.880 121.546  1.00  0.00    -0.392 OA
ATOM     12  H   UNL     1     127.274 130.742 121.055  1.00  0.00     0.211 HD
ENDBRANCH   8  11
TORSDOF 1
ENDMDL
