MODEL 1
REMARK VINA RESULT:    -5.308      0.000      0.000
REMARK INTER + INTRA:          -5.912
REMARK INTER:                  -5.928
REMARK INTRA:                   0.017
REMARK UNBOUND:                 0.017
REMARK SMILES COc1cc2ccc(=O)oc2c(O)c1O
REMARK SMILES IDX 3 1 14 2 12 3 11 4 5 5 4 6 6 7 7 8 8 9 9 10 10 11 2 12 1 13
REMARK SMILES IDX 15 14 13 16
REMARK H PARENT 15 15 13 17
REMARK Flexibility Score: inf
ROOT
ATOM      1  C   UNL     1       9.874 -17.159   7.670  1.00  0.00     0.165 A 
ATOM      2  C   UNL     1       9.599 -15.859   7.204  1.00  0.00     0.204 A 
ATOM      3  C   UNL     1      10.627 -14.902   7.121  1.00  0.00     0.205 A 
ATOM      4  C   UNL     1      11.930 -15.241   7.505  1.00  0.00     0.184 A 
ATOM      5  C   UNL     1      12.211 -16.542   7.972  1.00  0.00     0.025 A 
ATOM      6  C   UNL     1      11.188 -17.494   8.054  1.00  0.00     0.062 A 
ATOM      7  C   UNL     1      13.523 -16.848   8.346  1.00  0.00     0.020 A 
ATOM      8  C   UNL     1      14.510 -15.868   8.248  1.00  0.00     0.094 A 
ATOM      9  C   UNL     1      14.160 -14.599   7.776  1.00  0.00     0.336 A 
ATOM     10  O   UNL     1      15.036 -13.701   7.680  1.00  0.00    -0.246 OA
ATOM     11  O   UNL     1      12.904 -14.335   7.426  1.00  0.00    -0.419 OA
ENDROOT
BRANCH   1  12
ATOM     12  O   UNL     1       8.823 -18.089   7.739  1.00  0.00    -0.493 OA
ATOM     13  C   UNL     1       7.841 -18.125   8.771  1.00  0.00     0.278 C 
ENDBRANCH   1  12
BRANCH   2  14
ATOM     14  O   UNL     1       8.304 -15.504   6.818  1.00  0.00    -0.502 OA
ATOM     15  H   UNL     1       7.768 -16.048   6.153  1.00  0.00     0.293 HD
ENDBRANCH   2  14
BRANCH   3  16
ATOM     16  O   UNL     1      10.368 -13.610   6.661  1.00  0.00    -0.502 OA
ATOM     17  H   UNL     1      10.785 -12.792   7.087  1.00  0.00     0.293 HD
ENDBRANCH   3  16
TORSDOF 3
ENDMDL
MODEL 2
REMARK VINA RESULT:    -4.971      1.420      4.707
REMARK INTER + INTRA:          -5.535
REMARK INTER:                  -5.477
REMARK INTRA:                  -0.058
REMARK UNBOUND:                 0.017
REMARK SMILES COc1cc2ccc(=O)oc2c(O)c1O
REMARK SMILES IDX 3 1 14 2 12 3 11 4 5 5 4 6 6 7 7 8 8 9 9 10 10 11 2 12 1 13
REMARK SMILES IDX 15 14 13 16
REMARK H PARENT 15 15 13 17
REMARK Flexibility Score: inf
ROOT
ATOM      1  C   UNL     1      12.836 -16.662   7.857  1.00  0.00     0.165 A 
ATOM      2  C   UNL     1      12.463 -15.337   7.561  1.00  0.00     0.204 A 
ATOM      3  C   UNL     1      11.112 -14.951   7.618  1.00  0.00     0.205 A 
ATOM      4  C   UNL     1      10.131 -15.886   7.967  1.00  0.00     0.184 A 
ATOM      5  C   UNL     1      10.500 -17.215   8.265  1.00  0.00     0.025 A 
ATOM      6  C   UNL     1      11.844 -17.599   8.209  1.00  0.00     0.062 A 
ATOM      7  C   UNL     1       9.495 -18.124   8.612  1.00  0.00     0.020 A 
ATOM      8  C   UNL     1       8.168 -17.697   8.655  1.00  0.00     0.094 A 
ATOM      9  C   UNL     1       7.876 -16.365   8.348  1.00  0.00     0.336 A 
ATOM     10  O   UNL     1       6.685 -15.960   8.380  1.00  0.00    -0.246 OA
ATOM     11  O   UNL     1       8.851 -15.521   8.021  1.00  0.00    -0.419 OA
ENDROOT
BRANCH   1  12
ATOM     12  O   UNL     1      14.195 -17.012   7.791  1.00  0.00    -0.493 OA
ATOM     13  C   UNL     1      14.710 -18.125   7.066  1.00  0.00     0.278 C 
ENDBRANCH   1  12
BRANCH   2  14
ATOM     14  O   UNL     1      13.429 -14.391   7.210  1.00  0.00    -0.502 OA
ATOM     15  H   UNL     1      13.995 -14.478   6.375  1.00  0.00     0.293 HD
ENDBRANCH   2  14
BRANCH   3  16
ATOM     16  O   UNL     1      10.727 -13.640   7.327  1.00  0.00    -0.502 OA
ATOM     17  H   UNL     1      10.524 -12.964   8.051  1.00  0.00     0.293 HD
ENDBRANCH   3  16
TORSDOF 3
ENDMDL
MODEL 3
REMARK VINA RESULT:    -4.875      1.567      5.407
REMARK INTER + INTRA:          -5.428
REMARK INTER:                  -5.374
REMARK INTRA:                  -0.054
REMARK UNBOUND:                 0.017
REMARK SMILES COc1cc2ccc(=O)oc2c(O)c1O
REMARK SMILES IDX 3 1 14 2 12 3 11 4 5 5 4 6 6 7 7 8 8 9 9 10 10 11 2 12 1 13
REMARK SMILES IDX 15 14 13 16
REMARK H PARENT 15 15 13 17
REMARK Flexibility Score: inf
ROOT
ATOM      1  C   UNL     1      12.495 -14.787   7.939  1.00  0.00     0.165 A 
ATOM      2  C   UNL     1      12.553 -15.980   8.685  1.00  0.00     0.204 A 
ATOM      3  C   UNL     1      11.483 -16.893   8.647  1.00  0.00     0.205 A 
ATOM      4  C   UNL     1      10.355 -16.616   7.867  1.00  0.00     0.184 A 
ATOM      5  C   UNL     1      10.292 -15.422   7.117  1.00  0.00     0.025 A 
ATOM      6  C   UNL     1      11.357 -14.514   7.155  1.00  0.00     0.062 A 
ATOM      7  C   UNL     1       9.151 -15.176   6.348  1.00  0.00     0.020 A 
ATOM      8  C   UNL     1       8.114 -16.109   6.340  1.00  0.00     0.094 A 
ATOM      9  C   UNL     1       8.244 -17.271   7.107  1.00  0.00     0.336 A 
ATOM     10  O   UNL     1       7.320 -18.125   7.114  1.00  0.00    -0.246 OA
ATOM     11  O   UNL     1       9.341 -17.480   7.830  1.00  0.00    -0.419 OA
ENDROOT
BRANCH   1  12
ATOM     12  O   UNL     1      13.582 -13.899   8.000  1.00  0.00    -0.493 OA
ATOM     13  C   UNL     1      14.700 -13.927   7.118  1.00  0.00     0.278 C 
ENDBRANCH   1  12
BRANCH   2  14
ATOM     14  O   UNL     1      13.671 -16.272   9.469  1.00  0.00    -0.502 OA
ATOM     15  H   UNL     1      14.549 -15.778   9.368  1.00  0.00     0.293 HD
ENDBRANCH   2  14
BRANCH   3  16
ATOM     16  O   UNL     1      11.526 -18.080   9.381  1.00  0.00    -0.502 OA
ATOM     17  H   UNL     1      11.588 -18.087  10.391  1.00  0.00     0.293 HD
ENDBRANCH   3  16
TORSDOF 3
ENDMDL
MODEL 4
REMARK VINA RESULT:    -4.537      1.213      1.438
REMARK INTER + INTRA:          -5.051
REMARK INTER:                  -4.988
REMARK INTRA:                  -0.063
REMARK UNBOUND:                 0.017
REMARK SMILES COc1cc2ccc(=O)oc2c(O)c1O
REMARK SMILES IDX 3 1 14 2 12 3 11 4 5 5 4 6 6 7 7 8 8 9 9 10 10 11 2 12 1 13
REMARK SMILES IDX 15 14 13 16
REMARK H PARENT 15 15 13 17
REMARK Flexibility Score: inf
ROOT
ATOM      1  C   UNL     1       8.648 -17.498   7.932  1.00  0.00     0.165 A 
ATOM      2  C   UNL     1       8.709 -16.243   7.295  1.00  0.00     0.204 A 
ATOM      3  C   UNL     1       9.951 -15.620   7.074  1.00  0.00     0.205 A 
ATOM      4  C   UNL     1      11.132 -16.247   7.489  1.00  0.00     0.184 A 
ATOM      5  C   UNL     1      11.075 -17.504   8.127  1.00  0.00     0.025 A 
ATOM      6  C   UNL     1       9.840 -18.124   8.347  1.00  0.00     0.062 A 
ATOM      7  C   UNL     1      12.273 -18.104   8.528  1.00  0.00     0.020 A 
ATOM      8  C   UNL     1      13.482 -17.450   8.288  1.00  0.00     0.094 A 
ATOM      9  C   UNL     1      13.462 -16.205   7.650  1.00  0.00     0.336 A 
ATOM     10  O   UNL     1      14.542 -15.599   7.425  1.00  0.00    -0.246 OA
ATOM     11  O   UNL     1      12.309 -15.658   7.279  1.00  0.00    -0.419 OA
ENDROOT
BRANCH   1  12
ATOM     12  O   UNL     1       7.391 -18.090   8.136  1.00  0.00    -0.493 OA
ATOM     13  C   UNL     1       6.617 -17.959   9.325  1.00  0.00     0.278 C 
ENDBRANCH   1  12
BRANCH   2  14
ATOM     14  O   UNL     1       7.541 -15.603   6.875  1.00  0.00    -0.502 OA
ATOM     15  H   UNL     1       6.931 -15.112   7.517  1.00  0.00     0.293 HD
ENDBRANCH   2  14
BRANCH   3  16
ATOM     16  O   UNL     1      10.028 -14.377   6.444  1.00  0.00    -0.502 OA
ATOM     17  H   UNL     1       9.263 -13.715   6.462  1.00  0.00     0.293 HD
ENDBRANCH   3  16
TORSDOF 3
ENDMDL
MODEL 5
REMARK VINA RESULT:    -4.526      1.781      5.264
REMARK INTER + INTRA:          -5.038
REMARK INTER:                  -5.031
REMARK INTRA:                  -0.008
REMARK UNBOUND:                 0.017
REMARK SMILES COc1cc2ccc(=O)oc2c(O)c1O
REMARK SMILES IDX 3 1 14 2 12 3 11 4 5 5 4 6 6 7 7 8 8 9 9 10 10 11 2 12 1 13
REMARK SMILES IDX 15 14 13 16
REMARK H PARENT 15 15 13 17
REMARK Flexibility Score: inf
ROOT
ATOM      1  C   UNL     1      12.769 -15.436   8.035  1.00  0.00     0.165 A 
ATOM      2  C   UNL     1      12.910 -16.421   7.039  1.00  0.00     0.204 A 
ATOM      3  C   UNL     1      11.789 -17.145   6.593  1.00  0.00     0.205 A 
ATOM      4  C   UNL     1      10.527 -16.888   7.141  1.00  0.00     0.184 A 
ATOM      5  C   UNL     1      10.380 -15.901   8.139  1.00  0.00     0.025 A 
ATOM      6  C   UNL     1      11.496 -15.181   8.582  1.00  0.00     0.062 A 
ATOM      7  C   UNL     1       9.106 -15.668   8.665  1.00  0.00     0.020 A 
ATOM      8  C   UNL     1       8.023 -16.409   8.193  1.00  0.00     0.094 A 
ATOM      9  C   UNL     1       8.242 -17.371   7.202  1.00  0.00     0.336 A 
ATOM     10  O   UNL     1       7.278 -18.051   6.763  1.00  0.00    -0.246 OA
ATOM     11  O   UNL     1       9.465 -17.572   6.719  1.00  0.00    -0.419 OA
ENDROOT
BRANCH   1  12
ATOM     12  O   UNL     1      13.909 -14.732   8.456  1.00  0.00    -0.493 OA
ATOM     13  C   UNL     1      14.472 -13.618   7.770  1.00  0.00     0.278 C 
ENDBRANCH   1  12
BRANCH   2  14
ATOM     14  O   UNL     1      14.162 -16.692   6.482  1.00  0.00    -0.502 OA
ATOM     15  H   UNL     1      15.006 -16.734   7.039  1.00  0.00     0.293 HD
ENDBRANCH   2  14
BRANCH   3  16
ATOM     16  O   UNL     1      11.914 -18.125   5.606  1.00  0.00    -0.502 OA
ATOM     17  H   UNL     1      11.438 -19.016   5.668  1.00  0.00     0.293 HD
ENDBRANCH   3  16
TORSDOF 3
ENDMDL
MODEL 6
REMARK VINA RESULT:    -4.319      1.227      4.861
REMARK INTER + INTRA:          -4.807
REMARK INTER:                  -4.783
REMARK INTRA:                  -0.024
REMARK UNBOUND:                 0.017
REMARK SMILES COc1cc2ccc(=O)oc2c(O)c1O
REMARK SMILES IDX 3 1 14 2 12 3 11 4 5 5 4 6 6 7 7 8 8 9 9 10 10 11 2 12 1 13
REMARK SMILES IDX 15 14 13 16
REMARK H PARENT 15 15 13 17
REMARK Flexibility Score: inf
ROOT
ATOM      1  C   UNL     1      12.380 -15.551   8.616  1.00  0.00     0.165 A 
ATOM      2  C   UNL     1      11.838 -14.710   7.625  1.00  0.00     0.204 A 
ATOM      3  C   UNL     1      10.544 -14.945   7.126  1.00  0.00     0.205 A 
ATOM      4  C   UNL     1       9.791 -16.020   7.612  1.00  0.00     0.184 A 
ATOM      5  C   UNL     1      10.330 -16.865   8.605  1.00  0.00     0.025 A 
ATOM      6  C   UNL     1      11.617 -16.631   9.102  1.00  0.00     0.062 A 
ATOM      7  C   UNL     1       9.551 -17.929   9.070  1.00  0.00     0.020 A 
ATOM      8  C   UNL     1       8.273 -18.125   8.546  1.00  0.00     0.094 A 
ATOM      9  C   UNL     1       7.803 -17.247   7.564  1.00  0.00     0.336 A 
ATOM     10  O   UNL     1       6.654 -17.407   7.078  1.00  0.00    -0.246 OA
ATOM     11  O   UNL     1       8.565 -16.243   7.140  1.00  0.00    -0.419 OA
ENDROOT
BRANCH   1  12
ATOM     12  O   UNL     1      13.675 -15.286   9.092  1.00  0.00    -0.493 OA
ATOM     13  C   UNL     1      14.874 -15.729   8.465  1.00  0.00     0.278 C 
ENDBRANCH   1  12
BRANCH   2  14
ATOM     14  O   UNL     1      12.575 -13.634   7.128  1.00  0.00    -0.502 OA
ATOM     15  H   UNL     1      12.740 -13.500   6.138  1.00  0.00     0.293 HD
ENDBRANCH   2  14
BRANCH   3  16
ATOM     16  O   UNL     1       9.993 -14.120   6.143  1.00  0.00    -0.502 OA
ATOM     17  H   UNL     1       9.526 -13.251   6.368  1.00  0.00     0.293 HD
ENDBRANCH   3  16
TORSDOF 3
ENDMDL
MODEL 7
REMARK VINA RESULT:    -3.919      2.125      2.440
REMARK INTER + INTRA:          -4.360
REMARK INTER:                  -4.545
REMARK INTRA:                   0.185
REMARK UNBOUND:                 0.017
REMARK SMILES COc1cc2ccc(=O)oc2c(O)c1O
REMARK SMILES IDX 3 1 14 2 12 3 11 4 5 5 4 6 6 7 7 8 8 9 9 10 10 11 2 12 1 13
REMARK SMILES IDX 15 14 13 16
REMARK H PARENT 15 15 13 17
REMARK Flexibility Score: inf
ROOT
ATOM      1  C   UNL     1       8.860 -16.245   8.231  1.00  0.00     0.165 A 
ATOM      2  C   UNL     1       9.020 -17.003   7.055  1.00  0.00     0.204 A 
ATOM      3  C   UNL     1      10.305 -17.373   6.618  1.00  0.00     0.205 A 
ATOM      4  C   UNL     1      11.432 -16.985   7.352  1.00  0.00     0.184 A 
ATOM      5  C   UNL     1      11.277 -16.226   8.531  1.00  0.00     0.025 A 
ATOM      6  C   UNL     1       9.998 -15.858   8.966  1.00  0.00     0.062 A 
ATOM      7  C   UNL     1      12.423 -15.855   9.241  1.00  0.00     0.020 A 
ATOM      8  C   UNL     1      13.677 -16.244   8.771  1.00  0.00     0.094 A 
ATOM      9  C   UNL     1      13.755 -16.996   7.595  1.00  0.00     0.336 A 
ATOM     10  O   UNL     1      14.877 -17.356   7.153  1.00  0.00    -0.246 OA
ATOM     11  O   UNL     1      12.649 -17.335   6.939  1.00  0.00    -0.419 OA
ENDROOT
BRANCH   1  12
ATOM     12  O   UNL     1       7.562 -15.894   8.638  1.00  0.00    -0.493 OA
ATOM     13  C   UNL     1       6.551 -16.827   9.010  1.00  0.00     0.278 C 
ENDBRANCH   1  12
BRANCH   2  14
ATOM     14  O   UNL     1       7.906 -17.398   6.310  1.00  0.00    -0.502 OA
ATOM     15  H   UNL     1       7.422 -16.768   5.682  1.00  0.00     0.293 HD
ENDBRANCH   2  14
BRANCH   3  16
ATOM     16  O   UNL     1      10.478 -18.124   5.454  1.00  0.00    -0.502 OA
ATOM     17  H   UNL     1      11.369 -18.535   5.204  1.00  0.00     0.293 HD
ENDBRANCH   3  16
TORSDOF 3
ENDMDL
MODEL 8
REMARK VINA RESULT:    -3.905      1.500      2.618
REMARK INTER + INTRA:          -4.345
REMARK INTER:                  -4.393
REMARK INTRA:                   0.049
REMARK UNBOUND:                 0.017
REMARK SMILES COc1cc2ccc(=O)oc2c(O)c1O
REMARK SMILES IDX 3 1 14 2 12 3 11 4 5 5 4 6 6 7 7 8 8 9 9 10 10 11 2 12 1 13
REMARK SMILES IDX 15 14 13 16
REMARK H PARENT 15 15 13 17
REMARK Flexibility Score: inf
ROOT
ATOM      1  C   UNL     1       9.202 -15.979   7.730  1.00  0.00     0.165 A 
ATOM      2  C   UNL     1       9.800 -17.055   8.415  1.00  0.00     0.204 A 
ATOM      3  C   UNL     1      11.187 -17.065   8.648  1.00  0.00     0.205 A 
ATOM      4  C   UNL     1      11.979 -16.003   8.197  1.00  0.00     0.184 A 
ATOM      5  C   UNL     1      11.385 -14.922   7.511  1.00  0.00     0.025 A 
ATOM      6  C   UNL     1      10.005 -14.912   7.280  1.00  0.00     0.062 A 
ATOM      7  C   UNL     1      12.205 -13.877   7.075  1.00  0.00     0.020 A 
ATOM      8  C   UNL     1      13.576 -13.929   7.328  1.00  0.00     0.094 A 
ATOM      9  C   UNL     1      14.096 -15.031   8.014  1.00  0.00     0.336 A 
ATOM     10  O   UNL     1      15.330 -15.097   8.251  1.00  0.00    -0.246 OA
ATOM     11  O   UNL     1      13.293 -16.012   8.418  1.00  0.00    -0.419 OA
ENDROOT
BRANCH   1  12
ATOM     12  O   UNL     1       7.814 -16.002   7.516  1.00  0.00    -0.493 OA
ATOM     13  C   UNL     1       6.836 -15.752   8.521  1.00  0.00     0.278 C 
ENDBRANCH   1  12
BRANCH   2  14
ATOM     14  O   UNL     1       9.024 -18.123   8.871  1.00  0.00    -0.502 OA
ATOM     15  H   UNL     1       8.077 -18.001   9.209  1.00  0.00     0.293 HD
ENDBRANCH   2  14
BRANCH   3  16
ATOM     16  O   UNL     1      11.793 -18.125   9.324  1.00  0.00    -0.502 OA
ATOM     17  H   UNL     1      12.399 -17.980  10.121  1.00  0.00     0.293 HD
ENDBRANCH   3  16
TORSDOF 3
ENDMDL
MODEL 9
REMARK VINA RESULT:    -3.306      2.250      2.636
REMARK INTER + INTRA:          -3.676
REMARK INTER:                  -3.652
REMARK INTRA:                  -0.024
REMARK UNBOUND:                 0.017
REMARK SMILES COc1cc2ccc(=O)oc2c(O)c1O
REMARK SMILES IDX 3 1 14 2 12 3 11 4 5 5 4 6 6 7 7 8 8 9 9 10 10 11 2 12 1 13
REMARK SMILES IDX 15 14 13 16
REMARK H PARENT 15 15 13 17
REMARK Flexibility Score: inf
ROOT
ATOM      1  C   UNL     1       8.765 -17.020   7.293  1.00  0.00     0.165 A 
ATOM      2  C   UNL     1       9.263 -16.445   8.479  1.00  0.00     0.204 A 
ATOM      3  C   UNL     1      10.646 -16.433   8.734  1.00  0.00     0.205 A 
ATOM      4  C   UNL     1      11.534 -16.996   7.810  1.00  0.00     0.184 A 
ATOM      5  C   UNL     1      11.040 -17.572   6.620  1.00  0.00     0.025 A 
ATOM      6  C   UNL     1       9.663 -17.584   6.366  1.00  0.00     0.062 A 
ATOM      7  C   UNL     1      11.953 -18.125   5.717  1.00  0.00     0.020 A 
ATOM      8  C   UNL     1      13.316 -18.091   6.012  1.00  0.00     0.094 A 
ATOM      9  C   UNL     1      13.734 -17.503   7.210  1.00  0.00     0.336 A 
ATOM     10  O   UNL     1      14.959 -17.463   7.495  1.00  0.00    -0.246 OA
ATOM     11  O   UNL     1      12.844 -16.984   8.051  1.00  0.00    -0.419 OA
ENDROOT
BRANCH   1  12
ATOM     12  O   UNL     1       7.378 -17.013   7.070  1.00  0.00    -0.493 OA
ATOM     13  C   UNL     1       6.471 -17.984   7.584  1.00  0.00     0.278 C 
ENDBRANCH   1  12
BRANCH   2  14
ATOM     14  O   UNL     1       8.392 -15.880   9.412  1.00  0.00    -0.502 OA
ATOM     15  H   UNL     1       8.717 -15.300  10.176  1.00  0.00     0.293 HD
ENDBRANCH   2  14
BRANCH   3  16
ATOM     16  O   UNL     1      11.154 -15.867   9.905  1.00  0.00    -0.502 OA
ATOM     17  H   UNL     1      10.556 -15.446  10.604  1.00  0.00     0.293 HD
ENDBRANCH   3  16
TORSDOF 3
ENDMDL
