MODEL 1
REMARK VINA RESULT:    -2.792      0.000      0.000
REMARK INTER + INTRA:          -3.385
REMARK INTER:                  -3.282
REMARK INTRA:                  -0.104
REMARK UNBOUND:                -0.104
REMARK SMILES O=C([O-])CCC(=O)[O-]
REMARK SMILES IDX 4 1 2 2 1 3 3 4 5 5 6 6 7 7 8 8
REMARK H PARENT
REMARK Flexibility Score: inf
ROOT
ATOM      1  C   UNL     1     -34.659  -5.267 -31.702  1.00  0.00     0.059 C 
ENDROOT
BRANCH   1   2
ATOM      2  C   UNL     1     -34.488  -4.974 -33.161  1.00  0.00     0.042 C 
ATOM      3  O   UNL     1     -35.344  -5.374 -33.993  1.00  0.00    -0.550 OA
ATOM      4  O   UNL     1     -33.405  -4.221 -33.597  1.00  0.00    -0.550 OA
ENDBRANCH   1   2
BRANCH   1   5
ATOM      5  C   UNL     1     -34.951  -6.750 -31.453  1.00  0.00     0.059 C 
BRANCH   5   6
ATOM      6  C   UNL     1     -33.689  -7.545 -31.317  1.00  0.00     0.042 C 
ATOM      7  O   UNL     1     -32.615  -6.978 -30.986  1.00  0.00    -0.550 OA
ATOM      8  O   UNL     1     -33.692  -8.906 -31.595  1.00  0.00    -0.550 OA
ENDBRANCH   5   6
ENDBRANCH   1   5
TORSDOF 3
ENDMDL
MODEL 2
REMARK VINA RESULT:    -2.775      1.535      2.247
REMARK INTER + INTRA:          -3.365
REMARK INTER:                  -3.335
REMARK INTRA:                  -0.030
REMARK UNBOUND:                -0.104
REMARK SMILES O=C([O-])CCC(=O)[O-]
REMARK SMILES IDX 4 1 2 2 1 3 3 4 5 5 6 6 7 7 8 8
REMARK H PARENT
REMARK Flexibility Score: inf
ROOT
ATOM      1  C   UNL     1     -34.440  -4.799 -33.269  1.00  0.00     0.059 C 
ENDROOT
BRANCH   1   2
ATOM      2  C   UNL     1     -33.442  -3.715 -33.543  1.00  0.00     0.042 C 
ATOM      3  O   UNL     1     -32.226  -4.000 -33.703  1.00  0.00    -0.550 OA
ATOM      4  O   UNL     1     -33.861  -2.397 -33.666  1.00  0.00    -0.550 OA
ENDBRANCH   1   2
BRANCH   1   5
ATOM      5  C   UNL     1     -34.468  -5.181 -31.786  1.00  0.00     0.059 C 
BRANCH   5   6
ATOM      6  C   UNL     1     -34.902  -6.601 -31.591  1.00  0.00     0.042 C 
ATOM      7  O   UNL     1     -36.124  -6.883 -31.495  1.00  0.00    -0.550 OA
ATOM      8  O   UNL     1     -33.952  -7.609 -31.476  1.00  0.00    -0.550 OA
ENDBRANCH   5   6
ENDBRANCH   1   5
TORSDOF 3
ENDMDL
MODEL 3
REMARK VINA RESULT:    -2.764      0.252      3.565
REMARK INTER + INTRA:          -3.353
REMARK INTER:                  -3.212
REMARK INTRA:                  -0.141
REMARK UNBOUND:                -0.104
REMARK SMILES O=C([O-])CCC(=O)[O-]
REMARK SMILES IDX 4 1 2 2 1 3 3 4 5 5 6 6 7 7 8 8
REMARK H PARENT
REMARK Flexibility Score: inf
ROOT
ATOM      1  C   UNL     1     -34.939  -6.769 -31.316  1.00  0.00     0.059 C 
ENDROOT
BRANCH   1   2
ATOM      2  C   UNL     1     -33.675  -7.569 -31.240  1.00  0.00     0.042 C 
ATOM      3  O   UNL     1     -33.667  -8.777 -31.598  1.00  0.00    -0.550 OA
ATOM      4  O   UNL     1     -32.495  -6.970 -30.816  1.00  0.00    -0.550 OA
ENDBRANCH   1   2
BRANCH   1   5
ATOM      5  C   UNL     1     -34.658  -5.293 -31.617  1.00  0.00     0.059 C 
BRANCH   5   6
ATOM      6  C   UNL     1     -34.335  -5.078 -33.063  1.00  0.00     0.042 C 
ATOM      7  O   UNL     1     -35.203  -5.300 -33.947  1.00  0.00    -0.550 OA
ATOM      8  O   UNL     1     -33.062  -4.667 -33.438  1.00  0.00    -0.550 OA
ENDBRANCH   5   6
ENDBRANCH   1   5
TORSDOF 3
ENDMDL
MODEL 4
REMARK VINA RESULT:    -2.737      1.488      3.895
REMARK INTER + INTRA:          -3.321
REMARK INTER:                  -3.291
REMARK INTRA:                  -0.030
REMARK UNBOUND:                -0.104
REMARK SMILES O=C([O-])CCC(=O)[O-]
REMARK SMILES IDX 4 1 2 2 1 3 3 4 5 5 6 6 7 7 8 8
REMARK H PARENT
REMARK Flexibility Score: inf
ROOT
ATOM      1  C   UNL     1     -34.099  -5.500 -31.817  1.00  0.00     0.059 C 
ENDROOT
BRANCH   1   2
ATOM      2  C   UNL     1     -34.872  -6.763 -31.591  1.00  0.00     0.042 C 
ATOM      3  O   UNL     1     -36.125  -6.726 -31.470  1.00  0.00    -0.550 OA
ATOM      4  O   UNL     1     -34.214  -7.986 -31.558  1.00  0.00    -0.550 OA
ENDBRANCH   1   2
BRANCH   1   5
ATOM      5  C   UNL     1     -34.449  -4.855 -33.161  1.00  0.00     0.059 C 
BRANCH   5   6
ATOM      6  C   UNL     1     -33.462  -3.792 -33.536  1.00  0.00     0.042 C 
ATOM      7  O   UNL     1     -32.242  -4.075 -33.664  1.00  0.00    -0.550 OA
ATOM      8  O   UNL     1     -33.885  -2.480 -33.706  1.00  0.00    -0.550 OA
ENDBRANCH   5   6
ENDBRANCH   1   5
TORSDOF 3
ENDMDL
MODEL 5
REMARK VINA RESULT:    -2.654      1.472      1.979
REMARK INTER + INTRA:          -3.223
REMARK INTER:                  -3.152
REMARK INTRA:                  -0.071
REMARK UNBOUND:                -0.104
REMARK SMILES O=C([O-])CCC(=O)[O-]
REMARK SMILES IDX 4 1 2 2 1 3 3 4 5 5 6 6 7 7 8 8
REMARK H PARENT
REMARK Flexibility Score: inf
ROOT
ATOM      1  C   UNL     1     -33.431  -4.703 -32.023  1.00  0.00     0.059 C 
ENDROOT
BRANCH   1   2
ATOM      2  C   UNL     1     -34.066  -4.264 -33.307  1.00  0.00     0.042 C 
ATOM      3  O   UNL     1     -33.886  -3.094 -33.736  1.00  0.00    -0.550 OA
ATOM      4  O   UNL     1     -34.821  -5.161 -34.053  1.00  0.00    -0.550 OA
ENDBRANCH   1   2
BRANCH   1   5
ATOM      5  C   UNL     1     -34.480  -5.035 -30.957  1.00  0.00     0.059 C 
BRANCH   5   6
ATOM      6  C   UNL     1     -34.847  -6.487 -30.979  1.00  0.00     0.042 C 
ATOM      7  O   UNL     1     -33.992  -7.362 -30.682  1.00  0.00    -0.550 OA
ATOM      8  O   UNL     1     -36.124  -6.875 -31.365  1.00  0.00    -0.550 OA
ENDBRANCH   5   6
ENDBRANCH   1   5
TORSDOF 3
ENDMDL
MODEL 6
REMARK VINA RESULT:    -2.612      1.626      2.062
REMARK INTER + INTRA:          -3.173
REMARK INTER:                  -3.147
REMARK INTRA:                  -0.027
REMARK UNBOUND:                -0.104
REMARK SMILES O=C([O-])CCC(=O)[O-]
REMARK SMILES IDX 4 1 2 2 1 3 3 4 5 5 6 6 7 7 8 8
REMARK H PARENT
REMARK Flexibility Score: inf
ROOT
ATOM      1  C   UNL     1     -34.548  -7.227 -31.532  1.00  0.00     0.059 C 
ENDROOT
BRANCH   1   2
ATOM      2  C   UNL     1     -34.755  -5.793 -31.914  1.00  0.00     0.042 C 
ATOM      3  O   UNL     1     -34.916  -4.917 -31.023  1.00  0.00    -0.550 OA
ATOM      4  O   UNL     1     -34.726  -5.417 -33.251  1.00  0.00    -0.550 OA
ENDBRANCH   1   2
BRANCH   1   5
ATOM      5  C   UNL     1     -33.100  -7.497 -31.111  1.00  0.00     0.059 C 
BRANCH   5   6
ATOM      6  C   UNL     1     -32.894  -8.933 -30.737  1.00  0.00     0.042 C 
ATOM      7  O   UNL     1     -32.415  -9.233 -29.612  1.00  0.00    -0.550 OA
ATOM      8  O   UNL     1     -33.195  -9.939 -31.647  1.00  0.00    -0.550 OA
ENDBRANCH   5   6
ENDBRANCH   1   5
TORSDOF 3
ENDMDL
MODEL 7
REMARK VINA RESULT:    -2.575     15.628     16.862
REMARK INTER + INTRA:          -3.131
REMARK INTER:                  -3.015
REMARK INTRA:                  -0.116
REMARK UNBOUND:                -0.104
REMARK SMILES O=C([O-])CCC(=O)[O-]
REMARK SMILES IDX 4 1 2 2 1 3 3 4 5 5 6 6 7 7 8 8
REMARK H PARENT
REMARK Flexibility Score: inf
ROOT
ATOM      1  C   UNL     1     -24.449   8.014 -28.709  1.00  0.00     0.059 C 
ENDROOT
BRANCH   1   2
ATOM      2  C   UNL     1     -24.457   7.483 -27.308  1.00  0.00     0.042 C 
ATOM      3  O   UNL     1     -23.565   6.679 -26.930  1.00  0.00    -0.550 OA
ATOM      4  O   UNL     1     -25.425   7.909 -26.408  1.00  0.00    -0.550 OA
ENDBRANCH   1   2
BRANCH   1   5
ATOM      5  C   UNL     1     -25.407   7.234 -29.616  1.00  0.00     0.059 C 
BRANCH   5   6
ATOM      6  C   UNL     1     -24.670   6.278 -30.503  1.00  0.00     0.042 C 
ATOM      7  O   UNL     1     -23.414   6.208 -30.457  1.00  0.00    -0.550 OA
ATOM      8  O   UNL     1     -25.370   5.491 -31.409  1.00  0.00    -0.550 OA
ENDBRANCH   5   6
ENDBRANCH   1   5
TORSDOF 3
ENDMDL
MODEL 8
REMARK VINA RESULT:    -2.559     14.972     15.701
REMARK INTER + INTRA:          -3.112
REMARK INTER:                  -2.995
REMARK INTRA:                  -0.117
REMARK UNBOUND:                -0.104
REMARK SMILES O=C([O-])CCC(=O)[O-]
REMARK SMILES IDX 4 1 2 2 1 3 3 4 5 5 6 6 7 7 8 8
REMARK H PARENT
REMARK Flexibility Score: inf
ROOT
ATOM      1  C   UNL     1     -24.135   4.740 -31.449  1.00  0.00     0.059 C 
ENDROOT
BRANCH   1   2
ATOM      2  C   UNL     1     -24.166   4.891 -32.939  1.00  0.00     0.042 C 
ATOM      3  O   UNL     1     -25.113   5.510 -33.493  1.00  0.00    -0.550 OA
ATOM      4  O   UNL     1     -23.128   4.388 -33.713  1.00  0.00    -0.550 OA
ENDBRANCH   1   2
BRANCH   1   5
ATOM      5  C   UNL     1     -23.738   6.048 -30.756  1.00  0.00     0.059 C 
BRANCH   5   6
ATOM      6  C   UNL     1     -24.907   6.683 -30.066  1.00  0.00     0.042 C 
ATOM      7  O   UNL     1     -26.020   6.095 -30.033  1.00  0.00    -0.550 OA
ATOM      8  O   UNL     1     -24.776   7.942 -29.493  1.00  0.00    -0.550 OA
ENDBRANCH   5   6
ENDBRANCH   1   5
TORSDOF 3
ENDMDL
MODEL 9
REMARK VINA RESULT:    -2.548      1.826      4.180
REMARK INTER + INTRA:          -3.099
REMARK INTER:                  -3.011
REMARK INTRA:                  -0.088
REMARK UNBOUND:                -0.104
REMARK SMILES O=C([O-])CCC(=O)[O-]
REMARK SMILES IDX 4 1 2 2 1 3 3 4 5 5 6 6 7 7 8 8
REMARK H PARENT
REMARK Flexibility Score: inf
ROOT
ATOM      1  C   UNL     1     -32.695  -7.495 -30.817  1.00  0.00     0.059 C 
ENDROOT
BRANCH   1   2
ATOM      2  C   UNL     1     -32.750  -8.973 -30.582  1.00  0.00     0.042 C 
ATOM      3  O   UNL     1     -33.131  -9.747 -31.500  1.00  0.00    -0.550 OA
ATOM      4  O   UNL     1     -32.339  -9.501 -29.365  1.00  0.00    -0.550 OA
ENDBRANCH   1   2
BRANCH   1   5
ATOM      5  C   UNL     1     -33.979  -6.800 -30.353  1.00  0.00     0.059 C 
BRANCH   5   6
ATOM      6  C   UNL     1     -34.890  -6.501 -31.504  1.00  0.00     0.042 C 
ATOM      7  O   UNL     1     -36.125  -6.728 -31.412  1.00  0.00    -0.550 OA
ATOM      8  O   UNL     1     -34.369  -6.006 -32.693  1.00  0.00    -0.550 OA
ENDBRANCH   5   6
ENDBRANCH   1   5
TORSDOF 3
ENDMDL
