MODEL 1
REMARK VINA RESULT:    -4.044      0.000      0.000
REMARK INTER + INTRA:          -5.591
REMARK INTER:                  -5.226
REMARK INTRA:                  -0.365
REMARK UNBOUND:                -0.365
REMARK SMILES CCCCCCC(=O)[O-]
REMARK SMILES IDX 5 1 6 2 7 3 8 4 9 5 4 6 3 7 2 8 1 9
REMARK H PARENT
REMARK Flexibility Score: inf
ROOT
ATOM      1  C   UNL     1     -99.575 -61.769 -66.272  1.00  0.00     0.006 C 
ENDROOT
BRANCH   1   2
ATOM      2  C   UNL     1     -99.729 -61.867 -64.749  1.00  0.00     0.053 C 
BRANCH   2   3
ATOM      3  C   UNL     1     -98.410 -62.073 -64.068  1.00  0.00     0.041 C 
ATOM      4  O   UNL     1     -97.558 -61.146 -64.048  1.00  0.00    -0.550 OA
ATOM      5  O   UNL     1     -98.136 -63.275 -63.430  1.00  0.00    -0.550 OA
ENDBRANCH   2   3
ENDBRANCH   1   2
BRANCH   1   6
ATOM      6  C   UNL     1    -100.399 -60.618 -66.867  1.00  0.00     0.000 C 
BRANCH   6   7
ATOM      7  C   UNL     1     -99.729 -59.266 -66.596  1.00  0.00    -0.000 C 
BRANCH   7   8
ATOM      8  C   UNL     1     -98.263 -59.278 -67.045  1.00  0.00    -0.003 C 
ATOM      9  C   UNL     1     -97.418 -58.334 -66.195  1.00  0.00     0.004 C 
ENDBRANCH   7   8
ENDBRANCH   6   7
ENDBRANCH   1   6
TORSDOF 5
ENDMDL
MODEL 2
REMARK VINA RESULT:    -3.892      2.373      4.219
REMARK INTER + INTRA:          -5.394
REMARK INTER:                  -5.258
REMARK INTRA:                  -0.136
REMARK UNBOUND:                -0.365
REMARK SMILES CCCCCCC(=O)[O-]
REMARK SMILES IDX 5 1 6 2 7 3 8 4 9 5 4 6 3 7 2 8 1 9
REMARK H PARENT
REMARK Flexibility Score: inf
ROOT
ATOM      1  C   UNL     1     -99.443 -60.928 -66.996  1.00  0.00     0.006 C 
ENDROOT
BRANCH   1   2
ATOM      2  C   UNL     1     -99.421 -59.446 -66.600  1.00  0.00     0.053 C 
BRANCH   2   3
ATOM      3  C   UNL     1     -98.074 -58.830 -66.826  1.00  0.00     0.041 C 
ATOM      4  O   UNL     1     -97.563 -58.088 -65.947  1.00  0.00    -0.550 OA
ATOM      5  O   UNL     1     -97.371 -59.101 -67.992  1.00  0.00    -0.550 OA
ENDBRANCH   2   3
ENDBRANCH   1   2
BRANCH   1   6
ATOM      6  C   UNL     1    -100.017 -61.818 -65.884  1.00  0.00     0.000 C 
BRANCH   6   7
ATOM      7  C   UNL     1     -99.051 -61.903 -64.696  1.00  0.00    -0.000 C 
BRANCH   7   8
ATOM      8  C   UNL     1     -99.389 -63.097 -63.796  1.00  0.00    -0.003 C 
ATOM      9  C   UNL     1     -98.198 -64.041 -63.661  1.00  0.00     0.004 C 
ENDBRANCH   7   8
ENDBRANCH   6   7
ENDBRANCH   1   6
TORSDOF 5
ENDMDL
MODEL 3
REMARK VINA RESULT:    -3.648      1.903      3.674
REMARK INTER + INTRA:          -5.079
REMARK INTER:                  -4.965
REMARK INTRA:                  -0.113
REMARK UNBOUND:                -0.365
REMARK SMILES CCCCCCC(=O)[O-]
REMARK SMILES IDX 5 1 6 2 7 3 8 4 9 5 4 6 3 7 2 8 1 9
REMARK H PARENT
REMARK Flexibility Score: inf
ROOT
ATOM      1  C   UNL     1     -97.659 -58.870 -66.849  1.00  0.00     0.006 C 
ENDROOT
BRANCH   1   2
ATOM      2  C   UNL     1     -97.201 -57.845 -65.803  1.00  0.00     0.053 C 
BRANCH   2   3
ATOM      3  C   UNL     1     -96.571 -58.506 -64.616  1.00  0.00     0.041 C 
ATOM      4  O   UNL     1     -95.834 -57.842 -63.839  1.00  0.00    -0.550 OA
ATOM      5  O   UNL     1     -96.822 -59.846 -64.349  1.00  0.00    -0.550 OA
ENDBRANCH   2   3
ENDBRANCH   1   2
BRANCH   1   6
ATOM      6  C   UNL     1     -99.165 -59.159 -66.759  1.00  0.00     0.000 C 
BRANCH   6   7
ATOM      7  C   UNL     1     -99.420 -60.613 -66.342  1.00  0.00    -0.000 C 
BRANCH   7   8
ATOM      8  C   UNL     1    -100.372 -61.307 -67.324  1.00  0.00    -0.003 C 
ATOM      9  C   UNL     1     -99.762 -62.597 -67.863  1.00  0.00     0.004 C 
ENDBRANCH   7   8
ENDBRANCH   6   7
ENDBRANCH   1   6
TORSDOF 5
ENDMDL
MODEL 4
REMARK VINA RESULT:    -3.546      2.602      4.011
REMARK INTER + INTRA:          -4.947
REMARK INTER:                  -4.673
REMARK INTRA:                  -0.274
REMARK UNBOUND:                -0.365
REMARK SMILES CCCCCCC(=O)[O-]
REMARK SMILES IDX 5 1 6 2 7 3 8 4 9 5 4 6 3 7 2 8 1 9
REMARK H PARENT
REMARK Flexibility Score: inf
ROOT
ATOM      1  C   UNL     1     -98.904 -60.573 -65.554  1.00  0.00     0.006 C 
ENDROOT
BRANCH   1   2
ATOM      2  C   UNL     1     -99.086 -59.456 -66.589  1.00  0.00     0.053 C 
BRANCH   2   3
ATOM      3  C   UNL     1     -97.790 -58.776 -66.907  1.00  0.00     0.041 C 
ATOM      4  O   UNL     1     -97.217 -58.991 -68.007  1.00  0.00    -0.550 OA
ATOM      5  O   UNL     1     -97.233 -57.881 -66.004  1.00  0.00    -0.550 OA
ENDBRANCH   2   3
ENDBRANCH   1   2
BRANCH   1   6
ATOM      6  C   UNL     1     -99.691 -61.840 -65.921  1.00  0.00     0.000 C 
BRANCH   6   7
ATOM      7  C   UNL     1    -100.116 -61.815 -67.394  1.00  0.00    -0.000 C 
BRANCH   7   8
ATOM      8  C   UNL     1     -99.604 -63.055 -68.136  1.00  0.00    -0.003 C 
ATOM      9  C   UNL     1     -98.557 -62.680 -69.180  1.00  0.00     0.004 C 
ENDBRANCH   7   8
ENDBRANCH   6   7
ENDBRANCH   1   6
TORSDOF 5
ENDMDL
MODEL 5
REMARK VINA RESULT:    -3.424      2.474      3.363
REMARK INTER + INTRA:          -4.791
REMARK INTER:                  -4.543
REMARK INTRA:                  -0.248
REMARK UNBOUND:                -0.365
REMARK SMILES CCCCCCC(=O)[O-]
REMARK SMILES IDX 5 1 6 2 7 3 8 4 9 5 4 6 3 7 2 8 1 9
REMARK H PARENT
REMARK Flexibility Score: inf
ROOT
ATOM      1  C   UNL     1     -99.136 -59.063 -66.662  1.00  0.00     0.006 C 
ENDROOT
BRANCH   1   2
ATOM      2  C   UNL     1     -99.108 -60.547 -66.276  1.00  0.00     0.053 C 
BRANCH   2   3
ATOM      3  C   UNL     1    -100.052 -61.357 -67.110  1.00  0.00     0.041 C 
ATOM      4  O   UNL     1    -101.103 -60.834 -67.564  1.00  0.00    -0.550 OA
ATOM      5  O   UNL     1     -99.754 -62.680 -67.413  1.00  0.00    -0.550 OA
ENDBRANCH   2   3
ENDBRANCH   1   2
BRANCH   1   6
ATOM      6  C   UNL     1     -97.899 -58.651 -67.475  1.00  0.00     0.000 C 
BRANCH   6   7
ATOM      7  C   UNL     1     -96.652 -58.592 -66.586  1.00  0.00    -0.000 C 
BRANCH   7   8
ATOM      8  C   UNL     1     -96.909 -57.747 -65.333  1.00  0.00    -0.003 C 
ATOM      9  C   UNL     1     -96.173 -58.316 -64.123  1.00  0.00     0.004 C 
ENDBRANCH   7   8
ENDBRANCH   6   7
ENDBRANCH   1   6
TORSDOF 5
ENDMDL
MODEL 6
REMARK VINA RESULT:    -3.339      2.960      3.337
REMARK INTER + INTRA:          -4.680
REMARK INTER:                  -4.553
REMARK INTRA:                  -0.127
REMARK UNBOUND:                -0.365
REMARK SMILES CCCCCCC(=O)[O-]
REMARK SMILES IDX 5 1 6 2 7 3 8 4 9 5 4 6 3 7 2 8 1 9
REMARK H PARENT
REMARK Flexibility Score: inf
ROOT
ATOM      1  C   UNL     1    -100.116 -61.173 -66.658  1.00  0.00     0.006 C 
ENDROOT
BRANCH   1   2
ATOM      2  C   UNL     1     -99.636 -62.602 -66.942  1.00  0.00     0.053 C 
BRANCH   2   3
ATOM      3  C   UNL     1     -99.674 -62.923 -68.404  1.00  0.00     0.041 C 
ATOM      4  O   UNL     1     -98.643 -62.774 -69.111  1.00  0.00    -0.550 OA
ATOM      5  O   UNL     1    -100.838 -63.415 -68.979  1.00  0.00    -0.550 OA
ENDBRANCH   2   3
ENDBRANCH   1   2
BRANCH   1   6
ATOM      6  C   UNL     1     -98.995 -60.283 -66.102  1.00  0.00     0.000 C 
BRANCH   6   7
ATOM      7  C   UNL     1     -98.906 -58.963 -66.877  1.00  0.00    -0.000 C 
BRANCH   7   8
ATOM      8  C   UNL     1     -97.447 -58.533 -67.068  1.00  0.00    -0.003 C 
ATOM      9  C   UNL     1     -96.898 -57.870 -65.809  1.00  0.00     0.004 C 
ENDBRANCH   7   8
ENDBRANCH   6   7
ENDBRANCH   1   6
TORSDOF 5
ENDMDL
MODEL 7
REMARK VINA RESULT:    -3.276      1.808      2.738
REMARK INTER + INTRA:          -4.599
REMARK INTER:                  -4.366
REMARK INTRA:                  -0.233
REMARK UNBOUND:                -0.365
REMARK SMILES CCCCCCC(=O)[O-]
REMARK SMILES IDX 5 1 6 2 7 3 8 4 9 5 4 6 3 7 2 8 1 9
REMARK H PARENT
REMARK Flexibility Score: inf
ROOT
ATOM      1  C   UNL     1     -99.979 -61.515 -64.743  1.00  0.00     0.006 C 
ENDROOT
BRANCH   1   2
ATOM      2  C   UNL     1     -98.580 -61.994 -64.338  1.00  0.00     0.053 C 
BRANCH   2   3
ATOM      3  C   UNL     1     -98.624 -63.324 -63.650  1.00  0.00     0.041 C 
ATOM      4  O   UNL     1     -99.731 -63.837 -63.336  1.00  0.00    -0.550 OA
ATOM      5  O   UNL     1     -97.447 -64.012 -63.386  1.00  0.00    -0.550 OA
ENDBRANCH   2   3
ENDBRANCH   1   2
BRANCH   1   6
ATOM      6  C   UNL     1     -99.930 -60.414 -65.813  1.00  0.00     0.000 C 
BRANCH   6   7
ATOM      7  C   UNL     1     -99.333 -60.945 -67.121  1.00  0.00    -0.000 C 
BRANCH   7   8
ATOM      8  C   UNL     1    -100.219 -62.042 -67.725  1.00  0.00    -0.003 C 
ATOM      9  C   UNL     1     -99.381 -63.094 -68.445  1.00  0.00     0.004 C 
ENDBRANCH   7   8
ENDBRANCH   6   7
ENDBRANCH   1   6
TORSDOF 5
ENDMDL
MODEL 8
REMARK VINA RESULT:    -3.018      3.194      4.659
REMARK INTER + INTRA:          -4.265
REMARK INTER:                  -4.110
REMARK INTRA:                  -0.155
REMARK UNBOUND:                -0.365
REMARK SMILES CCCCCCC(=O)[O-]
REMARK SMILES IDX 5 1 6 2 7 3 8 4 9 5 4 6 3 7 2 8 1 9
REMARK H PARENT
REMARK Flexibility Score: inf
ROOT
ATOM      1  C   UNL     1     -99.416 -61.477 -66.437  1.00  0.00     0.006 C 
ENDROOT
BRANCH   1   2
ATOM      2  C   UNL     1     -99.788 -62.784 -67.149  1.00  0.00     0.053 C 
BRANCH   2   3
ATOM      3  C   UNL     1     -99.666 -62.661 -68.637  1.00  0.00     0.041 C 
ATOM      4  O   UNL     1    -100.697 -62.530 -69.347  1.00  0.00    -0.550 OA
ATOM      5  O   UNL     1     -98.413 -62.659 -69.235  1.00  0.00    -0.550 OA
ENDBRANCH   2   3
ENDBRANCH   1   2
BRANCH   1   6
ATOM      6  C   UNL     1     -99.759 -61.512 -64.940  1.00  0.00     0.000 C 
BRANCH   6   7
ATOM      7  C   UNL     1     -98.572 -62.023 -64.116  1.00  0.00    -0.000 C 
BRANCH   7   8
ATOM      8  C   UNL     1     -98.806 -63.464 -63.646  1.00  0.00    -0.003 C 
ATOM      9  C   UNL     1     -97.500 -64.125 -63.220  1.00  0.00     0.004 C 
ENDBRANCH   7   8
ENDBRANCH   6   7
ENDBRANCH   1   6
TORSDOF 5
ENDMDL
