MODEL 1
REMARK VINA RESULT:    39.925      0.000      0.000
REMARK INTER + INTRA:          47.784
REMARK INTER:                  48.094
REMARK INTRA:                  -0.310
REMARK UNBOUND:                -0.310
REMARK SMILES Oc1cc(O)c2cc(O)c(-c3ccc(O)c(O)c3)[o+]c2c1.[Cl-]
REMARK SMILES IDX 10 1 19 2 20 3 21 4 2 5 3 6 4 7 6 8 7 9 8 10 11 11 12 12
REMARK SMILES IDX 13 13 14 14 18 15 16 16 15 17 17 19 9 21 1 23 5 25
REMARK H PARENT 15 18 17 20 9 22 1 24 5 26
REMARK Flexibility Score: inf
ROOT
ATOM      1  C   UNL     1       6.668  31.461  47.244  1.00  0.00     0.402 A 
ATOM      2  O   UNL     1       7.108  32.647  46.835  1.00  0.00    -0.202 OA
ATOM      3  C   UNL     1       6.346  33.735  46.797  1.00  0.00     0.368 A 
ATOM      4  C   UNL     1       6.899  34.938  46.349  1.00  0.00     0.162 A 
ATOM      5  C   UNL     1       6.120  36.095  46.294  1.00  0.00     0.128 A 
ATOM      6  C   UNL     1       4.779  36.051  46.691  1.00  0.00     0.093 A 
ATOM      7  C   UNL     1       4.201  34.859  47.144  1.00  0.00     0.136 A 
ATOM      8  C   UNL     1       4.990  33.681  47.202  1.00  0.00     0.125 A 
ATOM      9  C   UNL     1       4.499  32.445  47.654  1.00  0.00     0.078 A 
ATOM     10  C   UNL     1       5.340  31.328  47.688  1.00  0.00     0.223 A 
ENDROOT
BRANCH   1  11
ATOM     11  C   UNL     1       7.613  30.321  47.231  1.00  0.00     0.087 A 
ATOM     12  C   UNL     1       7.517  29.356  46.219  1.00  0.00     0.022 A 
ATOM     13  C   UNL     1       8.385  28.263  46.199  1.00  0.00     0.051 A 
ATOM     14  C   UNL     1       9.355  28.103  47.195  1.00  0.00     0.157 A 
ATOM     15  C   UNL     1       8.572  30.153  48.246  1.00  0.00     0.068 A 
ATOM     16  C   UNL     1       9.445  29.057  48.236  1.00  0.00     0.158 A 
BRANCH  14  17
ATOM     17  O   UNL     1      10.197  26.992  47.113  1.00  0.00    -0.504 OA
ATOM     18  H   UNL     1      11.097  26.999  46.655  1.00  0.00     0.293 HD
ENDBRANCH  14  17
BRANCH  16  19
ATOM     19  O   UNL     1      10.373  28.955  49.274  1.00  0.00    -0.504 OA
ATOM     20  H   UNL     1      10.834  28.095  49.537  1.00  0.00     0.293 HD
ENDBRANCH  16  19
ENDBRANCH   1  11
BRANCH  10  21
ATOM     21  O   UNL     1       4.867  30.112  48.184  1.00  0.00    -0.500 OA
ATOM     22  H   UNL     1       4.195  29.553  47.671  1.00  0.00     0.294 HD
ENDBRANCH  10  21
BRANCH   5  23
ATOM     23  O   UNL     1       6.689  37.285  45.846  1.00  0.00    -0.507 OA
ATOM     24  H   UNL     1       6.119  38.047  45.498  1.00  0.00     0.293 HD
ENDBRANCH   5  23
BRANCH   7  25
ATOM     25  O   UNL     1       2.855  34.897  47.517  1.00  0.00    -0.507 OA
ATOM     26  H   UNL     1       2.137  34.304  47.127  1.00  0.00     0.293 HD
ENDBRANCH   7  25
TORSDOF 6
ENDMDL
MODEL 2
REMARK VINA RESULT:    42.010      0.944      0.987
REMARK INTER + INTRA:          50.296
REMARK INTER:                  50.432
REMARK INTRA:                  -0.136
REMARK UNBOUND:                -0.310
REMARK SMILES Oc1cc(O)c2cc(O)c(-c3ccc(O)c(O)c3)[o+]c2c1.[Cl-]
REMARK SMILES IDX 10 1 19 2 20 3 21 4 2 5 3 6 4 7 6 8 7 9 8 10 11 11 12 12
REMARK SMILES IDX 13 13 14 14 18 15 16 16 15 17 17 19 9 21 1 23 5 25
REMARK H PARENT 15 18 17 20 9 22 1 24 5 26
REMARK Flexibility Score: inf
ROOT
ATOM      1  C   UNL     1       6.160  31.928  47.430  1.00  0.00     0.402 A 
ATOM      2  O   UNL     1       6.655  33.030  46.873  1.00  0.00    -0.202 OA
ATOM      3  C   UNL     1       6.074  34.221  46.970  1.00  0.00     0.368 A 
ATOM      4  C   UNL     1       6.670  35.321  46.347  1.00  0.00     0.162 A 
ATOM      5  C   UNL     1       6.079  36.583  46.429  1.00  0.00     0.128 A 
ATOM      6  C   UNL     1       4.885  36.748  47.139  1.00  0.00     0.093 A 
ATOM      7  C   UNL     1       4.268  35.662  47.772  1.00  0.00     0.136 A 
ATOM      8  C   UNL     1       4.866  34.378  47.692  1.00  0.00     0.125 A 
ATOM      9  C   UNL     1       4.326  33.235  48.305  1.00  0.00     0.078 A 
ATOM     10  C   UNL     1       4.977  32.003  48.187  1.00  0.00     0.223 A 
ENDROOT
BRANCH   1  11
ATOM     11  C   UNL     1       6.897  30.657  47.242  1.00  0.00     0.087 A 
ATOM     12  C   UNL     1       6.247  29.564  46.650  1.00  0.00     0.022 A 
ATOM     13  C   UNL     1       6.916  28.351  46.481  1.00  0.00     0.051 A 
ATOM     14  C   UNL     1       8.238  28.198  46.912  1.00  0.00     0.157 A 
ATOM     15  C   UNL     1       8.218  30.501  47.696  1.00  0.00     0.068 A 
ATOM     16  C   UNL     1       8.896  29.287  47.534  1.00  0.00     0.158 A 
BRANCH  14  17
ATOM     17  O   UNL     1       8.853  26.961  46.707  1.00  0.00    -0.504 OA
ATOM     18  H   UNL     1       8.390  26.073  46.835  1.00  0.00     0.293 HD
ENDBRANCH  14  17
BRANCH  16  19
ATOM     19  O   UNL     1      10.207  29.204  48.007  1.00  0.00    -0.504 OA
ATOM     20  H   UNL     1      10.689  28.335  48.189  1.00  0.00     0.293 HD
ENDBRANCH  16  19
ENDBRANCH   1  11
BRANCH  10  21
ATOM     21  O   UNL     1       4.468  30.878  48.837  1.00  0.00    -0.500 OA
ATOM     22  H   UNL     1       4.808  30.590  49.747  1.00  0.00     0.294 HD
ENDBRANCH  10  21
BRANCH   5  23
ATOM     23  O   UNL     1       6.688  37.667  45.803  1.00  0.00    -0.507 OA
ATOM     24  H   UNL     1       6.220  38.562  45.716  1.00  0.00     0.293 HD
ENDBRANCH   5  23
BRANCH   7  25
ATOM     25  O   UNL     1       3.075  35.909  48.457  1.00  0.00    -0.507 OA
ATOM     26  H   UNL     1       2.986  36.545  49.236  1.00  0.00     0.293 HD
ENDBRANCH   7  25
TORSDOF 6
ENDMDL
