MODEL 1
REMARK VINA RESULT:    28.633      0.000      0.000
REMARK INTER + INTRA:          39.710
REMARK INTER:                  37.840
REMARK INTRA:                   1.870
REMARK UNBOUND:                 1.870
REMARK SMILES CC[C@@H](C=C[C@H](C)[C@@H]1CC[C@@H]2C3=CC[C@H]4C[C@@H](O)CC[C@]4(C)[C@@H]3CC[C@]21C)C(C)C
REMARK SMILES IDX 6 1 7 2 5 3 4 4 3 5 2 6 1 7 28 8 29 9 30 10 8 11 9 12 26 13
REMARK SMILES IDX 10 14 11 15 25 16 27 17 12 18 24 19 23 20 13 21 21 22 14 23
REMARK SMILES IDX 15 24 20 25 22 26 16 27 19 28 17 29 18 30
REMARK H PARENT 18 31
REMARK Flexibility Score: inf
ROOT
ATOM      1  C   UNL     1      18.094  13.620  41.015  1.00  0.00     0.012 C 
ATOM      2  C   UNL     1      18.238  14.010  42.494  1.00  0.00     0.012 C 
ENDROOT
BRANCH   1   3
ATOM      3  C   UNL     1      18.234  12.116  40.873  1.00  0.00    -0.028 C 
ATOM      4  C   UNL     1      17.464  11.247  41.550  1.00  0.00    -0.027 C 
BRANCH   4   5
ATOM      5  C   UNL     1      17.595   9.745  41.372  1.00  0.00     0.014 C 
BRANCH   5   6
ATOM      6  C   UNL     1      18.723   9.393  40.356  1.00  0.00     0.004 C 
ATOM      7  C   UNL     1      19.385   8.042  40.654  1.00  0.00     0.004 C 
ENDBRANCH   5   6
BRANCH   5   8
ATOM      8  C   UNL     1      16.240   9.078  40.970  1.00  0.00    -0.011 C 
ATOM      9  C   UNL     1      15.174   9.107  42.085  1.00  0.00     0.008 C 
ATOM     10  C   UNL     1      16.444   7.642  40.464  1.00  0.00     0.008 C 
ENDBRANCH   5   8
ENDBRANCH   4   5
ENDBRANCH   1   3
BRANCH   1  11
ATOM     11  C   UNL     1      16.758  14.125  40.375  1.00  0.00     0.002 C 
ATOM     12  C   UNL     1      15.549  13.968  41.342  1.00  0.00     0.005 C 
ATOM     13  C   UNL     1      16.280  13.445  39.056  1.00  0.00    -0.023 C 
ATOM     14  C   UNL     1      14.325  13.594  40.491  1.00  0.00     0.009 C 
ATOM     15  C   UNL     1      14.795  13.839  39.065  1.00  0.00     0.021 C 
ATOM     16  C   UNL     1      16.902  14.016  37.748  1.00  0.00     0.008 C 
ATOM     17  C   UNL     1      16.477  11.897  39.116  1.00  0.00     0.012 C 
ATOM     18  C   UNL     1      14.077  13.252  37.870  1.00  0.00    -0.067 C 
ATOM     19  C   UNL     1      16.166  13.505  36.481  1.00  0.00     0.009 C 
ATOM     20  C   UNL     1      14.629  13.768  36.531  1.00  0.00     0.021 C 
ATOM     21  C   UNL     1      13.228  12.193  37.969  1.00  0.00    -0.027 C 
ATOM     22  C   UNL     1      13.805  13.226  35.304  1.00  0.00    -0.023 C 
ATOM     23  C   UNL     1      12.694  11.445  36.768  1.00  0.00     0.031 C 
ATOM     24  C   UNL     1      13.577  11.696  35.539  1.00  0.00     0.002 C 
ATOM     25  C   UNL     1      14.496  13.476  33.912  1.00  0.00     0.010 C 
ATOM     26  C   UNL     1      12.456  14.013  35.272  1.00  0.00     0.012 C 
ATOM     27  C   UNL     1      13.087  10.991  34.264  1.00  0.00     0.036 C 
ATOM     28  C   UNL     1      15.172  12.224  33.335  1.00  0.00     0.032 C 
ATOM     29  C   UNL     1      14.158  11.063  33.143  1.00  0.00     0.114 C 
BRANCH  29  30
ATOM     30  O   UNL     1      13.515  11.192  31.901  1.00  0.00    -0.393 OA
ATOM     31  H   UNL     1      13.654  12.129  31.604  1.00  0.00     0.210 HD
ENDBRANCH  29  30
ENDBRANCH   1  11
TORSDOF 6
ENDMDL
MODEL 2
REMARK VINA RESULT:    31.170      1.741      3.360
REMARK INTER + INTRA:          43.062
REMARK INTER:                  42.422
REMARK INTRA:                   0.640
REMARK UNBOUND:                 1.870
REMARK SMILES CC[C@@H](C=C[C@H](C)[C@@H]1CC[C@@H]2C3=CC[C@H]4C[C@@H](O)CC[C@]4(C)[C@@H]3CC[C@]21C)C(C)C
REMARK SMILES IDX 6 1 7 2 5 3 4 4 3 5 2 6 1 7 28 8 29 9 30 10 8 11 9 12 26 13
REMARK SMILES IDX 10 14 11 15 25 16 27 17 12 18 24 19 23 20 13 21 21 22 14 23
REMARK SMILES IDX 15 24 20 25 22 26 16 27 19 28 17 29 18 30
REMARK H PARENT 18 31
REMARK Flexibility Score: inf
ROOT
ATOM      1  C   UNL     1      16.088  12.013  40.339  1.00  0.00     0.012 C 
ATOM      2  C   UNL     1      16.936  10.817  39.878  1.00  0.00     0.012 C 
ENDROOT
BRANCH   1   3
ATOM      3  C   UNL     1      16.827  12.768  41.426  1.00  0.00    -0.028 C 
ATOM      4  C   UNL     1      18.030  13.334  41.230  1.00  0.00    -0.027 C 
BRANCH   4   5
ATOM      5  C   UNL     1      18.743  14.115  42.320  1.00  0.00     0.014 C 
BRANCH   5   6
ATOM      6  C   UNL     1      20.289  14.062  42.134  1.00  0.00     0.004 C 
ATOM      7  C   UNL     1      21.043  14.005  43.469  1.00  0.00     0.004 C 
ENDBRANCH   5   6
BRANCH   5   8
ATOM      8  C   UNL     1      18.325  13.646  43.751  1.00  0.00    -0.011 C 
ATOM      9  C   UNL     1      18.499  12.131  43.987  1.00  0.00     0.008 C 
ATOM     10  C   UNL     1      16.891  14.079  44.093  1.00  0.00     0.008 C 
ENDBRANCH   5   8
ENDBRANCH   4   5
ENDBRANCH   1   3
BRANCH   1  11
ATOM     11  C   UNL     1      15.685  12.967  39.165  1.00  0.00     0.002 C 
ATOM     12  C   UNL     1      14.533  13.934  39.564  1.00  0.00     0.005 C 
ATOM     13  C   UNL     1      15.191  12.317  37.837  1.00  0.00    -0.023 C 
ATOM     14  C   UNL     1      13.641  14.122  38.328  1.00  0.00     0.009 C 
ATOM     15  C   UNL     1      14.458  13.510  37.201  1.00  0.00     0.021 C 
ATOM     16  C   UNL     1      16.313  11.884  36.848  1.00  0.00     0.008 C 
ATOM     17  C   UNL     1      14.228  11.121  38.118  1.00  0.00     0.012 C 
ATOM     18  C   UNL     1      13.839  13.117  35.879  1.00  0.00    -0.067 C 
ATOM     19  C   UNL     1      15.750  11.531  35.445  1.00  0.00     0.009 C 
ATOM     20  C   UNL     1      14.882  12.677  34.839  1.00  0.00     0.021 C 
ATOM     21  C   UNL     1      12.501  12.921  35.723  1.00  0.00    -0.027 C 
ATOM     22  C   UNL     1      14.229  12.369  33.440  1.00  0.00    -0.023 C 
ATOM     23  C   UNL     1      11.895  12.299  34.485  1.00  0.00     0.031 C 
ATOM     24  C   UNL     1      12.951  11.506  33.705  1.00  0.00     0.002 C 
ATOM     25  C   UNL     1      15.193  11.637  32.434  1.00  0.00     0.010 C 
ATOM     26  C   UNL     1      13.874  13.743  32.786  1.00  0.00     0.012 C 
ATOM     27  C   UNL     1      12.421  10.862  32.414  1.00  0.00     0.036 C 
ATOM     28  C   UNL     1      14.909  10.134  32.305  1.00  0.00     0.032 C 
ATOM     29  C   UNL     1      13.456   9.865  31.827  1.00  0.00     0.114 C 
BRANCH  29  30
ATOM     30  O   UNL     1      13.398   9.916  30.425  1.00  0.00    -0.393 OA
ATOM     31  H   UNL     1      14.084  10.573  30.135  1.00  0.00     0.210 HD
ENDBRANCH  29  30
ENDBRANCH   1  11
TORSDOF 6
ENDMDL
