MODEL 1
REMARK VINA RESULT:    -4.638      0.000      0.000
REMARK INTER + INTRA:         -11.431
REMARK INTER:                  -8.435
REMARK INTRA:                  -2.996
REMARK UNBOUND:                -2.996
REMARK SMILES CCCCCC=CCC=CCCCCCCCC(=O)[O-]
REMARK SMILES IDX 11 1 12 2 13 3 14 4 15 5 16 6 17 7 18 8 19 9 20 10 10 11
REMARK SMILES IDX 9 12 8 13 7 14 6 15 5 16 4 17 3 18 2 19 1 20
REMARK H PARENT
REMARK Flexibility Score: inf
ROOT
ATOM      1  C   UNL     1      13.473  21.466  32.721  1.00  0.00     0.027 C 
ENDROOT
BRANCH   1   2
ATOM      2  C   UNL     1      14.378  20.387  33.336  1.00  0.00     0.004 C 
BRANCH   2   3
ATOM      3  C   UNL     1      15.840  20.532  32.882  1.00  0.00     0.000 C 
BRANCH   3   4
ATOM      4  C   UNL     1      16.235  19.487  31.826  1.00  0.00     0.000 C 
BRANCH   4   5
ATOM      5  C   UNL     1      16.651  20.128  30.489  1.00  0.00     0.000 C 
BRANCH   5   6
ATOM      6  C   UNL     1      17.059  21.605  30.639  1.00  0.00     0.006 C 
BRANCH   6   7
ATOM      7  C   UNL     1      16.450  22.538  29.580  1.00  0.00     0.053 C 
BRANCH   7   8
ATOM      8  C   UNL     1      17.383  23.650  29.211  1.00  0.00     0.041 C 
ATOM      9  O   UNL     1      17.495  24.658  29.956  1.00  0.00    -0.550 OA
ATOM     10  O   UNL     1      18.105  23.587  28.026  1.00  0.00    -0.550 OA
ENDBRANCH   7   8
ENDBRANCH   6   7
ENDBRANCH   5   6
ENDBRANCH   4   5
ENDBRANCH   3   4
ENDBRANCH   2   3
ENDBRANCH   1   2
BRANCH   1  11
ATOM     11  C   UNL     1      12.760  20.977  31.489  1.00  0.00    -0.031 C 
ATOM     12  C   UNL     1      13.008  21.499  30.279  1.00  0.00    -0.027 C 
BRANCH  12  13
ATOM     13  C   UNL     1      12.301  21.002  29.051  1.00  0.00     0.054 C 
BRANCH  13  14
ATOM     14  C   UNL     1      12.827  21.704  27.824  1.00  0.00    -0.027 C 
ATOM     15  C   UNL     1      13.865  21.285  27.077  1.00  0.00    -0.031 C 
BRANCH  15  16
ATOM     16  C   UNL     1      14.709  20.068  27.374  1.00  0.00     0.027 C 
BRANCH  16  17
ATOM     17  C   UNL     1      14.224  18.826  26.609  1.00  0.00     0.004 C 
BRANCH  17  18
ATOM     18  C   UNL     1      13.626  17.767  27.551  1.00  0.00     0.000 C 
BRANCH  18  19
ATOM     19  C   UNL     1      14.200  17.852  28.973  1.00  0.00    -0.003 C 
ATOM     20  C   UNL     1      13.172  17.504  30.049  1.00  0.00     0.004 C 
ENDBRANCH  18  19
ENDBRANCH  17  18
ENDBRANCH  16  17
ENDBRANCH  15  16
ENDBRANCH  13  14
ENDBRANCH  12  13
ENDBRANCH   1  11
TORSDOF 14
ENDMDL
MODEL 2
REMARK VINA RESULT:    -4.535      1.394      2.887
REMARK INTER + INTRA:         -11.243
REMARK INTER:                  -8.576
REMARK INTRA:                  -2.667
REMARK UNBOUND:                -2.996
REMARK SMILES CCCCCC=CCC=CCCCCCCCC(=O)[O-]
REMARK SMILES IDX 11 1 12 2 13 3 14 4 15 5 16 6 17 7 18 8 19 9 20 10 10 11
REMARK SMILES IDX 9 12 8 13 7 14 6 15 5 16 4 17 3 18 2 19 1 20
REMARK H PARENT
REMARK Flexibility Score: inf
ROOT
ATOM      1  C   UNL     1      13.755  19.858  32.339  1.00  0.00     0.027 C 
ENDROOT
BRANCH   1   2
ATOM      2  C   UNL     1      13.198  21.248  32.000  1.00  0.00     0.004 C 
BRANCH   2   3
ATOM      3  C   UNL     1      14.104  22.377  32.520  1.00  0.00     0.000 C 
BRANCH   3   4
ATOM      4  C   UNL     1      15.574  22.186  32.115  1.00  0.00     0.000 C 
BRANCH   4   5
ATOM      5  C   UNL     1      15.780  22.253  30.591  1.00  0.00     0.000 C 
BRANCH   5   6
ATOM      6  C   UNL     1      16.854  21.270  30.092  1.00  0.00     0.006 C 
BRANCH   6   7
ATOM      7  C   UNL     1      17.734  21.821  28.958  1.00  0.00     0.053 C 
BRANCH   7   8
ATOM      8  C   UNL     1      18.911  22.585  29.483  1.00  0.00     0.041 C 
ATOM      9  O   UNL     1      19.250  23.673  28.949  1.00  0.00    -0.550 OA
ATOM     10  O   UNL     1      19.652  22.077  30.543  1.00  0.00    -0.550 OA
ENDBRANCH   7   8
ENDBRANCH   6   7
ENDBRANCH   5   6
ENDBRANCH   4   5
ENDBRANCH   3   4
ENDBRANCH   2   3
ENDBRANCH   1   2
BRANCH   1  11
ATOM     11  C   UNL     1      13.554  18.874  31.218  1.00  0.00    -0.031 C 
ATOM     12  C   UNL     1      14.585  18.217  30.665  1.00  0.00    -0.027 C 
BRANCH  12  13
ATOM     13  C   UNL     1      14.379  17.230  29.552  1.00  0.00     0.054 C 
BRANCH  13  14
ATOM     14  C   UNL     1      13.083  17.515  28.833  1.00  0.00    -0.027 C 
ATOM     15  C   UNL     1      12.967  17.766  27.516  1.00  0.00    -0.031 C 
BRANCH  15  16
ATOM     16  C   UNL     1      14.122  17.853  26.547  1.00  0.00     0.027 C 
BRANCH  16  17
ATOM     17  C   UNL     1      14.410  19.300  26.117  1.00  0.00     0.004 C 
BRANCH  17  18
ATOM     18  C   UNL     1      14.754  20.200  27.316  1.00  0.00     0.000 C 
BRANCH  18  19
ATOM     19  C   UNL     1      13.928  21.496  27.337  1.00  0.00    -0.003 C 
ATOM     20  C   UNL     1      12.732  21.421  28.284  1.00  0.00     0.004 C 
ENDBRANCH  18  19
ENDBRANCH  17  18
ENDBRANCH  16  17
ENDBRANCH  15  16
ENDBRANCH  13  14
ENDBRANCH  12  13
ENDBRANCH   1  11
TORSDOF 14
ENDMDL
MODEL 3
REMARK VINA RESULT:    -4.523      1.362      2.004
REMARK INTER + INTRA:         -11.222
REMARK INTER:                  -8.976
REMARK INTRA:                  -2.246
REMARK UNBOUND:                -2.996
REMARK SMILES CCCCCC=CCC=CCCCCCCCC(=O)[O-]
REMARK SMILES IDX 11 1 12 2 13 3 14 4 15 5 16 6 17 7 18 8 19 9 20 10 10 11
REMARK SMILES IDX 9 12 8 13 7 14 6 15 5 16 4 17 3 18 2 19 1 20
REMARK H PARENT
REMARK Flexibility Score: inf
ROOT
ATOM      1  C   UNL     1      13.496  21.804  32.352  1.00  0.00     0.027 C 
ENDROOT
BRANCH   1   2
ATOM      2  C   UNL     1      14.945  22.294  32.484  1.00  0.00     0.004 C 
BRANCH   2   3
ATOM      3  C   UNL     1      15.812  21.866  31.287  1.00  0.00     0.000 C 
BRANCH   3   4
ATOM      4  C   UNL     1      16.498  23.057  30.601  1.00  0.00     0.000 C 
BRANCH   4   5
ATOM      5  C   UNL     1      16.841  22.771  29.127  1.00  0.00     0.000 C 
BRANCH   5   6
ATOM      6  C   UNL     1      17.887  23.747  28.560  1.00  0.00     0.006 C 
BRANCH   6   7
ATOM      7  C   UNL     1      19.074  24.015  29.500  1.00  0.00     0.053 C 
BRANCH   7   8
ATOM      8  C   UNL     1      19.219  25.471  29.818  1.00  0.00     0.041 C 
ATOM      9  O   UNL     1      20.348  25.949  30.105  1.00  0.00    -0.550 OA
ATOM     10  O   UNL     1      18.100  26.295  29.829  1.00  0.00    -0.550 OA
ENDBRANCH   7   8
ENDBRANCH   6   7
ENDBRANCH   5   6
ENDBRANCH   4   5
ENDBRANCH   3   4
ENDBRANCH   2   3
ENDBRANCH   1   2
BRANCH   1  11
ATOM     11  C   UNL     1      13.223  21.187  31.007  1.00  0.00    -0.031 C 
ATOM     12  C   UNL     1      12.180  21.571  30.255  1.00  0.00    -0.027 C 
BRANCH  12  13
ATOM     13  C   UNL     1      11.916  20.959  28.910  1.00  0.00     0.054 C 
BRANCH  13  14
ATOM     14  C   UNL     1      12.604  21.755  27.829  1.00  0.00    -0.027 C 
ATOM     15  C   UNL     1      13.772  21.424  27.247  1.00  0.00    -0.031 C 
BRANCH  15  16
ATOM     16  C   UNL     1      14.613  20.227  27.617  1.00  0.00     0.027 C 
BRANCH  16  17
ATOM     17  C   UNL     1      14.265  18.990  26.773  1.00  0.00     0.004 C 
BRANCH  17  18
ATOM     18  C   UNL     1      13.672  17.858  27.629  1.00  0.00     0.000 C 
BRANCH  18  19
ATOM     19  C   UNL     1      14.018  18.001  29.119  1.00  0.00    -0.003 C 
ATOM     20  C   UNL     1      12.979  17.355  30.033  1.00  0.00     0.004 C 
ENDBRANCH  18  19
ENDBRANCH  17  18
ENDBRANCH  16  17
ENDBRANCH  15  16
ENDBRANCH  13  14
ENDBRANCH  12  13
ENDBRANCH   1  11
TORSDOF 14
ENDMDL
MODEL 4
REMARK VINA RESULT:    -4.488      9.395     12.253
REMARK INTER + INTRA:         -11.158
REMARK INTER:                  -8.950
REMARK INTRA:                  -2.209
REMARK UNBOUND:                -2.996
REMARK SMILES CCCCCC=CCC=CCCCCCCCC(=O)[O-]
REMARK SMILES IDX 11 1 12 2 13 3 14 4 15 5 16 6 17 7 18 8 19 9 20 10 10 11
REMARK SMILES IDX 9 12 8 13 7 14 6 15 5 16 4 17 3 18 2 19 1 20
REMARK H PARENT
REMARK Flexibility Score: inf
ROOT
ATOM      1  C   UNL     1       5.918  14.319  23.553  1.00  0.00     0.027 C 
ENDROOT
BRANCH   1   2
ATOM      2  C   UNL     1       5.201  15.567  24.090  1.00  0.00     0.004 C 
BRANCH   2   3
ATOM      3  C   UNL     1       6.171  16.740  24.314  1.00  0.00     0.000 C 
BRANCH   3   4
ATOM      4  C   UNL     1       5.448  18.093  24.401  1.00  0.00     0.000 C 
BRANCH   4   5
ATOM      5  C   UNL     1       3.917  17.949  24.344  1.00  0.00     0.000 C 
BRANCH   5   6
ATOM      6  C   UNL     1       3.332  18.352  22.978  1.00  0.00     0.006 C 
BRANCH   6   7
ATOM      7  C   UNL     1       4.388  18.746  21.932  1.00  0.00     0.053 C 
BRANCH   7   8
ATOM      8  C   UNL     1       4.378  17.823  20.752  1.00  0.00     0.041 C 
ATOM      9  O   UNL     1       3.994  16.632  20.881  1.00  0.00    -0.550 OA
ATOM     10  O   UNL     1       4.826  18.272  19.516  1.00  0.00    -0.550 OA
ENDBRANCH   7   8
ENDBRANCH   6   7
ENDBRANCH   5   6
ENDBRANCH   4   5
ENDBRANCH   3   4
ENDBRANCH   2   3
ENDBRANCH   1   2
BRANCH   1  11
ATOM     11  C   UNL     1       7.023  13.860  24.467  1.00  0.00    -0.031 C 
ATOM     12  C   UNL     1       6.770  13.391  25.697  1.00  0.00    -0.027 C 
BRANCH  12  13
ATOM     13  C   UNL     1       7.875  12.926  26.602  1.00  0.00     0.054 C 
BRANCH  13  14
ATOM     14  C   UNL     1       7.885  13.737  27.874  1.00  0.00    -0.027 C 
ATOM     15  C   UNL     1       8.698  14.780  28.121  1.00  0.00    -0.031 C 
BRANCH  15  16
ATOM     16  C   UNL     1       9.773  15.279  27.185  1.00  0.00     0.027 C 
BRANCH  16  17
ATOM     17  C   UNL     1       9.307  16.489  26.359  1.00  0.00     0.004 C 
BRANCH  17  18
ATOM     18  C   UNL     1       9.689  16.355  24.876  1.00  0.00     0.000 C 
BRANCH  18  19
ATOM     19  C   UNL     1      10.902  15.437  24.660  1.00  0.00    -0.003 C 
ATOM     20  C   UNL     1      10.619  14.303  23.675  1.00  0.00     0.004 C 
ENDBRANCH  18  19
ENDBRANCH  17  18
ENDBRANCH  16  17
ENDBRANCH  15  16
ENDBRANCH  13  14
ENDBRANCH  12  13
ENDBRANCH   1  11
TORSDOF 14
ENDMDL
MODEL 5
REMARK VINA RESULT:    -4.434      2.340      4.519
REMARK INTER + INTRA:         -11.060
REMARK INTER:                  -8.520
REMARK INTRA:                  -2.539
REMARK UNBOUND:                -2.996
REMARK SMILES CCCCCC=CCC=CCCCCCCCC(=O)[O-]
REMARK SMILES IDX 11 1 12 2 13 3 14 4 15 5 16 6 17 7 18 8 19 9 20 10 10 11
REMARK SMILES IDX 9 12 8 13 7 14 6 15 5 16 4 17 3 18 2 19 1 20
REMARK H PARENT
REMARK Flexibility Score: inf
ROOT
ATOM      1  C   UNL     1      17.502  21.754  28.803  1.00  0.00     0.027 C 
ENDROOT
BRANCH   1   2
ATOM      2  C   UNL     1      17.224  23.179  28.303  1.00  0.00     0.004 C 
BRANCH   2   3
ATOM      3  C   UNL     1      17.978  24.238  29.126  1.00  0.00     0.000 C 
BRANCH   3   4
ATOM      4  C   UNL     1      19.326  23.723  29.655  1.00  0.00     0.000 C 
BRANCH   4   5
ATOM      5  C   UNL     1      19.331  23.550  31.185  1.00  0.00     0.000 C 
BRANCH   5   6
ATOM      6  C   UNL     1      18.225  24.365  31.879  1.00  0.00     0.006 C 
BRANCH   6   7
ATOM      7  C   UNL     1      18.739  25.342  32.948  1.00  0.00     0.053 C 
BRANCH   7   8
ATOM      8  C   UNL     1      18.821  26.746  32.430  1.00  0.00     0.041 C 
ATOM      9  O   UNL     1      18.359  27.030  31.294  1.00  0.00    -0.550 OA
ATOM     10  O   UNL     1      19.437  27.732  33.189  1.00  0.00    -0.550 OA
ENDBRANCH   7   8
ENDBRANCH   6   7
ENDBRANCH   5   6
ENDBRANCH   4   5
ENDBRANCH   3   4
ENDBRANCH   2   3
ENDBRANCH   1   2
BRANCH   1  11
ATOM     11  C   UNL     1      16.542  21.332  29.884  1.00  0.00    -0.031 C 
ATOM     12  C   UNL     1      15.591  22.159  30.342  1.00  0.00    -0.027 C 
BRANCH  12  13
ATOM     13  C   UNL     1      14.630  21.731  31.414  1.00  0.00     0.054 C 
BRANCH  13  14
ATOM     14  C   UNL     1      14.321  20.261  31.282  1.00  0.00    -0.027 C 
ATOM     15  C   UNL     1      13.245  19.749  30.656  1.00  0.00    -0.031 C 
BRANCH  15  16
ATOM     16  C   UNL     1      12.141  20.565  30.028  1.00  0.00     0.027 C 
BRANCH  16  17
ATOM     17  C   UNL     1      12.176  20.503  28.492  1.00  0.00     0.004 C 
BRANCH  17  18
ATOM     18  C   UNL     1      12.876  21.730  27.883  1.00  0.00     0.000 C 
BRANCH  18  19
ATOM     19  C   UNL     1      14.016  21.344  26.928  1.00  0.00    -0.003 C 
ATOM     20  C   UNL     1      14.497  19.908  27.129  1.00  0.00     0.004 C 
ENDBRANCH  18  19
ENDBRANCH  17  18
ENDBRANCH  16  17
ENDBRANCH  15  16
ENDBRANCH  13  14
ENDBRANCH  12  13
ENDBRANCH   1  11
TORSDOF 14
ENDMDL
MODEL 6
REMARK VINA RESULT:    -4.426      2.731      5.957
REMARK INTER + INTRA:         -11.045
REMARK INTER:                  -8.585
REMARK INTRA:                  -2.460
REMARK UNBOUND:                -2.996
REMARK SMILES CCCCCC=CCC=CCCCCCCCC(=O)[O-]
REMARK SMILES IDX 11 1 12 2 13 3 14 4 15 5 16 6 17 7 18 8 19 9 20 10 10 11
REMARK SMILES IDX 9 12 8 13 7 14 6 15 5 16 4 17 3 18 2 19 1 20
REMARK H PARENT
REMARK Flexibility Score: inf
ROOT
ATOM      1  C   UNL     1      14.188  22.327  32.213  1.00  0.00     0.027 C 
ENDROOT
BRANCH   1   2
ATOM      2  C   UNL     1      13.431  21.064  31.776  1.00  0.00     0.004 C 
BRANCH   2   3
ATOM      3  C   UNL     1      12.234  21.392  30.867  1.00  0.00     0.000 C 
BRANCH   3   4
ATOM      4  C   UNL     1      12.267  20.609  29.545  1.00  0.00     0.000 C 
BRANCH   4   5
ATOM      5  C   UNL     1      12.434  21.527  28.320  1.00  0.00     0.000 C 
BRANCH   5   6
ATOM      6  C   UNL     1      13.791  21.342  27.618  1.00  0.00     0.006 C 
BRANCH   6   7
ATOM      7  C   UNL     1      14.462  19.987  27.894  1.00  0.00     0.053 C 
BRANCH   7   8
ATOM      8  C   UNL     1      14.143  18.978  26.833  1.00  0.00     0.041 C 
ATOM      9  O   UNL     1      14.714  19.032  25.713  1.00  0.00    -0.550 OA
ATOM     10  O   UNL     1      13.188  17.998  27.072  1.00  0.00    -0.550 OA
ENDBRANCH   7   8
ENDBRANCH   6   7
ENDBRANCH   5   6
ENDBRANCH   4   5
ENDBRANCH   3   4
ENDBRANCH   2   3
ENDBRANCH   1   2
BRANCH   1  11
ATOM     11  C   UNL     1      15.602  22.351  31.698  1.00  0.00    -0.031 C 
ATOM     12  C   UNL     1      15.915  21.886  30.480  1.00  0.00    -0.027 C 
BRANCH  12  13
ATOM     13  C   UNL     1      17.327  21.920  29.967  1.00  0.00     0.054 C 
BRANCH  13  14
ATOM     14  C   UNL     1      17.374  22.570  28.607  1.00  0.00    -0.027 C 
ATOM     15  C   UNL     1      18.088  23.668  28.297  1.00  0.00    -0.031 C 
BRANCH  15  16
ATOM     16  C   UNL     1      18.921  24.461  29.275  1.00  0.00     0.027 C 
BRANCH  16  17
ATOM     17  C   UNL     1      18.111  25.576  29.957  1.00  0.00     0.004 C 
BRANCH  17  18
ATOM     18  C   UNL     1      17.883  25.290  31.451  1.00  0.00     0.000 C 
BRANCH  18  19
ATOM     19  C   UNL     1      19.122  24.690  32.132  1.00  0.00    -0.003 C 
ATOM     20  C   UNL     1      18.768  23.658  33.203  1.00  0.00     0.004 C 
ENDBRANCH  18  19
ENDBRANCH  17  18
ENDBRANCH  16  17
ENDBRANCH  15  16
ENDBRANCH  13  14
ENDBRANCH  12  13
ENDBRANCH   1  11
TORSDOF 14
ENDMDL
MODEL 7
REMARK VINA RESULT:    -4.411      3.530      5.970
REMARK INTER + INTRA:         -11.017
REMARK INTER:                  -8.216
REMARK INTRA:                  -2.801
REMARK UNBOUND:                -2.996
REMARK SMILES CCCCCC=CCC=CCCCCCCCC(=O)[O-]
REMARK SMILES IDX 11 1 12 2 13 3 14 4 15 5 16 6 17 7 18 8 19 9 20 10 10 11
REMARK SMILES IDX 9 12 8 13 7 14 6 15 5 16 4 17 3 18 2 19 1 20
REMARK H PARENT
REMARK Flexibility Score: inf
ROOT
ATOM      1  C   UNL     1      14.085  20.680  27.198  1.00  0.00     0.027 C 
ENDROOT
BRANCH   1   2
ATOM      2  C   UNL     1      14.286  19.157  27.166  1.00  0.00     0.004 C 
BRANCH   2   3
ATOM      3  C   UNL     1      13.037  18.398  27.644  1.00  0.00     0.000 C 
BRANCH   3   4
ATOM      4  C   UNL     1      13.165  17.909  29.096  1.00  0.00     0.000 C 
BRANCH   4   5
ATOM      5  C   UNL     1      14.565  17.348  29.407  1.00  0.00     0.000 C 
BRANCH   5   6
ATOM      6  C   UNL     1      14.756  17.023  30.900  1.00  0.00     0.006 C 
BRANCH   6   7
ATOM      7  C   UNL     1      16.193  16.631  31.280  1.00  0.00     0.053 C 
BRANCH   7   8
ATOM      8  C   UNL     1      16.344  15.149  31.445  1.00  0.00     0.041 C 
ATOM      9  O   UNL     1      15.479  14.367  30.971  1.00  0.00    -0.550 OA
ATOM     10  O   UNL     1      17.423  14.635  32.152  1.00  0.00    -0.550 OA
ENDBRANCH   7   8
ENDBRANCH   6   7
ENDBRANCH   5   6
ENDBRANCH   4   5
ENDBRANCH   3   4
ENDBRANCH   2   3
ENDBRANCH   1   2
BRANCH   1  11
ATOM     11  C   UNL     1      14.961  21.349  28.223  1.00  0.00    -0.031 C 
ATOM     12  C   UNL     1      15.749  20.640  29.046  1.00  0.00    -0.027 C 
BRANCH  12  13
ATOM     13  C   UNL     1      16.627  21.313  30.062  1.00  0.00     0.054 C 
BRANCH  13  14
ATOM     14  C   UNL     1      15.892  22.457  30.713  1.00  0.00    -0.027 C 
ATOM     15  C   UNL     1      15.063  22.345  31.768  1.00  0.00    -0.031 C 
BRANCH  15  16
ATOM     16  C   UNL     1      14.691  21.045  32.441  1.00  0.00     0.027 C 
BRANCH  16  17
ATOM     17  C   UNL     1      13.414  20.429  31.849  1.00  0.00     0.004 C 
BRANCH  17  18
ATOM     18  C   UNL     1      12.464  21.501  31.288  1.00  0.00     0.000 C 
BRANCH  18  19
ATOM     19  C   UNL     1      11.694  21.017  30.050  1.00  0.00    -0.003 C 
ATOM     20  C   UNL     1      11.324  22.155  29.100  1.00  0.00     0.004 C 
ENDBRANCH  18  19
ENDBRANCH  17  18
ENDBRANCH  16  17
ENDBRANCH  15  16
ENDBRANCH  13  14
ENDBRANCH  12  13
ENDBRANCH   1  11
TORSDOF 14
ENDMDL
MODEL 8
REMARK VINA RESULT:    -4.404      1.309      3.822
REMARK INTER + INTRA:         -11.005
REMARK INTER:                  -7.993
REMARK INTRA:                  -3.013
REMARK UNBOUND:                -2.996
REMARK SMILES CCCCCC=CCC=CCCCCCCCC(=O)[O-]
REMARK SMILES IDX 11 1 12 2 13 3 14 4 15 5 16 6 17 7 18 8 19 9 20 10 10 11
REMARK SMILES IDX 9 12 8 13 7 14 6 15 5 16 4 17 3 18 2 19 1 20
REMARK H PARENT
REMARK Flexibility Score: inf
ROOT
ATOM      1  C   UNL     1      11.497  21.669  29.875  1.00  0.00     0.027 C 
ENDROOT
BRANCH   1   2
ATOM      2  C   UNL     1      11.774  21.040  28.502  1.00  0.00     0.004 C 
BRANCH   2   3
ATOM      3  C   UNL     1      12.914  21.757  27.757  1.00  0.00     0.000 C 
BRANCH   3   4
ATOM      4  C   UNL     1      13.981  20.782  27.236  1.00  0.00     0.000 C 
BRANCH   4   5
ATOM      5  C   UNL     1      14.975  20.354  28.331  1.00  0.00     0.000 C 
BRANCH   5   6
ATOM      6  C   UNL     1      15.655  21.553  29.017  1.00  0.00     0.006 C 
BRANCH   6   7
ATOM      7  C   UNL     1      17.184  21.431  29.127  1.00  0.00     0.053 C 
BRANCH   7   8
ATOM      8  C   UNL     1      17.876  22.699  28.733  1.00  0.00     0.041 C 
ATOM      9  O   UNL     1      19.064  22.912  29.092  1.00  0.00    -0.550 OA
ATOM     10  O   UNL     1      17.197  23.661  27.996  1.00  0.00    -0.550 OA
ENDBRANCH   7   8
ENDBRANCH   6   7
ENDBRANCH   5   6
ENDBRANCH   4   5
ENDBRANCH   3   4
ENDBRANCH   2   3
ENDBRANCH   1   2
BRANCH   1  11
ATOM     11  C   UNL     1      12.306  21.027  30.970  1.00  0.00    -0.031 C 
ATOM     12  C   UNL     1      12.998  21.759  31.856  1.00  0.00    -0.027 C 
BRANCH  12  13
ATOM     13  C   UNL     1      13.797  21.114  32.952  1.00  0.00     0.054 C 
BRANCH  13  14
ATOM     14  C   UNL     1      15.260  21.444  32.796  1.00  0.00    -0.027 C 
ATOM     15  C   UNL     1      16.243  20.542  32.619  1.00  0.00    -0.031 C 
BRANCH  15  16
ATOM     16  C   UNL     1      16.049  19.045  32.600  1.00  0.00     0.027 C 
BRANCH  16  17
ATOM     17  C   UNL     1      16.574  18.408  31.304  1.00  0.00     0.004 C 
BRANCH  17  18
ATOM     18  C   UNL     1      15.503  17.551  30.608  1.00  0.00     0.000 C 
BRANCH  18  19
ATOM     19  C   UNL     1      14.075  18.009  30.939  1.00  0.00    -0.003 C 
ATOM     20  C   UNL     1      13.031  17.432  29.985  1.00  0.00     0.004 C 
ENDBRANCH  18  19
ENDBRANCH  17  18
ENDBRANCH  16  17
ENDBRANCH  15  16
ENDBRANCH  13  14
ENDBRANCH  12  13
ENDBRANCH   1  11
TORSDOF 14
ENDMDL
MODEL 9
REMARK VINA RESULT:    -4.401      3.953      5.504
REMARK INTER + INTRA:         -11.000
REMARK INTER:                  -8.423
REMARK INTRA:                  -2.577
REMARK UNBOUND:                -2.996
REMARK SMILES CCCCCC=CCC=CCCCCCCCC(=O)[O-]
REMARK SMILES IDX 11 1 12 2 13 3 14 4 15 5 16 6 17 7 18 8 19 9 20 10 10 11
REMARK SMILES IDX 9 12 8 13 7 14 6 15 5 16 4 17 3 18 2 19 1 20
REMARK H PARENT
REMARK Flexibility Score: inf
ROOT
ATOM      1  C   UNL     1      13.162  17.574  31.469  1.00  0.00     0.027 C 
ENDROOT
BRANCH   1   2
ATOM      2  C   UNL     1      14.059  18.528  32.271  1.00  0.00     0.004 C 
BRANCH   2   3
ATOM      3  C   UNL     1      15.220  19.079  31.425  1.00  0.00     0.000 C 
BRANCH   3   4
ATOM      4  C   UNL     1      16.299  18.021  31.146  1.00  0.00     0.000 C 
BRANCH   4   5
ATOM      5  C   UNL     1      16.784  17.321  32.429  1.00  0.00     0.000 C 
BRANCH   5   6
ATOM      6  C   UNL     1      17.045  15.818  32.224  1.00  0.00     0.006 C 
BRANCH   6   7
ATOM      7  C   UNL     1      16.077  14.901  32.989  1.00  0.00     0.053 C 
BRANCH   7   8
ATOM      8  C   UNL     1      14.991  14.370  32.104  1.00  0.00     0.041 C 
ATOM      9  O   UNL     1      14.097  13.621  32.577  1.00  0.00    -0.550 OA
ATOM     10  O   UNL     1      14.987  14.677  30.749  1.00  0.00    -0.550 OA
ENDBRANCH   7   8
ENDBRANCH   6   7
ENDBRANCH   5   6
ENDBRANCH   4   5
ENDBRANCH   3   4
ENDBRANCH   2   3
ENDBRANCH   1   2
BRANCH   1  11
ATOM     11  C   UNL     1      12.810  18.126  30.114  1.00  0.00    -0.031 C 
ATOM     12  C   UNL     1      13.078  17.449  28.987  1.00  0.00    -0.027 C 
BRANCH  12  13
ATOM     13  C   UNL     1      12.717  18.001  27.637  1.00  0.00     0.054 C 
BRANCH  13  14
ATOM     14  C   UNL     1      13.937  18.049  26.750  1.00  0.00    -0.027 C 
ATOM     15  C   UNL     1      14.582  19.172  26.382  1.00  0.00    -0.031 C 
BRANCH  15  16
ATOM     16  C   UNL     1      14.161  20.573  26.753  1.00  0.00     0.027 C 
BRANCH  16  17
ATOM     17  C   UNL     1      14.840  21.060  28.043  1.00  0.00     0.004 C 
BRANCH  17  18
ATOM     18  C   UNL     1      13.816  21.471  29.114  1.00  0.00     0.000 C 
BRANCH  18  19
ATOM     19  C   UNL     1      12.414  21.705  28.530  1.00  0.00    -0.003 C 
ATOM     20  C   UNL     1      11.299  21.429  29.537  1.00  0.00     0.004 C 
ENDBRANCH  18  19
ENDBRANCH  17  18
ENDBRANCH  16  17
ENDBRANCH  15  16
ENDBRANCH  13  14
ENDBRANCH  12  13
ENDBRANCH   1  11
TORSDOF 14
ENDMDL
