MODEL 1
REMARK VINA RESULT:    -4.896      0.000      0.000
REMARK INTER + INTRA:          -4.896
REMARK INTER:                  -4.896
REMARK INTRA:                   0.000
REMARK UNBOUND:                 0.000
REMARK SMILES CC1(C)[C@@H]2CC[C@@]1(C)C(=O)C2
REMARK SMILES IDX 1 1 2 2 4 3 5 4 6 5 7 6 9 7 10 8 11 9 8 10 3 11
REMARK H PARENT
REMARK Flexibility Score: inf
ROOT
ATOM      1  C   UNL     1      25.480 -34.382  34.887  1.00  0.00     0.012 C 
ATOM      2  C   UNL     1      24.056 -34.372  34.250  1.00  0.00    -0.020 C 
ATOM      3  C   UNL     1      22.911 -34.368  35.290  1.00  0.00     0.003 C 
ATOM      4  C   UNL     1      21.647 -34.187  34.405  1.00  0.00     0.005 C 
ATOM      5  C   UNL     1      22.141 -33.243  33.281  1.00  0.00     0.015 C 
ATOM      6  C   UNL     1      23.624 -33.013  33.659  1.00  0.00     0.032 C 
ATOM      7  C   UNL     1      23.576 -32.169  34.908  1.00  0.00     0.139 C 
ATOM      8  O   UNL     1      23.794 -30.969  34.972  1.00  0.00    -0.299 OA
ATOM      9  C   UNL     1      23.113 -33.025  36.046  1.00  0.00     0.080 C 
ATOM     10  C   UNL     1      24.495 -32.450  32.530  1.00  0.00     0.020 C 
ATOM     11  C   UNL     1      24.007 -35.578  33.263  1.00  0.00     0.012 C 
ENDROOT
TORSDOF 0
ENDMDL
MODEL 2
REMARK VINA RESULT:    -4.848      9.603     10.961
REMARK INTER + INTRA:          -4.848
REMARK INTER:                  -4.848
REMARK INTRA:                   0.000
REMARK UNBOUND:                 0.000
REMARK SMILES CC1(C)[C@@H]2CC[C@@]1(C)C(=O)C2
REMARK SMILES IDX 1 1 2 2 4 3 5 4 6 5 7 6 9 7 10 8 11 9 8 10 3 11
REMARK H PARENT
REMARK Flexibility Score: inf
ROOT
ATOM      1  C   UNL     1      17.073 -39.189  25.979  1.00  0.00     0.012 C 
ATOM      2  C   UNL     1      17.743 -37.989  26.716  1.00  0.00    -0.020 C 
ATOM      3  C   UNL     1      18.323 -36.920  25.760  1.00  0.00     0.003 C 
ATOM      4  C   UNL     1      18.761 -35.792  26.735  1.00  0.00     0.005 C 
ATOM      5  C   UNL     1      17.668 -35.837  27.832  1.00  0.00     0.015 C 
ATOM      6  C   UNL     1      16.753 -36.989  27.352  1.00  0.00     0.032 C 
ATOM      7  C   UNL     1      16.070 -36.451  26.120  1.00  0.00     0.139 C 
ATOM      8  O   UNL     1      14.918 -36.050  26.055  1.00  0.00    -0.299 OA
ATOM      9  C   UNL     1      17.071 -36.389  25.008  1.00  0.00     0.080 C 
ATOM     10  C   UNL     1      15.810 -37.549  28.423  1.00  0.00     0.020 C 
ATOM     11  C   UNL     1      18.795 -38.602  27.690  1.00  0.00     0.012 C 
ENDROOT
TORSDOF 0
ENDMDL
MODEL 3
REMARK VINA RESULT:    -4.751      9.360     10.653
REMARK INTER + INTRA:          -4.751
REMARK INTER:                  -4.751
REMARK INTRA:                   0.000
REMARK UNBOUND:                 0.000
REMARK SMILES CC1(C)[C@@H]2CC[C@@]1(C)C(=O)C2
REMARK SMILES IDX 1 1 2 2 4 3 5 4 6 5 7 6 9 7 10 8 11 9 8 10 3 11
REMARK H PARENT
REMARK Flexibility Score: inf
ROOT
ATOM      1  C   UNL     1      17.797 -35.075  25.241  1.00  0.00     0.012 C 
ATOM      2  C   UNL     1      17.635 -36.547  25.734  1.00  0.00    -0.020 C 
ATOM      3  C   UNL     1      18.663 -36.954  26.816  1.00  0.00     0.003 C 
ATOM      4  C   UNL     1      18.174 -38.368  27.236  1.00  0.00     0.005 C 
ATOM      5  C   UNL     1      16.633 -38.244  27.147  1.00  0.00     0.015 C 
ATOM      6  C   UNL     1      16.436 -36.782  26.678  1.00  0.00     0.032 C 
ATOM      7  C   UNL     1      16.845 -35.941  27.862  1.00  0.00     0.139 C 
ATOM      8  O   UNL     1      16.088 -35.369  28.631  1.00  0.00    -0.299 OA
ATOM      9  C   UNL     1      18.334 -36.006  28.004  1.00  0.00     0.080 C 
ATOM     10  C   UNL     1      15.047 -36.470  26.110  1.00  0.00     0.020 C 
ATOM     11  C   UNL     1      17.672 -37.445  24.461  1.00  0.00     0.012 C 
ENDROOT
TORSDOF 0
ENDMDL
MODEL 4
REMARK VINA RESULT:    -4.722      1.344      2.763
REMARK INTER + INTRA:          -4.722
REMARK INTER:                  -4.722
REMARK INTRA:                   0.000
REMARK UNBOUND:                 0.000
REMARK SMILES CC1(C)[C@@H]2CC[C@@]1(C)C(=O)C2
REMARK SMILES IDX 1 1 2 2 4 3 5 4 6 5 7 6 9 7 10 8 11 9 8 10 3 11
REMARK H PARENT
REMARK Flexibility Score: inf
ROOT
ATOM      1  C   UNL     1      21.417 -32.972  35.689  1.00  0.00     0.012 C 
ATOM      2  C   UNL     1      22.791 -33.555  35.237  1.00  0.00    -0.020 C 
ATOM      3  C   UNL     1      22.675 -34.631  34.131  1.00  0.00     0.003 C 
ATOM      4  C   UNL     1      24.159 -34.903  33.762  1.00  0.00     0.005 C 
ATOM      5  C   UNL     1      24.814 -33.506  33.899  1.00  0.00     0.015 C 
ATOM      6  C   UNL     1      23.626 -32.617  34.339  1.00  0.00     0.032 C 
ATOM      7  C   UNL     1      22.738 -32.533  33.123  1.00  0.00     0.139 C 
ATOM      8  O   UNL     1      22.647 -31.579  32.365  1.00  0.00    -0.299 OA
ATOM      9  C   UNL     1      22.061 -33.855  32.933  1.00  0.00     0.080 C 
ATOM     10  C   UNL     1      24.024 -31.266  34.945  1.00  0.00     0.020 C 
ATOM     11  C   UNL     1      23.505 -34.055  36.530  1.00  0.00     0.012 C 
ENDROOT
TORSDOF 0
ENDMDL
MODEL 5
REMARK VINA RESULT:    -4.640      9.464     10.854
REMARK INTER + INTRA:          -4.640
REMARK INTER:                  -4.640
REMARK INTRA:                   0.000
REMARK UNBOUND:                 0.000
REMARK SMILES CC1(C)[C@@H]2CC[C@@]1(C)C(=O)C2
REMARK SMILES IDX 1 1 2 2 4 3 5 4 6 5 7 6 9 7 10 8 11 9 8 10 3 11
REMARK H PARENT
REMARK Flexibility Score: inf
ROOT
ATOM      1  C   UNL     1      15.694 -37.850  28.403  1.00  0.00     0.012 C 
ATOM      2  C   UNL     1      16.534 -36.640  27.888  1.00  0.00    -0.020 C 
ATOM      3  C   UNL     1      18.062 -36.843  28.025  1.00  0.00     0.003 C 
ATOM      4  C   UNL     1      18.638 -35.597  27.297  1.00  0.00     0.005 C 
ATOM      5  C   UNL     1      17.638 -35.380  26.134  1.00  0.00     0.015 C 
ATOM      6  C   UNL     1      16.613 -36.520  26.350  1.00  0.00     0.032 C 
ATOM      7  C   UNL     1      17.365 -37.782  26.010  1.00  0.00     0.139 C 
ATOM      8  O   UNL     1      17.256 -38.426  24.978  1.00  0.00    -0.299 OA
ATOM      9  C   UNL     1      18.350 -38.061  27.103  1.00  0.00     0.080 C 
ATOM     10  C   UNL     1      15.284 -36.338  25.610  1.00  0.00     0.020 C 
ATOM     11  C   UNL     1      15.996 -35.381  28.632  1.00  0.00     0.012 C 
ENDROOT
TORSDOF 0
ENDMDL
MODEL 6
REMARK VINA RESULT:    -4.588      9.752     10.943
REMARK INTER + INTRA:          -4.588
REMARK INTER:                  -4.588
REMARK INTRA:                   0.000
REMARK UNBOUND:                 0.000
REMARK SMILES CC1(C)[C@@H]2CC[C@@]1(C)C(=O)C2
REMARK SMILES IDX 1 1 2 2 4 3 5 4 6 5 7 6 9 7 10 8 11 9 8 10 3 11
REMARK H PARENT
REMARK Flexibility Score: inf
ROOT
ATOM      1  C   UNL     1      17.998 -34.755  27.191  1.00  0.00     0.012 C 
ATOM      2  C   UNL     1      18.092 -36.207  26.629  1.00  0.00    -0.020 C 
ATOM      3  C   UNL     1      17.547 -37.283  27.599  1.00  0.00     0.003 C 
ATOM      4  C   UNL     1      17.602 -38.576  26.739  1.00  0.00     0.005 C 
ATOM      5  C   UNL     1      17.248 -38.065  25.320  1.00  0.00     0.015 C 
ATOM      6  C   UNL     1      17.046 -36.547  25.546  1.00  0.00     0.032 C 
ATOM      7  C   UNL     1      15.772 -36.444  26.346  1.00  0.00     0.139 C 
ATOM      8  O   UNL     1      14.678 -36.114  25.914  1.00  0.00    -0.299 OA
ATOM      9  C   UNL     1      16.044 -36.915  27.741  1.00  0.00     0.080 C 
ATOM     10  C   UNL     1      17.082 -35.698  24.271  1.00  0.00     0.020 C 
ATOM     11  C   UNL     1      19.580 -36.425  26.218  1.00  0.00     0.012 C 
ENDROOT
TORSDOF 0
ENDMDL
MODEL 7
REMARK VINA RESULT:    -4.587     10.081     11.457
REMARK INTER + INTRA:          -4.587
REMARK INTER:                  -4.587
REMARK INTRA:                   0.000
REMARK UNBOUND:                 0.000
REMARK SMILES CC1(C)[C@@H]2CC[C@@]1(C)C(=O)C2
REMARK SMILES IDX 1 1 2 2 4 3 5 4 6 5 7 6 9 7 10 8 11 9 8 10 3 11
REMARK H PARENT
REMARK Flexibility Score: inf
ROOT
ATOM      1  C   UNL     1      15.235 -36.396  25.190  1.00  0.00     0.012 C 
ATOM      2  C   UNL     1      16.734 -36.084  25.486  1.00  0.00    -0.020 C 
ATOM      3  C   UNL     1      17.043 -35.892  26.989  1.00  0.00     0.003 C 
ATOM      4  C   UNL     1      18.592 -35.770  27.007  1.00  0.00     0.005 C 
ATOM      5  C   UNL     1      19.031 -36.750  25.890  1.00  0.00     0.015 C 
ATOM      6  C   UNL     1      17.680 -37.298  25.370  1.00  0.00     0.032 C 
ATOM      7  C   UNL     1      17.160 -38.164  26.490  1.00  0.00     0.139 C 
ATOM      8  O   UNL     1      17.182 -39.385  26.523  1.00  0.00    -0.299 OA
ATOM      9  C   UNL     1      16.706 -37.277  27.608  1.00  0.00     0.080 C 
ATOM     10  C   UNL     1      17.750 -37.983  24.001  1.00  0.00     0.020 C 
ATOM     11  C   UNL     1      17.110 -34.855  24.603  1.00  0.00     0.012 C 
ENDROOT
TORSDOF 0
ENDMDL
MODEL 8
REMARK VINA RESULT:    -4.587      1.603      3.193
REMARK INTER + INTRA:          -4.587
REMARK INTER:                  -4.587
REMARK INTRA:                   0.000
REMARK UNBOUND:                 0.000
REMARK SMILES CC1(C)[C@@H]2CC[C@@]1(C)C(=O)C2
REMARK SMILES IDX 1 1 2 2 4 3 5 4 6 5 7 6 9 7 10 8 11 9 8 10 3 11
REMARK H PARENT
REMARK Flexibility Score: inf
ROOT
ATOM      1  C   UNL     1      23.996 -31.409  35.848  1.00  0.00     0.012 C 
ATOM      2  C   UNL     1      22.924 -32.488  35.505  1.00  0.00    -0.020 C 
ATOM      3  C   UNL     1      22.603 -32.585  33.995  1.00  0.00     0.003 C 
ATOM      4  C   UNL     1      21.662 -33.820  33.924  1.00  0.00     0.005 C 
ATOM      5  C   UNL     1      22.243 -34.762  35.008  1.00  0.00     0.015 C 
ATOM      6  C   UNL     1      23.433 -33.944  35.566  1.00  0.00     0.032 C 
ATOM      7  C   UNL     1      24.448 -33.932  34.451  1.00  0.00     0.139 C 
ATOM      8  O   UNL     1      25.463 -34.609  34.397  1.00  0.00    -0.299 OA
ATOM      9  C   UNL     1      23.954 -33.027  33.365  1.00  0.00     0.080 C 
ATOM     10  C   UNL     1      23.964 -34.426  36.921  1.00  0.00     0.020 C 
ATOM     11  C   UNL     1      21.682 -32.174  36.394  1.00  0.00     0.012 C 
ENDROOT
TORSDOF 0
ENDMDL
MODEL 9
REMARK VINA RESULT:    -4.562      1.446      2.594
REMARK INTER + INTRA:          -4.562
REMARK INTER:                  -4.562
REMARK INTRA:                   0.000
REMARK UNBOUND:                 0.000
REMARK SMILES CC1(C)[C@@H]2CC[C@@]1(C)C(=O)C2
REMARK SMILES IDX 1 1 2 2 4 3 5 4 6 5 7 6 9 7 10 8 11 9 8 10 3 11
REMARK H PARENT
REMARK Flexibility Score: inf
ROOT
ATOM      1  C   UNL     1      24.886 -32.636  32.767  1.00  0.00     0.012 C 
ATOM      2  C   UNL     1      23.407 -32.684  33.261  1.00  0.00    -0.020 C 
ATOM      3  C   UNL     1      22.767 -34.089  33.165  1.00  0.00     0.003 C 
ATOM      4  C   UNL     1      21.394 -33.887  33.864  1.00  0.00     0.005 C 
ATOM      5  C   UNL     1      21.724 -32.883  34.997  1.00  0.00     0.015 C 
ATOM      6  C   UNL     1      23.238 -32.631  34.795  1.00  0.00     0.032 C 
ATOM      7  C   UNL     1      23.900 -33.927  35.193  1.00  0.00     0.139 C 
ATOM      8  O   UNL     1      24.487 -34.141  36.243  1.00  0.00    -0.299 OA
ATOM      9  C   UNL     1      23.628 -34.948  34.132  1.00  0.00     0.080 C 
ATOM     10  C   UNL     1      23.781 -31.383  35.500  1.00  0.00     0.020 C 
ATOM     11  C   UNL     1      22.641 -31.586  32.464  1.00  0.00     0.012 C 
ENDROOT
TORSDOF 0
ENDMDL
