MODEL 1
REMARK VINA RESULT:    -4.873      0.000      0.000
REMARK INTER + INTRA:          -6.160
REMARK INTER:                  -6.012
REMARK INTRA:                  -0.148
REMARK UNBOUND:                -0.148
REMARK SMILES CCCCC=CC(C)=O
REMARK SMILES IDX 4 1 3 2 2 3 1 4 5 5 6 6 7 7 9 8 8 9
REMARK H PARENT
REMARK Flexibility Score: inf
ROOT
ATOM      1  C   UNL     1      82.661   5.416  25.768  1.00  0.00     0.027 C 
ENDROOT
BRANCH   1   2
ATOM      2  C   UNL     1      81.154   5.585  26.012  1.00  0.00     0.004 C 
BRANCH   2   3
ATOM      3  C   UNL     1      80.850   6.472  27.229  1.00  0.00    -0.003 C 
ATOM      4  C   UNL     1      80.119   7.760  26.853  1.00  0.00     0.004 C 
ENDBRANCH   2   3
ENDBRANCH   1   2
BRANCH   1   5
ATOM      5  C   UNL     1      83.237   4.352  26.657  1.00  0.00    -0.023 C 
ATOM      6  C   UNL     1      84.388   4.536  27.313  1.00  0.00     0.042 C 
BRANCH   6   7
ATOM      7  C   UNL     1      84.966   3.509  28.200  1.00  0.00     0.152 C 
ATOM      8  O   UNL     1      84.220   2.728  28.853  1.00  0.00    -0.295 OA
ATOM      9  C   UNL     1      86.450   3.391  28.328  1.00  0.00     0.093 C 
ENDBRANCH   6   7
ENDBRANCH   1   5
TORSDOF 4
ENDMDL
MODEL 2
REMARK VINA RESULT:    -4.755      2.127      5.242
REMARK INTER + INTRA:          -6.014
REMARK INTER:                  -5.848
REMARK INTRA:                  -0.167
REMARK UNBOUND:                -0.148
REMARK SMILES CCCCC=CC(C)=O
REMARK SMILES IDX 4 1 3 2 2 3 1 4 5 5 6 6 7 7 9 8 8 9
REMARK H PARENT
REMARK Flexibility Score: inf
ROOT
ATOM      1  C   UNL     1      82.727   3.656  28.991  1.00  0.00     0.027 C 
ENDROOT
BRANCH   1   2
ATOM      2  C   UNL     1      84.026   2.885  28.713  1.00  0.00     0.004 C 
BRANCH   2   3
ATOM      3  C   UNL     1      85.045   3.713  27.917  1.00  0.00    -0.003 C 
ATOM      4  C   UNL     1      86.491   3.360  28.261  1.00  0.00     0.004 C 
ENDBRANCH   2   3
ENDBRANCH   1   2
BRANCH   1   5
ATOM      5  C   UNL     1      82.285   4.426  27.779  1.00  0.00    -0.023 C 
ATOM      6  C   UNL     1      81.555   5.542  27.888  1.00  0.00     0.042 C 
BRANCH   6   7
ATOM      7  C   UNL     1      81.121   6.320  26.713  1.00  0.00     0.152 C 
ATOM      8  O   UNL     1      81.535   6.027  25.557  1.00  0.00    -0.295 OA
ATOM      9  C   UNL     1      80.179   7.466  26.890  1.00  0.00     0.093 C 
ENDBRANCH   6   7
ENDBRANCH   1   5
TORSDOF 4
ENDMDL
MODEL 3
REMARK VINA RESULT:    -4.676      3.243      4.871
REMARK INTER + INTRA:          -5.917
REMARK INTER:                  -5.793
REMARK INTRA:                  -0.124
REMARK UNBOUND:                -0.148
REMARK SMILES CCCCC=CC(C)=O
REMARK SMILES IDX 4 1 3 2 2 3 1 4 5 5 6 6 7 7 9 8 8 9
REMARK H PARENT
REMARK Flexibility Score: inf
ROOT
ATOM      1  C   UNL     1      83.252   3.256  28.719  1.00  0.00     0.027 C 
ENDROOT
BRANCH   1   2
ATOM      2  C   UNL     1      82.252   2.427  29.538  1.00  0.00     0.004 C 
BRANCH   2   3
ATOM      3  C   UNL     1      81.533   3.261  30.609  1.00  0.00    -0.003 C 
ATOM      4  C   UNL     1      80.452   2.472  31.345  1.00  0.00     0.004 C 
ENDBRANCH   2   3
ENDBRANCH   1   2
BRANCH   1   5
ATOM      5  C   UNL     1      82.574   3.936  27.564  1.00  0.00    -0.023 C 
ATOM      6  C   UNL     1      82.133   5.195  27.656  1.00  0.00     0.042 C 
BRANCH   6   7
ATOM      7  C   UNL     1      81.476   5.887  26.531  1.00  0.00     0.152 C 
ATOM      8  O   UNL     1      81.848   5.682  25.343  1.00  0.00    -0.295 OA
ATOM      9  C   UNL     1      80.357   6.841  26.800  1.00  0.00     0.093 C 
ENDBRANCH   6   7
ENDBRANCH   1   5
TORSDOF 4
ENDMDL
MODEL 4
REMARK VINA RESULT:    -4.665      1.302      1.720
REMARK INTER + INTRA:          -5.903
REMARK INTER:                  -5.782
REMARK INTRA:                  -0.121
REMARK UNBOUND:                -0.148
REMARK SMILES CCCCC=CC(C)=O
REMARK SMILES IDX 4 1 3 2 2 3 1 4 5 5 6 6 7 7 9 8 8 9
REMARK H PARENT
REMARK Flexibility Score: inf
ROOT
ATOM      1  C   UNL     1      82.754   5.420  25.751  1.00  0.00     0.027 C 
ENDROOT
BRANCH   1   2
ATOM      2  C   UNL     1      81.239   5.661  25.821  1.00  0.00     0.004 C 
BRANCH   2   3
ATOM      3  C   UNL     1      80.816   6.375  27.114  1.00  0.00    -0.003 C 
ATOM      4  C   UNL     1      80.141   7.720  26.851  1.00  0.00     0.004 C 
ENDBRANCH   2   3
ENDBRANCH   1   2
BRANCH   1   5
ATOM      5  C   UNL     1      83.255   4.754  27.000  1.00  0.00    -0.023 C 
ATOM      6  C   UNL     1      82.839   3.534  27.357  1.00  0.00     0.042 C 
BRANCH   6   7
ATOM      7  C   UNL     1      83.327   2.856  28.573  1.00  0.00     0.152 C 
ATOM      8  O   UNL     1      84.564   2.701  28.772  1.00  0.00    -0.295 OA
ATOM      9  C   UNL     1      82.348   2.350  29.582  1.00  0.00     0.093 C 
ENDBRANCH   6   7
ENDBRANCH   1   5
TORSDOF 4
ENDMDL
MODEL 5
REMARK VINA RESULT:    -4.570      2.151      2.581
REMARK INTER + INTRA:          -5.787
REMARK INTER:                  -5.622
REMARK INTRA:                  -0.165
REMARK UNBOUND:                -0.148
REMARK SMILES CCCCC=CC(C)=O
REMARK SMILES IDX 4 1 3 2 2 3 1 4 5 5 6 6 7 7 9 8 8 9
REMARK H PARENT
REMARK Flexibility Score: inf
ROOT
ATOM      1  C   UNL     1      83.412   4.370  26.303  1.00  0.00     0.027 C 
ENDROOT
BRANCH   1   2
ATOM      2  C   UNL     1      82.732   5.723  26.047  1.00  0.00     0.004 C 
BRANCH   2   3
ATOM      3  C   UNL     1      81.199   5.624  26.060  1.00  0.00    -0.003 C 
ATOM      4  C   UNL     1      80.541   6.748  26.858  1.00  0.00     0.004 C 
ENDBRANCH   2   3
ENDBRANCH   1   2
BRANCH   1   5
ATOM      5  C   UNL     1      82.745   3.633  27.428  1.00  0.00    -0.023 C 
ATOM      6  C   UNL     1      82.831   4.061  28.693  1.00  0.00     0.042 C 
BRANCH   6   7
ATOM      7  C   UNL     1      82.174   3.360  29.811  1.00  0.00     0.152 C 
ATOM      8  O   UNL     1      81.895   2.132  29.727  1.00  0.00    -0.295 OA
ATOM      9  C   UNL     1      81.836   4.109  31.059  1.00  0.00     0.093 C 
ENDBRANCH   6   7
ENDBRANCH   1   5
TORSDOF 4
ENDMDL
MODEL 6
REMARK VINA RESULT:    -4.555      2.279      4.654
REMARK INTER + INTRA:          -5.767
REMARK INTER:                  -5.688
REMARK INTRA:                  -0.080
REMARK UNBOUND:                -0.148
REMARK SMILES CCCCC=CC(C)=O
REMARK SMILES IDX 4 1 3 2 2 3 1 4 5 5 6 6 7 7 9 8 8 9
REMARK H PARENT
REMARK Flexibility Score: inf
ROOT
ATOM      1  C   UNL     1      84.942   4.058  27.657  1.00  0.00     0.027 C 
ENDROOT
BRANCH   1   2
ATOM      2  C   UNL     1      84.572   3.005  28.711  1.00  0.00     0.004 C 
BRANCH   2   3
ATOM      3  C   UNL     1      83.222   2.331  28.423  1.00  0.00    -0.003 C 
ATOM      4  C   UNL     1      82.203   2.548  29.540  1.00  0.00     0.004 C 
ENDBRANCH   2   3
ENDBRANCH   1   2
BRANCH   1   5
ATOM      5  C   UNL     1      83.745   4.448  26.837  1.00  0.00    -0.023 C 
ATOM      6  C   UNL     1      82.937   5.446  27.211  1.00  0.00     0.042 C 
BRANCH   6   7
ATOM      7  C   UNL     1      81.764   5.854  26.415  1.00  0.00     0.152 C 
ATOM      8  O   UNL     1      81.703   5.600  25.181  1.00  0.00    -0.295 OA
ATOM      9  C   UNL     1      80.634   6.574  27.077  1.00  0.00     0.093 C 
ENDBRANCH   6   7
ENDBRANCH   1   5
TORSDOF 4
ENDMDL
MODEL 7
REMARK VINA RESULT:    -4.536      3.050      5.002
REMARK INTER + INTRA:          -5.744
REMARK INTER:                  -5.439
REMARK INTRA:                  -0.305
REMARK UNBOUND:                -0.148
REMARK SMILES CCCCC=CC(C)=O
REMARK SMILES IDX 4 1 3 2 2 3 1 4 5 5 6 6 7 7 9 8 8 9
REMARK H PARENT
REMARK Flexibility Score: inf
ROOT
ATOM      1  C   UNL     1      82.284   4.249  29.829  1.00  0.00     0.027 C 
ENDROOT
BRANCH   1   2
ATOM      2  C   UNL     1      82.260   2.733  29.586  1.00  0.00     0.004 C 
BRANCH   2   3
ATOM      3  C   UNL     1      83.035   2.325  28.325  1.00  0.00    -0.003 C 
ATOM      4  C   UNL     1      82.234   1.397  27.413  1.00  0.00     0.004 C 
ENDBRANCH   2   3
ENDBRANCH   1   2
BRANCH   1   5
ATOM      5  C   UNL     1      82.271   5.005  28.532  1.00  0.00    -0.023 C 
ATOM      6  C   UNL     1      81.155   5.580  28.069  1.00  0.00     0.042 C 
BRANCH   6   7
ATOM      7  C   UNL     1      81.122   6.337  26.804  1.00  0.00     0.152 C 
ATOM      8  O   UNL     1      80.481   7.421  26.719  1.00  0.00    -0.295 OA
ATOM      9  C   UNL     1      81.856   5.819  25.610  1.00  0.00     0.093 C 
ENDBRANCH   6   7
ENDBRANCH   1   5
TORSDOF 4
ENDMDL
MODEL 8
REMARK VINA RESULT:    -4.412      2.948      3.998
REMARK INTER + INTRA:          -5.592
REMARK INTER:                  -5.391
REMARK INTRA:                  -0.201
REMARK UNBOUND:                -0.148
REMARK SMILES CCCCC=CC(C)=O
REMARK SMILES IDX 4 1 3 2 2 3 1 4 5 5 6 6 7 7 9 8 8 9
REMARK H PARENT
REMARK Flexibility Score: inf
ROOT
ATOM      1  C   UNL     1      82.783   5.907  28.282  1.00  0.00     0.027 C 
ENDROOT
BRANCH   1   2
ATOM      2  C   UNL     1      84.148   5.766  27.593  1.00  0.00     0.004 C 
BRANCH   2   3
ATOM      3  C   UNL     1      84.264   4.472  26.774  1.00  0.00    -0.003 C 
ATOM      4  C   UNL     1      83.872   4.663  25.310  1.00  0.00     0.004 C 
ENDBRANCH   2   3
ENDBRANCH   1   2
BRANCH   1   5
ATOM      5  C   UNL     1      82.206   4.563  28.621  1.00  0.00    -0.023 C 
ATOM      6  C   UNL     1      82.149   4.124  29.883  1.00  0.00     0.042 C 
BRANCH   6   7
ATOM      7  C   UNL     1      81.575   2.813  30.240  1.00  0.00     0.152 C 
ATOM      8  O   UNL     1      81.946   1.764  29.644  1.00  0.00    -0.295 OA
ATOM      9  C   UNL     1      80.546   2.724  31.319  1.00  0.00     0.093 C 
ENDBRANCH   6   7
ENDBRANCH   1   5
TORSDOF 4
ENDMDL
MODEL 9
REMARK VINA RESULT:    -4.352      3.454      4.479
REMARK INTER + INTRA:          -5.518
REMARK INTER:                  -5.373
REMARK INTRA:                  -0.145
REMARK UNBOUND:                -0.148
REMARK SMILES CCCCC=CC(C)=O
REMARK SMILES IDX 4 1 3 2 2 3 1 4 5 5 6 6 7 7 9 8 8 9
REMARK H PARENT
REMARK Flexibility Score: inf
ROOT
ATOM      1  C   UNL     1      82.982   2.702  29.100  1.00  0.00     0.027 C 
ENDROOT
BRANCH   1   2
ATOM      2  C   UNL     1      81.861   3.320  29.949  1.00  0.00     0.004 C 
BRANCH   2   3
ATOM      3  C   UNL     1      81.094   2.270  30.766  1.00  0.00    -0.003 C 
ATOM      4  C   UNL     1      80.251   2.889  31.880  1.00  0.00     0.004 C 
ENDBRANCH   2   3
ENDBRANCH   1   2
BRANCH   1   5
ATOM      5  C   UNL     1      82.979   3.264  27.707  1.00  0.00    -0.023 C 
ATOM      6  C   UNL     1      82.711   4.554  27.474  1.00  0.00     0.042 C 
BRANCH   6   7
ATOM      7  C   UNL     1      82.715   5.129  26.117  1.00  0.00     0.152 C 
ATOM      8  O   UNL     1      81.781   5.889  25.736  1.00  0.00    -0.295 OA
ATOM      9  C   UNL     1      83.835   4.812  25.181  1.00  0.00     0.093 C 
ENDBRANCH   6   7
ENDBRANCH   1   5
TORSDOF 4
ENDMDL
