MODEL 1
REMARK VINA RESULT:    -3.769      0.000      0.000
REMARK INTER + INTRA:          -4.221
REMARK INTER:                  -4.210
REMARK INTRA:                  -0.012
REMARK UNBOUND:                -0.012
REMARK SMILES CCCC(=O)[O-]
REMARK SMILES IDX 3 1 4 2 5 3 6 4 2 5 1 6
REMARK H PARENT
REMARK Flexibility Score: inf
ROOT
ATOM      1  C   UNL     1     -31.037   6.289   4.301  1.00  0.00     0.052 C 
ENDROOT
BRANCH   1   2
ATOM      2  C   UNL     1     -32.527   6.412   4.267  1.00  0.00     0.041 C 
ATOM      3  O   UNL     1     -33.102   7.337   4.901  1.00  0.00    -0.550 OA
ATOM      4  O   UNL     1     -33.287   5.477   3.575  1.00  0.00    -0.550 OA
ENDBRANCH   1   2
BRANCH   1   5
ATOM      5  C   UNL     1     -30.471   6.980   5.544  1.00  0.00     0.003 C 
ATOM      6  C   UNL     1     -29.145   6.353   5.966  1.00  0.00     0.004 C 
ENDBRANCH   1   5
TORSDOF 2
ENDMDL
MODEL 2
REMARK VINA RESULT:    -3.715     16.681     17.556
REMARK INTER + INTRA:          -4.161
REMARK INTER:                  -4.149
REMARK INTRA:                  -0.013
REMARK UNBOUND:                -0.012
REMARK SMILES CCCC(=O)[O-]
REMARK SMILES IDX 3 1 4 2 5 3 6 4 2 5 1 6
REMARK H PARENT
REMARK Flexibility Score: inf
ROOT
ATOM      1  C   UNL     1     -20.201  -5.609   2.087  1.00  0.00     0.052 C 
ENDROOT
BRANCH   1   2
ATOM      2  C   UNL     1     -20.303  -7.070   1.786  1.00  0.00     0.041 C 
ATOM      3  O   UNL     1     -19.368  -7.660   1.182  1.00  0.00    -0.550 OA
ATOM      4  O   UNL     1     -21.451  -7.772   2.129  1.00  0.00    -0.550 OA
ENDBRANCH   1   2
BRANCH   1   5
ATOM      5  C   UNL     1     -19.193  -4.938   1.150  1.00  0.00     0.003 C 
ATOM      6  C   UNL     1     -19.587  -3.492   0.861  1.00  0.00     0.004 C 
ENDBRANCH   1   5
TORSDOF 2
ENDMDL
MODEL 3
REMARK VINA RESULT:    -3.651     16.705     17.583
REMARK INTER + INTRA:          -4.089
REMARK INTER:                  -4.052
REMARK INTRA:                  -0.037
REMARK UNBOUND:                -0.012
REMARK SMILES CCCC(=O)[O-]
REMARK SMILES IDX 3 1 4 2 5 3 6 4 2 5 1 6
REMARK H PARENT
REMARK Flexibility Score: inf
ROOT
ATOM      1  C   UNL     1     -20.484  -5.732   2.437  1.00  0.00     0.052 C 
ENDROOT
BRANCH   1   2
ATOM      2  C   UNL     1     -19.489  -5.229   1.441  1.00  0.00     0.041 C 
ATOM      3  O   UNL     1     -18.579  -5.988   1.014  1.00  0.00    -0.550 OA
ATOM      4  O   UNL     1     -19.535  -3.906   1.019  1.00  0.00    -0.550 OA
ENDBRANCH   1   2
BRANCH   1   5
ATOM      5  C   UNL     1     -20.287  -7.230   2.682  1.00  0.00     0.003 C 
ATOM      6  C   UNL     1     -21.453  -8.038   2.120  1.00  0.00     0.004 C 
ENDBRANCH   1   5
TORSDOF 2
ENDMDL
MODEL 4
REMARK VINA RESULT:    -3.503      2.803      3.706
REMARK INTER + INTRA:          -3.924
REMARK INTER:                  -3.917
REMARK INTRA:                  -0.007
REMARK UNBOUND:                -0.012
REMARK SMILES CCCC(=O)[O-]
REMARK SMILES IDX 3 1 4 2 5 3 6 4 2 5 1 6
REMARK H PARENT
REMARK Flexibility Score: inf
ROOT
ATOM      1  C   UNL     1     -30.884   7.038   5.367  1.00  0.00     0.052 C 
ENDROOT
BRANCH   1   2
ATOM      2  C   UNL     1     -29.667   6.573   6.102  1.00  0.00     0.041 C 
ATOM      3  O   UNL     1     -28.555   6.514   5.514  1.00  0.00    -0.550 OA
ATOM      4  O   UNL     1     -29.769   6.157   7.424  1.00  0.00    -0.550 OA
ENDBRANCH   1   2
BRANCH   1   5
ATOM      5  C   UNL     1     -31.035   6.277   4.047  1.00  0.00     0.003 C 
ATOM      6  C   UNL     1     -32.503   6.151   3.650  1.00  0.00     0.004 C 
ENDBRANCH   1   5
TORSDOF 2
ENDMDL
MODEL 5
REMARK VINA RESULT:    -3.058     17.009     17.824
REMARK INTER + INTRA:          -3.427
REMARK INTER:                  -3.420
REMARK INTRA:                  -0.007
REMARK UNBOUND:                -0.012
REMARK SMILES CCCC(=O)[O-]
REMARK SMILES IDX 3 1 4 2 5 3 6 4 2 5 1 6
REMARK H PARENT
REMARK Flexibility Score: inf
ROOT
ATOM      1  C   UNL     1     -20.033  -6.165   1.758  1.00  0.00     0.052 C 
ENDROOT
BRANCH   1   2
ATOM      2  C   UNL     1     -21.055  -6.754   2.677  1.00  0.00     0.041 C 
ATOM      3  O   UNL     1     -21.326  -6.189   3.769  1.00  0.00    -0.550 OA
ATOM      4  O   UNL     1     -21.675  -7.954   2.351  1.00  0.00    -0.550 OA
ENDBRANCH   1   2
BRANCH   1   5
ATOM      5  C   UNL     1     -19.126  -7.261   1.193  1.00  0.00     0.003 C 
ATOM      6  C   UNL     1     -17.876  -6.666   0.551  1.00  0.00     0.004 C 
ENDBRANCH   1   5
TORSDOF 2
ENDMDL
MODEL 6
REMARK VINA RESULT:    -3.010     18.979     19.627
REMARK INTER + INTRA:          -3.374
REMARK INTER:                  -3.346
REMARK INTRA:                  -0.028
REMARK UNBOUND:                -0.012
REMARK SMILES CCCC(=O)[O-]
REMARK SMILES IDX 3 1 4 2 5 3 6 4 2 5 1 6
REMARK H PARENT
REMARK Flexibility Score: inf
ROOT
ATOM      1  C   UNL     1     -27.296 -12.125  11.368  1.00  0.00     0.052 C 
ENDROOT
BRANCH   1   2
ATOM      2  C   UNL     1     -28.282 -11.174  11.968  1.00  0.00     0.041 C 
ATOM      3  O   UNL     1     -28.773 -11.403  13.105  1.00  0.00    -0.550 OA
ATOM      4  O   UNL     1     -28.698 -10.060  11.251  1.00  0.00    -0.550 OA
ENDBRANCH   1   2
BRANCH   1   5
ATOM      5  C   UNL     1     -25.875 -11.781  11.823  1.00  0.00     0.003 C 
ATOM      6  C   UNL     1     -25.023 -11.299  10.653  1.00  0.00     0.004 C 
ENDBRANCH   1   5
TORSDOF 2
ENDMDL
MODEL 7
REMARK VINA RESULT:    -2.872     17.752     17.906
REMARK INTER + INTRA:          -3.219
REMARK INTER:                  -3.208
REMARK INTRA:                  -0.011
REMARK UNBOUND:                -0.012
REMARK SMILES CCCC(=O)[O-]
REMARK SMILES IDX 3 1 4 2 5 3 6 4 2 5 1 6
REMARK H PARENT
REMARK Flexibility Score: inf
ROOT
ATOM      1  C   UNL     1     -32.121 -10.971   4.028  1.00  0.00     0.052 C 
ENDROOT
BRANCH   1   2
ATOM      2  C   UNL     1     -33.224 -11.519   3.179  1.00  0.00     0.041 C 
ATOM      3  O   UNL     1     -34.365 -11.718   3.673  1.00  0.00    -0.550 OA
ATOM      4  O   UNL     1     -32.979 -11.856   1.853  1.00  0.00    -0.550 OA
ENDBRANCH   1   2
BRANCH   1   5
ATOM      5  C   UNL     1     -30.790 -11.018   3.273  1.00  0.00     0.003 C 
ATOM      6  C   UNL     1     -29.608 -10.946   4.235  1.00  0.00     0.004 C 
ENDBRANCH   1   5
TORSDOF 2
ENDMDL
MODEL 8
REMARK VINA RESULT:    -2.851     17.768     17.942
REMARK INTER + INTRA:          -3.195
REMARK INTER:                  -3.183
REMARK INTRA:                  -0.012
REMARK UNBOUND:                -0.012
REMARK SMILES CCCC(=O)[O-]
REMARK SMILES IDX 3 1 4 2 5 3 6 4 2 5 1 6
REMARK H PARENT
REMARK Flexibility Score: inf
ROOT
ATOM      1  C   UNL     1     -32.219 -11.031   4.005  1.00  0.00     0.052 C 
ENDROOT
BRANCH   1   2
ATOM      2  C   UNL     1     -33.306 -11.546   3.117  1.00  0.00     0.041 C 
ATOM      3  O   UNL     1     -33.084 -11.747   1.894  1.00  0.00    -0.550 OA
ATOM      4  O   UNL     1     -34.580 -11.760   3.629  1.00  0.00    -0.550 OA
ENDBRANCH   1   2
BRANCH   1   5
ATOM      5  C   UNL     1     -30.867 -11.093   3.289  1.00  0.00     0.003 C 
ATOM      6  C   UNL     1     -29.714 -10.925   4.274  1.00  0.00     0.004 C 
ENDBRANCH   1   5
TORSDOF 2
ENDMDL
