MODEL 1
REMARK VINA RESULT:    -6.272      0.000      0.000
REMARK INTER + INTRA:         -16.242
REMARK INTER:                 -13.605
REMARK INTRA:                  -2.637
REMARK UNBOUND:                -2.637
REMARK SMILES CCCCCCCCCCCCCCCCCCCCCC(=O)[O-]
REMARK SMILES IDX 12 1 11 2 10 3 9 4 8 5 7 6 6 7 5 8 4 9 3 10 2 11 1 12 13 13
REMARK SMILES IDX 14 14 15 15 16 16 17 17 18 18 19 19 20 20 21 21 22 22 23 23
REMARK SMILES IDX 24 24
REMARK H PARENT
REMARK Flexibility Score: inf
ROOT
ATOM      1  C   UNL     1       9.492  19.060  44.657  1.00  0.00     0.000 C 
ENDROOT
BRANCH   1   2
ATOM      2  C   UNL     1       8.412  19.890  45.384  1.00  0.00     0.000 C 
BRANCH   2   3
ATOM      3  C   UNL     1       8.739  21.394  45.423  1.00  0.00     0.000 C 
BRANCH   3   4
ATOM      4  C   UNL     1       7.592  22.221  46.039  1.00  0.00    -0.000 C 
BRANCH   4   5
ATOM      5  C   UNL     1       6.238  21.489  46.067  1.00  0.00    -0.000 C 
BRANCH   5   6
ATOM      6  C   UNL     1       5.070  22.284  45.439  1.00  0.00    -0.000 C 
BRANCH   6   7
ATOM      7  C   UNL     1       4.577  21.751  44.079  1.00  0.00    -0.000 C 
BRANCH   7   8
ATOM      8  C   UNL     1       5.162  20.391  43.645  1.00  0.00    -0.000 C 
BRANCH   8   9
ATOM      9  C   UNL     1       6.204  20.484  42.511  1.00  0.00    -0.000 C 
BRANCH   9  10
ATOM     10  C   UNL     1       6.232  21.874  41.856  1.00  0.00    -0.000 C 
BRANCH  10  11
ATOM     11  C   UNL     1       7.594  22.548  42.054  1.00  0.00    -0.003 C 
ATOM     12  C   UNL     1       7.444  23.900  42.747  1.00  0.00     0.004 C 
ENDBRANCH  10  11
ENDBRANCH   9  10
ENDBRANCH   8   9
ENDBRANCH   7   8
ENDBRANCH   6   7
ENDBRANCH   5   6
ENDBRANCH   4   5
ENDBRANCH   3   4
ENDBRANCH   2   3
ENDBRANCH   1   2
BRANCH   1  13
ATOM     13  C   UNL     1      10.750  18.790  45.503  1.00  0.00     0.000 C 
BRANCH  13  14
ATOM     14  C   UNL     1      11.539  17.525  45.119  1.00  0.00     0.000 C 
BRANCH  14  15
ATOM     15  C   UNL     1      12.870  17.330  45.873  1.00  0.00     0.000 C 
BRANCH  15  16
ATOM     16  C   UNL     1      12.785  16.437  47.127  1.00  0.00     0.000 C 
BRANCH  16  17
ATOM     17  C   UNL     1      14.049  16.432  48.006  1.00  0.00     0.000 C 
BRANCH  17  18
ATOM     18  C   UNL     1      14.890  15.155  47.832  1.00  0.00     0.000 C 
BRANCH  18  19
ATOM     19  C   UNL     1      15.761  15.198  46.557  1.00  0.00     0.000 C 
BRANCH  19  20
ATOM     20  C   UNL     1      15.717  13.893  45.737  1.00  0.00     0.006 C 
BRANCH  20  21
ATOM     21  C   UNL     1      14.308  13.487  45.282  1.00  0.00     0.053 C 
BRANCH  21  22
ATOM     22  C   UNL     1      13.901  14.202  44.029  1.00  0.00     0.041 C 
ATOM     23  O   UNL     1      14.774  14.627  43.227  1.00  0.00    -0.550 OA
ATOM     24  O   UNL     1      12.555  14.408  43.754  1.00  0.00    -0.550 OA
ENDBRANCH  21  22
ENDBRANCH  20  21
ENDBRANCH  19  20
ENDBRANCH  18  19
ENDBRANCH  17  18
ENDBRANCH  16  17
ENDBRANCH  15  16
ENDBRANCH  14  15
ENDBRANCH  13  14
ENDBRANCH   1  13
TORSDOF 20
ENDMDL
MODEL 2
REMARK VINA RESULT:    -6.236      1.688      2.493
REMARK INTER + INTRA:         -16.164
REMARK INTER:                 -13.366
REMARK INTRA:                  -2.798
REMARK UNBOUND:                -2.637
REMARK SMILES CCCCCCCCCCCCCCCCCCCCCC(=O)[O-]
REMARK SMILES IDX 12 1 11 2 10 3 9 4 8 5 7 6 6 7 5 8 4 9 3 10 2 11 1 12 13 13
REMARK SMILES IDX 14 14 15 15 16 16 17 17 18 18 19 19 20 20 21 21 22 22 23 23
REMARK SMILES IDX 24 24
REMARK H PARENT
REMARK Flexibility Score: inf
ROOT
ATOM      1  C   UNL     1      10.002  18.271  44.399  1.00  0.00     0.000 C 
ENDROOT
BRANCH   1   2
ATOM      2  C   UNL     1       9.015  19.443  44.213  1.00  0.00     0.000 C 
BRANCH   2   3
ATOM      3  C   UNL     1       8.474  19.988  45.548  1.00  0.00     0.000 C 
BRANCH   3   4
ATOM      4  C   UNL     1       8.569  21.525  45.628  1.00  0.00    -0.000 C 
BRANCH   4   5
ATOM      5  C   UNL     1       7.207  22.229  45.772  1.00  0.00    -0.000 C 
BRANCH   5   6
ATOM      6  C   UNL     1       6.173  21.451  46.617  1.00  0.00    -0.000 C 
BRANCH   6   7
ATOM      7  C   UNL     1       4.909  21.008  45.852  1.00  0.00    -0.000 C 
BRANCH   7   8
ATOM      8  C   UNL     1       4.912  21.299  44.337  1.00  0.00    -0.000 C 
BRANCH   8   9
ATOM      9  C   UNL     1       5.377  20.113  43.466  1.00  0.00    -0.000 C 
BRANCH   9  10
ATOM     10  C   UNL     1       5.946  20.568  42.114  1.00  0.00    -0.000 C 
BRANCH  10  11
ATOM     11  C   UNL     1       6.242  22.072  42.120  1.00  0.00    -0.003 C 
ATOM     12  C   UNL     1       7.744  22.338  42.068  1.00  0.00     0.004 C 
ENDBRANCH  10  11
ENDBRANCH   9  10
ENDBRANCH   8   9
ENDBRANCH   7   8
ENDBRANCH   6   7
ENDBRANCH   5   6
ENDBRANCH   4   5
ENDBRANCH   3   4
ENDBRANCH   2   3
ENDBRANCH   1   2
BRANCH   1  13
ATOM     13  C   UNL     1      11.074  18.519  45.477  1.00  0.00     0.000 C 
BRANCH  13  14
ATOM     14  C   UNL     1      12.150  17.425  45.595  1.00  0.00     0.000 C 
BRANCH  14  15
ATOM     15  C   UNL     1      11.791  16.080  44.931  1.00  0.00     0.000 C 
BRANCH  15  16
ATOM     16  C   UNL     1      12.948  15.393  44.180  1.00  0.00     0.000 C 
BRANCH  16  17
ATOM     17  C   UNL     1      14.221  16.247  44.029  1.00  0.00     0.000 C 
BRANCH  17  18
ATOM     18  C   UNL     1      15.498  15.487  44.427  1.00  0.00     0.000 C 
BRANCH  18  19
ATOM     19  C   UNL     1      15.187  14.103  45.040  1.00  0.00     0.000 C 
BRANCH  19  20
ATOM     20  C   UNL     1      15.510  14.010  46.544  1.00  0.00     0.006 C 
BRANCH  20  21
ATOM     21  C   UNL     1      15.245  15.306  47.324  1.00  0.00     0.053 C 
BRANCH  21  22
ATOM     22  C   UNL     1      13.921  15.271  48.025  1.00  0.00     0.041 C 
ATOM     23  O   UNL     1      13.623  16.161  48.866  1.00  0.00    -0.550 OA
ATOM     24  O   UNL     1      13.019  14.250  47.757  1.00  0.00    -0.550 OA
ENDBRANCH  21  22
ENDBRANCH  20  21
ENDBRANCH  19  20
ENDBRANCH  18  19
ENDBRANCH  17  18
ENDBRANCH  16  17
ENDBRANCH  15  16
ENDBRANCH  14  15
ENDBRANCH  13  14
ENDBRANCH   1  13
TORSDOF 20
ENDMDL
MODEL 3
REMARK VINA RESULT:    -6.219      1.681      3.641
REMARK INTER + INTRA:         -16.127
REMARK INTER:                 -13.283
REMARK INTRA:                  -2.845
REMARK UNBOUND:                -2.637
REMARK SMILES CCCCCCCCCCCCCCCCCCCCCC(=O)[O-]
REMARK SMILES IDX 12 1 11 2 10 3 9 4 8 5 7 6 6 7 5 8 4 9 3 10 2 11 1 12 13 13
REMARK SMILES IDX 14 14 15 15 16 16 17 17 18 18 19 19 20 20 21 21 22 22 23 23
REMARK SMILES IDX 24 24
REMARK H PARENT
REMARK Flexibility Score: inf
ROOT
ATOM      1  C   UNL     1       7.786  19.354  44.450  1.00  0.00     0.000 C 
ENDROOT
BRANCH   1   2
ATOM      2  C   UNL     1       7.969  20.249  43.207  1.00  0.00     0.000 C 
BRANCH   2   3
ATOM      3  C   UNL     1       6.659  20.920  42.754  1.00  0.00     0.000 C 
BRANCH   3   4
ATOM      4  C   UNL     1       6.916  22.228  41.979  1.00  0.00    -0.000 C 
BRANCH   4   5
ATOM      5  C   UNL     1       8.077  23.071  42.538  1.00  0.00    -0.000 C 
BRANCH   5   6
ATOM      6  C   UNL     1       7.695  23.962  43.742  1.00  0.00    -0.000 C 
BRANCH   6   7
ATOM      7  C   UNL     1       8.628  23.839  44.964  1.00  0.00    -0.000 C 
BRANCH   7   8
ATOM      8  C   UNL     1       7.972  23.302  46.253  1.00  0.00    -0.000 C 
BRANCH   8   9
ATOM      9  C   UNL     1       6.429  23.314  46.228  1.00  0.00    -0.000 C 
BRANCH   9  10
ATOM     10  C   UNL     1       5.832  21.904  46.358  1.00  0.00    -0.000 C 
BRANCH  10  11
ATOM     11  C   UNL     1       4.534  21.782  45.552  1.00  0.00    -0.003 C 
ATOM     12  C   UNL     1       4.250  23.059  44.766  1.00  0.00     0.004 C 
ENDBRANCH  10  11
ENDBRANCH   9  10
ENDBRANCH   8   9
ENDBRANCH   7   8
ENDBRANCH   6   7
ENDBRANCH   5   6
ENDBRANCH   4   5
ENDBRANCH   3   4
ENDBRANCH   2   3
ENDBRANCH   1   2
BRANCH   1  13
ATOM     13  C   UNL     1       8.616  19.798  45.670  1.00  0.00     0.000 C 
BRANCH  13  14
ATOM     14  C   UNL     1      10.121  19.984  45.404  1.00  0.00     0.000 C 
BRANCH  14  15
ATOM     15  C   UNL     1      11.007  18.782  45.789  1.00  0.00     0.000 C 
BRANCH  15  16
ATOM     16  C   UNL     1      11.112  17.680  44.717  1.00  0.00     0.000 C 
BRANCH  16  17
ATOM     17  C   UNL     1      11.910  16.434  45.144  1.00  0.00     0.000 C 
BRANCH  17  18
ATOM     18  C   UNL     1      13.093  16.136  44.206  1.00  0.00     0.000 C 
BRANCH  18  19
ATOM     19  C   UNL     1      13.184  14.638  43.839  1.00  0.00     0.000 C 
BRANCH  19  20
ATOM     20  C   UNL     1      14.271  13.877  44.623  1.00  0.00     0.006 C 
BRANCH  20  21
ATOM     21  C   UNL     1      15.201  14.781  45.443  1.00  0.00     0.053 C 
BRANCH  21  22
ATOM     22  C   UNL     1      15.061  14.533  46.915  1.00  0.00     0.041 C 
ATOM     23  O   UNL     1      16.074  14.562  47.664  1.00  0.00    -0.550 OA
ATOM     24  O   UNL     1      13.812  14.261  47.458  1.00  0.00    -0.550 OA
ENDBRANCH  21  22
ENDBRANCH  20  21
ENDBRANCH  19  20
ENDBRANCH  18  19
ENDBRANCH  17  18
ENDBRANCH  16  17
ENDBRANCH  15  16
ENDBRANCH  14  15
ENDBRANCH  13  14
ENDBRANCH   1  13
TORSDOF 20
ENDMDL
MODEL 4
REMARK VINA RESULT:    -6.184      8.439     14.619
REMARK INTER + INTRA:         -16.053
REMARK INTER:                 -13.580
REMARK INTRA:                  -2.473
REMARK UNBOUND:                -2.637
REMARK SMILES CCCCCCCCCCCCCCCCCCCCCC(=O)[O-]
REMARK SMILES IDX 12 1 11 2 10 3 9 4 8 5 7 6 6 7 5 8 4 9 3 10 2 11 1 12 13 13
REMARK SMILES IDX 14 14 15 15 16 16 17 17 18 18 19 19 20 20 21 21 22 22 23 23
REMARK SMILES IDX 24 24
REMARK H PARENT
REMARK Flexibility Score: inf
ROOT
ATOM      1  C   UNL     1       3.428  26.158  42.821  1.00  0.00     0.000 C 
ENDROOT
BRANCH   1   2
ATOM      2  C   UNL     1       4.380  24.948  42.922  1.00  0.00     0.000 C 
BRANCH   2   3
ATOM      3  C   UNL     1       5.263  24.984  44.183  1.00  0.00     0.000 C 
BRANCH   3   4
ATOM      4  C   UNL     1       6.722  24.585  43.880  1.00  0.00    -0.000 C 
BRANCH   4   5
ATOM      5  C   UNL     1       7.446  23.916  45.063  1.00  0.00    -0.000 C 
BRANCH   5   6
ATOM      6  C   UNL     1       6.523  23.532  46.242  1.00  0.00    -0.000 C 
BRANCH   6   7
ATOM      7  C   UNL     1       6.240  22.023  46.381  1.00  0.00    -0.000 C 
BRANCH   7   8
ATOM      8  C   UNL     1       4.882  21.546  45.825  1.00  0.00    -0.000 C 
BRANCH   8   9
ATOM      9  C   UNL     1       4.993  20.592  44.618  1.00  0.00    -0.000 C 
BRANCH   9  10
ATOM     10  C   UNL     1       5.194  21.346  43.294  1.00  0.00    -0.000 C 
BRANCH  10  11
ATOM     11  C   UNL     1       6.293  20.692  42.450  1.00  0.00    -0.003 C 
ATOM     12  C   UNL     1       7.605  20.604  43.226  1.00  0.00     0.004 C 
ENDBRANCH  10  11
ENDBRANCH   9  10
ENDBRANCH   8   9
ENDBRANCH   7   8
ENDBRANCH   6   7
ENDBRANCH   5   6
ENDBRANCH   4   5
ENDBRANCH   3   4
ENDBRANCH   2   3
ENDBRANCH   1   2
BRANCH   1  13
ATOM     13  C   UNL     1       2.229  26.095  43.786  1.00  0.00     0.000 C 
BRANCH  13  14
ATOM     14  C   UNL     1       1.034  26.988  43.405  1.00  0.00     0.000 C 
BRANCH  14  15
ATOM     15  C   UNL     1       1.394  28.257  42.606  1.00  0.00     0.000 C 
BRANCH  15  16
ATOM     16  C   UNL     1       0.733  28.362  41.217  1.00  0.00     0.000 C 
BRANCH  16  17
ATOM     17  C   UNL     1       0.330  29.788  40.797  1.00  0.00     0.000 C 
BRANCH  17  18
ATOM     18  C   UNL     1      -0.110  30.657  41.989  1.00  0.00     0.000 C 
BRANCH  18  19
ATOM     19  C   UNL     1      -1.597  31.066  41.897  1.00  0.00     0.000 C 
BRANCH  19  20
ATOM     20  C   UNL     1      -2.431  30.632  43.118  1.00  0.00     0.006 C 
BRANCH  20  21
ATOM     21  C   UNL     1      -2.285  29.148  43.482  1.00  0.00     0.053 C 
BRANCH  21  22
ATOM     22  C   UNL     1      -1.726  28.966  44.861  1.00  0.00     0.041 C 
ATOM     23  O   UNL     1      -1.738  27.831  45.407  1.00  0.00    -0.550 OA
ATOM     24  O   UNL     1      -1.201  30.053  45.547  1.00  0.00    -0.550 OA
ENDBRANCH  21  22
ENDBRANCH  20  21
ENDBRANCH  19  20
ENDBRANCH  18  19
ENDBRANCH  17  18
ENDBRANCH  16  17
ENDBRANCH  15  16
ENDBRANCH  14  15
ENDBRANCH  13  14
ENDBRANCH   1  13
TORSDOF 20
ENDMDL
MODEL 5
REMARK VINA RESULT:    -6.182      8.646     14.984
REMARK INTER + INTRA:         -16.047
REMARK INTER:                 -13.099
REMARK INTRA:                  -2.949
REMARK UNBOUND:                -2.637
REMARK SMILES CCCCCCCCCCCCCCCCCCCCCC(=O)[O-]
REMARK SMILES IDX 12 1 11 2 10 3 9 4 8 5 7 6 6 7 5 8 4 9 3 10 2 11 1 12 13 13
REMARK SMILES IDX 14 14 15 15 16 16 17 17 18 18 19 19 20 20 21 21 22 22 23 23
REMARK SMILES IDX 24 24
REMARK H PARENT
REMARK Flexibility Score: inf
ROOT
ATOM      1  C   UNL     1       3.152  26.377  42.879  1.00  0.00     0.000 C 
ENDROOT
BRANCH   1   2
ATOM      2  C   UNL     1       4.346  25.629  43.508  1.00  0.00     0.000 C 
BRANCH   2   3
ATOM      3  C   UNL     1       3.915  24.432  44.375  1.00  0.00     0.000 C 
BRANCH   3   4
ATOM      4  C   UNL     1       4.287  23.083  43.727  1.00  0.00    -0.000 C 
BRANCH   4   5
ATOM      5  C   UNL     1       5.142  23.215  42.454  1.00  0.00    -0.000 C 
BRANCH   5   6
ATOM      6  C   UNL     1       6.512  22.502  42.530  1.00  0.00    -0.000 C 
BRANCH   6   7
ATOM      7  C   UNL     1       7.736  23.438  42.471  1.00  0.00    -0.000 C 
BRANCH   7   8
ATOM      8  C   UNL     1       8.105  24.137  43.796  1.00  0.00    -0.000 C 
BRANCH   8   9
ATOM      9  C   UNL     1       8.159  23.192  45.015  1.00  0.00    -0.000 C 
BRANCH   9  10
ATOM     10  C   UNL     1       7.184  23.614  46.125  1.00  0.00    -0.000 C 
BRANCH  10  11
ATOM     11  C   UNL     1       6.347  22.423  46.603  1.00  0.00    -0.003 C 
ATOM     12  C   UNL     1       6.812  21.124  45.948  1.00  0.00     0.004 C 
ENDBRANCH  10  11
ENDBRANCH   9  10
ENDBRANCH   8   9
ENDBRANCH   7   8
ENDBRANCH   6   7
ENDBRANCH   5   6
ENDBRANCH   4   5
ENDBRANCH   3   4
ENDBRANCH   2   3
ENDBRANCH   1   2
BRANCH   1  13
ATOM     13  C   UNL     1       1.828  26.200  43.645  1.00  0.00     0.000 C 
BRANCH  13  14
ATOM     14  C   UNL     1       0.805  27.336  43.458  1.00  0.00     0.000 C 
BRANCH  14  15
ATOM     15  C   UNL     1       1.402  28.686  43.012  1.00  0.00     0.000 C 
BRANCH  15  16
ATOM     16  C   UNL     1       0.831  29.249  41.696  1.00  0.00     0.000 C 
BRANCH  16  17
ATOM     17  C   UNL     1      -0.202  28.346  40.998  1.00  0.00     0.000 C 
BRANCH  17  18
ATOM     18  C   UNL     1      -1.527  29.072  40.707  1.00  0.00     0.000 C 
BRANCH  18  19
ATOM     19  C   UNL     1      -1.485  30.557  41.131  1.00  0.00     0.000 C 
BRANCH  19  20
ATOM     20  C   UNL     1      -2.430  30.890  42.302  1.00  0.00     0.006 C 
BRANCH  20  21
ATOM     21  C   UNL     1      -2.784  29.685  43.184  1.00  0.00     0.053 C 
BRANCH  21  22
ATOM     22  C   UNL     1      -1.947  29.639  44.426  1.00  0.00     0.041 C 
ATOM     23  O   UNL     1      -2.025  28.656  45.210  1.00  0.00    -0.550 OA
ATOM     24  O   UNL     1      -1.087  30.689  44.722  1.00  0.00    -0.550 OA
ENDBRANCH  21  22
ENDBRANCH  20  21
ENDBRANCH  19  20
ENDBRANCH  18  19
ENDBRANCH  17  18
ENDBRANCH  16  17
ENDBRANCH  15  16
ENDBRANCH  14  15
ENDBRANCH  13  14
ENDBRANCH   1  13
TORSDOF 20
ENDMDL
MODEL 6
REMARK VINA RESULT:    -6.177      8.460     14.683
REMARK INTER + INTRA:         -16.036
REMARK INTER:                 -13.470
REMARK INTRA:                  -2.566
REMARK UNBOUND:                -2.637
REMARK SMILES CCCCCCCCCCCCCCCCCCCCCC(=O)[O-]
REMARK SMILES IDX 12 1 11 2 10 3 9 4 8 5 7 6 6 7 5 8 4 9 3 10 2 11 1 12 13 13
REMARK SMILES IDX 14 14 15 15 16 16 17 17 18 18 19 19 20 20 21 21 22 22 23 23
REMARK SMILES IDX 24 24
REMARK H PARENT
REMARK Flexibility Score: inf
ROOT
ATOM      1  C   UNL     1       2.484  25.431  43.951  1.00  0.00     0.000 C 
ENDROOT
BRANCH   1   2
ATOM      2  C   UNL     1       3.566  24.331  43.976  1.00  0.00     0.000 C 
BRANCH   2   3
ATOM      3  C   UNL     1       4.981  24.888  44.220  1.00  0.00     0.000 C 
BRANCH   3   4
ATOM      4  C   UNL     1       6.046  24.153  43.381  1.00  0.00    -0.000 C 
BRANCH   4   5
ATOM      5  C   UNL     1       7.488  24.355  43.883  1.00  0.00    -0.000 C 
BRANCH   5   6
ATOM      6  C   UNL     1       8.113  23.107  44.548  1.00  0.00    -0.000 C 
BRANCH   6   7
ATOM      7  C   UNL     1       8.030  23.081  46.087  1.00  0.00    -0.000 C 
BRANCH   7   8
ATOM      8  C   UNL     1       6.637  22.776  46.675  1.00  0.00    -0.000 C 
BRANCH   8   9
ATOM      9  C   UNL     1       6.126  21.350  46.385  1.00  0.00    -0.000 C 
BRANCH   9  10
ATOM     10  C   UNL     1       4.702  21.344  45.809  1.00  0.00    -0.000 C 
BRANCH  10  11
ATOM     11  C   UNL     1       4.691  20.803  44.376  1.00  0.00    -0.003 C 
ATOM     12  C   UNL     1       6.034  20.174  44.013  1.00  0.00     0.004 C 
ENDBRANCH  10  11
ENDBRANCH   9  10
ENDBRANCH   8   9
ENDBRANCH   7   8
ENDBRANCH   6   7
ENDBRANCH   5   6
ENDBRANCH   4   5
ENDBRANCH   3   4
ENDBRANCH   2   3
ENDBRANCH   1   2
BRANCH   1  13
ATOM     13  C   UNL     1       2.749  26.547  42.923  1.00  0.00     0.000 C 
BRANCH  13  14
ATOM     14  C   UNL     1       1.710  27.684  42.908  1.00  0.00     0.000 C 
BRANCH  14  15
ATOM     15  C   UNL     1       0.238  27.224  42.919  1.00  0.00     0.000 C 
BRANCH  15  16
ATOM     16  C   UNL     1      -0.696  28.050  43.825  1.00  0.00     0.000 C 
BRANCH  16  17
ATOM     17  C   UNL     1      -0.103  29.378  44.329  1.00  0.00     0.000 C 
BRANCH  17  18
ATOM     18  C   UNL     1      -0.951  30.598  43.929  1.00  0.00     0.000 C 
BRANCH  18  19
ATOM     19  C   UNL     1      -2.262  30.192  43.220  1.00  0.00     0.000 C 
BRANCH  19  20
ATOM     20  C   UNL     1      -2.280  30.535  41.718  1.00  0.00     0.006 C 
BRANCH  20  21
ATOM     21  C   UNL     1      -0.961  31.118  41.191  1.00  0.00     0.053 C 
BRANCH  21  22
ATOM     22  C   UNL     1      -0.169  30.101  40.428  1.00  0.00     0.041 C 
ATOM     23  O   UNL     1      -0.752  29.265  39.687  1.00  0.00    -0.550 OA
ATOM     24  O   UNL     1       1.215  30.070  40.542  1.00  0.00    -0.550 OA
ENDBRANCH  21  22
ENDBRANCH  20  21
ENDBRANCH  19  20
ENDBRANCH  18  19
ENDBRANCH  17  18
ENDBRANCH  16  17
ENDBRANCH  15  16
ENDBRANCH  14  15
ENDBRANCH  13  14
ENDBRANCH   1  13
TORSDOF 20
ENDMDL
MODEL 7
REMARK VINA RESULT:    -6.173      8.730     14.994
REMARK INTER + INTRA:         -16.028
REMARK INTER:                 -13.464
REMARK INTRA:                  -2.564
REMARK UNBOUND:                -2.637
REMARK SMILES CCCCCCCCCCCCCCCCCCCCCC(=O)[O-]
REMARK SMILES IDX 12 1 11 2 10 3 9 4 8 5 7 6 6 7 5 8 4 9 3 10 2 11 1 12 13 13
REMARK SMILES IDX 14 14 15 15 16 16 17 17 18 18 19 19 20 20 21 21 22 22 23 23
REMARK SMILES IDX 24 24
REMARK H PARENT
REMARK Flexibility Score: inf
ROOT
ATOM      1  C   UNL     1       2.125  25.937  43.647  1.00  0.00     0.000 C 
ENDROOT
BRANCH   1   2
ATOM      2  C   UNL     1       3.486  26.120  42.943  1.00  0.00     0.000 C 
BRANCH   2   3
ATOM      3  C   UNL     1       4.285  24.809  42.832  1.00  0.00     0.000 C 
BRANCH   3   4
ATOM      4  C   UNL     1       3.669  23.681  43.686  1.00  0.00    -0.000 C 
BRANCH   4   5
ATOM      5  C   UNL     1       4.422  23.410  45.002  1.00  0.00    -0.000 C 
BRANCH   5   6
ATOM      6  C   UNL     1       4.796  21.927  45.228  1.00  0.00    -0.000 C 
BRANCH   6   7
ATOM      7  C   UNL     1       4.684  21.030  43.979  1.00  0.00    -0.000 C 
BRANCH   7   8
ATOM      8  C   UNL     1       6.018  20.477  43.434  1.00  0.00    -0.000 C 
BRANCH   8   9
ATOM      9  C   UNL     1       7.171  21.502  43.426  1.00  0.00    -0.000 C 
BRANCH   9  10
ATOM     10  C   UNL     1       7.067  22.490  42.254  1.00  0.00    -0.000 C 
BRANCH  10  11
ATOM     11  C   UNL     1       7.956  23.716  42.489  1.00  0.00    -0.003 C 
ATOM     12  C   UNL     1       7.828  24.223  43.923  1.00  0.00     0.004 C 
ENDBRANCH  10  11
ENDBRANCH   9  10
ENDBRANCH   8   9
ENDBRANCH   7   8
ENDBRANCH   6   7
ENDBRANCH   5   6
ENDBRANCH   4   5
ENDBRANCH   3   4
ENDBRANCH   2   3
ENDBRANCH   1   2
BRANCH   1  13
ATOM     13  C   UNL     1       1.294  27.230  43.751  1.00  0.00     0.000 C 
BRANCH  13  14
ATOM     14  C   UNL     1       0.754  27.771  42.414  1.00  0.00     0.000 C 
BRANCH  14  15
ATOM     15  C   UNL     1       1.257  29.176  42.025  1.00  0.00     0.000 C 
BRANCH  15  16
ATOM     16  C   UNL     1       0.913  29.618  40.589  1.00  0.00     0.000 C 
BRANCH  16  17
ATOM     17  C   UNL     1      -0.570  29.957  40.354  1.00  0.00     0.000 C 
BRANCH  17  18
ATOM     18  C   UNL     1      -1.006  31.248  41.068  1.00  0.00     0.000 C 
BRANCH  18  19
ATOM     19  C   UNL     1      -2.291  31.050  41.903  1.00  0.00     0.000 C 
BRANCH  19  20
ATOM     20  C   UNL     1      -2.426  29.634  42.496  1.00  0.00     0.006 C 
BRANCH  20  21
ATOM     21  C   UNL     1      -2.845  29.610  43.972  1.00  0.00     0.053 C 
BRANCH  21  22
ATOM     22  C   UNL     1      -1.682  29.332  44.876  1.00  0.00     0.041 C 
ATOM     23  O   UNL     1      -0.745  30.167  44.981  1.00  0.00    -0.550 OA
ATOM     24  O   UNL     1      -1.630  28.145  45.595  1.00  0.00    -0.550 OA
ENDBRANCH  21  22
ENDBRANCH  20  21
ENDBRANCH  19  20
ENDBRANCH  18  19
ENDBRANCH  17  18
ENDBRANCH  16  17
ENDBRANCH  15  16
ENDBRANCH  14  15
ENDBRANCH  13  14
ENDBRANCH   1  13
TORSDOF 20
ENDMDL
MODEL 8
REMARK VINA RESULT:    -6.157      8.645     14.713
REMARK INTER + INTRA:         -15.993
REMARK INTER:                 -13.254
REMARK INTRA:                  -2.739
REMARK UNBOUND:                -2.637
REMARK SMILES CCCCCCCCCCCCCCCCCCCCCC(=O)[O-]
REMARK SMILES IDX 12 1 11 2 10 3 9 4 8 5 7 6 6 7 5 8 4 9 3 10 2 11 1 12 13 13
REMARK SMILES IDX 14 14 15 15 16 16 17 17 18 18 19 19 20 20 21 21 22 22 23 23
REMARK SMILES IDX 24 24
REMARK H PARENT
REMARK Flexibility Score: inf
ROOT
ATOM      1  C   UNL     1       3.382  26.116  43.093  1.00  0.00     0.000 C 
ENDROOT
BRANCH   1   2
ATOM      2  C   UNL     1       4.430  25.132  43.653  1.00  0.00     0.000 C 
BRANCH   2   3
ATOM      3  C   UNL     1       3.796  23.883  44.294  1.00  0.00     0.000 C 
BRANCH   3   4
ATOM      4  C   UNL     1       4.821  23.066  45.106  1.00  0.00    -0.000 C 
BRANCH   4   5
ATOM      5  C   UNL     1       5.931  23.916  45.750  1.00  0.00    -0.000 C 
BRANCH   5   6
ATOM      6  C   UNL     1       7.248  23.150  46.014  1.00  0.00    -0.000 C 
BRANCH   6   7
ATOM      7  C   UNL     1       8.402  23.490  45.049  1.00  0.00    -0.000 C 
BRANCH   7   8
ATOM      8  C   UNL     1       8.045  24.452  43.896  1.00  0.00    -0.000 C 
BRANCH   8   9
ATOM      9  C   UNL     1       7.909  23.767  42.521  1.00  0.00    -0.000 C 
BRANCH   9  10
ATOM     10  C   UNL     1       8.251  22.270  42.576  1.00  0.00    -0.000 C 
BRANCH  10  11
ATOM     11  C   UNL     1       6.981  21.414  42.541  1.00  0.00    -0.003 C 
ATOM     12  C   UNL     1       5.876  22.099  41.741  1.00  0.00     0.004 C 
ENDBRANCH  10  11
ENDBRANCH   9  10
ENDBRANCH   8   9
ENDBRANCH   7   8
ENDBRANCH   6   7
ENDBRANCH   5   6
ENDBRANCH   4   5
ENDBRANCH   3   4
ENDBRANCH   2   3
ENDBRANCH   1   2
BRANCH   1  13
ATOM     13  C   UNL     1       1.999  26.009  43.763  1.00  0.00     0.000 C 
BRANCH  13  14
ATOM     14  C   UNL     1       0.981  27.084  43.341  1.00  0.00     0.000 C 
BRANCH  14  15
ATOM     15  C   UNL     1       1.595  28.425  42.889  1.00  0.00     0.000 C 
BRANCH  15  16
ATOM     16  C   UNL     1       0.842  29.135  41.746  1.00  0.00     0.000 C 
BRANCH  16  17
ATOM     17  C   UNL     1      -0.280  28.306  41.096  1.00  0.00     0.000 C 
BRANCH  17  18
ATOM     18  C   UNL     1      -1.619  29.062  41.035  1.00  0.00     0.000 C 
BRANCH  18  19
ATOM     19  C   UNL     1      -1.507  30.496  41.599  1.00  0.00     0.000 C 
BRANCH  19  20
ATOM     20  C   UNL     1      -2.423  30.753  42.811  1.00  0.00     0.006 C 
BRANCH  20  21
ATOM     21  C   UNL     1      -2.740  29.497  43.636  1.00  0.00     0.053 C 
BRANCH  21  22
ATOM     22  C   UNL     1      -1.760  29.305  44.754  1.00  0.00     0.041 C 
ATOM     23  O   UNL     1      -1.726  28.217  45.389  1.00  0.00    -0.550 OA
ATOM     24  O   UNL     1      -0.890  30.331  45.099  1.00  0.00    -0.550 OA
ENDBRANCH  21  22
ENDBRANCH  20  21
ENDBRANCH  19  20
ENDBRANCH  18  19
ENDBRANCH  17  18
ENDBRANCH  16  17
ENDBRANCH  15  16
ENDBRANCH  14  15
ENDBRANCH  13  14
ENDBRANCH   1  13
TORSDOF 20
ENDMDL
MODEL 9
REMARK VINA RESULT:    -6.146      8.274     14.292
REMARK INTER + INTRA:         -15.970
REMARK INTER:                 -13.094
REMARK INTRA:                  -2.876
REMARK UNBOUND:                -2.637
REMARK SMILES CCCCCCCCCCCCCCCCCCCCCC(=O)[O-]
REMARK SMILES IDX 12 1 11 2 10 3 9 4 8 5 7 6 6 7 5 8 4 9 3 10 2 11 1 12 13 13
REMARK SMILES IDX 14 14 15 15 16 16 17 17 18 18 19 19 20 20 21 21 22 22 23 23
REMARK SMILES IDX 24 24
REMARK H PARENT
REMARK Flexibility Score: inf
ROOT
ATOM      1  C   UNL     1       3.314  24.334  44.148  1.00  0.00     0.000 C 
ENDROOT
BRANCH   1   2
ATOM      2  C   UNL     1       4.667  24.843  44.686  1.00  0.00     0.000 C 
BRANCH   2   3
ATOM      3  C   UNL     1       5.818  24.667  43.678  1.00  0.00     0.000 C 
BRANCH   3   4
ATOM      4  C   UNL     1       5.475  23.638  42.581  1.00  0.00    -0.000 C 
BRANCH   4   5
ATOM      5  C   UNL     1       6.499  22.495  42.453  1.00  0.00    -0.000 C 
BRANCH   5   6
ATOM      6  C   UNL     1       5.870  21.095  42.269  1.00  0.00    -0.000 C 
BRANCH   6   7
ATOM      7  C   UNL     1       5.712  20.277  43.567  1.00  0.00    -0.000 C 
BRANCH   7   8
ATOM      8  C   UNL     1       4.473  20.616  44.422  1.00  0.00    -0.000 C 
BRANCH   8   9
ATOM      9  C   UNL     1       4.801  21.272  45.779  1.00  0.00    -0.000 C 
BRANCH   9  10
ATOM     10  C   UNL     1       6.276  21.095  46.172  1.00  0.00    -0.000 C 
BRANCH  10  11
ATOM     11  C   UNL     1       6.992  22.448  46.239  1.00  0.00    -0.003 C 
ATOM     12  C   UNL     1       8.431  22.335  45.741  1.00  0.00     0.004 C 
ENDBRANCH  10  11
ENDBRANCH   9  10
ENDBRANCH   8   9
ENDBRANCH   7   8
ENDBRANCH   6   7
ENDBRANCH   5   6
ENDBRANCH   4   5
ENDBRANCH   3   4
ENDBRANCH   2   3
ENDBRANCH   1   2
BRANCH   1  13
ATOM     13  C   UNL     1       2.244  25.433  44.002  1.00  0.00     0.000 C 
BRANCH  13  14
ATOM     14  C   UNL     1       2.570  26.532  42.975  1.00  0.00     0.000 C 
BRANCH  14  15
ATOM     15  C   UNL     1       1.668  27.781  43.045  1.00  0.00     0.000 C 
BRANCH  15  16
ATOM     16  C   UNL     1       0.291  27.555  43.699  1.00  0.00     0.000 C 
BRANCH  16  17
ATOM     17  C   UNL     1       0.046  28.358  44.990  1.00  0.00     0.000 C 
BRANCH  17  18
ATOM     18  C   UNL     1      -1.224  29.224  44.920  1.00  0.00     0.000 C 
BRANCH  18  19
ATOM     19  C   UNL     1      -0.928  30.655  44.418  1.00  0.00     0.000 C 
BRANCH  19  20
ATOM     20  C   UNL     1      -1.607  30.988  43.074  1.00  0.00     0.006 C 
BRANCH  20  21
ATOM     21  C   UNL     1      -0.652  30.984  41.872  1.00  0.00     0.053 C 
BRANCH  21  22
ATOM     22  C   UNL     1      -0.910  29.822  40.961  1.00  0.00     0.041 C 
ATOM     23  O   UNL     1      -1.944  29.117  41.106  1.00  0.00    -0.550 OA
ATOM     24  O   UNL     1      -0.003  29.513  39.955  1.00  0.00    -0.550 OA
ENDBRANCH  21  22
ENDBRANCH  20  21
ENDBRANCH  19  20
ENDBRANCH  18  19
ENDBRANCH  17  18
ENDBRANCH  16  17
ENDBRANCH  15  16
ENDBRANCH  14  15
ENDBRANCH  13  14
ENDBRANCH   1  13
TORSDOF 20
ENDMDL
