MODEL 1
REMARK VINA RESULT:    -3.301      0.000      0.000
REMARK INTER + INTRA:          -4.130
REMARK INTER:                  -3.784
REMARK INTRA:                  -0.346
REMARK UNBOUND:                -0.346
REMARK SMILES COC(=O)c1ccccc1O
REMARK SMILES IDX 5 1 6 2 7 3 8 4 9 5 10 6 3 7 4 8 2 9 1 10 11 11
REMARK H PARENT 11 12
REMARK Flexibility Score: inf
ROOT
ATOM      1  C   UNL     1     136.995 147.161 144.243  1.00  0.00     0.101 A 
ATOM      2  C   UNL     1     136.010 147.454 145.204  1.00  0.00     0.019 A 
ATOM      3  C   UNL     1     135.884 148.743 145.726  1.00  0.00     0.001 A 
ATOM      4  C   UNL     1     136.739 149.758 145.295  1.00  0.00     0.004 A 
ATOM      5  C   UNL     1     137.708 149.490 144.327  1.00  0.00     0.047 A 
ATOM      6  C   UNL     1     137.834 148.207 143.778  1.00  0.00     0.130 A 
ENDROOT
BRANCH   1   7
ATOM      7  C   UNL     1     137.131 145.761 143.784  1.00  0.00     0.341 C 
ATOM      8  O   UNL     1     136.118 145.109 143.412  1.00  0.00    -0.246 OA
BRANCH   7   9
ATOM      9  O   UNL     1     138.403 145.183 143.707  1.00  0.00    -0.465 OA
ATOM     10  C   UNL     1     139.148 144.813 144.860  1.00  0.00     0.282 C 
ENDBRANCH   7   9
ENDBRANCH   1   7
BRANCH   6  11
ATOM     11  O   UNL     1     138.771 148.026 142.759  1.00  0.00    -0.507 OA
ATOM     12  H   UNL     1     139.277 148.784 142.324  1.00  0.00     0.293 HD
ENDBRANCH   6  11
TORSDOF 3
ENDMDL
MODEL 2
REMARK VINA RESULT:    -3.297      8.879     10.734
REMARK INTER + INTRA:          -4.125
REMARK INTER:                  -3.788
REMARK INTRA:                  -0.338
REMARK UNBOUND:                -0.346
REMARK SMILES COC(=O)c1ccccc1O
REMARK SMILES IDX 5 1 6 2 7 3 8 4 9 5 10 6 3 7 4 8 2 9 1 10 11 11
REMARK H PARENT 11 12
REMARK Flexibility Score: inf
ROOT
ATOM      1  C   UNL     1     134.421 136.997 144.240  1.00  0.00     0.101 A 
ATOM      2  C   UNL     1     134.104 135.993 145.173  1.00  0.00     0.019 A 
ATOM      3  C   UNL     1     132.804 135.864 145.667  1.00  0.00     0.001 A 
ATOM      4  C   UNL     1     131.803 136.734 145.235  1.00  0.00     0.004 A 
ATOM      5  C   UNL     1     132.095 137.722 144.294  1.00  0.00     0.047 A 
ATOM      6  C   UNL     1     133.389 137.852 143.773  1.00  0.00     0.130 A 
ENDROOT
BRANCH   1   7
ATOM      7  C   UNL     1     135.831 137.134 143.810  1.00  0.00     0.341 C 
ATOM      8  O   UNL     1     136.505 136.116 143.496  1.00  0.00    -0.246 OA
BRANCH   7   9
ATOM      9  O   UNL     1     136.394 138.410 143.698  1.00  0.00    -0.465 OA
ATOM     10  C   UNL     1     136.952 139.103 144.806  1.00  0.00     0.282 C 
ENDBRANCH   7   9
ENDBRANCH   1   7
BRANCH   6  11
ATOM     11  O   UNL     1     133.596 138.810 142.778  1.00  0.00    -0.507 OA
ATOM     12  H   UNL     1     133.825 139.775 142.971  1.00  0.00     0.293 HD
ENDBRANCH   6  11
TORSDOF 3
ENDMDL
MODEL 3
REMARK VINA RESULT:    -3.274      8.787     10.741
REMARK INTER + INTRA:          -4.098
REMARK INTER:                  -3.763
REMARK INTRA:                  -0.335
REMARK UNBOUND:                -0.346
REMARK SMILES COC(=O)c1ccccc1O
REMARK SMILES IDX 5 1 6 2 7 3 8 4 9 5 10 6 3 7 4 8 2 9 1 10 11 11
REMARK H PARENT 11 12
REMARK Flexibility Score: inf
ROOT
ATOM      1  C   UNL     1     147.180 144.611 144.301  1.00  0.00     0.101 A 
ATOM      2  C   UNL     1     147.496 145.598 145.252  1.00  0.00     0.019 A 
ATOM      3  C   UNL     1     148.796 145.718 145.750  1.00  0.00     0.001 A 
ATOM      4  C   UNL     1     149.797 144.854 145.305  1.00  0.00     0.004 A 
ATOM      5  C   UNL     1     149.506 143.883 144.347  1.00  0.00     0.047 A 
ATOM      6  C   UNL     1     148.213 143.763 143.821  1.00  0.00     0.130 A 
ENDROOT
BRANCH   1   7
ATOM      7  C   UNL     1     145.771 144.482 143.867  1.00  0.00     0.341 C 
ATOM      8  O   UNL     1     145.099 145.505 143.566  1.00  0.00    -0.246 OA
BRANCH   7   9
ATOM      9  O   UNL     1     145.206 143.209 143.735  1.00  0.00    -0.465 OA
ATOM     10  C   UNL     1     144.622 142.511 144.828  1.00  0.00     0.282 C 
ENDBRANCH   7   9
ENDBRANCH   1   7
BRANCH   6  11
ATOM     11  O   UNL     1     148.007 142.822 142.810  1.00  0.00    -0.507 OA
ATOM     12  H   UNL     1     147.254 142.879 142.139  1.00  0.00     0.293 HD
ENDBRANCH   6  11
TORSDOF 3
ENDMDL
MODEL 4
REMARK VINA RESULT:    -3.269     14.229     15.817
REMARK INTER + INTRA:          -4.093
REMARK INTER:                  -3.814
REMARK INTRA:                  -0.279
REMARK UNBOUND:                -0.346
REMARK SMILES COC(=O)c1ccccc1O
REMARK SMILES IDX 5 1 6 2 7 3 8 4 9 5 10 6 3 7 4 8 2 9 1 10 11 11
REMARK H PARENT 11 12
REMARK Flexibility Score: inf
ROOT
ATOM      1  C   UNL     1     143.884 132.805 145.061  1.00  0.00     0.101 A 
ATOM      2  C   UNL     1     143.699 132.861 146.455  1.00  0.00     0.019 A 
ATOM      3  C   UNL     1     142.649 133.598 147.005  1.00  0.00     0.001 A 
ATOM      4  C   UNL     1     141.768 134.289 146.173  1.00  0.00     0.004 A 
ATOM      5  C   UNL     1     141.923 134.228 144.788  1.00  0.00     0.047 A 
ATOM      6  C   UNL     1     142.959 133.476 144.218  1.00  0.00     0.130 A 
ENDROOT
BRANCH   1   7
ATOM      7  C   UNL     1     145.058 132.072 144.539  1.00  0.00     0.341 C 
ATOM      8  O   UNL     1     145.266 130.875 144.877  1.00  0.00    -0.246 OA
BRANCH   7   9
ATOM      9  O   UNL     1     145.905 132.697 143.617  1.00  0.00    -0.465 OA
ATOM     10  C   UNL     1     147.239 133.072 143.933  1.00  0.00     0.282 C 
ENDBRANCH   7   9
ENDBRANCH   1   7
BRANCH   6  11
ATOM     11  O   UNL     1     143.012 133.394 142.825  1.00  0.00    -0.507 OA
ATOM     12  H   UNL     1     142.721 132.579 142.302  1.00  0.00     0.293 HD
ENDBRANCH   6  11
TORSDOF 3
ENDMDL
MODEL 5
REMARK VINA RESULT:    -3.260     12.018     15.203
REMARK INTER + INTRA:          -4.083
REMARK INTER:                  -3.749
REMARK INTRA:                  -0.334
REMARK UNBOUND:                -0.346
REMARK SMILES COC(=O)c1ccccc1O
REMARK SMILES IDX 5 1 6 2 7 3 8 4 9 5 10 6 3 7 4 8 2 9 1 10 11 11
REMARK H PARENT 11 12
REMARK Flexibility Score: inf
ROOT
ATOM      1  C   UNL     1     144.634 134.427 144.298  1.00  0.00     0.101 A 
ATOM      2  C   UNL     1     145.641 134.110 145.227  1.00  0.00     0.019 A 
ATOM      3  C   UNL     1     145.799 132.801 145.689  1.00  0.00     0.001 A 
ATOM      4  C   UNL     1     144.953 131.791 145.228  1.00  0.00     0.004 A 
ATOM      5  C   UNL     1     143.963 132.083 144.290  1.00  0.00     0.047 A 
ATOM      6  C   UNL     1     143.805 133.387 143.801  1.00  0.00     0.130 A 
ENDROOT
BRANCH   1   7
ATOM      7  C   UNL     1     144.465 135.843 143.903  1.00  0.00     0.341 C 
ATOM      8  O   UNL     1     145.471 136.559 143.646  1.00  0.00    -0.246 OA
BRANCH   7   9
ATOM      9  O   UNL     1     143.176 136.368 143.758  1.00  0.00    -0.465 OA
ATOM     10  C   UNL     1     142.461 136.954 144.838  1.00  0.00     0.282 C 
ENDBRANCH   7   9
ENDBRANCH   1   7
BRANCH   6  11
ATOM     11  O   UNL     1     142.846 133.596 142.808  1.00  0.00    -0.507 OA
ATOM     12  H   UNL     1     142.719 134.478 142.331  1.00  0.00     0.293 HD
ENDBRANCH   6  11
TORSDOF 3
ENDMDL
MODEL 6
REMARK VINA RESULT:    -3.256      2.457      3.788
REMARK INTER + INTRA:          -4.078
REMARK INTER:                  -3.805
REMARK INTRA:                  -0.274
REMARK UNBOUND:                -0.346
REMARK SMILES COC(=O)c1ccccc1O
REMARK SMILES IDX 5 1 6 2 7 3 8 4 9 5 10 6 3 7 4 8 2 9 1 10 11 11
REMARK H PARENT 11 12
REMARK Flexibility Score: inf
ROOT
ATOM      1  C   UNL     1     137.818 148.619 145.049  1.00  0.00     0.101 A 
ATOM      2  C   UNL     1     137.999 148.625 146.444  1.00  0.00     0.019 A 
ATOM      3  C   UNL     1     139.038 147.899 147.032  1.00  0.00     0.001 A 
ATOM      4  C   UNL     1     139.910 147.158 146.235  1.00  0.00     0.004 A 
ATOM      5  C   UNL     1     139.758 147.157 144.848  1.00  0.00     0.047 A 
ATOM      6  C   UNL     1     138.735 147.897 144.241  1.00  0.00     0.130 A 
ENDROOT
BRANCH   1   7
ATOM      7  C   UNL     1     136.656 149.344 144.490  1.00  0.00     0.341 C 
ATOM      8  O   UNL     1     136.430 150.540 144.820  1.00  0.00    -0.246 OA
BRANCH   7   9
ATOM      9  O   UNL     1     135.841 148.712 143.544  1.00  0.00    -0.465 OA
ATOM     10  C   UNL     1     134.482 149.074 143.338  1.00  0.00     0.282 C 
ENDBRANCH   7   9
ENDBRANCH   1   7
BRANCH   6  11
ATOM     11  O   UNL     1     138.686 147.914 142.845  1.00  0.00    -0.507 OA
ATOM     12  H   UNL     1     138.354 148.703 142.308  1.00  0.00     0.293 HD
ENDBRANCH   6  11
TORSDOF 3
ENDMDL
MODEL 7
REMARK VINA RESULT:    -3.254     11.227     12.296
REMARK INTER + INTRA:          -4.076
REMARK INTER:                  -3.797
REMARK INTRA:                  -0.279
REMARK UNBOUND:                -0.346
REMARK SMILES COC(=O)c1ccccc1O
REMARK SMILES IDX 5 1 6 2 7 3 8 4 9 5 10 6 3 7 4 8 2 9 1 10 11 11
REMARK H PARENT 11 12
REMARK Flexibility Score: inf
ROOT
ATOM      1  C   UNL     1     148.791 143.879 145.077  1.00  0.00     0.101 A 
ATOM      2  C   UNL     1     148.768 143.699 146.472  1.00  0.00     0.019 A 
ATOM      3  C   UNL     1     148.044 142.651 147.044  1.00  0.00     0.001 A 
ATOM      4  C   UNL     1     147.334 141.767 146.232  1.00  0.00     0.004 A 
ATOM      5  C   UNL     1     147.363 141.917 144.845  1.00  0.00     0.047 A 
ATOM      6  C   UNL     1     148.101 142.951 144.254  1.00  0.00     0.130 A 
ENDROOT
BRANCH   1   7
ATOM      7  C   UNL     1     149.512 145.051 144.533  1.00  0.00     0.341 C 
ATOM      8  O   UNL     1     150.720 145.254 144.832  1.00  0.00    -0.246 OA
BRANCH   7   9
ATOM      9  O   UNL     1     148.860 145.902 143.634  1.00  0.00    -0.465 OA
ATOM     10  C   UNL     1     148.468 147.225 143.977  1.00  0.00     0.282 C 
ENDBRANCH   7   9
ENDBRANCH   1   7
BRANCH   6  11
ATOM     11  O   UNL     1     148.150 142.998 142.859  1.00  0.00    -0.507 OA
ATOM     12  H   UNL     1     149.004 142.913 142.327  1.00  0.00     0.293 HD
ENDBRANCH   6  11
TORSDOF 3
ENDMDL
MODEL 8
REMARK VINA RESULT:    -3.253      8.978     10.484
REMARK INTER + INTRA:          -4.075
REMARK INTER:                  -3.783
REMARK INTRA:                  -0.292
REMARK UNBOUND:                -0.346
REMARK SMILES COC(=O)c1ccccc1O
REMARK SMILES IDX 5 1 6 2 7 3 8 4 9 5 10 6 3 7 4 8 2 9 1 10 11 11
REMARK H PARENT 11 12
REMARK Flexibility Score: inf
ROOT
ATOM      1  C   UNL     1     132.915 137.830 145.045  1.00  0.00     0.101 A 
ATOM      2  C   UNL     1     132.899 138.002 146.442  1.00  0.00     0.019 A 
ATOM      3  C   UNL     1     133.649 139.015 147.044  1.00  0.00     0.001 A 
ATOM      4  C   UNL     1     134.425 139.869 146.261  1.00  0.00     0.004 A 
ATOM      5  C   UNL     1     134.436 139.727 144.873  1.00  0.00     0.047 A 
ATOM      6  C   UNL     1     133.673 138.730 144.251  1.00  0.00     0.130 A 
ENDROOT
BRANCH   1   7
ATOM      7  C   UNL     1     132.161 136.694 144.471  1.00  0.00     0.341 C 
ATOM      8  O   UNL     1     130.960 136.492 144.799  1.00  0.00    -0.246 OA
BRANCH   7   9
ATOM      9  O   UNL     1     132.772 135.878 143.513  1.00  0.00    -0.465 OA
ATOM     10  C   UNL     1     133.128 134.526 143.771  1.00  0.00     0.282 C 
ENDBRANCH   7   9
ENDBRANCH   1   7
BRANCH   6  11
ATOM     11  O   UNL     1     133.669 138.690 142.855  1.00  0.00    -0.507 OA
ATOM     12  H   UNL     1     134.167 139.352 142.276  1.00  0.00     0.293 HD
ENDBRANCH   6  11
TORSDOF 3
ENDMDL
MODEL 9
REMARK VINA RESULT:    -3.209      2.259      2.707
REMARK INTER + INTRA:          -4.025
REMARK INTER:                  -3.778
REMARK INTRA:                  -0.246
REMARK UNBOUND:                -0.346
REMARK SMILES COC(=O)c1ccccc1O
REMARK SMILES IDX 5 1 6 2 7 3 8 4 9 5 10 6 3 7 4 8 2 9 1 10 11 11
REMARK H PARENT 11 12
REMARK Flexibility Score: inf
ROOT
ATOM      1  C   UNL     1     138.874 147.836 145.360  1.00  0.00     0.101 A 
ATOM      2  C   UNL     1     138.356 148.287 146.588  1.00  0.00     0.019 A 
ATOM      3  C   UNL     1     137.336 149.239 146.625  1.00  0.00     0.001 A 
ATOM      4  C   UNL     1     136.818 149.755 145.437  1.00  0.00     0.004 A 
ATOM      5  C   UNL     1     137.305 149.304 144.210  1.00  0.00     0.047 A 
ATOM      6  C   UNL     1     138.314 148.334 144.155  1.00  0.00     0.130 A 
ENDROOT
BRANCH   1   7
ATOM      7  C   UNL     1     140.006 146.884 145.384  1.00  0.00     0.341 C 
ATOM      8  O   UNL     1     139.872 145.719 144.919  1.00  0.00    -0.246 OA
BRANCH   7   9
ATOM      9  O   UNL     1     141.248 147.304 145.873  1.00  0.00    -0.465 OA
ATOM     10  C   UNL     1     142.405 147.396 145.051  1.00  0.00     0.282 C 
ENDBRANCH   7   9
ENDBRANCH   1   7
BRANCH   6  11
ATOM     11  O   UNL     1     138.701 147.871 142.895  1.00  0.00    -0.507 OA
ATOM     12  H   UNL     1     138.102 147.895 142.082  1.00  0.00     0.293 HD
ENDBRANCH   6  11
TORSDOF 3
ENDMDL
