MODEL 1
REMARK VINA RESULT:    -5.879      0.000      0.000
REMARK INTER + INTRA:          -6.051
REMARK INTER:                  -6.051
REMARK INTRA:                   0.000
REMARK UNBOUND:                 0.000
REMARK SMILES O=c1ccc2ccc(O)cc2o1
REMARK SMILES IDX 6 1 7 2 8 3 10 4 11 5 5 6 4 7 3 8 2 9 1 10 12 11 9 12
REMARK H PARENT 9 13
REMARK Flexibility Score: inf
ROOT
ATOM      1  C   UNL     1     -11.247  -8.362  39.737  1.00  0.00     0.016 A 
ATOM      2  C   UNL     1     -10.381  -9.259  39.104  1.00  0.00     0.047 A 
ATOM      3  C   UNL     1     -10.467  -9.470  37.723  1.00  0.00     0.119 A 
ATOM      4  C   UNL     1     -11.425  -8.778  36.968  1.00  0.00     0.094 A 
ATOM      5  C   UNL     1     -12.296  -7.879  37.593  1.00  0.00     0.142 A 
ATOM      6  C   UNL     1     -12.206  -7.669  38.988  1.00  0.00     0.018 A 
ATOM      7  C   UNL     1     -13.090  -6.764  39.584  1.00  0.00     0.019 A 
ATOM      8  C   UNL     1     -14.026  -6.099  38.793  1.00  0.00     0.094 A 
ATOM      9  C   UNL     1     -14.057  -6.357  37.417  1.00  0.00     0.336 A 
ATOM     10  O   UNL     1     -14.896  -5.767  36.687  1.00  0.00    -0.246 OA
ATOM     11  O   UNL     1     -13.206  -7.223  36.875  1.00  0.00    -0.423 OA
ENDROOT
BRANCH   3  12
ATOM     12  O   UNL     1      -9.595 -10.366  37.109  1.00  0.00    -0.508 OA
ATOM     13  H   UNL     1      -9.585 -10.493  36.104  1.00  0.00     0.293 HD
ENDBRANCH   3  12
TORSDOF 1
ENDMDL
MODEL 2
REMARK VINA RESULT:    -5.863      1.616      2.369
REMARK INTER + INTRA:          -6.034
REMARK INTER:                  -6.034
REMARK INTRA:                   0.000
REMARK UNBOUND:                 0.000
REMARK SMILES O=c1ccc2ccc(O)cc2o1
REMARK SMILES IDX 6 1 7 2 8 3 10 4 11 5 5 6 4 7 3 8 2 9 1 10 12 11 9 12
REMARK H PARENT 9 13
REMARK Flexibility Score: inf
ROOT
ATOM      1  C   UNL     1     -12.097  -8.376  37.010  1.00  0.00     0.016 A 
ATOM      2  C   UNL     1     -11.157  -9.022  37.820  1.00  0.00     0.047 A 
ATOM      3  C   UNL     1     -11.046  -8.693  39.176  1.00  0.00     0.119 A 
ATOM      4  C   UNL     1     -11.883  -7.712  39.728  1.00  0.00     0.094 A 
ATOM      5  C   UNL     1     -12.826  -7.061  38.926  1.00  0.00     0.142 A 
ATOM      6  C   UNL     1     -12.935  -7.395  37.558  1.00  0.00     0.018 A 
ATOM      7  C   UNL     1     -13.887  -6.728  36.782  1.00  0.00     0.019 A 
ATOM      8  C   UNL     1     -14.696  -5.759  37.375  1.00  0.00     0.094 A 
ATOM      9  C   UNL     1     -14.533  -5.480  38.736  1.00  0.00     0.336 A 
ATOM     10  O   UNL     1     -15.254  -4.609  39.289  1.00  0.00    -0.246 OA
ATOM     11  O   UNL     1     -13.619  -6.129  39.452  1.00  0.00    -0.423 OA
ENDROOT
BRANCH   3  12
ATOM     12  O   UNL     1     -10.104  -9.347  39.967  1.00  0.00    -0.508 OA
ATOM     13  H   UNL     1     -10.097  -9.247  40.975  1.00  0.00     0.293 HD
ENDBRANCH   3  12
TORSDOF 1
ENDMDL
MODEL 3
REMARK VINA RESULT:    -5.801      1.677      4.834
REMARK INTER + INTRA:          -5.971
REMARK INTER:                  -5.971
REMARK INTRA:                   0.000
REMARK UNBOUND:                 0.000
REMARK SMILES O=c1ccc2ccc(O)cc2o1
REMARK SMILES IDX 6 1 7 2 8 3 10 4 11 5 5 6 4 7 3 8 2 9 1 10 12 11 9 12
REMARK H PARENT 9 13
REMARK Flexibility Score: inf
ROOT
ATOM      1  C   UNL     1     -13.777  -6.807  36.808  1.00  0.00     0.016 A 
ATOM      2  C   UNL     1     -14.611  -5.839  37.376  1.00  0.00     0.047 A 
ATOM      3  C   UNL     1     -14.520  -5.538  38.740  1.00  0.00     0.119 A 
ATOM      4  C   UNL     1     -13.588  -6.210  39.544  1.00  0.00     0.094 A 
ATOM      5  C   UNL     1     -12.749  -7.181  38.984  1.00  0.00     0.142 A 
ATOM      6  C   UNL     1     -12.844  -7.481  37.607  1.00  0.00     0.018 A 
ATOM      7  C   UNL     1     -11.993  -8.456  37.078  1.00  0.00     0.019 A 
ATOM      8  C   UNL     1     -11.082  -9.098  37.915  1.00  0.00     0.094 A 
ATOM      9  C   UNL     1     -11.044  -8.748  39.271  1.00  0.00     0.336 A 
ATOM     10  O   UNL     1     -10.228  -9.317  40.042  1.00  0.00    -0.246 OA
ATOM     11  O   UNL     1     -11.865  -7.818  39.749  1.00  0.00    -0.423 OA
ENDROOT
BRANCH   3  12
ATOM     12  O   UNL     1     -15.359  -4.569  39.287  1.00  0.00    -0.508 OA
ATOM     13  H   UNL     1     -16.043  -4.080  38.722  1.00  0.00     0.293 HD
ENDBRANCH   3  12
TORSDOF 1
ENDMDL
MODEL 4
REMARK VINA RESULT:    -5.549      0.823      4.227
REMARK INTER + INTRA:          -5.711
REMARK INTER:                  -5.711
REMARK INTRA:                   0.000
REMARK UNBOUND:                 0.000
REMARK SMILES O=c1ccc2ccc(O)cc2o1
REMARK SMILES IDX 6 1 7 2 8 3 10 4 11 5 5 6 4 7 3 8 2 9 1 10 12 11 9 12
REMARK H PARENT 9 13
REMARK Flexibility Score: inf
ROOT
ATOM      1  C   UNL     1     -13.002  -6.704  39.723  1.00  0.00     0.016 A 
ATOM      2  C   UNL     1     -13.975  -6.066  38.947  1.00  0.00     0.047 A 
ATOM      3  C   UNL     1     -14.076  -6.334  37.577  1.00  0.00     0.119 A 
ATOM      4  C   UNL     1     -13.197  -7.248  36.977  1.00  0.00     0.094 A 
ATOM      5  C   UNL     1     -12.220  -7.890  37.745  1.00  0.00     0.142 A 
ATOM      6  C   UNL     1     -12.122  -7.617  39.128  1.00  0.00     0.018 A 
ATOM      7  C   UNL     1     -11.135  -8.275  39.869  1.00  0.00     0.019 A 
ATOM      8  C   UNL     1     -10.284  -9.175  39.229  1.00  0.00     0.094 A 
ATOM      9  C   UNL     1     -10.440  -9.396  37.856  1.00  0.00     0.336 A 
ATOM     10  O   UNL     1      -9.680 -10.204  37.261  1.00  0.00    -0.246 OA
ATOM     11  O   UNL     1     -11.385  -8.757  37.173  1.00  0.00    -0.423 OA
ENDROOT
BRANCH   3  12
ATOM     12  O   UNL     1     -15.052  -5.690  36.820  1.00  0.00    -0.508 OA
ATOM     13  H   UNL     1     -15.204  -4.690  36.891  1.00  0.00     0.293 HD
ENDBRANCH   3  12
TORSDOF 1
ENDMDL
MODEL 5
REMARK VINA RESULT:    -5.401      9.248     10.641
REMARK INTER + INTRA:          -5.559
REMARK INTER:                  -5.559
REMARK INTRA:                   0.000
REMARK UNBOUND:                 0.000
REMARK SMILES O=c1ccc2ccc(O)cc2o1
REMARK SMILES IDX 6 1 7 2 8 3 10 4 11 5 5 6 4 7 3 8 2 9 1 10 12 11 9 12
REMARK H PARENT 9 13
REMARK Flexibility Score: inf
ROOT
ATOM      1  C   UNL     1     -16.180 -10.311  44.808  1.00  0.00     0.016 A 
ATOM      2  C   UNL     1     -16.927  -9.245  44.297  1.00  0.00     0.047 A 
ATOM      3  C   UNL     1     -17.383  -8.230  45.146  1.00  0.00     0.119 A 
ATOM      4  C   UNL     1     -17.089  -8.279  46.517  1.00  0.00     0.094 A 
ATOM      5  C   UNL     1     -16.342  -9.342  47.037  1.00  0.00     0.142 A 
ATOM      6  C   UNL     1     -15.884 -10.365  46.177  1.00  0.00     0.018 A 
ATOM      7  C   UNL     1     -15.140 -11.414  46.726  1.00  0.00     0.019 A 
ATOM      8  C   UNL     1     -14.873 -11.421  48.094  1.00  0.00     0.094 A 
ATOM      9  C   UNL     1     -15.360 -10.374  48.885  1.00  0.00     0.336 A 
ATOM     10  O   UNL     1     -15.129 -10.364  50.123  1.00  0.00    -0.246 OA
ATOM     11  O   UNL     1     -16.065  -9.389  48.338  1.00  0.00    -0.423 OA
ENDROOT
BRANCH   3  12
ATOM     12  O   UNL     1     -18.125  -7.175  44.619  1.00  0.00    -0.508 OA
ATOM     13  H   UNL     1     -18.443  -7.180  43.656  1.00  0.00     0.293 HD
ENDBRANCH   3  12
TORSDOF 1
ENDMDL
MODEL 6
REMARK VINA RESULT:    -5.333      8.766     10.046
REMARK INTER + INTRA:          -5.488
REMARK INTER:                  -5.488
REMARK INTRA:                   0.000
REMARK UNBOUND:                 0.000
REMARK SMILES O=c1ccc2ccc(O)cc2o1
REMARK SMILES IDX 6 1 7 2 8 3 10 4 11 5 5 6 4 7 3 8 2 9 1 10 12 11 9 12
REMARK H PARENT 9 13
REMARK Flexibility Score: inf
ROOT
ATOM      1  C   UNL     1     -17.597  -8.435  45.907  1.00  0.00     0.016 A 
ATOM      2  C   UNL     1     -17.930  -8.577  44.556  1.00  0.00     0.047 A 
ATOM      3  C   UNL     1     -17.418  -9.645  43.810  1.00  0.00     0.119 A 
ATOM      4  C   UNL     1     -16.568 -10.580  44.419  1.00  0.00     0.094 A 
ATOM      5  C   UNL     1     -16.230 -10.446  45.770  1.00  0.00     0.142 A 
ATOM      6  C   UNL     1     -16.748  -9.366  46.520  1.00  0.00     0.018 A 
ATOM      7  C   UNL     1     -16.392  -9.259  47.867  1.00  0.00     0.019 A 
ATOM      8  C   UNL     1     -15.544 -10.212  48.429  1.00  0.00     0.094 A 
ATOM      9  C   UNL     1     -15.068 -11.255  47.626  1.00  0.00     0.336 A 
ATOM     10  O   UNL     1     -14.301 -12.125  48.115  1.00  0.00    -0.246 OA
ATOM     11  O   UNL     1     -15.422 -11.334  46.346  1.00  0.00    -0.423 OA
ENDROOT
BRANCH   3  12
ATOM     12  O   UNL     1     -17.762  -9.771  42.466  1.00  0.00    -0.508 OA
ATOM     13  H   UNL     1     -17.495  -9.071  41.783  1.00  0.00     0.293 HD
ENDBRANCH   3  12
TORSDOF 1
ENDMDL
MODEL 7
REMARK VINA RESULT:    -5.272      2.534      4.481
REMARK INTER + INTRA:          -5.426
REMARK INTER:                  -5.426
REMARK INTRA:                   0.000
REMARK UNBOUND:                 0.000
REMARK SMILES O=c1ccc2ccc(O)cc2o1
REMARK SMILES IDX 6 1 7 2 8 3 10 4 11 5 5 6 4 7 3 8 2 9 1 10 12 11 9 12
REMARK H PARENT 9 13
REMARK Flexibility Score: inf
ROOT
ATOM      1  C   UNL     1     -10.660  -9.848  37.897  1.00  0.00     0.016 A 
ATOM      2  C   UNL     1     -11.423  -9.090  37.004  1.00  0.00     0.047 A 
ATOM      3  C   UNL     1     -12.150  -7.982  37.457  1.00  0.00     0.119 A 
ATOM      4  C   UNL     1     -12.113  -7.629  38.814  1.00  0.00     0.094 A 
ATOM      5  C   UNL     1     -11.352  -8.382  39.715  1.00  0.00     0.142 A 
ATOM      6  C   UNL     1     -10.620  -9.499  39.254  1.00  0.00     0.018 A 
ATOM      7  C   UNL     1      -9.869 -10.231  40.178  1.00  0.00     0.019 A 
ATOM      8  C   UNL     1      -9.863  -9.842  41.517  1.00  0.00     0.094 A 
ATOM      9  C   UNL     1     -10.613  -8.724  41.902  1.00  0.00     0.336 A 
ATOM     10  O   UNL     1     -10.620  -8.358  43.106  1.00  0.00    -0.246 OA
ATOM     11  O   UNL     1     -11.319  -8.045  41.003  1.00  0.00    -0.423 OA
ENDROOT
BRANCH   3  12
ATOM     12  O   UNL     1     -12.904  -7.239  36.551  1.00  0.00    -0.508 OA
ATOM     13  H   UNL     1     -13.855  -7.497  36.316  1.00  0.00     0.293 HD
ENDBRANCH   3  12
TORSDOF 1
ENDMDL
MODEL 8
REMARK VINA RESULT:    -5.212      9.117      9.890
REMARK INTER + INTRA:          -5.365
REMARK INTER:                  -5.365
REMARK INTRA:                   0.000
REMARK UNBOUND:                 0.000
REMARK SMILES O=c1ccc2ccc(O)cc2o1
REMARK SMILES IDX 6 1 7 2 8 3 10 4 11 5 5 6 4 7 3 8 2 9 1 10 12 11 9 12
REMARK H PARENT 9 13
REMARK Flexibility Score: inf
ROOT
ATOM      1  C   UNL     1     -16.140  -9.127  48.572  1.00  0.00     0.016 A 
ATOM      2  C   UNL     1     -15.281 -10.125  49.045  1.00  0.00     0.047 A 
ATOM      3  C   UNL     1     -14.836 -11.138  48.189  1.00  0.00     0.119 A 
ATOM      4  C   UNL     1     -15.250 -11.155  46.849  1.00  0.00     0.094 A 
ATOM      5  C   UNL     1     -16.109 -10.161  46.367  1.00  0.00     0.142 A 
ATOM      6  C   UNL     1     -16.557  -9.139  47.234  1.00  0.00     0.018 A 
ATOM      7  C   UNL     1     -17.414  -8.160  46.724  1.00  0.00     0.019 A 
ATOM      8  C   UNL     1     -17.799  -8.218  45.385  1.00  0.00     0.094 A 
ATOM      9  C   UNL     1     -17.316  -9.259  44.584  1.00  0.00     0.336 A 
ATOM     10  O   UNL     1     -17.653  -9.328  43.374  1.00  0.00    -0.246 OA
ATOM     11  O   UNL     1     -16.502 -10.179  45.095  1.00  0.00    -0.423 OA
ENDROOT
BRANCH   3  12
ATOM     12  O   UNL     1     -13.980 -12.123  48.677  1.00  0.00    -0.508 OA
ATOM     13  H   UNL     1     -13.188 -12.454  48.138  1.00  0.00     0.293 HD
ENDBRANCH   3  12
TORSDOF 1
ENDMDL
MODEL 9
REMARK VINA RESULT:    -5.206      9.081      9.954
REMARK INTER + INTRA:          -5.358
REMARK INTER:                  -5.358
REMARK INTRA:                   0.000
REMARK UNBOUND:                 0.000
REMARK SMILES O=c1ccc2ccc(O)cc2o1
REMARK SMILES IDX 6 1 7 2 8 3 10 4 11 5 5 6 4 7 3 8 2 9 1 10 12 11 9 12
REMARK H PARENT 9 13
REMARK Flexibility Score: inf
ROOT
ATOM      1  C   UNL     1     -15.218 -11.406  46.614  1.00  0.00     0.016 A 
ATOM      2  C   UNL     1     -14.939 -11.342  47.983  1.00  0.00     0.047 A 
ATOM      3  C   UNL     1     -15.405 -10.267  48.750  1.00  0.00     0.119 A 
ATOM      4  C   UNL     1     -16.155  -9.249  48.144  1.00  0.00     0.094 A 
ATOM      5  C   UNL     1     -16.438  -9.305  46.775  1.00  0.00     0.142 A 
ATOM      6  C   UNL     1     -15.966 -10.391  46.004  1.00  0.00     0.018 A 
ATOM      7  C   UNL     1     -16.265 -10.419  44.639  1.00  0.00     0.019 A 
ATOM      8  C   UNL     1     -17.014  -9.384  44.080  1.00  0.00     0.094 A 
ATOM      9  C   UNL     1     -17.448  -8.340  44.905  1.00  0.00     0.336 A 
ATOM     10  O   UNL     1     -18.125  -7.396  44.419  1.00  0.00    -0.246 OA
ATOM     11  O   UNL     1     -17.150  -8.336  46.201  1.00  0.00    -0.423 OA
ENDROOT
BRANCH   3  12
ATOM     12  O   UNL     1     -15.119 -10.221  50.112  1.00  0.00    -0.508 OA
ATOM     13  H   UNL     1     -15.669 -10.739  50.788  1.00  0.00     0.293 HD
ENDBRANCH   3  12
TORSDOF 1
ENDMDL
