MODEL 1
REMARK VINA RESULT:    -3.402      0.000      0.000
REMARK INTER + INTRA:          -6.031
REMARK INTER:                  -5.391
REMARK INTRA:                  -0.640
REMARK UNBOUND:                -0.640
REMARK SMILES CCCCCCCCCCCC(=O)[O-]
REMARK SMILES IDX 7 1 8 2 9 3 10 4 11 5 12 6 13 7 14 8 6 9 5 10 4 11 3 12 2 13
REMARK SMILES IDX 1 14
REMARK H PARENT
REMARK Flexibility Score: inf
ROOT
ATOM      1  C   UNL     1       0.004  -3.518   7.056  1.00  0.00     0.000 C 
ENDROOT
BRANCH   1   2
ATOM      2  C   UNL     1      -0.381  -2.388   8.025  1.00  0.00     0.000 C 
BRANCH   2   3
ATOM      3  C   UNL     1       0.830  -1.539   8.452  1.00  0.00     0.000 C 
BRANCH   3   4
ATOM      4  C   UNL     1       0.771  -0.106   7.899  1.00  0.00     0.006 C 
BRANCH   4   5
ATOM      5  C   UNL     1      -0.633   0.288   7.423  1.00  0.00     0.053 C 
BRANCH   5   6
ATOM      6  C   UNL     1      -0.547   1.297   6.323  1.00  0.00     0.041 C 
ATOM      7  O   UNL     1      -1.469   2.137   6.159  1.00  0.00    -0.550 OA
ATOM      8  O   UNL     1       0.578   1.343   5.508  1.00  0.00    -0.550 OA
ENDBRANCH   5   6
ENDBRANCH   4   5
ENDBRANCH   3   4
ENDBRANCH   2   3
ENDBRANCH   1   2
BRANCH   1   9
ATOM      9  C   UNL     1      -0.393  -4.909   7.583  1.00  0.00     0.000 C 
BRANCH   9  10
ATOM     10  C   UNL     1       0.827  -5.786   7.907  1.00  0.00    -0.000 C 
BRANCH  10  11
ATOM     11  C   UNL     1       2.162  -5.084   7.598  1.00  0.00    -0.000 C 
BRANCH  11  12
ATOM     12  C   UNL     1       3.221  -6.049   7.043  1.00  0.00    -0.000 C 
BRANCH  12  13
ATOM     13  C   UNL     1       2.699  -6.884   5.864  1.00  0.00    -0.003 C 
ATOM     14  C   UNL     1       3.678  -6.854   4.694  1.00  0.00     0.004 C 
ENDBRANCH  12  13
ENDBRANCH  11  12
ENDBRANCH  10  11
ENDBRANCH   9  10
ENDBRANCH   1   9
TORSDOF 10
ENDMDL
MODEL 2
REMARK VINA RESULT:    -3.320      1.035      1.649
REMARK INTER + INTRA:          -5.901
REMARK INTER:                  -5.439
REMARK INTRA:                  -0.461
REMARK UNBOUND:                -0.640
REMARK SMILES CCCCCCCCCCCC(=O)[O-]
REMARK SMILES IDX 7 1 8 2 9 3 10 4 11 5 12 6 13 7 14 8 6 9 5 10 4 11 3 12 2 13
REMARK SMILES IDX 1 14
REMARK H PARENT
REMARK Flexibility Score: inf
ROOT
ATOM      1  C   UNL     1       1.494  -2.914   8.804  1.00  0.00     0.000 C 
ENDROOT
BRANCH   1   2
ATOM      2  C   UNL     1       0.008  -2.974   8.413  1.00  0.00     0.000 C 
BRANCH   2   3
ATOM      3  C   UNL     1      -0.285  -2.234   7.096  1.00  0.00     0.000 C 
BRANCH   3   4
ATOM      4  C   UNL     1       0.323  -0.823   7.064  1.00  0.00     0.006 C 
BRANCH   4   5
ATOM      5  C   UNL     1      -0.724   0.279   7.266  1.00  0.00     0.053 C 
BRANCH   5   6
ATOM      6  C   UNL     1      -0.513   1.386   6.282  1.00  0.00     0.041 C 
ATOM      7  O   UNL     1       0.483   1.369   5.513  1.00  0.00    -0.550 OA
ATOM      8  O   UNL     1      -1.444   2.412   6.179  1.00  0.00    -0.550 OA
ENDBRANCH   5   6
ENDBRANCH   4   5
ENDBRANCH   3   4
ENDBRANCH   2   3
ENDBRANCH   1   2
BRANCH   1   9
ATOM      9  C   UNL     1       2.173  -4.295   8.758  1.00  0.00     0.000 C 
BRANCH   9  10
ATOM     10  C   UNL     1       1.780  -5.104   7.511  1.00  0.00    -0.000 C 
BRANCH  10  11
ATOM     11  C   UNL     1       2.173  -6.588   7.618  1.00  0.00    -0.000 C 
BRANCH  11  12
ATOM     12  C   UNL     1       2.557  -7.196   6.261  1.00  0.00    -0.000 C 
BRANCH  12  13
ATOM     13  C   UNL     1       3.833  -6.574   5.676  1.00  0.00    -0.003 C 
ATOM     14  C   UNL     1       3.936  -6.840   4.176  1.00  0.00     0.004 C 
ENDBRANCH  12  13
ENDBRANCH  11  12
ENDBRANCH  10  11
ENDBRANCH   9  10
ENDBRANCH   1   9
TORSDOF 10
ENDMDL
MODEL 3
REMARK VINA RESULT:    -3.309      2.296      4.061
REMARK INTER + INTRA:          -5.883
REMARK INTER:                  -4.710
REMARK INTRA:                  -1.173
REMARK UNBOUND:                -0.640
REMARK SMILES CCCCCCCCCCCC(=O)[O-]
REMARK SMILES IDX 7 1 8 2 9 3 10 4 11 5 12 6 13 7 14 8 6 9 5 10 4 11 3 12 2 13
REMARK SMILES IDX 1 14
REMARK H PARENT
REMARK Flexibility Score: inf
ROOT
ATOM      1  C   UNL     1       0.442  -2.930   9.244  1.00  0.00     0.000 C 
ENDROOT
BRANCH   1   2
ATOM      2  C   UNL     1       1.115  -1.547   9.237  1.00  0.00     0.000 C 
BRANCH   2   3
ATOM      3  C   UNL     1       0.700  -0.696   8.024  1.00  0.00     0.000 C 
BRANCH   3   4
ATOM      4  C   UNL     1       1.198   0.755   8.124  1.00  0.00     0.006 C 
BRANCH   4   5
ATOM      5  C   UNL     1       0.090   1.782   7.858  1.00  0.00     0.053 C 
BRANCH   5   6
ATOM      6  C   UNL     1      -0.369   1.700   6.437  1.00  0.00     0.041 C 
ATOM      7  O   UNL     1      -1.557   1.987   6.137  1.00  0.00    -0.550 OA
ATOM      8  O   UNL     1       0.530   1.354   5.435  1.00  0.00    -0.550 OA
ENDBRANCH   5   6
ENDBRANCH   4   5
ENDBRANCH   3   4
ENDBRANCH   2   3
ENDBRANCH   1   2
BRANCH   1   9
ATOM      9  C   UNL     1       0.837  -3.786   8.027  1.00  0.00     0.000 C 
BRANCH   9  10
ATOM     10  C   UNL     1      -0.362  -4.113   7.122  1.00  0.00    -0.000 C 
BRANCH  10  11
ATOM     11  C   UNL     1      -1.698  -3.621   7.707  1.00  0.00    -0.000 C 
BRANCH  11  12
ATOM     12  C   UNL     1      -2.625  -3.022   6.638  1.00  0.00    -0.000 C 
BRANCH  12  13
ATOM     13  C   UNL     1      -2.696  -1.490   6.710  1.00  0.00    -0.003 C 
ATOM     14  C   UNL     1      -2.858  -1.015   8.152  1.00  0.00     0.004 C 
ENDBRANCH  12  13
ENDBRANCH  11  12
ENDBRANCH  10  11
ENDBRANCH   9  10
ENDBRANCH   1   9
TORSDOF 10
ENDMDL
MODEL 4
REMARK VINA RESULT:    -3.281      1.964      3.167
REMARK INTER + INTRA:          -5.840
REMARK INTER:                  -4.718
REMARK INTRA:                  -1.122
REMARK UNBOUND:                -0.640
REMARK SMILES CCCCCCCCCCCC(=O)[O-]
REMARK SMILES IDX 7 1 8 2 9 3 10 4 11 5 12 6 13 7 14 8 6 9 5 10 4 11 3 12 2 13
REMARK SMILES IDX 1 14
REMARK H PARENT
REMARK Flexibility Score: inf
ROOT
ATOM      1  C   UNL     1       0.787  -1.151   8.778  1.00  0.00     0.000 C 
ENDROOT
BRANCH   1   2
ATOM      2  C   UNL     1       0.908   0.310   8.313  1.00  0.00     0.000 C 
BRANCH   2   3
ATOM      3  C   UNL     1       1.225   0.428   6.812  1.00  0.00     0.000 C 
BRANCH   3   4
ATOM      4  C   UNL     1       0.090   1.096   6.020  1.00  0.00     0.006 C 
BRANCH   4   5
ATOM      5  C   UNL     1      -0.703   2.108   6.858  1.00  0.00     0.053 C 
BRANCH   5   6
ATOM      6  C   UNL     1      -2.151   2.073   6.485  1.00  0.00     0.041 C 
ATOM      7  O   UNL     1      -2.844   1.052   6.729  1.00  0.00    -0.550 OA
ATOM      8  O   UNL     1      -2.749   3.190   5.914  1.00  0.00    -0.550 OA
ENDBRANCH   5   6
ENDBRANCH   4   5
ENDBRANCH   3   4
ENDBRANCH   2   3
ENDBRANCH   1   2
BRANCH   1   9
ATOM      9  C   UNL     1      -0.676  -1.606   8.924  1.00  0.00     0.000 C 
BRANCH   9  10
ATOM     10  C   UNL     1      -1.265  -2.128   7.603  1.00  0.00    -0.000 C 
BRANCH  10  11
ATOM     11  C   UNL     1      -0.329  -3.117   6.886  1.00  0.00    -0.000 C 
BRANCH  11  12
ATOM     12  C   UNL     1      -0.523  -4.565   7.361  1.00  0.00    -0.000 C 
BRANCH  12  13
ATOM     13  C   UNL     1       0.792  -5.356   7.396  1.00  0.00    -0.003 C 
ATOM     14  C   UNL     1       1.923  -4.515   7.981  1.00  0.00     0.004 C 
ENDBRANCH  12  13
ENDBRANCH  11  12
ENDBRANCH  10  11
ENDBRANCH   9  10
ENDBRANCH   1   9
TORSDOF 10
ENDMDL
MODEL 5
REMARK VINA RESULT:    -3.274      1.786      3.425
REMARK INTER + INTRA:          -5.829
REMARK INTER:                  -4.710
REMARK INTRA:                  -1.118
REMARK UNBOUND:                -0.640
REMARK SMILES CCCCCCCCCCCC(=O)[O-]
REMARK SMILES IDX 7 1 8 2 9 3 10 4 11 5 12 6 13 7 14 8 6 9 5 10 4 11 3 12 2 13
REMARK SMILES IDX 1 14
REMARK H PARENT
REMARK Flexibility Score: inf
ROOT
ATOM      1  C   UNL     1       1.165  -2.982   9.800  1.00  0.00     0.000 C 
ENDROOT
BRANCH   1   2
ATOM      2  C   UNL     1       1.279  -1.459   9.624  1.00  0.00     0.000 C 
BRANCH   2   3
ATOM      3  C   UNL     1       0.827  -0.990   8.229  1.00  0.00     0.000 C 
BRANCH   3   4
ATOM      4  C   UNL     1      -0.302   0.051   8.293  1.00  0.00     0.006 C 
BRANCH   4   5
ATOM      5  C   UNL     1      -1.079   0.166   6.975  1.00  0.00     0.053 C 
BRANCH   5   6
ATOM      6  C   UNL     1      -0.677   1.404   6.239  1.00  0.00     0.041 C 
ATOM      7  O   UNL     1       0.401   1.434   5.591  1.00  0.00    -0.550 OA
ATOM      8  O   UNL     1      -1.519   2.510   6.227  1.00  0.00    -0.550 OA
ENDBRANCH   5   6
ENDBRANCH   4   5
ENDBRANCH   3   4
ENDBRANCH   2   3
ENDBRANCH   1   2
BRANCH   1   9
ATOM      9  C   UNL     1       2.198  -3.753   8.958  1.00  0.00     0.000 C 
BRANCH   9  10
ATOM     10  C   UNL     1       1.544  -4.612   7.864  1.00  0.00    -0.000 C 
BRANCH  10  11
ATOM     11  C   UNL     1       0.014  -4.703   8.016  1.00  0.00    -0.000 C 
BRANCH  11  12
ATOM     12  C   UNL     1      -0.735  -3.914   6.932  1.00  0.00    -0.000 C 
BRANCH  12  13
ATOM     13  C   UNL     1      -2.078  -3.360   7.427  1.00  0.00    -0.003 C 
ATOM     14  C   UNL     1      -3.036  -3.121   6.264  1.00  0.00     0.004 C 
ENDBRANCH  12  13
ENDBRANCH  11  12
ENDBRANCH  10  11
ENDBRANCH   9  10
ENDBRANCH   1   9
TORSDOF 10
ENDMDL
MODEL 6
REMARK VINA RESULT:    -3.262      1.828      2.849
REMARK INTER + INTRA:          -5.810
REMARK INTER:                  -4.571
REMARK INTRA:                  -1.239
REMARK UNBOUND:                -0.640
REMARK SMILES CCCCCCCCCCCC(=O)[O-]
REMARK SMILES IDX 7 1 8 2 9 3 10 4 11 5 12 6 13 7 14 8 6 9 5 10 4 11 3 12 2 13
REMARK SMILES IDX 1 14
REMARK H PARENT
REMARK Flexibility Score: inf
ROOT
ATOM      1  C   UNL     1      -1.333  -1.537   8.440  1.00  0.00     0.000 C 
ENDROOT
BRANCH   1   2
ATOM      2  C   UNL     1      -0.382  -0.635   9.245  1.00  0.00     0.000 C 
BRANCH   2   3
ATOM      3  C   UNL     1       0.997  -0.487   8.577  1.00  0.00     0.000 C 
BRANCH   3   4
ATOM      4  C   UNL     1       1.313   0.967   8.194  1.00  0.00     0.006 C 
BRANCH   4   5
ATOM      5  C   UNL     1       0.051   1.814   7.985  1.00  0.00     0.053 C 
BRANCH   5   6
ATOM      6  C   UNL     1      -0.328   1.837   6.538  1.00  0.00     0.041 C 
ATOM      7  O   UNL     1       0.476   1.420   5.665  1.00  0.00    -0.550 OA
ATOM      8  O   UNL     1      -1.591   2.275   6.157  1.00  0.00    -0.550 OA
ENDBRANCH   5   6
ENDBRANCH   4   5
ENDBRANCH   3   4
ENDBRANCH   2   3
ENDBRANCH   1   2
BRANCH   1   9
ATOM      9  C   UNL     1      -0.706  -2.030   7.124  1.00  0.00     0.000 C 
BRANCH   9  10
ATOM     10  C   UNL     1      -0.902  -3.540   6.908  1.00  0.00    -0.000 C 
BRANCH  10  11
ATOM     11  C   UNL     1      -0.087  -4.391   7.898  1.00  0.00    -0.000 C 
BRANCH  11  12
ATOM     12  C   UNL     1       1.408  -4.436   7.547  1.00  0.00    -0.000 C 
BRANCH  12  13
ATOM     13  C   UNL     1       2.303  -4.544   8.790  1.00  0.00    -0.003 C 
ATOM     14  C   UNL     1       1.760  -3.691   9.933  1.00  0.00     0.004 C 
ENDBRANCH  12  13
ENDBRANCH  11  12
ENDBRANCH  10  11
ENDBRANCH   9  10
ENDBRANCH   1   9
TORSDOF 10
ENDMDL
MODEL 7
REMARK VINA RESULT:    -3.258      4.247      6.250
REMARK INTER + INTRA:          -5.803
REMARK INTER:                  -4.284
REMARK INTRA:                  -1.519
REMARK UNBOUND:                -0.640
REMARK SMILES CCCCCCCCCCCC(=O)[O-]
REMARK SMILES IDX 7 1 8 2 9 3 10 4 11 5 12 6 13 7 14 8 6 9 5 10 4 11 3 12 2 13
REMARK SMILES IDX 1 14
REMARK H PARENT
REMARK Flexibility Score: inf
ROOT
ATOM      1  C   UNL     1      -0.794  -1.700   7.826  1.00  0.00     0.000 C 
ENDROOT
BRANCH   1   2
ATOM      2  C   UNL     1      -1.792  -1.117   8.841  1.00  0.00     0.000 C 
BRANCH   2   3
ATOM      3  C   UNL     1      -3.139  -0.745   8.197  1.00  0.00     0.000 C 
BRANCH   3   4
ATOM      4  C   UNL     1      -3.073  -0.725   6.661  1.00  0.00     0.006 C 
BRANCH   4   5
ATOM      5  C   UNL     1      -4.273  -1.422   6.006  1.00  0.00     0.053 C 
BRANCH   5   6
ATOM      6  C   UNL     1      -3.860  -2.739   5.430  1.00  0.00     0.041 C 
ATOM      7  O   UNL     1      -3.351  -3.622   6.168  1.00  0.00    -0.550 OA
ATOM      8  O   UNL     1      -4.085  -3.011   4.086  1.00  0.00    -0.550 OA
ENDBRANCH   5   6
ENDBRANCH   4   5
ENDBRANCH   3   4
ENDBRANCH   2   3
ENDBRANCH   1   2
BRANCH   1   9
ATOM      9  C   UNL     1       0.668  -1.389   8.190  1.00  0.00     0.000 C 
BRANCH   9  10
ATOM     10  C   UNL     1       1.075   0.047   7.822  1.00  0.00    -0.000 C 
BRANCH  10  11
ATOM     11  C   UNL     1       0.807   0.378   6.342  1.00  0.00    -0.000 C 
BRANCH  11  12
ATOM     12  C   UNL     1      -0.171   1.549   6.167  1.00  0.00    -0.000 C 
BRANCH  12  13
ATOM     13  C   UNL     1      -0.407   2.321   7.473  1.00  0.00    -0.003 C 
ATOM     14  C   UNL     1      -1.874   2.717   7.620  1.00  0.00     0.004 C 
ENDBRANCH  12  13
ENDBRANCH  11  12
ENDBRANCH  10  11
ENDBRANCH   9  10
ENDBRANCH   1   9
TORSDOF 10
ENDMDL
MODEL 8
REMARK VINA RESULT:    -3.258      4.263      6.979
REMARK INTER + INTRA:          -5.803
REMARK INTER:                  -4.782
REMARK INTRA:                  -1.021
REMARK UNBOUND:                -0.640
REMARK SMILES CCCCCCCCCCCC(=O)[O-]
REMARK SMILES IDX 7 1 8 2 9 3 10 4 11 5 12 6 13 7 14 8 6 9 5 10 4 11 3 12 2 13
REMARK SMILES IDX 1 14
REMARK H PARENT
REMARK Flexibility Score: inf
ROOT
ATOM      1  C   UNL     1       0.463  -0.637   7.561  1.00  0.00     0.000 C 
ENDROOT
BRANCH   1   2
ATOM      2  C   UNL     1      -0.400  -1.830   7.116  1.00  0.00     0.000 C 
BRANCH   2   3
ATOM      3  C   UNL     1      -1.894  -1.472   7.016  1.00  0.00     0.000 C 
BRANCH   3   4
ATOM      4  C   UNL     1      -2.738  -2.619   6.437  1.00  0.00     0.006 C 
BRANCH   4   5
ATOM      5  C   UNL     1      -4.009  -2.124   5.735  1.00  0.00     0.053 C 
BRANCH   5   6
ATOM      6  C   UNL     1      -4.398  -3.063   4.637  1.00  0.00     0.041 C 
ATOM      7  O   UNL     1      -4.493  -2.649   3.453  1.00  0.00    -0.550 OA
ATOM      8  O   UNL     1      -4.605  -4.409   4.914  1.00  0.00    -0.550 OA
ENDBRANCH   5   6
ENDBRANCH   4   5
ENDBRANCH   3   4
ENDBRANCH   2   3
ENDBRANCH   1   2
BRANCH   1   9
ATOM      9  C   UNL     1       0.927   0.230   6.377  1.00  0.00     0.000 C 
BRANCH   9  10
ATOM     10  C   UNL     1       0.130   1.540   6.259  1.00  0.00    -0.000 C 
BRANCH  10  11
ATOM     11  C   UNL     1      -0.283   2.109   7.629  1.00  0.00    -0.000 C 
BRANCH  11  12
ATOM     12  C   UNL     1      -1.759   2.535   7.669  1.00  0.00    -0.000 C 
BRANCH  12  13
ATOM     13  C   UNL     1      -2.415   2.523   6.281  1.00  0.00    -0.003 C 
ATOM     14  C   UNL     1      -3.633   1.604   6.259  1.00  0.00     0.004 C 
ENDBRANCH  12  13
ENDBRANCH  11  12
ENDBRANCH  10  11
ENDBRANCH   9  10
ENDBRANCH   1   9
TORSDOF 10
ENDMDL
MODEL 9
REMARK VINA RESULT:    -3.159      2.994      4.426
REMARK INTER + INTRA:          -5.646
REMARK INTER:                  -4.399
REMARK INTRA:                  -1.248
REMARK UNBOUND:                -0.640
REMARK SMILES CCCCCCCCCCCC(=O)[O-]
REMARK SMILES IDX 7 1 8 2 9 3 10 4 11 5 12 6 13 7 14 8 6 9 5 10 4 11 3 12 2 13
REMARK SMILES IDX 1 14
REMARK H PARENT
REMARK Flexibility Score: inf
ROOT
ATOM      1  C   UNL     1       1.116   0.397   6.946  1.00  0.00     0.000 C 
ENDROOT
BRANCH   1   2
ATOM      2  C   UNL     1       0.329   1.690   6.674  1.00  0.00     0.000 C 
BRANCH   2   3
ATOM      3  C   UNL     1      -0.187   2.350   7.965  1.00  0.00     0.000 C 
BRANCH   3   4
ATOM      4  C   UNL     1      -1.722   2.396   8.031  1.00  0.00     0.006 C 
BRANCH   4   5
ATOM      5  C   UNL     1      -2.389   1.580   6.916  1.00  0.00     0.053 C 
BRANCH   5   6
ATOM      6  C   UNL     1      -3.164   2.478   6.005  1.00  0.00     0.041 C 
ATOM      7  O   UNL     1      -4.145   2.029   5.357  1.00  0.00    -0.550 OA
ATOM      8  O   UNL     1      -2.834   3.824   5.910  1.00  0.00    -0.550 OA
ENDBRANCH   5   6
ENDBRANCH   4   5
ENDBRANCH   3   4
ENDBRANCH   2   3
ENDBRANCH   1   2
BRANCH   1   9
ATOM      9  C   UNL     1       1.080  -0.015   8.428  1.00  0.00     0.000 C 
BRANCH   9  10
ATOM     10  C   UNL     1       0.522  -1.433   8.633  1.00  0.00    -0.000 C 
BRANCH  10  11
ATOM     11  C   UNL     1      -1.016  -1.473   8.621  1.00  0.00    -0.000 C 
BRANCH  11  12
ATOM     12  C   UNL     1      -1.581  -2.093   7.334  1.00  0.00    -0.000 C 
BRANCH  12  13
ATOM     13  C   UNL     1      -0.708  -3.237   6.798  1.00  0.00    -0.003 C 
ATOM     14  C   UNL     1      -1.097  -4.569   7.433  1.00  0.00     0.004 C 
ENDBRANCH  12  13
ENDBRANCH  11  12
ENDBRANCH  10  11
ENDBRANCH   9  10
ENDBRANCH   1   9
TORSDOF 10
ENDMDL
