MODEL 1
REMARK VINA RESULT:    -3.984      0.000      0.000
REMARK INTER + INTRA:          -9.861
REMARK INTER:                  -7.244
REMARK INTRA:                  -2.617
REMARK UNBOUND:                -2.617
REMARK SMILES CCCCCCCCCCCCCC[C@H](C)C(=O)[O-]
REMARK SMILES IDX 9 1 10 2 11 3 12 4 13 5 14 6 15 7 16 8 17 9 18 10 19 11 8 12
REMARK SMILES IDX 7 13 6 14 5 15 4 16 3 17 2 18 1 19
REMARK H PARENT
REMARK Flexibility Score: inf
ROOT
ATOM      1  C   UNL     1     -23.086  -8.712  -4.329  1.00  0.00     0.000 C 
ENDROOT
BRANCH   1   2
ATOM      2  C   UNL     1     -22.096  -9.764  -3.815  1.00  0.00     0.000 C 
BRANCH   2   3
ATOM      3  C   UNL     1     -22.335 -11.122  -4.492  1.00  0.00     0.000 C 
BRANCH   3   4
ATOM      4  C   UNL     1     -21.268 -11.456  -5.547  1.00  0.00     0.000 C 
BRANCH   4   5
ATOM      5  C   UNL     1     -21.600 -10.875  -6.933  1.00  0.00     0.001 C 
BRANCH   5   6
ATOM      6  C   UNL     1     -20.443 -10.037  -7.518  1.00  0.00     0.009 C 
BRANCH   6   7
ATOM      7  C   UNL     1     -19.761  -9.117  -6.481  1.00  0.00     0.032 C 
ATOM      8  C   UNL     1     -20.143  -7.652  -6.727  1.00  0.00     0.014 C 
BRANCH   7   9
ATOM      9  C   UNL     1     -18.264  -9.259  -6.509  1.00  0.00     0.044 C 
ATOM     10  O   UNL     1     -17.735 -10.395  -6.386  1.00  0.00    -0.550 OA
ATOM     11  O   UNL     1     -17.456  -8.142  -6.682  1.00  0.00    -0.550 OA
ENDBRANCH   7   9
ENDBRANCH   6   7
ENDBRANCH   5   6
ENDBRANCH   4   5
ENDBRANCH   3   4
ENDBRANCH   2   3
ENDBRANCH   1   2
BRANCH   1  12
ATOM     12  C   UNL     1     -24.360  -9.371  -4.869  1.00  0.00     0.000 C 
BRANCH  12  13
ATOM     13  C   UNL     1     -24.720  -8.823  -6.255  1.00  0.00    -0.000 C 
BRANCH  13  14
ATOM     14  C   UNL     1     -23.788  -7.666  -6.647  1.00  0.00    -0.000 C 
BRANCH  14  15
ATOM     15  C   UNL     1     -24.549  -6.470  -7.242  1.00  0.00    -0.000 C 
BRANCH  15  16
ATOM     16  C   UNL     1     -26.036  -6.457  -6.845  1.00  0.00    -0.000 C 
BRANCH  16  17
ATOM     17  C   UNL     1     -26.333  -5.471  -5.704  1.00  0.00    -0.000 C 
BRANCH  17  18
ATOM     18  C   UNL     1     -26.573  -6.176  -4.362  1.00  0.00    -0.003 C 
ATOM     19  C   UNL     1     -25.420  -5.921  -3.394  1.00  0.00     0.004 C 
ENDBRANCH  17  18
ENDBRANCH  16  17
ENDBRANCH  15  16
ENDBRANCH  14  15
ENDBRANCH  13  14
ENDBRANCH  12  13
ENDBRANCH   1  12
TORSDOF 14
ENDMDL
MODEL 2
REMARK VINA RESULT:    -3.927      1.689      2.941
REMARK INTER + INTRA:          -9.757
REMARK INTER:                  -7.365
REMARK INTRA:                  -2.392
REMARK UNBOUND:                -2.617
REMARK SMILES CCCCCCCCCCCCCC[C@H](C)C(=O)[O-]
REMARK SMILES IDX 9 1 10 2 11 3 12 4 13 5 14 6 15 7 16 8 17 9 18 10 19 11 8 12
REMARK SMILES IDX 7 13 6 14 5 15 4 16 3 17 2 18 1 19
REMARK H PARENT
REMARK Flexibility Score: inf
ROOT
ATOM      1  C   UNL     1     -23.635  -7.755  -5.812  1.00  0.00     0.000 C 
ENDROOT
BRANCH   1   2
ATOM      2  C   UNL     1     -24.529  -8.952  -5.466  1.00  0.00     0.000 C 
BRANCH   2   3
ATOM      3  C   UNL     1     -23.782  -9.956  -4.574  1.00  0.00     0.000 C 
BRANCH   3   4
ATOM      4  C   UNL     1     -22.401  -9.447  -4.134  1.00  0.00     0.000 C 
BRANCH   4   5
ATOM      5  C   UNL     1     -21.269 -10.431  -4.478  1.00  0.00     0.001 C 
BRANCH   5   6
ATOM      6  C   UNL     1     -21.489 -11.141  -5.831  1.00  0.00     0.009 C 
BRANCH   6   7
ATOM      7  C   UNL     1     -20.557 -10.633  -6.954  1.00  0.00     0.032 C 
ATOM      8  C   UNL     1     -19.327  -9.937  -6.358  1.00  0.00     0.014 C 
BRANCH   7   9
ATOM      9  C   UNL     1     -21.269  -9.691  -7.884  1.00  0.00     0.044 C 
ATOM     10  O   UNL     1     -20.708  -8.627  -8.257  1.00  0.00    -0.550 OA
ATOM     11  O   UNL     1     -22.544  -9.991  -8.347  1.00  0.00    -0.550 OA
ENDBRANCH   7   9
ENDBRANCH   6   7
ENDBRANCH   5   6
ENDBRANCH   4   5
ENDBRANCH   3   4
ENDBRANCH   2   3
ENDBRANCH   1   2
BRANCH   1  12
ATOM     12  C   UNL     1     -24.065  -7.110  -7.135  1.00  0.00     0.000 C 
BRANCH  12  13
ATOM     13  C   UNL     1     -24.828  -5.803  -6.889  1.00  0.00    -0.000 C 
BRANCH  13  14
ATOM     14  C   UNL     1     -26.343  -6.053  -6.831  1.00  0.00    -0.000 C 
BRANCH  14  15
ATOM     15  C   UNL     1     -27.008  -5.372  -5.624  1.00  0.00    -0.000 C 
BRANCH  15  16
ATOM     16  C   UNL     1     -26.721  -6.101  -4.300  1.00  0.00    -0.000 C 
BRANCH  16  17
ATOM     17  C   UNL     1     -25.923  -5.236  -3.311  1.00  0.00    -0.000 C 
BRANCH  17  18
ATOM     18  C   UNL     1     -24.592  -5.883  -2.902  1.00  0.00    -0.003 C 
ATOM     19  C   UNL     1     -24.822  -7.225  -2.213  1.00  0.00     0.004 C 
ENDBRANCH  17  18
ENDBRANCH  16  17
ENDBRANCH  15  16
ENDBRANCH  14  15
ENDBRANCH  13  14
ENDBRANCH  12  13
ENDBRANCH   1  12
TORSDOF 14
ENDMDL
MODEL 3
REMARK VINA RESULT:    -3.908      1.407      2.579
REMARK INTER + INTRA:          -9.723
REMARK INTER:                  -7.868
REMARK INTRA:                  -1.855
REMARK UNBOUND:                -2.617
REMARK SMILES CCCCCCCCCCCCCC[C@H](C)C(=O)[O-]
REMARK SMILES IDX 9 1 10 2 11 3 12 4 13 5 14 6 15 7 16 8 17 9 18 10 19 11 8 12
REMARK SMILES IDX 7 13 6 14 5 15 4 16 3 17 2 18 1 19
REMARK H PARENT
REMARK Flexibility Score: inf
ROOT
ATOM      1  C   UNL     1     -22.135  -9.453  -6.884  1.00  0.00     0.000 C 
ENDROOT
BRANCH   1   2
ATOM      2  C   UNL     1     -22.051 -10.983  -6.859  1.00  0.00     0.000 C 
BRANCH   2   3
ATOM      3  C   UNL     1     -21.129 -11.465  -5.729  1.00  0.00     0.000 C 
BRANCH   3   4
ATOM      4  C   UNL     1     -20.973 -10.428  -4.606  1.00  0.00     0.000 C 
BRANCH   4   5
ATOM      5  C   UNL     1     -19.501 -10.151  -4.253  1.00  0.00     0.001 C 
BRANCH   5   6
ATOM      6  C   UNL     1     -18.519 -10.985  -5.104  1.00  0.00     0.009 C 
BRANCH   6   7
ATOM      7  C   UNL     1     -17.493 -10.127  -5.879  1.00  0.00     0.032 C 
ATOM      8  C   UNL     1     -16.932  -9.017  -4.981  1.00  0.00     0.014 C 
BRANCH   7   9
ATOM      9  C   UNL     1     -18.095  -9.520  -7.115  1.00  0.00     0.044 C 
ATOM     10  O   UNL     1     -18.044 -10.136  -8.212  1.00  0.00    -0.550 OA
ATOM     11  O   UNL     1     -18.721  -8.280  -7.055  1.00  0.00    -0.550 OA
ENDBRANCH   7   9
ENDBRANCH   6   7
ENDBRANCH   5   6
ENDBRANCH   4   5
ENDBRANCH   3   4
ENDBRANCH   2   3
ENDBRANCH   1   2
BRANCH   1  12
ATOM     12  C   UNL     1     -23.582  -8.983  -7.076  1.00  0.00     0.000 C 
BRANCH  12  13
ATOM     13  C   UNL     1     -24.449  -9.360  -5.869  1.00  0.00    -0.000 C 
BRANCH  13  14
ATOM     14  C   UNL     1     -24.197  -8.406  -4.692  1.00  0.00    -0.000 C 
BRANCH  14  15
ATOM     15  C   UNL     1     -25.458  -7.630  -4.280  1.00  0.00    -0.000 C 
BRANCH  15  16
ATOM     16  C   UNL     1     -25.491  -6.204  -4.857  1.00  0.00    -0.000 C 
BRANCH  16  17
ATOM     17  C   UNL     1     -26.763  -5.926  -5.673  1.00  0.00    -0.000 C 
BRANCH  17  18
ATOM     18  C   UNL     1     -26.581  -6.224  -7.168  1.00  0.00    -0.003 C 
ATOM     19  C   UNL     1     -25.220  -5.743  -7.663  1.00  0.00     0.004 C 
ENDBRANCH  17  18
ENDBRANCH  16  17
ENDBRANCH  15  16
ENDBRANCH  14  15
ENDBRANCH  13  14
ENDBRANCH  12  13
ENDBRANCH   1  12
TORSDOF 14
ENDMDL
MODEL 4
REMARK VINA RESULT:    -3.898      3.087      6.615
REMARK INTER + INTRA:          -9.706
REMARK INTER:                  -7.615
REMARK INTRA:                  -2.091
REMARK UNBOUND:                -2.617
REMARK SMILES CCCCCCCCCCCCCC[C@H](C)C(=O)[O-]
REMARK SMILES IDX 9 1 10 2 11 3 12 4 13 5 14 6 15 7 16 8 17 9 18 10 19 11 8 12
REMARK SMILES IDX 7 13 6 14 5 15 4 16 3 17 2 18 1 19
REMARK H PARENT
REMARK Flexibility Score: inf
ROOT
ATOM      1  C   UNL     1     -22.833  -9.047  -4.003  1.00  0.00     0.000 C 
ENDROOT
BRANCH   1   2
ATOM      2  C   UNL     1     -24.098  -9.671  -4.603  1.00  0.00     0.000 C 
BRANCH   2   3
ATOM      3  C   UNL     1     -24.557  -8.895  -5.847  1.00  0.00     0.000 C 
BRANCH   3   4
ATOM      4  C   UNL     1     -23.690  -7.659  -6.130  1.00  0.00     0.000 C 
BRANCH   4   5
ATOM      5  C   UNL     1     -24.526  -6.391  -6.378  1.00  0.00     0.001 C 
BRANCH   5   6
ATOM      6  C   UNL     1     -26.026  -6.601  -6.082  1.00  0.00     0.009 C 
BRANCH   6   7
ATOM      7  C   UNL     1     -26.568  -5.686  -4.960  1.00  0.00     0.032 C 
ATOM      8  C   UNL     1     -26.474  -4.213  -5.375  1.00  0.00     0.014 C 
BRANCH   7   9
ATOM      9  C   UNL     1     -25.829  -5.894  -3.667  1.00  0.00     0.044 C 
ATOM     10  O   UNL     1     -25.821  -7.027  -3.118  1.00  0.00    -0.550 OA
ATOM     11  O   UNL     1     -25.141  -4.841  -3.074  1.00  0.00    -0.550 OA
ENDBRANCH   7   9
ENDBRANCH   6   7
ENDBRANCH   5   6
ENDBRANCH   4   5
ENDBRANCH   3   4
ENDBRANCH   2   3
ENDBRANCH   1   2
BRANCH   1  12
ATOM     12  C   UNL     1     -21.671 -10.047  -4.003  1.00  0.00     0.000 C 
BRANCH  12  13
ATOM     13  C   UNL     1     -22.059 -11.343  -4.725  1.00  0.00    -0.000 C 
BRANCH  13  14
ATOM     14  C   UNL     1     -21.164 -11.578  -5.951  1.00  0.00    -0.000 C 
BRANCH  14  15
ATOM     15  C   UNL     1     -21.555 -10.696  -7.147  1.00  0.00    -0.000 C 
BRANCH  15  16
ATOM     16  C   UNL     1     -20.583  -9.522  -7.360  1.00  0.00    -0.000 C 
BRANCH  16  17
ATOM     17  C   UNL     1     -19.116  -9.975  -7.422  1.00  0.00    -0.000 C 
BRANCH  17  18
ATOM     18  C   UNL     1     -18.280  -9.428  -6.257  1.00  0.00    -0.003 C 
ATOM     19  C   UNL     1     -17.573 -10.556  -5.510  1.00  0.00     0.004 C 
ENDBRANCH  17  18
ENDBRANCH  16  17
ENDBRANCH  15  16
ENDBRANCH  14  15
ENDBRANCH  13  14
ENDBRANCH  12  13
ENDBRANCH   1  12
TORSDOF 14
ENDMDL
MODEL 5
REMARK VINA RESULT:    -3.864      3.216      6.822
REMARK INTER + INTRA:          -9.643
REMARK INTER:                  -7.481
REMARK INTRA:                  -2.163
REMARK UNBOUND:                -2.617
REMARK SMILES CCCCCCCCCCCCCC[C@H](C)C(=O)[O-]
REMARK SMILES IDX 9 1 10 2 11 3 12 4 13 5 14 6 15 7 16 8 17 9 18 10 19 11 8 12
REMARK SMILES IDX 7 13 6 14 5 15 4 16 3 17 2 18 1 19
REMARK H PARENT
REMARK Flexibility Score: inf
ROOT
ATOM      1  C   UNL     1     -23.662  -7.596  -6.198  1.00  0.00     0.000 C 
ENDROOT
BRANCH   1   2
ATOM      2  C   UNL     1     -24.477  -6.430  -6.769  1.00  0.00     0.000 C 
BRANCH   2   3
ATOM      3  C   UNL     1     -25.982  -6.726  -6.702  1.00  0.00     0.000 C 
BRANCH   3   4
ATOM      4  C   UNL     1     -26.768  -5.643  -5.945  1.00  0.00     0.000 C 
BRANCH   4   5
ATOM      5  C   UNL     1     -26.764  -5.862  -4.422  1.00  0.00     0.001 C 
BRANCH   5   6
ATOM      6  C   UNL     1     -25.860  -4.853  -3.680  1.00  0.00     0.009 C 
BRANCH   6   7
ATOM      7  C   UNL     1     -24.601  -5.496  -3.055  1.00  0.00     0.032 C 
ATOM      8  C   UNL     1     -24.925  -6.890  -2.505  1.00  0.00     0.014 C 
BRANCH   7   9
ATOM      9  C   UNL     1     -24.026  -4.642  -1.960  1.00  0.00     0.044 C 
ATOM     10  O   UNL     1     -23.869  -3.405  -2.138  1.00  0.00    -0.550 OA
ATOM     11  O   UNL     1     -23.673  -5.208  -0.740  1.00  0.00    -0.550 OA
ENDBRANCH   7   9
ENDBRANCH   6   7
ENDBRANCH   5   6
ENDBRANCH   4   5
ENDBRANCH   3   4
ENDBRANCH   2   3
ENDBRANCH   1   2
BRANCH   1  12
ATOM     12  C   UNL     1     -24.521  -8.858  -6.067  1.00  0.00     0.000 C 
BRANCH  12  13
ATOM     13  C   UNL     1     -24.293  -9.543  -4.714  1.00  0.00    -0.000 C 
BRANCH  13  14
ATOM     14  C   UNL     1     -22.793  -9.703  -4.425  1.00  0.00    -0.000 C 
BRANCH  14  15
ATOM     15  C   UNL     1     -22.333 -11.168  -4.479  1.00  0.00    -0.000 C 
BRANCH  15  16
ATOM     16  C   UNL     1     -21.502 -11.482  -5.735  1.00  0.00    -0.000 C 
BRANCH  16  17
ATOM     17  C   UNL     1     -20.409 -10.434  -5.997  1.00  0.00    -0.000 C 
BRANCH  17  18
ATOM     18  C   UNL     1     -20.341 -10.006  -7.470  1.00  0.00    -0.003 C 
ATOM     19  C   UNL     1     -21.737  -9.922  -8.082  1.00  0.00     0.004 C 
ENDBRANCH  17  18
ENDBRANCH  16  17
ENDBRANCH  15  16
ENDBRANCH  14  15
ENDBRANCH  13  14
ENDBRANCH  12  13
ENDBRANCH   1  12
TORSDOF 14
ENDMDL
MODEL 6
REMARK VINA RESULT:    -3.858      0.963      2.312
REMARK INTER + INTRA:          -9.633
REMARK INTER:                  -7.191
REMARK INTRA:                  -2.442
REMARK UNBOUND:                -2.617
REMARK SMILES CCCCCCCCCCCCCC[C@H](C)C(=O)[O-]
REMARK SMILES IDX 9 1 10 2 11 3 12 4 13 5 14 6 15 7 16 8 17 9 18 10 19 11 8 12
REMARK SMILES IDX 7 13 6 14 5 15 4 16 3 17 2 18 1 19
REMARK H PARENT
REMARK Flexibility Score: inf
ROOT
ATOM      1  C   UNL     1     -24.724  -8.733  -6.446  1.00  0.00     0.000 C 
ENDROOT
BRANCH   1   2
ATOM      2  C   UNL     1     -24.505  -9.342  -5.057  1.00  0.00     0.000 C 
BRANCH   2   3
ATOM      3  C   UNL     1     -23.166  -8.884  -4.460  1.00  0.00     0.000 C 
BRANCH   3   4
ATOM      4  C   UNL     1     -22.298 -10.056  -3.977  1.00  0.00     0.000 C 
BRANCH   4   5
ATOM      5  C   UNL     1     -22.065 -11.112  -5.072  1.00  0.00     0.001 C 
BRANCH   5   6
ATOM      6  C   UNL     1     -20.617 -11.101  -5.609  1.00  0.00     0.009 C 
BRANCH   6   7
ATOM      7  C   UNL     1     -20.320  -9.920  -6.560  1.00  0.00     0.032 C 
ATOM      8  C   UNL     1     -21.234  -9.978  -7.791  1.00  0.00     0.014 C 
BRANCH   7   9
ATOM      9  C   UNL     1     -18.882  -9.907  -7.000  1.00  0.00     0.044 C 
ATOM     10  O   UNL     1     -17.972 -10.234  -6.194  1.00  0.00    -0.550 OA
ATOM     11  O   UNL     1     -18.549  -9.544  -8.299  1.00  0.00    -0.550 OA
ENDBRANCH   7   9
ENDBRANCH   6   7
ENDBRANCH   5   6
ENDBRANCH   4   5
ENDBRANCH   3   4
ENDBRANCH   2   3
ENDBRANCH   1   2
BRANCH   1  12
ATOM     12  C   UNL     1     -23.787  -7.543  -6.681  1.00  0.00     0.000 C 
BRANCH  12  13
ATOM     13  C   UNL     1     -24.557  -6.333  -7.224  1.00  0.00    -0.000 C 
BRANCH  13  14
ATOM     14  C   UNL     1     -26.056  -6.449  -6.909  1.00  0.00    -0.000 C 
BRANCH  14  15
ATOM     15  C   UNL     1     -26.503  -5.487  -5.796  1.00  0.00    -0.000 C 
BRANCH  15  16
ATOM     16  C   UNL     1     -26.600  -6.175  -4.423  1.00  0.00    -0.000 C 
BRANCH  16  17
ATOM     17  C   UNL     1     -25.740  -5.483  -3.354  1.00  0.00    -0.000 C 
BRANCH  17  18
ATOM     18  C   UNL     1     -24.684  -4.547  -3.961  1.00  0.00    -0.003 C 
ATOM     19  C   UNL     1     -23.288  -5.154  -3.857  1.00  0.00     0.004 C 
ENDBRANCH  17  18
ENDBRANCH  16  17
ENDBRANCH  15  16
ENDBRANCH  14  15
ENDBRANCH  13  14
ENDBRANCH  12  13
ENDBRANCH   1  12
TORSDOF 14
ENDMDL
MODEL 7
REMARK VINA RESULT:    -3.841      1.464      3.007
REMARK INTER + INTRA:          -9.601
REMARK INTER:                  -7.226
REMARK INTRA:                  -2.375
REMARK UNBOUND:                -2.617
REMARK SMILES CCCCCCCCCCCCCC[C@H](C)C(=O)[O-]
REMARK SMILES IDX 9 1 10 2 11 3 12 4 13 5 14 6 15 7 16 8 17 9 18 10 19 11 8 12
REMARK SMILES IDX 7 13 6 14 5 15 4 16 3 17 2 18 1 19
REMARK H PARENT
REMARK Flexibility Score: inf
ROOT
ATOM      1  C   UNL     1     -24.558  -7.035  -3.584  1.00  0.00     0.000 C 
ENDROOT
BRANCH   1   2
ATOM      2  C   UNL     1     -23.678  -8.041  -4.335  1.00  0.00     0.000 C 
BRANCH   2   3
ATOM      3  C   UNL     1     -24.521  -9.189  -4.908  1.00  0.00     0.000 C 
BRANCH   3   4
ATOM      4  C   UNL     1     -24.333  -9.366  -6.423  1.00  0.00     0.000 C 
BRANCH   4   5
ATOM      5  C   UNL     1     -22.936  -8.934  -6.903  1.00  0.00     0.001 C 
BRANCH   5   6
ATOM      6  C   UNL     1     -22.328  -9.920  -7.923  1.00  0.00     0.009 C 
BRANCH   6   7
ATOM      7  C   UNL     1     -21.107 -10.696  -7.379  1.00  0.00     0.032 C 
ATOM      8  C   UNL     1     -21.487 -11.482  -6.119  1.00  0.00     0.014 C 
BRANCH   7   9
ATOM      9  C   UNL     1     -19.956  -9.778  -7.073  1.00  0.00     0.044 C 
ATOM     10  O   UNL     1     -19.485  -9.033  -7.972  1.00  0.00    -0.550 OA
ATOM     11  O   UNL     1     -19.410  -9.739  -5.796  1.00  0.00    -0.550 OA
ENDBRANCH   7   9
ENDBRANCH   6   7
ENDBRANCH   5   6
ENDBRANCH   4   5
ENDBRANCH   3   4
ENDBRANCH   2   3
ENDBRANCH   1   2
BRANCH   1  12
ATOM     12  C   UNL     1     -26.016  -7.123  -4.048  1.00  0.00     0.000 C 
BRANCH  12  13
ATOM     13  C   UNL     1     -26.663  -5.734  -4.103  1.00  0.00    -0.000 C 
BRANCH  13  14
ATOM     14  C   UNL     1     -27.068  -5.372  -5.540  1.00  0.00    -0.000 C 
BRANCH  14  15
ATOM     15  C   UNL     1     -26.428  -6.298  -6.586  1.00  0.00    -0.000 C 
BRANCH  15  16
ATOM     16  C   UNL     1     -25.305  -5.608  -7.380  1.00  0.00    -0.000 C 
BRANCH  16  17
ATOM     17  C   UNL     1     -24.919  -4.243  -6.790  1.00  0.00    -0.000 C 
BRANCH  17  18
ATOM     18  C   UNL     1     -23.588  -4.285  -6.026  1.00  0.00    -0.003 C 
ATOM     19  C   UNL     1     -22.625  -5.289  -6.655  1.00  0.00     0.004 C 
ENDBRANCH  17  18
ENDBRANCH  16  17
ENDBRANCH  15  16
ENDBRANCH  14  15
ENDBRANCH  13  14
ENDBRANCH  12  13
ENDBRANCH   1  12
TORSDOF 14
ENDMDL
MODEL 8
REMARK VINA RESULT:    -3.839      1.227      2.685
REMARK INTER + INTRA:          -9.598
REMARK INTER:                  -7.617
REMARK INTRA:                  -1.981
REMARK UNBOUND:                -2.617
REMARK SMILES CCCCCCCCCCCCCC[C@H](C)C(=O)[O-]
REMARK SMILES IDX 9 1 10 2 11 3 12 4 13 5 14 6 15 7 16 8 17 9 18 10 19 11 8 12
REMARK SMILES IDX 7 13 6 14 5 15 4 16 3 17 2 18 1 19
REMARK H PARENT
REMARK Flexibility Score: inf
ROOT
ATOM      1  C   UNL     1     -24.171  -9.379  -4.483  1.00  0.00     0.000 C 
ENDROOT
BRANCH   1   2
ATOM      2  C   UNL     1     -24.178  -9.687  -5.985  1.00  0.00     0.000 C 
BRANCH   2   3
ATOM      3  C   UNL     1     -22.771  -9.542  -6.582  1.00  0.00     0.000 C 
BRANCH   3   4
ATOM      4  C   UNL     1     -22.168 -10.886  -7.019  1.00  0.00     0.000 C 
BRANCH   4   5
ATOM      5  C   UNL     1     -21.343 -11.557  -5.906  1.00  0.00     0.001 C 
BRANCH   5   6
ATOM      6  C   UNL     1     -20.438 -10.557  -5.154  1.00  0.00     0.009 C 
BRANCH   6   7
ATOM      7  C   UNL     1     -19.079 -10.312  -5.848  1.00  0.00     0.032 C 
ATOM      8  C   UNL     1     -17.950 -11.015  -5.085  1.00  0.00     0.014 C 
BRANCH   7   9
ATOM      9  C   UNL     1     -18.771  -8.845  -5.966  1.00  0.00     0.044 C 
ATOM     10  O   UNL     1     -17.591  -8.462  -6.181  1.00  0.00    -0.550 OA
ATOM     11  O   UNL     1     -19.786  -7.903  -5.849  1.00  0.00    -0.550 OA
ENDBRANCH   7   9
ENDBRANCH   6   7
ENDBRANCH   5   6
ENDBRANCH   4   5
ENDBRANCH   3   4
ENDBRANCH   2   3
ENDBRANCH   1   2
BRANCH   1  12
ATOM     12  C   UNL     1     -23.327  -8.136  -4.179  1.00  0.00     0.000 C 
BRANCH  12  13
ATOM     13  C   UNL     1     -23.989  -7.270  -3.100  1.00  0.00    -0.000 C 
BRANCH  13  14
ATOM     14  C   UNL     1     -25.513  -7.225  -3.290  1.00  0.00    -0.000 C 
BRANCH  14  15
ATOM     15  C   UNL     1     -26.041  -5.796  -3.493  1.00  0.00    -0.000 C 
BRANCH  15  16
ATOM     16  C   UNL     1     -27.032  -5.693  -4.665  1.00  0.00    -0.000 C 
BRANCH  16  17
ATOM     17  C   UNL     1     -26.362  -5.220  -5.965  1.00  0.00    -0.000 C 
BRANCH  17  18
ATOM     18  C   UNL     1     -25.987  -6.385  -6.893  1.00  0.00    -0.003 C 
ATOM     19  C   UNL     1     -24.519  -6.310  -7.302  1.00  0.00     0.004 C 
ENDBRANCH  17  18
ENDBRANCH  16  17
ENDBRANCH  15  16
ENDBRANCH  14  15
ENDBRANCH  13  14
ENDBRANCH  12  13
ENDBRANCH   1  12
TORSDOF 14
ENDMDL
MODEL 9
REMARK VINA RESULT:    -3.827      2.040      3.131
REMARK INTER + INTRA:          -9.575
REMARK INTER:                  -8.109
REMARK INTRA:                  -1.466
REMARK UNBOUND:                -2.617
REMARK SMILES CCCCCCCCCCCCCC[C@H](C)C(=O)[O-]
REMARK SMILES IDX 9 1 10 2 11 3 12 4 13 5 14 6 15 7 16 8 17 9 18 10 19 11 8 12
REMARK SMILES IDX 7 13 6 14 5 15 4 16 3 17 2 18 1 19
REMARK H PARENT
REMARK Flexibility Score: inf
ROOT
ATOM      1  C   UNL     1     -23.806  -8.160  -4.139  1.00  0.00     0.000 C 
ENDROOT
BRANCH   1   2
ATOM      2  C   UNL     1     -24.381  -9.372  -4.881  1.00  0.00     0.000 C 
BRANCH   2   3
ATOM      3  C   UNL     1     -24.574  -9.063  -6.373  1.00  0.00     0.000 C 
BRANCH   3   4
ATOM      4  C   UNL     1     -23.248  -8.787  -7.099  1.00  0.00     0.000 C 
BRANCH   4   5
ATOM      5  C   UNL     1     -22.528 -10.077  -7.532  1.00  0.00     0.001 C 
BRANCH   5   6
ATOM      6  C   UNL     1     -20.994  -9.977  -7.387  1.00  0.00     0.009 C 
BRANCH   6   7
ATOM      7  C   UNL     1     -20.439 -10.742  -6.164  1.00  0.00     0.032 C 
ATOM      8  C   UNL     1     -21.466 -11.761  -5.655  1.00  0.00     0.014 C 
BRANCH   7   9
ATOM      9  C   UNL     1     -20.060  -9.808  -5.048  1.00  0.00     0.044 C 
ATOM     10  O   UNL     1     -19.449 -10.245  -4.038  1.00  0.00    -0.550 OA
ATOM     11  O   UNL     1     -20.374  -8.456  -5.128  1.00  0.00    -0.550 OA
ENDBRANCH   7   9
ENDBRANCH   6   7
ENDBRANCH   5   6
ENDBRANCH   4   5
ENDBRANCH   3   4
ENDBRANCH   2   3
ENDBRANCH   1   2
BRANCH   1  12
ATOM     12  C   UNL     1     -24.832  -7.570  -3.166  1.00  0.00     0.000 C 
BRANCH  12  13
ATOM     13  C   UNL     1     -25.336  -6.207  -3.655  1.00  0.00    -0.000 C 
BRANCH  13  14
ATOM     14  C   UNL     1     -26.477  -6.373  -4.670  1.00  0.00    -0.000 C 
BRANCH  14  15
ATOM     15  C   UNL     1     -26.837  -5.057  -5.376  1.00  0.00    -0.000 C 
BRANCH  15  16
ATOM     16  C   UNL     1     -25.866  -3.914  -5.029  1.00  0.00    -0.000 C 
BRANCH  16  17
ATOM     17  C   UNL     1     -26.388  -2.540  -5.476  1.00  0.00    -0.000 C 
BRANCH  17  18
ATOM     18  C   UNL     1     -25.863  -1.395  -4.599  1.00  0.00    -0.003 C 
ATOM     19  C   UNL     1     -25.654  -1.857  -3.159  1.00  0.00     0.004 C 
ENDBRANCH  17  18
ENDBRANCH  16  17
ENDBRANCH  15  16
ENDBRANCH  14  15
ENDBRANCH  13  14
ENDBRANCH  12  13
ENDBRANCH   1  12
TORSDOF 14
ENDMDL
