MODEL 1
REMARK VINA RESULT:    -5.813      0.000      0.000
REMARK INTER + INTRA:          -7.117
REMARK INTER:                  -6.833
REMARK INTRA:                  -0.284
REMARK UNBOUND:                -0.284
REMARK SMILES O=c1cc(-c2ccc(O)c(O)c2)oc2cc(O)cc(O)c12
REMARK SMILES IDX 4 1 3 2 2 3 1 4 21 5 19 6 18 7 16 8 15 9 14 10 13 11 5 12
REMARK SMILES IDX 6 13 7 14 8 15 12 16 10 17 9 18 11 20 20 22 17 24
REMARK H PARENT 9 19 11 21 20 23 17 25
REMARK Flexibility Score: inf
ROOT
ATOM      1  C   UNL     1      -0.897  39.810   7.415  1.00  0.00     0.138 A 
ATOM      2  C   UNL     1       0.327  40.470   7.221  1.00  0.00     0.100 A 
ATOM      3  C   UNL     1       1.403  39.774   6.668  1.00  0.00     0.197 A 
ATOM      4  O   UNL     1       2.498  40.374   6.498  1.00  0.00    -0.289 OA
ATOM      5  C   UNL     1       1.248  38.418   6.317  1.00  0.00     0.107 A 
ATOM      6  C   UNL     1       2.285  37.640   5.752  1.00  0.00     0.134 A 
ATOM      7  C   UNL     1       2.051  36.294   5.435  1.00  0.00     0.093 A 
ATOM      8  C   UNL     1       0.803  35.712   5.672  1.00  0.00     0.123 A 
ATOM      9  C   UNL     1      -0.227  36.476   6.231  1.00  0.00     0.094 A 
ATOM     10  C   UNL     1      -0.013  37.820   6.553  1.00  0.00     0.146 A 
ATOM     11  O   UNL     1      -1.009  38.526   7.082  1.00  0.00    -0.456 OA
ENDROOT
BRANCH   1  12
ATOM     12  C   UNL     1      -2.074  40.501   7.999  1.00  0.00     0.021 A 
ATOM     13  C   UNL     1      -2.518  41.709   7.432  1.00  0.00     0.016 A 
ATOM     14  C   UNL     1      -3.618  42.382   7.966  1.00  0.00     0.051 A 
ATOM     15  C   UNL     1      -4.288  41.868   9.083  1.00  0.00     0.157 A 
ATOM     16  C   UNL     1      -2.745  39.996   9.130  1.00  0.00     0.062 A 
ATOM     17  C   UNL     1      -3.847  40.671   9.669  1.00  0.00     0.158 A 
BRANCH  15  18
ATOM     18  O   UNL     1      -5.387  42.543   9.613  1.00  0.00    -0.504 OA
ATOM     19  H   UNL     1      -5.906  43.223   9.070  1.00  0.00     0.293 HD
ENDBRANCH  15  18
BRANCH  17  20
ATOM     20  O   UNL     1      -4.486  40.139  10.788  1.00  0.00    -0.504 OA
ATOM     21  H   UNL     1      -5.307  39.552  10.711  1.00  0.00     0.293 HD
ENDBRANCH  17  20
ENDBRANCH   1  12
BRANCH   6  22
ATOM     22  O   UNL     1       3.542  38.193   5.503  1.00  0.00    -0.507 OA
ATOM     23  H   UNL     1       4.358  37.612   5.344  1.00  0.00     0.293 HD
ENDBRANCH   6  22
BRANCH   8  24
ATOM     24  O   UNL     1       0.597  34.373   5.350  1.00  0.00    -0.508 OA
ATOM     25  H   UNL     1      -0.266  33.897   5.588  1.00  0.00     0.293 HD
ENDBRANCH   8  24
TORSDOF 5
ENDMDL
MODEL 2
REMARK VINA RESULT:    -5.737      2.981      7.231
REMARK INTER + INTRA:          -7.027
REMARK INTER:                  -6.763
REMARK INTRA:                  -0.264
REMARK UNBOUND:                -0.284
REMARK SMILES O=c1cc(-c2ccc(O)c(O)c2)oc2cc(O)cc(O)c12
REMARK SMILES IDX 4 1 3 2 2 3 1 4 21 5 19 6 18 7 16 8 15 9 14 10 13 11 5 12
REMARK SMILES IDX 6 13 7 14 8 15 12 16 10 17 9 18 11 20 20 22 17 24
REMARK H PARENT 9 19 11 21 20 23 17 25
REMARK Flexibility Score: inf
ROOT
ATOM      1  C   UNL     1       2.654  38.017   6.881  1.00  0.00     0.138 A 
ATOM      2  C   UNL     1       2.238  36.953   6.064  1.00  0.00     0.100 A 
ATOM      3  C   UNL     1       0.889  36.832   5.727  1.00  0.00     0.197 A 
ATOM      4  O   UNL     1       0.525  35.873   4.994  1.00  0.00    -0.289 OA
ATOM      5  C   UNL     1      -0.037  37.775   6.214  1.00  0.00     0.107 A 
ATOM      6  C   UNL     1      -1.420  37.727   5.921  1.00  0.00     0.134 A 
ATOM      7  C   UNL     1      -2.278  38.703   6.450  1.00  0.00     0.093 A 
ATOM      8  C   UNL     1      -1.781  39.723   7.264  1.00  0.00     0.123 A 
ATOM      9  C   UNL     1      -0.414  39.776   7.559  1.00  0.00     0.094 A 
ATOM     10  C   UNL     1       0.457  38.813   7.040  1.00  0.00     0.146 A 
ATOM     11  O   UNL     1       1.753  38.886   7.333  1.00  0.00    -0.456 OA
ENDROOT
BRANCH   1  12
ATOM     12  C   UNL     1       4.075  38.194   7.272  1.00  0.00     0.021 A 
ATOM     13  C   UNL     1       4.860  39.152   6.606  1.00  0.00     0.016 A 
ATOM     14  C   UNL     1       6.201  39.334   6.950  1.00  0.00     0.051 A 
ATOM     15  C   UNL     1       6.786  38.555   7.956  1.00  0.00     0.157 A 
ATOM     16  C   UNL     1       4.672  37.405   8.274  1.00  0.00     0.062 A 
ATOM     17  C   UNL     1       6.018  37.584   8.618  1.00  0.00     0.158 A 
BRANCH  15  18
ATOM     18  O   UNL     1       8.125  38.740   8.296  1.00  0.00    -0.504 OA
ATOM     19  H   UNL     1       8.413  38.888   9.256  1.00  0.00     0.293 HD
ENDBRANCH  15  18
BRANCH  17  20
ATOM     20  O   UNL     1       6.573  36.785   9.617  1.00  0.00    -0.504 OA
ATOM     21  H   UNL     1       7.002  35.890   9.414  1.00  0.00     0.293 HD
ENDBRANCH  17  20
ENDBRANCH   1  12
BRANCH   6  22
ATOM     22  O   UNL     1      -1.946  36.721   5.109  1.00  0.00    -0.507 OA
ATOM     23  H   UNL     1      -2.558  36.931   4.329  1.00  0.00     0.293 HD
ENDBRANCH   6  22
BRANCH   8  24
ATOM     24  O   UNL     1      -2.654  40.679   7.778  1.00  0.00    -0.508 OA
ATOM     25  H   UNL     1      -3.097  40.561   8.682  1.00  0.00     0.293 HD
ENDBRANCH   8  24
TORSDOF 5
ENDMDL
MODEL 3
REMARK VINA RESULT:    -5.730      3.680      6.188
REMARK INTER + INTRA:          -7.020
REMARK INTER:                  -6.754
REMARK INTRA:                  -0.266
REMARK UNBOUND:                -0.284
REMARK SMILES O=c1cc(-c2ccc(O)c(O)c2)oc2cc(O)cc(O)c12
REMARK SMILES IDX 4 1 3 2 2 3 1 4 21 5 19 6 18 7 16 8 15 9 14 10 13 11 5 12
REMARK SMILES IDX 6 13 7 14 8 15 12 16 10 17 9 18 11 20 20 22 17 24
REMARK H PARENT 9 19 11 21 20 23 17 25
REMARK Flexibility Score: inf
ROOT
ATOM      1  C   UNL     1       3.235  37.927   6.388  1.00  0.00     0.138 A 
ATOM      2  C   UNL     1       3.700  38.823   5.412  1.00  0.00     0.100 A 
ATOM      3  C   UNL     1       4.955  39.415   5.565  1.00  0.00     0.197 A 
ATOM      4  O   UNL     1       5.364  40.219   4.684  1.00  0.00    -0.289 OA
ATOM      5  C   UNL     1       5.735  39.109   6.697  1.00  0.00     0.107 A 
ATOM      6  C   UNL     1       7.016  39.663   6.930  1.00  0.00     0.134 A 
ATOM      7  C   UNL     1       7.727  39.311   8.086  1.00  0.00     0.093 A 
ATOM      8  C   UNL     1       7.183  38.419   9.013  1.00  0.00     0.123 A 
ATOM      9  C   UNL     1       5.917  37.867   8.790  1.00  0.00     0.094 A 
ATOM     10  C   UNL     1       5.193  38.205   7.642  1.00  0.00     0.146 A 
ATOM     11  O   UNL     1       3.992  37.666   7.452  1.00  0.00    -0.456 OA
ENDROOT
BRANCH   1  12
ATOM     12  C   UNL     1       1.909  37.269   6.278  1.00  0.00     0.021 A 
ATOM     13  C   UNL     1       1.781  36.099   5.507  1.00  0.00     0.016 A 
ATOM     14  C   UNL     1       0.543  35.464   5.381  1.00  0.00     0.051 A 
ATOM     15  C   UNL     1      -0.590  35.992   6.012  1.00  0.00     0.157 A 
ATOM     16  C   UNL     1       0.763  37.801   6.898  1.00  0.00     0.062 A 
ATOM     17  C   UNL     1      -0.480  37.168   6.771  1.00  0.00     0.158 A 
BRANCH  15  18
ATOM     18  O   UNL     1      -1.824  35.355   5.884  1.00  0.00    -0.504 OA
ATOM     19  H   UNL     1      -2.237  35.176   4.976  1.00  0.00     0.293 HD
ENDBRANCH  15  18
BRANCH  17  20
ATOM     20  O   UNL     1      -1.591  37.725   7.402  1.00  0.00    -0.504 OA
ATOM     21  H   UNL     1      -2.451  37.207   7.533  1.00  0.00     0.293 HD
ENDBRANCH  17  20
ENDBRANCH   1  12
BRANCH   6  22
ATOM     22  O   UNL     1       7.586  40.557   6.022  1.00  0.00    -0.507 OA
ATOM     23  H   UNL     1       8.082  40.236   5.198  1.00  0.00     0.293 HD
ENDBRANCH   6  22
BRANCH   8  24
ATOM     24  O   UNL     1       7.909  38.087  10.154  1.00  0.00    -0.508 OA
ATOM     25  H   UNL     1       8.829  37.663  10.093  1.00  0.00     0.293 HD
ENDBRANCH   8  24
TORSDOF 5
ENDMDL
MODEL 4
REMARK VINA RESULT:    -5.607      4.231      5.256
REMARK INTER + INTRA:          -6.875
REMARK INTER:                  -6.563
REMARK INTRA:                  -0.312
REMARK UNBOUND:                -0.284
REMARK SMILES O=c1cc(-c2ccc(O)c(O)c2)oc2cc(O)cc(O)c12
REMARK SMILES IDX 4 1 3 2 2 3 1 4 21 5 19 6 18 7 16 8 15 9 14 10 13 11 5 12
REMARK SMILES IDX 6 13 7 14 8 15 12 16 10 17 9 18 11 20 20 22 17 24
REMARK H PARENT 9 19 11 21 20 23 17 25
REMARK Flexibility Score: inf
ROOT
ATOM      1  C   UNL     1       1.607  37.880   5.670  1.00  0.00     0.138 A 
ATOM      2  C   UNL     1       2.115  38.799   4.738  1.00  0.00     0.100 A 
ATOM      3  C   UNL     1       3.403  39.310   4.910  1.00  0.00     0.197 A 
ATOM      4  O   UNL     1       3.851  40.135   4.069  1.00  0.00    -0.289 OA
ATOM      5  C   UNL     1       4.172  38.900   6.016  1.00  0.00     0.107 A 
ATOM      6  C   UNL     1       5.485  39.367   6.264  1.00  0.00     0.134 A 
ATOM      7  C   UNL     1       6.183  38.913   7.393  1.00  0.00     0.093 A 
ATOM      8  C   UNL     1       5.596  38.004   8.277  1.00  0.00     0.123 A 
ATOM      9  C   UNL     1       4.298  37.539   8.037  1.00  0.00     0.094 A 
ATOM     10  C   UNL     1       3.586  37.979   6.917  1.00  0.00     0.146 A 
ATOM     11  O   UNL     1       2.355  37.520   6.710  1.00  0.00    -0.456 OA
ENDROOT
BRANCH   1  12
ATOM     12  C   UNL     1       0.244  37.305   5.539  1.00  0.00     0.021 A 
ATOM     13  C   UNL     1      -0.718  37.979   4.765  1.00  0.00     0.016 A 
ATOM     14  C   UNL     1      -2.009  37.464   4.631  1.00  0.00     0.051 A 
ATOM     15  C   UNL     1      -2.366  36.273   5.274  1.00  0.00     0.157 A 
ATOM     16  C   UNL     1      -0.125  36.115   6.194  1.00  0.00     0.062 A 
ATOM     17  C   UNL     1      -1.420  35.598   6.063  1.00  0.00     0.158 A 
BRANCH  15  18
ATOM     18  O   UNL     1      -3.655  35.762   5.138  1.00  0.00    -0.504 OA
ATOM     19  H   UNL     1      -4.283  36.091   4.413  1.00  0.00     0.293 HD
ENDBRANCH  15  18
BRANCH  17  20
ATOM     20  O   UNL     1      -1.747  34.416   6.725  1.00  0.00    -0.504 OA
ATOM     21  H   UNL     1      -1.099  33.950   7.348  1.00  0.00     0.293 HD
ENDBRANCH  17  20
ENDBRANCH   1  12
BRANCH   6  22
ATOM     22  O   UNL     1       6.098  40.274   5.400  1.00  0.00    -0.507 OA
ATOM     23  H   UNL     1       5.726  41.205   5.252  1.00  0.00     0.293 HD
ENDBRANCH   6  22
BRANCH   8  24
ATOM     24  O   UNL     1       6.310  37.571   9.391  1.00  0.00    -0.508 OA
ATOM     25  H   UNL     1       7.064  36.898   9.308  1.00  0.00     0.293 HD
ENDBRANCH   8  24
TORSDOF 5
ENDMDL
MODEL 5
REMARK VINA RESULT:    -5.586      1.967      2.918
REMARK INTER + INTRA:          -6.850
REMARK INTER:                  -6.566
REMARK INTRA:                  -0.284
REMARK UNBOUND:                -0.284
REMARK SMILES O=c1cc(-c2ccc(O)c(O)c2)oc2cc(O)cc(O)c12
REMARK SMILES IDX 4 1 3 2 2 3 1 4 21 5 19 6 18 7 16 8 15 9 14 10 13 11 5 12
REMARK SMILES IDX 6 13 7 14 8 15 12 16 10 17 9 18 11 20 20 22 17 24
REMARK H PARENT 9 19 11 21 20 23 17 25
REMARK Flexibility Score: inf
ROOT
ATOM      1  C   UNL     1      -2.663  39.549   7.966  1.00  0.00     0.138 A 
ATOM      2  C   UNL     1      -1.391  39.761   7.408  1.00  0.00     0.100 A 
ATOM      3  C   UNL     1      -0.687  38.680   6.873  1.00  0.00     0.197 A 
ATOM      4  O   UNL     1       0.454  38.879   6.377  1.00  0.00    -0.289 OA
ATOM      5  C   UNL     1      -1.260  37.394   6.904  1.00  0.00     0.107 A 
ATOM      6  C   UNL     1      -0.616  36.246   6.385  1.00  0.00     0.134 A 
ATOM      7  C   UNL     1      -1.252  34.998   6.459  1.00  0.00     0.093 A 
ATOM      8  C   UNL     1      -2.516  34.876   7.041  1.00  0.00     0.123 A 
ATOM      9  C   UNL     1      -3.158  36.007   7.557  1.00  0.00     0.094 A 
ATOM     10  C   UNL     1      -2.540  37.260   7.492  1.00  0.00     0.146 A 
ATOM     11  O   UNL     1      -3.172  38.320   7.988  1.00  0.00    -0.456 OA
ENDROOT
BRANCH   1  12
ATOM     12  C   UNL     1      -3.455  40.661   8.549  1.00  0.00     0.021 A 
ATOM     13  C   UNL     1      -4.239  40.424   9.692  1.00  0.00     0.016 A 
ATOM     14  C   UNL     1      -5.000  41.450  10.257  1.00  0.00     0.051 A 
ATOM     15  C   UNL     1      -5.000  42.728   9.684  1.00  0.00     0.157 A 
ATOM     16  C   UNL     1      -3.470  41.944   7.970  1.00  0.00     0.062 A 
ATOM     17  C   UNL     1      -4.234  42.974   8.533  1.00  0.00     0.158 A 
BRANCH  15  18
ATOM     18  O   UNL     1      -5.761  43.750  10.250  1.00  0.00    -0.504 OA
ATOM     19  H   UNL     1      -6.128  43.679  11.192  1.00  0.00     0.293 HD
ENDBRANCH  15  18
BRANCH  17  20
ATOM     20  O   UNL     1      -4.222  44.232   7.932  1.00  0.00    -0.504 OA
ATOM     21  H   UNL     1      -5.036  44.615   7.466  1.00  0.00     0.293 HD
ENDBRANCH  17  20
ENDBRANCH   1  12
BRANCH   6  22
ATOM     22  O   UNL     1       0.646  36.336   5.796  1.00  0.00    -0.507 OA
ATOM     23  H   UNL     1       1.282  37.096   6.012  1.00  0.00     0.293 HD
ENDBRANCH   6  22
BRANCH   8  24
ATOM     24  O   UNL     1      -3.125  33.625   7.104  1.00  0.00    -0.508 OA
ATOM     25  H   UNL     1      -3.605  33.228   6.303  1.00  0.00     0.293 HD
ENDBRANCH   8  24
TORSDOF 5
ENDMDL
MODEL 6
REMARK VINA RESULT:    -5.586      1.209      2.759
REMARK INTER + INTRA:          -6.849
REMARK INTER:                  -6.571
REMARK INTRA:                  -0.279
REMARK UNBOUND:                -0.284
REMARK SMILES O=c1cc(-c2ccc(O)c(O)c2)oc2cc(O)cc(O)c12
REMARK SMILES IDX 4 1 3 2 2 3 1 4 21 5 19 6 18 7 16 8 15 9 14 10 13 11 5 12
REMARK SMILES IDX 6 13 7 14 8 15 12 16 10 17 9 18 11 20 20 22 17 24
REMARK H PARENT 9 19 11 21 20 23 17 25
REMARK Flexibility Score: inf
ROOT
ATOM      1  C   UNL     1      -1.688  38.522   7.309  1.00  0.00     0.138 A 
ATOM      2  C   UNL     1      -2.092  37.177   7.293  1.00  0.00     0.100 A 
ATOM      3  C   UNL     1      -1.274  36.220   6.690  1.00  0.00     0.197 A 
ATOM      4  O   UNL     1      -1.645  35.016   6.680  1.00  0.00    -0.289 OA
ATOM      5  C   UNL     1      -0.057  36.618   6.102  1.00  0.00     0.107 A 
ATOM      6  C   UNL     1       0.831  35.715   5.471  1.00  0.00     0.134 A 
ATOM      7  C   UNL     1       2.022  36.191   4.904  1.00  0.00     0.093 A 
ATOM      8  C   UNL     1       2.341  37.550   4.955  1.00  0.00     0.123 A 
ATOM      9  C   UNL     1       1.468  38.449   5.577  1.00  0.00     0.094 A 
ATOM     10  C   UNL     1       0.276  37.993   6.149  1.00  0.00     0.146 A 
ATOM     11  O   UNL     1      -0.537  38.866   6.736  1.00  0.00    -0.456 OA
ENDROOT
BRANCH   1  12
ATOM     12  C   UNL     1      -2.519  39.581   7.935  1.00  0.00     0.021 A 
ATOM     13  C   UNL     1      -2.707  40.801   7.260  1.00  0.00     0.016 A 
ATOM     14  C   UNL     1      -3.478  41.816   7.831  1.00  0.00     0.051 A 
ATOM     15  C   UNL     1      -4.065  41.636   9.089  1.00  0.00     0.157 A 
ATOM     16  C   UNL     1      -3.101  39.412   9.206  1.00  0.00     0.062 A 
ATOM     17  C   UNL     1      -3.873  40.430   9.781  1.00  0.00     0.158 A 
BRANCH  15  18
ATOM     18  O   UNL     1      -4.834  42.652   9.655  1.00  0.00    -0.504 OA
ATOM     19  H   UNL     1      -5.297  42.533  10.548  1.00  0.00     0.293 HD
ENDBRANCH  15  18
BRANCH  17  20
ATOM     20  O   UNL     1      -4.435  40.224  11.040  1.00  0.00    -0.504 OA
ATOM     21  H   UNL     1      -3.904  40.346  11.893  1.00  0.00     0.293 HD
ENDBRANCH  17  20
ENDBRANCH   1  12
BRANCH   6  22
ATOM     22  O   UNL     1       0.540  34.351   5.405  1.00  0.00    -0.507 OA
ATOM     23  H   UNL     1       0.724  33.807   4.571  1.00  0.00     0.293 HD
ENDBRANCH   6  22
BRANCH   8  24
ATOM     24  O   UNL     1       3.529  37.998   4.383  1.00  0.00    -0.508 OA
ATOM     25  H   UNL     1       3.757  38.985   4.338  1.00  0.00     0.293 HD
ENDBRANCH   8  24
TORSDOF 5
ENDMDL
MODEL 7
REMARK VINA RESULT:    -5.451      2.310      7.305
REMARK INTER + INTRA:          -6.691
REMARK INTER:                  -6.412
REMARK INTRA:                  -0.278
REMARK UNBOUND:                -0.284
REMARK SMILES O=c1cc(-c2ccc(O)c(O)c2)oc2cc(O)cc(O)c12
REMARK SMILES IDX 4 1 3 2 2 3 1 4 21 5 19 6 18 7 16 8 15 9 14 10 13 11 5 12
REMARK SMILES IDX 6 13 7 14 8 15 12 16 10 17 9 18 11 20 20 22 17 24
REMARK H PARENT 9 19 11 21 20 23 17 25
REMARK Flexibility Score: inf
ROOT
ATOM      1  C   UNL     1      -2.760  39.022   8.036  1.00  0.00     0.138 A 
ATOM      2  C   UNL     1      -3.439  38.982   9.265  1.00  0.00     0.100 A 
ATOM      3  C   UNL     1      -4.020  40.147   9.767  1.00  0.00     0.197 A 
ATOM      4  O   UNL     1      -4.626  40.102  10.872  1.00  0.00    -0.289 OA
ATOM      5  C   UNL     1      -3.915  41.347   9.037  1.00  0.00     0.107 A 
ATOM      6  C   UNL     1      -4.474  42.572   9.472  1.00  0.00     0.134 A 
ATOM      7  C   UNL     1      -4.320  43.725   8.689  1.00  0.00     0.093 A 
ATOM      8  C   UNL     1      -3.620  43.678   7.481  1.00  0.00     0.123 A 
ATOM      9  C   UNL     1      -3.064  42.470   7.045  1.00  0.00     0.094 A 
ATOM     10  C   UNL     1      -3.207  41.310   7.812  1.00  0.00     0.146 A 
ATOM     11  O   UNL     1      -2.671  40.174   7.375  1.00  0.00    -0.456 OA
ENDROOT
BRANCH   1  12
ATOM     12  C   UNL     1      -2.123  37.814   7.455  1.00  0.00     0.021 A 
ATOM     13  C   UNL     1      -0.828  37.909   6.914  1.00  0.00     0.016 A 
ATOM     14  C   UNL     1      -0.208  36.789   6.355  1.00  0.00     0.051 A 
ATOM     15  C   UNL     1      -0.874  35.558   6.316  1.00  0.00     0.157 A 
ATOM     16  C   UNL     1      -2.792  36.576   7.400  1.00  0.00     0.062 A 
ATOM     17  C   UNL     1      -2.173  35.453   6.838  1.00  0.00     0.158 A 
BRANCH  15  18
ATOM     18  O   UNL     1      -0.252  34.442   5.757  1.00  0.00    -0.504 OA
ATOM     19  H   UNL     1      -0.313  33.528   6.190  1.00  0.00     0.293 HD
ENDBRANCH  15  18
BRANCH  17  20
ATOM     20  O   UNL     1      -2.867  34.244   6.803  1.00  0.00    -0.504 OA
ATOM     21  H   UNL     1      -2.411  33.356   6.973  1.00  0.00     0.293 HD
ENDBRANCH  17  20
ENDBRANCH   1  12
BRANCH   6  22
ATOM     22  O   UNL     1      -5.181  42.650  10.674  1.00  0.00    -0.507 OA
ATOM     23  H   UNL     1      -5.635  41.840  11.078  1.00  0.00     0.293 HD
ENDBRANCH   6  22
BRANCH   8  24
ATOM     24  O   UNL     1      -3.480  44.837   6.723  1.00  0.00    -0.508 OA
ATOM     25  H   UNL     1      -4.238  45.189   6.148  1.00  0.00     0.293 HD
ENDBRANCH   8  24
TORSDOF 5
ENDMDL
MODEL 8
REMARK VINA RESULT:    -5.313      3.781      6.583
REMARK INTER + INTRA:          -6.529
REMARK INTER:                  -6.221
REMARK INTRA:                  -0.308
REMARK UNBOUND:                -0.284
REMARK SMILES O=c1cc(-c2ccc(O)c(O)c2)oc2cc(O)cc(O)c12
REMARK SMILES IDX 4 1 3 2 2 3 1 4 21 5 19 6 18 7 16 8 15 9 14 10 13 11 5 12
REMARK SMILES IDX 6 13 7 14 8 15 12 16 10 17 9 18 11 20 20 22 17 24
REMARK H PARENT 9 19 11 21 20 23 17 25
REMARK Flexibility Score: inf
ROOT
ATOM      1  C   UNL     1       2.040  38.363   6.208  1.00  0.00     0.138 A 
ATOM      2  C   UNL     1       1.376  39.416   5.558  1.00  0.00     0.100 A 
ATOM      3  C   UNL     1       0.035  39.266   5.200  1.00  0.00     0.197 A 
ATOM      4  O   UNL     1      -0.553  40.215   4.616  1.00  0.00    -0.289 OA
ATOM      5  C   UNL     1      -0.632  38.059   5.493  1.00  0.00     0.107 A 
ATOM      6  C   UNL     1      -1.988  37.824   5.166  1.00  0.00     0.134 A 
ATOM      7  C   UNL     1      -2.578  36.593   5.487  1.00  0.00     0.093 A 
ATOM      8  C   UNL     1      -1.839  35.594   6.126  1.00  0.00     0.123 A 
ATOM      9  C   UNL     1      -0.497  35.820   6.451  1.00  0.00     0.094 A 
ATOM     10  C   UNL     1       0.108  37.041   6.140  1.00  0.00     0.146 A 
ATOM     11  O   UNL     1       1.384  37.233   6.461  1.00  0.00    -0.456 OA
ENDROOT
BRANCH   1  12
ATOM     12  C   UNL     1       3.465  38.467   6.611  1.00  0.00     0.021 A 
ATOM     13  C   UNL     1       4.331  39.298   5.876  1.00  0.00     0.016 A 
ATOM     14  C   UNL     1       5.678  39.408   6.229  1.00  0.00     0.051 A 
ATOM     15  C   UNL     1       6.186  38.684   7.314  1.00  0.00     0.157 A 
ATOM     16  C   UNL     1       3.986  37.732   7.692  1.00  0.00     0.062 A 
ATOM     17  C   UNL     1       5.336  37.839   8.047  1.00  0.00     0.158 A 
BRANCH  15  18
ATOM     18  O   UNL     1       7.531  38.797   7.664  1.00  0.00    -0.504 OA
ATOM     19  H   UNL     1       8.005  38.073   8.190  1.00  0.00     0.293 HD
ENDBRANCH  15  18
BRANCH  17  20
ATOM     20  O   UNL     1       5.815  37.096   9.125  1.00  0.00    -0.504 OA
ATOM     21  H   UNL     1       5.608  37.345  10.084  1.00  0.00     0.293 HD
ENDBRANCH  17  20
ENDBRANCH   1  12
BRANCH   6  22
ATOM     22  O   UNL     1      -2.752  38.803   4.528  1.00  0.00    -0.507 OA
ATOM     23  H   UNL     1      -3.171  38.644   3.619  1.00  0.00     0.293 HD
ENDBRANCH   6  22
BRANCH   8  24
ATOM     24  O   UNL     1      -2.447  34.379   6.432  1.00  0.00    -0.508 OA
ATOM     25  H   UNL     1      -2.354  33.571   5.827  1.00  0.00     0.293 HD
ENDBRANCH   8  24
TORSDOF 5
ENDMDL
MODEL 9
REMARK VINA RESULT:    -5.291      1.961      3.363
REMARK INTER + INTRA:          -6.503
REMARK INTER:                  -6.213
REMARK INTRA:                  -0.291
REMARK UNBOUND:                -0.284
REMARK SMILES O=c1cc(-c2ccc(O)c(O)c2)oc2cc(O)cc(O)c12
REMARK SMILES IDX 4 1 3 2 2 3 1 4 21 5 19 6 18 7 16 8 15 9 14 10 13 11 5 12
REMARK SMILES IDX 6 13 7 14 8 15 12 16 10 17 9 18 11 20 20 22 17 24
REMARK H PARENT 9 19 11 21 20 23 17 25
REMARK Flexibility Score: inf
ROOT
ATOM      1  C   UNL     1      -2.694  38.993   7.727  1.00  0.00     0.138 A 
ATOM      2  C   UNL     1      -3.369  37.898   8.289  1.00  0.00     0.100 A 
ATOM      3  C   UNL     1      -2.919  36.603   8.025  1.00  0.00     0.197 A 
ATOM      4  O   UNL     1      -3.533  35.626   8.533  1.00  0.00    -0.289 OA
ATOM      5  C   UNL     1      -1.797  36.413   7.194  1.00  0.00     0.107 A 
ATOM      6  C   UNL     1      -1.275  35.138   6.876  1.00  0.00     0.134 A 
ATOM      7  C   UNL     1      -0.157  35.033   6.036  1.00  0.00     0.093 A 
ATOM      8  C   UNL     1       0.449  36.177   5.510  1.00  0.00     0.123 A 
ATOM      9  C   UNL     1      -0.062  37.442   5.821  1.00  0.00     0.094 A 
ATOM     10  C   UNL     1      -1.177  37.566   6.657  1.00  0.00     0.146 A 
ATOM     11  O   UNL     1      -1.643  38.780   6.939  1.00  0.00    -0.456 OA
ENDROOT
BRANCH   1  12
ATOM     12  C   UNL     1      -3.129  40.391   7.973  1.00  0.00     0.021 A 
ATOM     13  C   UNL     1      -2.815  41.388   7.033  1.00  0.00     0.016 A 
ATOM     14  C   UNL     1      -3.206  42.712   7.244  1.00  0.00     0.051 A 
ATOM     15  C   UNL     1      -3.908  43.066   8.403  1.00  0.00     0.157 A 
ATOM     16  C   UNL     1      -3.823  40.756   9.143  1.00  0.00     0.062 A 
ATOM     17  C   UNL     1      -4.214  42.083   9.358  1.00  0.00     0.158 A 
BRANCH  15  18
ATOM     18  O   UNL     1      -4.297  44.389   8.610  1.00  0.00    -0.504 OA
ATOM     19  H   UNL     1      -4.275  44.810   9.531  1.00  0.00     0.293 HD
ENDBRANCH  15  18
BRANCH  17  20
ATOM     20  O   UNL     1      -4.901  42.406  10.527  1.00  0.00    -0.504 OA
ATOM     21  H   UNL     1      -5.512  41.746  10.992  1.00  0.00     0.293 HD
ENDBRANCH  17  20
ENDBRANCH   1  12
BRANCH   6  22
ATOM     22  O   UNL     1      -1.857  33.977   7.387  1.00  0.00    -0.507 OA
ATOM     23  H   UNL     1      -1.818  33.096   6.887  1.00  0.00     0.293 HD
ENDBRANCH   6  22
BRANCH   8  24
ATOM     24  O   UNL     1       1.558  36.046   4.678  1.00  0.00    -0.508 OA
ATOM     25  H   UNL     1       2.503  36.117   5.039  1.00  0.00     0.293 HD
ENDBRANCH   8  24
TORSDOF 5
ENDMDL
