MODEL 1
REMARK VINA RESULT:    -2.241      0.000      0.000
REMARK INTER + INTRA:          -3.770
REMARK INTER:                  -3.290
REMARK INTRA:                  -0.480
REMARK UNBOUND:                -0.480
REMARK SMILES O=C([O-])CCCCCCCC(=O)[O-]
REMARK SMILES IDX 7 1 6 2 5 3 4 4 2 5 1 6 3 7 8 8 9 9 10 10 11 11 12 12 13 13
REMARK H PARENT
REMARK Flexibility Score: inf
ROOT
ATOM      1  C   UNL     1      -4.993  34.966  22.417  1.00  0.00     0.000 C 
ENDROOT
BRANCH   1   2
ATOM      2  C   UNL     1      -6.087  35.694  21.619  1.00  0.00     0.000 C 
BRANCH   2   3
ATOM      3  C   UNL     1      -5.579  36.239  20.276  1.00  0.00     0.006 C 
BRANCH   3   4
ATOM      4  C   UNL     1      -4.492  35.331  19.693  1.00  0.00     0.053 C 
BRANCH   4   5
ATOM      5  C   UNL     1      -4.967  34.688  18.429  1.00  0.00     0.041 C 
ATOM      6  O   UNL     1      -6.011  33.982  18.432  1.00  0.00    -0.550 OA
ATOM      7  O   UNL     1      -4.231  34.824  17.260  1.00  0.00    -0.550 OA
ENDBRANCH   4   5
ENDBRANCH   3   4
ENDBRANCH   2   3
ENDBRANCH   1   2
BRANCH   1   8
ATOM      8  C   UNL     1      -5.531  34.324  23.708  1.00  0.00     0.000 C 
BRANCH   8   9
ATOM      9  C   UNL     1      -6.115  35.360  24.682  1.00  0.00     0.006 C 
BRANCH   9  10
ATOM     10  C   UNL     1      -5.048  35.991  25.586  1.00  0.00     0.053 C 
BRANCH  10  11
ATOM     11  C   UNL     1      -4.975  37.467  25.355  1.00  0.00     0.041 C 
ATOM     12  O   UNL     1      -4.287  38.195  26.119  1.00  0.00    -0.550 OA
ATOM     13  O   UNL     1      -5.706  38.047  24.327  1.00  0.00    -0.550 OA
ENDBRANCH  10  11
ENDBRANCH   9  10
ENDBRANCH   8   9
ENDBRANCH   1   8
TORSDOF 8
ENDMDL
MODEL 2
REMARK VINA RESULT:    -2.138      0.360      6.445
REMARK INTER + INTRA:          -3.619
REMARK INTER:                  -3.161
REMARK INTRA:                  -0.457
REMARK UNBOUND:                -0.480
REMARK SMILES O=C([O-])CCCCCCCC(=O)[O-]
REMARK SMILES IDX 7 1 6 2 5 3 4 4 2 5 1 6 3 7 8 8 9 9 10 10 11 11 12 12 13 13
REMARK H PARENT
REMARK Flexibility Score: inf
ROOT
ATOM      1  C   UNL     1      -4.867  35.145  22.283  1.00  0.00     0.000 C 
ENDROOT
BRANCH   1   2
ATOM      2  C   UNL     1      -5.456  34.609  23.598  1.00  0.00     0.000 C 
BRANCH   2   3
ATOM      3  C   UNL     1      -6.125  35.707  24.439  1.00  0.00     0.006 C 
BRANCH   3   4
ATOM      4  C   UNL     1      -5.257  36.077  25.646  1.00  0.00     0.053 C 
BRANCH   4   5
ATOM      5  C   UNL     1      -4.844  37.513  25.575  1.00  0.00     0.041 C 
ATOM      6  O   UNL     1      -5.380  38.285  24.736  1.00  0.00    -0.550 OA
ATOM      7  O   UNL     1      -3.832  37.987  26.399  1.00  0.00    -0.550 OA
ENDBRANCH   4   5
ENDBRANCH   3   4
ENDBRANCH   2   3
ENDBRANCH   1   2
BRANCH   1   8
ATOM      8  C   UNL     1      -5.731  36.253  21.656  1.00  0.00     0.000 C 
BRANCH   8   9
ATOM      9  C   UNL     1      -5.679  36.242  20.120  1.00  0.00     0.006 C 
BRANCH   9  10
ATOM     10  C   UNL     1      -4.533  35.383  19.571  1.00  0.00     0.053 C 
BRANCH  10  11
ATOM     11  C   UNL     1      -4.988  34.609  18.375  1.00  0.00     0.041 C 
ATOM     12  O   UNL     1      -6.039  33.917  18.430  1.00  0.00    -0.550 OA
ATOM     13  O   UNL     1      -4.226  34.611  17.214  1.00  0.00    -0.550 OA
ENDBRANCH  10  11
ENDBRANCH   9  10
ENDBRANCH   8   9
ENDBRANCH   1   8
TORSDOF 8
ENDMDL
MODEL 3
REMARK VINA RESULT:    -2.006      1.732      6.313
REMARK INTER + INTRA:          -3.424
REMARK INTER:                  -3.078
REMARK INTRA:                  -0.346
REMARK UNBOUND:                -0.480
REMARK SMILES O=C([O-])CCCCCCCC(=O)[O-]
REMARK SMILES IDX 7 1 6 2 5 3 4 4 2 5 1 6 3 7 8 8 9 9 10 10 11 11 12 12 13 13
REMARK H PARENT
REMARK Flexibility Score: inf
ROOT
ATOM      1  C   UNL     1      -5.018  38.497  21.031  1.00  0.00     0.000 C 
ENDROOT
BRANCH   1   2
ATOM      2  C   UNL     1      -5.959  39.128  22.070  1.00  0.00     0.000 C 
BRANCH   2   3
ATOM      3  C   UNL     1      -5.640  38.684  23.506  1.00  0.00     0.006 C 
BRANCH   3   4
ATOM      4  C   UNL     1      -6.113  37.249  23.753  1.00  0.00     0.053 C 
BRANCH   4   5
ATOM      5  C   UNL     1      -5.584  36.738  25.056  1.00  0.00     0.041 C 
ATOM      6  O   UNL     1      -5.003  37.521  25.854  1.00  0.00    -0.550 OA
ATOM      7  O   UNL     1      -5.687  35.389  25.368  1.00  0.00    -0.550 OA
ENDBRANCH   4   5
ENDBRANCH   3   4
ENDBRANCH   2   3
ENDBRANCH   1   2
BRANCH   1   8
ATOM      8  C   UNL     1      -5.741  37.503  20.105  1.00  0.00     0.000 C 
BRANCH   8   9
ATOM      9  C   UNL     1      -5.520  36.040  20.523  1.00  0.00     0.006 C 
BRANCH   9  10
ATOM     10  C   UNL     1      -4.379  35.368  19.749  1.00  0.00     0.053 C 
BRANCH  10  11
ATOM     11  C   UNL     1      -4.909  34.683  18.529  1.00  0.00     0.041 C 
ATOM     12  O   UNL     1      -4.288  34.766  17.436  1.00  0.00    -0.550 OA
ATOM     13  O   UNL     1      -6.113  33.995  18.585  1.00  0.00    -0.550 OA
ENDBRANCH  10  11
ENDBRANCH   9  10
ENDBRANCH   8   9
ENDBRANCH   1   8
TORSDOF 8
ENDMDL
MODEL 4
REMARK VINA RESULT:    -1.925      0.830      1.484
REMARK INTER + INTRA:          -3.305
REMARK INTER:                  -3.341
REMARK INTRA:                   0.036
REMARK UNBOUND:                -0.480
REMARK SMILES O=C([O-])CCCCCCCC(=O)[O-]
REMARK SMILES IDX 7 1 6 2 5 3 4 4 2 5 1 6 3 7 8 8 9 9 10 10 11 11 12 12 13 13
REMARK H PARENT
REMARK Flexibility Score: inf
ROOT
ATOM      1  C   UNL     1      -5.096  34.408  22.879  1.00  0.00     0.000 C 
ENDROOT
BRANCH   1   2
ATOM      2  C   UNL     1      -5.683  35.036  21.605  1.00  0.00     0.000 C 
BRANCH   2   3
ATOM      3  C   UNL     1      -4.603  35.600  20.669  1.00  0.00     0.006 C 
BRANCH   3   4
ATOM      4  C   UNL     1      -5.200  35.985  19.313  1.00  0.00     0.053 C 
BRANCH   4   5
ATOM      5  C   UNL     1      -5.137  34.830  18.364  1.00  0.00     0.041 C 
ATOM      6  O   UNL     1      -4.245  34.789  17.475  1.00  0.00    -0.550 OA
ATOM      7  O   UNL     1      -6.091  33.824  18.428  1.00  0.00    -0.550 OA
ENDBRANCH   4   5
ENDBRANCH   3   4
ENDBRANCH   2   3
ENDBRANCH   1   2
BRANCH   1   8
ATOM      8  C   UNL     1      -6.123  34.319  24.022  1.00  0.00     0.000 C 
BRANCH   8   9
ATOM      9  C   UNL     1      -6.125  35.572  24.912  1.00  0.00     0.006 C 
BRANCH   9  10
ATOM     10  C   UNL     1      -6.120  36.875  24.102  1.00  0.00     0.053 C 
BRANCH  10  11
ATOM     11  C   UNL     1      -5.369  37.941  24.834  1.00  0.00     0.041 C 
ATOM     12  O   UNL     1      -5.375  39.127  24.406  1.00  0.00    -0.550 OA
ATOM     13  O   UNL     1      -4.622  37.620  25.959  1.00  0.00    -0.550 OA
ENDBRANCH  10  11
ENDBRANCH   9  10
ENDBRANCH   8   9
ENDBRANCH   1   8
TORSDOF 8
ENDMDL
MODEL 5
REMARK VINA RESULT:    -1.845      1.890      5.236
REMARK INTER + INTRA:          -3.188
REMARK INTER:                  -2.946
REMARK INTRA:                  -0.242
REMARK UNBOUND:                -0.480
REMARK SMILES O=C([O-])CCCCCCCC(=O)[O-]
REMARK SMILES IDX 7 1 6 2 5 3 4 4 2 5 1 6 3 7 8 8 9 9 10 10 11 11 12 12 13 13
REMARK H PARENT
REMARK Flexibility Score: inf
ROOT
ATOM      1  C   UNL     1      -6.028  35.008  24.539  1.00  0.00     0.000 C 
ENDROOT
BRANCH   1   2
ATOM      2  C   UNL     1      -5.092  36.168  24.916  1.00  0.00     0.000 C 
BRANCH   2   3
ATOM      3  C   UNL     1      -5.770  37.541  24.792  1.00  0.00     0.006 C 
BRANCH   3   4
ATOM      4  C   UNL     1      -6.125  37.847  23.334  1.00  0.00     0.053 C 
BRANCH   4   5
ATOM      5  C   UNL     1      -5.543  39.161  22.917  1.00  0.00     0.041 C 
ATOM      6  O   UNL     1      -4.962  39.893  23.761  1.00  0.00    -0.550 OA
ATOM      7  O   UNL     1      -5.687  39.601  21.607  1.00  0.00    -0.550 OA
ENDBRANCH   4   5
ENDBRANCH   3   4
ENDBRANCH   2   3
ENDBRANCH   1   2
BRANCH   1   8
ATOM      8  C   UNL     1      -5.553  34.245  23.290  1.00  0.00     0.000 C 
BRANCH   8   9
ATOM      9  C   UNL     1      -5.886  34.985  21.985  1.00  0.00     0.006 C 
BRANCH   9  10
ATOM     10  C   UNL     1      -4.635  35.369  21.185  1.00  0.00     0.053 C 
BRANCH  10  11
ATOM     11  C   UNL     1      -5.015  35.848  19.819  1.00  0.00     0.041 C 
ATOM     12  O   UNL     1      -5.118  37.082  19.587  1.00  0.00    -0.550 OA
ATOM     13  O   UNL     1      -5.304  34.932  18.817  1.00  0.00    -0.550 OA
ENDBRANCH  10  11
ENDBRANCH   9  10
ENDBRANCH   8   9
ENDBRANCH   1   8
TORSDOF 8
ENDMDL
MODEL 6
REMARK VINA RESULT:    -1.497      2.178      2.909
REMARK INTER + INTRA:          -2.678
REMARK INTER:                  -2.516
REMARK INTRA:                  -0.162
REMARK UNBOUND:                -0.480
REMARK SMILES O=C([O-])CCCCCCCC(=O)[O-]
REMARK SMILES IDX 7 1 6 2 5 3 4 4 2 5 1 6 3 7 8 8 9 9 10 10 11 11 12 12 13 13
REMARK H PARENT
REMARK Flexibility Score: inf
ROOT
ATOM      1  C   UNL     1      -5.359  35.496  24.588  1.00  0.00     0.000 C 
ENDROOT
BRANCH   1   2
ATOM      2  C   UNL     1      -6.123  35.271  23.274  1.00  0.00     0.000 C 
BRANCH   2   3
ATOM      3  C   UNL     1      -5.193  35.173  22.056  1.00  0.00     0.006 C 
BRANCH   3   4
ATOM      4  C   UNL     1      -5.974  35.371  20.753  1.00  0.00     0.053 C 
BRANCH   4   5
ATOM      5  C   UNL     1      -5.040  35.647  19.618  1.00  0.00     0.041 C 
ATOM      6  O   UNL     1      -4.270  34.743  19.196  1.00  0.00    -0.550 OA
ATOM      7  O   UNL     1      -4.982  36.917  19.057  1.00  0.00    -0.550 OA
ENDBRANCH   4   5
ENDBRANCH   3   4
ENDBRANCH   2   3
ENDBRANCH   1   2
BRANCH   1   8
ATOM      8  C   UNL     1      -5.171  36.988  24.916  1.00  0.00     0.000 C 
BRANCH   8   9
ATOM      9  C   UNL     1      -6.078  37.896  24.070  1.00  0.00     0.006 C 
BRANCH   9  10
ATOM     10  C   UNL     1      -5.415  39.234  23.719  1.00  0.00     0.053 C 
BRANCH  10  11
ATOM     11  C   UNL     1      -5.637  39.564  22.277  1.00  0.00     0.041 C 
ATOM     12  O   UNL     1      -5.717  40.765  21.907  1.00  0.00    -0.550 OA
ATOM     13  O   UNL     1      -5.806  38.545  21.348  1.00  0.00    -0.550 OA
ENDBRANCH  10  11
ENDBRANCH   9  10
ENDBRANCH   8   9
ENDBRANCH   1   8
TORSDOF 8
ENDMDL
MODEL 7
REMARK VINA RESULT:    -1.345      1.832      2.529
REMARK INTER + INTRA:          -2.455
REMARK INTER:                  -2.145
REMARK INTRA:                  -0.309
REMARK UNBOUND:                -0.480
REMARK SMILES O=C([O-])CCCCCCCC(=O)[O-]
REMARK SMILES IDX 7 1 6 2 5 3 4 4 2 5 1 6 3 7 8 8 9 9 10 10 11 11 12 12 13 13
REMARK H PARENT
REMARK Flexibility Score: inf
ROOT
ATOM      1  C   UNL     1      -4.090  34.898  22.006  1.00  0.00     0.000 C 
ENDROOT
BRANCH   1   2
ATOM      2  C   UNL     1      -4.188  34.411  20.552  1.00  0.00     0.000 C 
BRANCH   2   3
ATOM      3  C   UNL     1      -4.867  35.433  19.628  1.00  0.00     0.006 C 
BRANCH   3   4
ATOM      4  C   UNL     1      -5.773  36.375  20.426  1.00  0.00     0.053 C 
BRANCH   4   5
ATOM      5  C   UNL     1      -5.397  37.802  20.179  1.00  0.00     0.041 C 
ATOM      6  O   UNL     1      -4.855  38.134  19.091  1.00  0.00    -0.550 OA
ATOM      7  O   UNL     1      -5.597  38.756  21.167  1.00  0.00    -0.550 OA
ENDBRANCH   4   5
ENDBRANCH   3   4
ENDBRANCH   2   3
ENDBRANCH   1   2
BRANCH   1   8
ATOM      8  C   UNL     1      -4.954  34.064  22.969  1.00  0.00     0.000 C 
BRANCH   8   9
ATOM      9  C   UNL     1      -6.120  34.870  23.563  1.00  0.00     0.006 C 
BRANCH   9  10
ATOM     10  C   UNL     1      -5.838  35.355  24.991  1.00  0.00     0.053 C 
BRANCH  10  11
ATOM     11  C   UNL     1      -5.582  36.829  25.000  1.00  0.00     0.041 C 
ATOM     12  O   UNL     1      -4.987  37.363  25.975  1.00  0.00    -0.550 OA
ATOM     13  O   UNL     1      -6.043  37.622  23.958  1.00  0.00    -0.550 OA
ENDBRANCH  10  11
ENDBRANCH   9  10
ENDBRANCH   8   9
ENDBRANCH   1   8
TORSDOF 8
ENDMDL
MODEL 8
REMARK VINA RESULT:    -1.134      2.272      7.419
REMARK INTER + INTRA:          -2.144
REMARK INTER:                  -1.993
REMARK INTRA:                  -0.151
REMARK UNBOUND:                -0.480
REMARK SMILES O=C([O-])CCCCCCCC(=O)[O-]
REMARK SMILES IDX 7 1 6 2 5 3 4 4 2 5 1 6 3 7 8 8 9 9 10 10 11 11 12 12 13 13
REMARK H PARENT
REMARK Flexibility Score: inf
ROOT
ATOM      1  C   UNL     1      -4.551  35.378  19.648  1.00  0.00     0.000 C 
ENDROOT
BRANCH   1   2
ATOM      2  C   UNL     1      -5.926  35.290  20.329  1.00  0.00     0.000 C 
BRANCH   2   3
ATOM      3  C   UNL     1      -6.009  36.134  21.610  1.00  0.00     0.006 C 
BRANCH   3   4
ATOM      4  C   UNL     1      -6.125  35.240  22.848  1.00  0.00     0.053 C 
BRANCH   4   5
ATOM      5  C   UNL     1      -6.090  36.063  24.096  1.00  0.00     0.041 C 
ATOM      6  O   UNL     1      -6.114  35.504  25.225  1.00  0.00    -0.550 OA
ATOM      7  O   UNL     1      -6.081  37.450  24.014  1.00  0.00    -0.550 OA
ENDBRANCH   4   5
ENDBRANCH   3   4
ENDBRANCH   2   3
ENDBRANCH   1   2
BRANCH   1   8
ATOM      8  C   UNL     1      -4.510  34.638  18.299  1.00  0.00     0.000 C 
BRANCH   8   9
ATOM      9  C   UNL     1      -4.331  35.592  17.108  1.00  0.00     0.006 C 
BRANCH   9  10
ATOM     10  C   UNL     1      -3.261  35.112  16.118  1.00  0.00     0.053 C 
BRANCH  10  11
ATOM     11  C   UNL     1      -3.146  36.064  14.971  1.00  0.00     0.041 C 
ATOM     12  O   UNL     1      -4.168  36.659  14.537  1.00  0.00    -0.550 OA
ATOM     13  O   UNL     1      -1.921  36.258  14.347  1.00  0.00    -0.550 OA
ENDBRANCH  10  11
ENDBRANCH   9  10
ENDBRANCH   8   9
ENDBRANCH   1   8
TORSDOF 8
ENDMDL
MODEL 9
REMARK VINA RESULT:    -0.647      1.803      2.445
REMARK INTER + INTRA:          -1.430
REMARK INTER:                  -1.130
REMARK INTRA:                  -0.300
REMARK UNBOUND:                -0.480
REMARK SMILES O=C([O-])CCCCCCCC(=O)[O-]
REMARK SMILES IDX 7 1 6 2 5 3 4 4 2 5 1 6 3 7 8 8 9 9 10 10 11 11 12 12 13 13
REMARK H PARENT
REMARK Flexibility Score: inf
ROOT
ATOM      1  C   UNL     1      -4.741  38.399  21.258  1.00  0.00     0.000 C 
ENDROOT
BRANCH   1   2
ATOM      2  C   UNL     1      -5.374  37.712  20.038  1.00  0.00     0.000 C 
BRANCH   2   3
ATOM      3  C   UNL     1      -5.685  36.228  20.289  1.00  0.00     0.006 C 
BRANCH   3   4
ATOM      4  C   UNL     1      -4.554  35.336  19.767  1.00  0.00     0.053 C 
BRANCH   4   5
ATOM      5  C   UNL     1      -4.962  34.660  18.496  1.00  0.00     0.041 C 
ATOM      6  O   UNL     1      -5.930  33.853  18.491  1.00  0.00    -0.550 OA
ATOM      7  O   UNL     1      -4.244  34.880  17.329  1.00  0.00    -0.550 OA
ENDBRANCH   4   5
ENDBRANCH   3   4
ENDBRANCH   2   3
ENDBRANCH   1   2
BRANCH   1   8
ATOM      8  C   UNL     1      -5.752  39.248  22.050  1.00  0.00     0.000 C 
BRANCH   8   9
ATOM      9  C   UNL     1      -5.954  38.738  23.486  1.00  0.00     0.006 C 
BRANCH   9  10
ATOM     10  C   UNL     1      -6.125  37.215  23.555  1.00  0.00     0.053 C 
BRANCH  10  11
ATOM     11  C   UNL     1      -5.739  36.707  24.908  1.00  0.00     0.041 C 
ATOM     12  O   UNL     1      -5.031  37.415  25.672  1.00  0.00    -0.550 OA
ATOM     13  O   UNL     1      -6.119  35.433  25.308  1.00  0.00    -0.550 OA
ENDBRANCH  10  11
ENDBRANCH   9  10
ENDBRANCH   8   9
ENDBRANCH   1   8
TORSDOF 8
ENDMDL
