MODEL 1
REMARK VINA RESULT:    -5.396      0.000      0.000
REMARK INTER + INTRA:          -6.909
REMARK INTER:                  -6.501
REMARK INTRA:                  -0.409
REMARK UNBOUND:                -0.409
REMARK SMILES O=c1ccn([C@H]2O[C@@H](CO)[C@H](O)[C@@H]2O)c(=O)[nH]1
REMARK SMILES IDX 6 1 13 2 11 3 8 4 7 5 5 6 3 7 4 8 2 9 17 10 1 11 15 12 16 14
REMARK SMILES IDX 14 15 12 17 9 19 10 20
REMARK H PARENT 17 13 14 16 12 18 10 21
REMARK Flexibility Score: inf
ROOT
ATOM      1  C   UNL     1      13.765  15.766  33.020  1.00  0.00     0.255 C 
ATOM      2  C   UNL     1      15.104  15.358  33.613  1.00  0.00     0.196 C 
ATOM      3  C   UNL     1      14.811  15.351  35.100  1.00  0.00     0.179 C 
ATOM      4  C   UNL     1      13.284  15.155  35.162  1.00  0.00     0.178 C 
ATOM      5  O   UNL     1      12.741  15.287  33.862  1.00  0.00    -0.347 OA
ENDROOT
BRANCH   1   6
ATOM      6  N   UNL     1      13.607  15.246  31.645  1.00  0.00    -0.271 N 
ATOM      7  C   UNL     1      13.508  13.356  30.171  1.00  0.00     0.090 A 
ATOM      8  C   UNL     1      13.671  13.895  31.444  1.00  0.00     0.099 A 
ATOM      9  C   UNL     1      13.265  14.219  29.108  1.00  0.00     0.253 A 
ATOM     10  N   UNL     1      13.187  15.557  29.329  1.00  0.00    -0.274 N 
ATOM     11  O   UNL     1      13.114  13.760  27.945  1.00  0.00    -0.269 OA
ATOM     12  C   UNL     1      13.348  16.075  30.579  1.00  0.00     0.330 A 
ATOM     13  H   UNL     1      12.997  16.199  28.526  1.00  0.00     0.175 HD
ATOM     14  O   UNL     1      13.248  17.322  30.742  1.00  0.00    -0.248 OA
ENDBRANCH   1   6
BRANCH   2  15
ATOM     15  O   UNL     1      16.109  16.274  33.263  1.00  0.00    -0.386 OA
ATOM     16  H   UNL     1      15.795  17.164  33.571  1.00  0.00     0.211 HD
ENDBRANCH   2  15
BRANCH   3  17
ATOM     17  O   UNL     1      15.198  16.553  35.725  1.00  0.00    -0.387 OA
ATOM     18  H   UNL     1      14.637  17.287  35.361  1.00  0.00     0.211 HD
ENDBRANCH   3  17
BRANCH   4  19
ATOM     19  C   UNL     1      12.915  13.778  35.729  1.00  0.00     0.191 C 
BRANCH  19  20
ATOM     20  O   UNL     1      11.630  13.403  35.312  1.00  0.00    -0.394 OA
ATOM     21  H   UNL     1      11.738  12.931  34.445  1.00  0.00     0.210 HD
ENDBRANCH  19  20
ENDBRANCH   4  19
TORSDOF 5
ENDMDL
MODEL 2
REMARK VINA RESULT:    -5.304      8.251     11.081
REMARK INTER + INTRA:          -6.798
REMARK INTER:                  -6.317
REMARK INTRA:                  -0.481
REMARK UNBOUND:                -0.409
REMARK SMILES O=c1ccn([C@H]2O[C@@H](CO)[C@H](O)[C@@H]2O)c(=O)[nH]1
REMARK SMILES IDX 6 1 13 2 11 3 8 4 7 5 5 6 3 7 4 8 2 9 17 10 1 11 15 12 16 14
REMARK SMILES IDX 14 15 12 17 9 19 10 20
REMARK H PARENT 17 13 14 16 12 18 10 21
REMARK Flexibility Score: inf
ROOT
ATOM      1  C   UNL     1      10.372  13.585  23.272  1.00  0.00     0.255 C 
ATOM      2  C   UNL     1      11.339  12.747  22.452  1.00  0.00     0.196 C 
ATOM      3  C   UNL     1      10.404  11.857  21.659  1.00  0.00     0.179 C 
ATOM      4  C   UNL     1       9.085  12.650  21.641  1.00  0.00     0.178 C 
ATOM      5  O   UNL     1       9.184  13.746  22.531  1.00  0.00    -0.347 OA
ENDROOT
BRANCH   1   6
ATOM      6  N   UNL     1      10.959  14.896  23.621  1.00  0.00    -0.271 N 
ATOM      7  C   UNL     1      11.108  17.251  23.190  1.00  0.00     0.090 A 
ATOM      8  C   UNL     1      10.597  15.992  22.888  1.00  0.00     0.099 A 
ATOM      9  C   UNL     1      11.985  17.375  24.261  1.00  0.00     0.253 A 
ATOM     10  N   UNL     1      12.321  16.278  24.989  1.00  0.00    -0.274 N 
ATOM     11  O   UNL     1      12.464  18.502  24.557  1.00  0.00    -0.269 OA
ATOM     12  C   UNL     1      11.815  15.049  24.686  1.00  0.00     0.330 A 
ATOM     13  H   UNL     1      12.976  16.380  25.798  1.00  0.00     0.175 HD
ATOM     14  O   UNL     1      12.139  14.062  25.400  1.00  0.00    -0.248 OA
ENDBRANCH   1   6
BRANCH   2  15
ATOM     15  O   UNL     1      12.205  12.020  23.284  1.00  0.00    -0.386 OA
ATOM     16  H   UNL     1      13.085  12.479  23.241  1.00  0.00     0.211 HD
ENDBRANCH   2  15
BRANCH   3  17
ATOM     17  O   UNL     1      10.234  10.594  22.261  1.00  0.00    -0.387 OA
ATOM     18  H   UNL     1       9.952  10.734  23.203  1.00  0.00     0.211 HD
ENDBRANCH   3  17
BRANCH   4  19
ATOM     19  C   UNL     1       8.756  13.167  20.233  1.00  0.00     0.191 C 
BRANCH  19  20
ATOM     20  O   UNL     1       7.938  14.303  20.305  1.00  0.00    -0.394 OA
ATOM     21  H   UNL     1       8.373  15.003  19.752  1.00  0.00     0.210 HD
ENDBRANCH  19  20
ENDBRANCH   4  19
TORSDOF 5
ENDMDL
MODEL 3
REMARK VINA RESULT:    -5.229      9.785     11.015
REMARK INTER + INTRA:          -6.708
REMARK INTER:                  -6.116
REMARK INTRA:                  -0.592
REMARK UNBOUND:                -0.409
REMARK SMILES O=c1ccn([C@H]2O[C@@H](CO)[C@H](O)[C@@H]2O)c(=O)[nH]1
REMARK SMILES IDX 6 1 13 2 11 3 8 4 7 5 5 6 3 7 4 8 2 9 17 10 1 11 15 12 16 14
REMARK SMILES IDX 14 15 12 17 9 19 10 20
REMARK H PARENT 17 13 14 16 12 18 10 21
REMARK Flexibility Score: inf
ROOT
ATOM      1  C   UNL     1      11.296  13.301  22.351  1.00  0.00     0.255 C 
ATOM      2  C   UNL     1      12.161  13.164  23.593  1.00  0.00     0.196 C 
ATOM      3  C   UNL     1      13.234  14.207  23.356  1.00  0.00     0.179 C 
ATOM      4  C   UNL     1      12.566  15.192  22.379  1.00  0.00     0.178 C 
ATOM      5  O   UNL     1      11.347  14.641  21.918  1.00  0.00    -0.347 OA
ENDROOT
BRANCH   1   6
ATOM      6  N   UNL     1       9.903  12.884  22.617  1.00  0.00    -0.271 N 
ATOM      7  C   UNL     1       7.662  13.498  23.211  1.00  0.00     0.090 A 
ATOM      8  C   UNL     1       8.989  13.839  22.969  1.00  0.00     0.099 A 
ATOM      9  C   UNL     1       7.279  12.169  23.076  1.00  0.00     0.253 A 
ATOM     10  N   UNL     1       8.196  11.236  22.709  1.00  0.00    -0.274 N 
ATOM     11  O   UNL     1       6.084  11.831  23.289  1.00  0.00    -0.269 OA
ATOM     12  C   UNL     1       9.494  11.579  22.474  1.00  0.00     0.330 A 
ATOM     13  H   UNL     1       7.900  10.239  22.602  1.00  0.00     0.175 HD
ATOM     14  O   UNL     1      10.308  10.684  22.117  1.00  0.00    -0.248 OA
ENDBRANCH   1   6
BRANCH   2  15
ATOM     15  O   UNL     1      12.682  11.865  23.703  1.00  0.00    -0.386 OA
ATOM     16  H   UNL     1      13.670  11.961  23.716  1.00  0.00     0.211 HD
ENDBRANCH   2  15
BRANCH   3  17
ATOM     17  O   UNL     1      14.404  13.651  22.803  1.00  0.00    -0.387 OA
ATOM     18  H   UNL     1      14.817  14.328  22.204  1.00  0.00     0.211 HD
ENDBRANCH   3  17
BRANCH   4  19
ATOM     19  C   UNL     1      12.292  16.548  23.043  1.00  0.00     0.191 C 
BRANCH  19  20
ATOM     20  O   UNL     1      10.913  16.792  23.112  1.00  0.00    -0.394 OA
ATOM     21  H   UNL     1      10.513  16.031  23.607  1.00  0.00     0.210 HD
ENDBRANCH  19  20
ENDBRANCH   4  19
TORSDOF 5
ENDMDL
MODEL 4
REMARK VINA RESULT:    -5.205      7.857      9.733
REMARK INTER + INTRA:          -6.679
REMARK INTER:                  -6.333
REMARK INTRA:                  -0.345
REMARK UNBOUND:                -0.409
REMARK SMILES O=c1ccn([C@H]2O[C@@H](CO)[C@H](O)[C@@H]2O)c(=O)[nH]1
REMARK SMILES IDX 6 1 13 2 11 3 8 4 7 5 5 6 3 7 4 8 2 9 17 10 1 11 15 12 16 14
REMARK SMILES IDX 14 15 12 17 9 19 10 20
REMARK H PARENT 17 13 14 16 12 18 10 21
REMARK Flexibility Score: inf
ROOT
ATOM      1  C   UNL     1      11.954  14.882  24.264  1.00  0.00     0.255 C 
ATOM      2  C   UNL     1      11.091  15.681  25.227  1.00  0.00     0.196 C 
ATOM      3  C   UNL     1      11.801  17.019  25.264  1.00  0.00     0.179 C 
ATOM      4  C   UNL     1      12.577  17.048  23.934  1.00  0.00     0.178 C 
ATOM      5  O   UNL     1      12.515  15.772  23.326  1.00  0.00    -0.347 OA
ENDROOT
BRANCH   1   6
ATOM      6  N   UNL     1      11.168  13.827  23.589  1.00  0.00    -0.271 N 
ATOM      7  C   UNL     1       9.062  13.094  22.705  1.00  0.00     0.090 A 
ATOM      8  C   UNL     1       9.839  14.048  23.356  1.00  0.00     0.099 A 
ATOM      9  C   UNL     1       9.667  11.915  22.285  1.00  0.00     0.253 A 
ATOM     10  N   UNL     1      10.993  11.720  22.510  1.00  0.00    -0.274 N 
ATOM     11  O   UNL     1       8.989  11.033  21.695  1.00  0.00    -0.269 OA
ATOM     12  C   UNL     1      11.746  12.660  23.147  1.00  0.00     0.330 A 
ATOM     13  H   UNL     1      11.443  10.834  22.184  1.00  0.00     0.175 HD
ATOM     14  O   UNL     1      12.977  12.445  23.317  1.00  0.00    -0.248 OA
ENDBRANCH   1   6
BRANCH   2  15
ATOM     15  O   UNL     1      11.037  15.061  26.486  1.00  0.00    -0.386 OA
ATOM     16  H   UNL     1      11.897  15.271  26.938  1.00  0.00     0.211 HD
ENDBRANCH   2  15
BRANCH   3  17
ATOM     17  O   UNL     1      12.672  17.130  26.366  1.00  0.00    -0.387 OA
ATOM     18  H   UNL     1      13.527  16.681  26.133  1.00  0.00     0.211 HD
ENDBRANCH   3  17
BRANCH   4  19
ATOM     19  C   UNL     1      12.004  18.097  22.970  1.00  0.00     0.191 C 
BRANCH  19  20
ATOM     20  O   UNL     1      10.621  18.231  23.154  1.00  0.00    -0.394 OA
ATOM     21  H   UNL     1      10.481  18.455  24.111  1.00  0.00     0.210 HD
ENDBRANCH  19  20
ENDBRANCH   4  19
TORSDOF 5
ENDMDL
MODEL 5
REMARK VINA RESULT:    -4.979      5.012      6.787
REMARK INTER + INTRA:          -6.407
REMARK INTER:                  -5.960
REMARK INTRA:                  -0.446
REMARK UNBOUND:                -0.409
REMARK SMILES O=c1ccn([C@H]2O[C@@H](CO)[C@H](O)[C@@H]2O)c(=O)[nH]1
REMARK SMILES IDX 6 1 13 2 11 3 8 4 7 5 5 6 3 7 4 8 2 9 17 10 1 11 15 12 16 14
REMARK SMILES IDX 14 15 12 17 9 19 10 20
REMARK H PARENT 17 13 14 16 12 18 10 21
REMARK Flexibility Score: inf
ROOT
ATOM      1  C   UNL     1      18.492  12.677  36.662  1.00  0.00     0.255 C 
ATOM      2  C   UNL     1      17.690  12.014  37.770  1.00  0.00     0.196 C 
ATOM      3  C   UNL     1      18.694  11.951  38.903  1.00  0.00     0.179 C 
ATOM      4  C   UNL     1      19.693  13.071  38.557  1.00  0.00     0.178 C 
ATOM      5  O   UNL     1      19.429  13.549  37.252  1.00  0.00    -0.347 OA
ENDROOT
BRANCH   1   6
ATOM      6  N   UNL     1      17.611  13.405  35.723  1.00  0.00    -0.271 N 
ATOM      7  C   UNL     1      15.625  14.702  35.370  1.00  0.00     0.090 A 
ATOM      8  C   UNL     1      16.476  13.990  36.211  1.00  0.00     0.099 A 
ATOM      9  C   UNL     1      15.960  14.818  34.025  1.00  0.00     0.253 A 
ATOM     10  N   UNL     1      17.100  14.244  33.562  1.00  0.00    -0.274 N 
ATOM     11  O   UNL     1      15.208  15.456  33.241  1.00  0.00    -0.269 OA
ATOM     12  C   UNL     1      17.927  13.549  34.392  1.00  0.00     0.330 A 
ATOM     13  H   UNL     1      17.349  14.341  32.551  1.00  0.00     0.175 HD
ATOM     14  O   UNL     1      18.986  13.049  33.924  1.00  0.00    -0.248 OA
ENDBRANCH   1   6
BRANCH   2  15
ATOM     15  O   UNL     1      17.239  10.744  37.373  1.00  0.00    -0.386 OA
ATOM     16  H   UNL     1      16.309  10.661  37.709  1.00  0.00     0.211 HD
ENDBRANCH   2  15
BRANCH   3  17
ATOM     17  O   UNL     1      19.335  10.699  38.978  1.00  0.00    -0.387 OA
ATOM     18  H   UNL     1      19.029  10.146  38.211  1.00  0.00     0.211 HD
ENDBRANCH   3  17
BRANCH   4  19
ATOM     19  C   UNL     1      19.600  14.236  39.553  1.00  0.00     0.191 C 
BRANCH  19  20
ATOM     20  O   UNL     1      18.905  15.314  38.986  1.00  0.00    -0.394 OA
ATOM     21  H   UNL     1      19.248  15.419  38.061  1.00  0.00     0.210 HD
ENDBRANCH  19  20
ENDBRANCH   4  19
TORSDOF 5
ENDMDL
MODEL 6
REMARK VINA RESULT:    -4.957      2.118      5.224
REMARK INTER + INTRA:          -6.379
REMARK INTER:                  -5.800
REMARK INTRA:                  -0.580
REMARK UNBOUND:                -0.409
REMARK SMILES O=c1ccn([C@H]2O[C@@H](CO)[C@H](O)[C@@H]2O)c(=O)[nH]1
REMARK SMILES IDX 6 1 13 2 11 3 8 4 7 5 5 6 3 7 4 8 2 9 17 10 1 11 15 12 16 14
REMARK SMILES IDX 14 15 12 17 9 19 10 20
REMARK H PARENT 17 13 14 16 12 18 10 21
REMARK Flexibility Score: inf
ROOT
ATOM      1  C   UNL     1      13.186  15.180  31.604  1.00  0.00     0.255 C 
ATOM      2  C   UNL     1      13.039  16.491  30.849  1.00  0.00     0.196 C 
ATOM      3  C   UNL     1      12.340  16.055  29.578  1.00  0.00     0.179 C 
ATOM      4  C   UNL     1      11.647  14.741  29.983  1.00  0.00     0.178 C 
ATOM      5  O   UNL     1      12.102  14.345  31.263  1.00  0.00    -0.347 OA
ENDROOT
BRANCH   1   6
ATOM      6  N   UNL     1      13.241  15.404  33.064  1.00  0.00    -0.271 N 
ATOM      7  C   UNL     1      12.078  15.548  35.158  1.00  0.00     0.090 A 
ATOM      8  C   UNL     1      12.075  15.362  33.778  1.00  0.00     0.099 A 
ATOM      9  C   UNL     1      13.293  15.765  35.798  1.00  0.00     0.253 A 
ATOM     10  N   UNL     1      14.443  15.786  35.076  1.00  0.00    -0.274 N 
ATOM     11  O   UNL     1      13.326  15.937  37.046  1.00  0.00    -0.269 OA
ATOM     12  C   UNL     1      14.431  15.603  33.726  1.00  0.00     0.330 A 
ATOM     13  H   UNL     1      15.354  15.943  35.566  1.00  0.00     0.175 HD
ATOM     14  O   UNL     1      15.524  15.611  33.097  1.00  0.00    -0.248 OA
ENDBRANCH   1   6
BRANCH   2  15
ATOM     15  O   UNL     1      14.293  17.074  30.606  1.00  0.00    -0.386 OA
ATOM     16  H   UNL     1      14.202  17.588  29.761  1.00  0.00     0.211 HD
ENDBRANCH   2  15
BRANCH   3  17
ATOM     17  O   UNL     1      13.244  15.850  28.516  1.00  0.00    -0.387 OA
ATOM     18  H   UNL     1      13.470  14.883  28.483  1.00  0.00     0.211 HD
ENDBRANCH   3  17
BRANCH   4  19
ATOM     19  C   UNL     1      10.120  14.895  30.013  1.00  0.00     0.191 C 
BRANCH  19  20
ATOM     20  O   UNL     1       9.718  15.601  31.156  1.00  0.00    -0.394 OA
ATOM     21  H   UNL     1      10.157  16.490  31.109  1.00  0.00     0.210 HD
ENDBRANCH  19  20
ENDBRANCH   4  19
TORSDOF 5
ENDMDL
MODEL 7
REMARK VINA RESULT:    -4.892     10.514     12.287
REMARK INTER + INTRA:          -6.302
REMARK INTER:                  -5.763
REMARK INTRA:                  -0.539
REMARK UNBOUND:                -0.409
REMARK SMILES O=c1ccn([C@H]2O[C@@H](CO)[C@H](O)[C@@H]2O)c(=O)[nH]1
REMARK SMILES IDX 6 1 13 2 11 3 8 4 7 5 5 6 3 7 4 8 2 9 17 10 1 11 15 12 16 14
REMARK SMILES IDX 14 15 12 17 9 19 10 20
REMARK H PARENT 17 13 14 16 12 18 10 21
REMARK Flexibility Score: inf
ROOT
ATOM      1  C   UNL     1      10.503  13.033  22.163  1.00  0.00     0.255 C 
ATOM      2  C   UNL     1       9.950  11.724  21.623  1.00  0.00     0.196 C 
ATOM      3  C   UNL     1       8.454  11.962  21.667  1.00  0.00     0.179 C 
ATOM      4  C   UNL     1       8.335  13.497  21.636  1.00  0.00     0.178 C 
ATOM      5  O   UNL     1       9.618  14.071  21.806  1.00  0.00    -0.347 OA
ENDROOT
BRANCH   1   6
ATOM      6  N   UNL     1      11.862  13.296  21.644  1.00  0.00    -0.271 N 
ATOM      7  C   UNL     1      13.252  14.276  19.952  1.00  0.00     0.090 A 
ATOM      8  C   UNL     1      11.993  13.986  20.471  1.00  0.00     0.099 A 
ATOM      9  C   UNL     1      14.375  13.860  20.658  1.00  0.00     0.253 A 
ATOM     10  N   UNL     1      14.226  13.190  21.831  1.00  0.00    -0.274 N 
ATOM     11  O   UNL     1      15.528  14.107  20.212  1.00  0.00    -0.269 OA
ATOM     12  C   UNL     1      12.990  12.912  22.331  1.00  0.00     0.330 A 
ATOM     13  H   UNL     1      15.076  12.887  22.360  1.00  0.00     0.175 HD
ATOM     14  O   UNL     1      12.898  12.305  23.433  1.00  0.00    -0.248 OA
ENDBRANCH   1   6
BRANCH   2  15
ATOM     15  O   UNL     1      10.351  10.641  22.422  1.00  0.00    -0.386 OA
ATOM     16  H   UNL     1      11.159  10.943  22.916  1.00  0.00     0.211 HD
ENDBRANCH   2  15
BRANCH   3  17
ATOM     17  O   UNL     1       7.864  11.427  22.830  1.00  0.00    -0.387 OA
ATOM     18  H   UNL     1       7.686  12.174  23.460  1.00  0.00     0.211 HD
ENDBRANCH   3  17
BRANCH   4  19
ATOM     19  C   UNL     1       7.731  13.989  20.313  1.00  0.00     0.191 C 
BRANCH  19  20
ATOM     20  O   UNL     1       6.623  13.208  19.957  1.00  0.00    -0.394 OA
ATOM     21  H   UNL     1       6.438  12.609  20.727  1.00  0.00     0.210 HD
ENDBRANCH  19  20
ENDBRANCH   4  19
TORSDOF 5
ENDMDL
MODEL 8
REMARK VINA RESULT:    -4.867      9.325     10.956
REMARK INTER + INTRA:          -6.272
REMARK INTER:                  -5.886
REMARK INTRA:                  -0.386
REMARK UNBOUND:                -0.409
REMARK SMILES O=c1ccn([C@H]2O[C@@H](CO)[C@H](O)[C@@H]2O)c(=O)[nH]1
REMARK SMILES IDX 6 1 13 2 11 3 8 4 7 5 5 6 3 7 4 8 2 9 17 10 1 11 15 12 16 14
REMARK SMILES IDX 14 15 12 17 9 19 10 20
REMARK H PARENT 17 13 14 16 12 18 10 21
REMARK Flexibility Score: inf
ROOT
ATOM      1  C   UNL     1      12.116  14.346  22.200  1.00  0.00     0.255 C 
ATOM      2  C   UNL     1      11.928  14.169  23.698  1.00  0.00     0.196 C 
ATOM      3  C   UNL     1      10.430  13.968  23.815  1.00  0.00     0.179 C 
ATOM      4  C   UNL     1      10.028  13.459  22.418  1.00  0.00     0.178 C 
ATOM      5  O   UNL     1      11.127  13.592  21.536  1.00  0.00    -0.347 OA
ENDROOT
BRANCH   1   6
ATOM      6  N   UNL     1      13.470  13.930  21.777  1.00  0.00    -0.271 N 
ATOM      7  C   UNL     1      15.413  12.580  22.172  1.00  0.00     0.090 A 
ATOM      8  C   UNL     1      14.143  13.016  22.540  1.00  0.00     0.099 A 
ATOM      9  C   UNL     1      15.978  13.081  21.005  1.00  0.00     0.253 A 
ATOM     10  N   UNL     1      15.287  13.975  20.250  1.00  0.00    -0.274 N 
ATOM     11  O   UNL     1      17.126  12.705  20.647  1.00  0.00    -0.269 OA
ATOM     12  C   UNL     1      14.045  14.397  20.618  1.00  0.00     0.330 A 
ATOM     13  H   UNL     1      15.716  14.343  19.370  1.00  0.00     0.175 HD
ATOM     14  O   UNL     1      13.432  15.214  19.878  1.00  0.00    -0.248 OA
ENDBRANCH   1   6
BRANCH   2  15
ATOM     15  O   UNL     1      12.379  15.300  24.398  1.00  0.00    -0.386 OA
ATOM     16  H   UNL     1      11.650  15.972  24.343  1.00  0.00     0.211 HD
ENDBRANCH   2  15
BRANCH   3  17
ATOM     17  O   UNL     1       9.756  15.163  24.137  1.00  0.00    -0.387 OA
ATOM     18  H   UNL     1      10.312  15.668  24.787  1.00  0.00     0.211 HD
ENDBRANCH   3  17
BRANCH   4  19
ATOM     19  C   UNL     1       9.586  11.989  22.459  1.00  0.00     0.191 C 
BRANCH  19  20
ATOM     20  O   UNL     1      10.702  11.140  22.475  1.00  0.00    -0.394 OA
ATOM     21  H   UNL     1      10.878  10.918  23.426  1.00  0.00     0.210 HD
ENDBRANCH  19  20
ENDBRANCH   4  19
TORSDOF 5
ENDMDL
MODEL 9
REMARK VINA RESULT:    -4.850     10.436     12.680
REMARK INTER + INTRA:          -6.251
REMARK INTER:                  -5.734
REMARK INTRA:                  -0.516
REMARK UNBOUND:                -0.409
REMARK SMILES O=c1ccn([C@H]2O[C@@H](CO)[C@H](O)[C@@H]2O)c(=O)[nH]1
REMARK SMILES IDX 6 1 13 2 11 3 8 4 7 5 5 6 3 7 4 8 2 9 17 10 1 11 15 12 16 14
REMARK SMILES IDX 14 15 12 17 9 19 10 20
REMARK H PARENT 17 13 14 16 12 18 10 21
REMARK Flexibility Score: inf
ROOT
ATOM      1  C   UNL     1       9.943  12.791  21.102  1.00  0.00     0.255 C 
ATOM      2  C   UNL     1      10.315  12.318  22.498  1.00  0.00     0.196 C 
ATOM      3  C   UNL     1      11.428  13.273  22.877  1.00  0.00     0.179 C 
ATOM      4  C   UNL     1      11.169  14.498  21.981  1.00  0.00     0.178 C 
ATOM      5  O   UNL     1      10.174  14.179  21.026  1.00  0.00    -0.347 OA
ENDROOT
BRANCH   1   6
ATOM      6  N   UNL     1       8.535  12.471  20.785  1.00  0.00    -0.271 N 
ATOM      7  C   UNL     1       6.236  13.156  20.765  1.00  0.00     0.090 A 
ATOM      8  C   UNL     1       7.573  13.402  21.064  1.00  0.00     0.099 A 
ATOM      9  C   UNL     1       5.898  11.948  20.165  1.00  0.00     0.253 A 
ATOM     10  N   UNL     1       6.869  11.042  19.880  1.00  0.00    -0.274 N 
ATOM     11  O   UNL     1       4.696  11.697  19.884  1.00  0.00    -0.269 OA
ATOM     12  C   UNL     1       8.176  11.292  20.175  1.00  0.00     0.330 A 
ATOM     13  H   UNL     1       6.609  10.138  19.422  1.00  0.00     0.175 HD
ATOM     14  O   UNL     1       9.047  10.430  19.875  1.00  0.00    -0.248 OA
ENDBRANCH   1   6
BRANCH   2  15
ATOM     15  O   UNL     1      10.732  10.978  22.481  1.00  0.00    -0.386 OA
ATOM     16  H   UNL     1       9.922  10.436  22.290  1.00  0.00     0.211 HD
ENDBRANCH   2  15
BRANCH   3  17
ATOM     17  O   UNL     1      12.704  12.726  22.638  1.00  0.00    -0.387 OA
ATOM     18  H   UNL     1      12.830  12.647  21.655  1.00  0.00     0.211 HD
ENDBRANCH   3  17
BRANCH   4  19
ATOM     19  C   UNL     1      10.712  15.712  22.802  1.00  0.00     0.191 C 
BRANCH  19  20
ATOM     20  O   UNL     1      11.783  16.239  23.538  1.00  0.00    -0.394 OA
ATOM     21  H   UNL     1      11.592  17.205  23.666  1.00  0.00     0.210 HD
ENDBRANCH  19  20
ENDBRANCH   4  19
TORSDOF 5
ENDMDL
