MODEL 1
REMARK VINA RESULT:    -6.922      0.000      0.000
REMARK INTER + INTRA:         -11.340
REMARK INTER:                  -9.349
REMARK INTRA:                  -1.991
REMARK UNBOUND:                -1.991
REMARK SMILES CC[C@H](CC[C@@H](C)[C@@H]1CC[C@H]2[C@H]3CC(=O)C4=CC(=O)CC[C@]4(C)[C@H]3CC[C@]21C)C(C)C
REMARK SMILES IDX 4 1 3 2 2 3 1 4 29 5 30 6 31 7 5 8 6 9 7 10 8 11 9 12 27 13
REMARK SMILES IDX 10 14 11 15 26 16 28 17 12 18 25 19 24 20 13 21 22 22 14 23
REMARK SMILES IDX 16 24 21 25 23 26 15 27 17 28 20 29 18 30 19 31
REMARK H PARENT
REMARK Flexibility Score: inf
ROOT
ATOM      1  C   UNL     1      38.985  41.745 146.227  1.00  0.00     0.004 C 
ENDROOT
BRANCH   1   2
ATOM      2  C   UNL     1      37.816  42.771 146.347  1.00  0.00    -0.009 C 
BRANCH   2   3
ATOM      3  C   UNL     1      37.758  43.751 145.137  1.00  0.00     0.000 C 
ATOM      4  C   UNL     1      39.123  44.100 144.533  1.00  0.00     0.004 C 
ENDBRANCH   2   3
BRANCH   2   5
ATOM      5  C   UNL     1      36.446  42.058 146.613  1.00  0.00    -0.014 C 
ATOM      6  C   UNL     1      35.461  42.247 145.444  1.00  0.00     0.007 C 
ATOM      7  C   UNL     1      35.773  42.556 147.908  1.00  0.00     0.007 C 
ENDBRANCH   2   5
ENDBRANCH   1   2
BRANCH   1   8
ATOM      8  C   UNL     1      38.715  40.472 145.389  1.00  0.00     0.004 C 
BRANCH   8   9
ATOM      9  C   UNL     1      39.326  40.488 143.957  1.00  0.00    -0.011 C 
ATOM     10  C   UNL     1      40.529  39.535 143.837  1.00  0.00     0.008 C 
BRANCH   9  11
ATOM     11  C   UNL     1      38.322  40.325 142.758  1.00  0.00    -0.002 C 
ATOM     12  C   UNL     1      38.458  38.991 142.023  1.00  0.00     0.005 C 
ATOM     13  C   UNL     1      38.142  41.422 141.639  1.00  0.00    -0.026 C 
ATOM     14  C   UNL     1      37.600  39.158 140.788  1.00  0.00     0.005 C 
ATOM     15  C   UNL     1      37.847  40.598 140.336  1.00  0.00    -0.001 C 
ATOM     16  C   UNL     1      36.959  42.374 141.999  1.00  0.00     0.007 C 
ATOM     17  C   UNL     1      39.402  42.281 141.388  1.00  0.00     0.012 C 
ATOM     18  C   UNL     1      36.757  41.211 139.397  1.00  0.00     0.004 C 
ATOM     19  C   UNL     1      35.591  41.780 141.640  1.00  0.00     0.005 C 
ATOM     20  C   UNL     1      35.431  41.683 140.105  1.00  0.00     0.003 C 
ATOM     21  C   UNL     1      36.558  40.369 138.114  1.00  0.00     0.085 C 
ATOM     22  C   UNL     1      34.090  41.002 139.615  1.00  0.00    -0.000 C 
ATOM     23  C   UNL     1      35.339  40.787 137.356  1.00  0.00     0.159 C 
ATOM     24  C   UNL     1      34.070  41.031 138.082  1.00  0.00     0.005 C 
ATOM     25  C   UNL     1      32.874  41.811 140.178  1.00  0.00     0.020 C 
ATOM     26  C   UNL     1      33.963  39.532 140.078  1.00  0.00     0.017 C 
ATOM     27  O   UNL     1      35.391  40.861 136.098  1.00  0.00    -0.295 OA
ATOM     28  C   UNL     1      32.926  41.190 137.391  1.00  0.00     0.055 C 
ATOM     29  C   UNL     1      31.535  41.414 139.551  1.00  0.00     0.081 C 
ATOM     30  C   UNL     1      31.633  41.402 138.059  1.00  0.00     0.156 C 
ATOM     31  O   UNL     1      30.589  41.534 137.365  1.00  0.00    -0.295 OA
ENDBRANCH   9  11
ENDBRANCH   8   9
ENDBRANCH   1   8
TORSDOF 6
ENDMDL
MODEL 2
REMARK VINA RESULT:    -6.650      2.220      3.841
REMARK INTER + INTRA:         -10.973
REMARK INTER:                  -9.064
REMARK INTRA:                  -1.909
REMARK UNBOUND:                -1.991
REMARK SMILES CC[C@H](CC[C@@H](C)[C@@H]1CC[C@H]2[C@H]3CC(=O)C4=CC(=O)CC[C@]4(C)[C@H]3CC[C@]21C)C(C)C
REMARK SMILES IDX 4 1 3 2 2 3 1 4 29 5 30 6 31 7 5 8 6 9 7 10 8 11 9 12 27 13
REMARK SMILES IDX 10 14 11 15 26 16 28 17 12 18 25 19 24 20 13 21 22 22 14 23
REMARK SMILES IDX 16 24 21 25 23 26 15 27 17 28 20 29 18 30 19 31
REMARK H PARENT
REMARK Flexibility Score: inf
ROOT
ATOM      1  C   UNL     1      34.577  41.604 148.869  1.00  0.00     0.004 C 
ENDROOT
BRANCH   1   2
ATOM      2  C   UNL     1      33.236  41.230 148.165  1.00  0.00    -0.009 C 
BRANCH   2   3
ATOM      3  C   UNL     1      33.291  39.828 147.487  1.00  0.00     0.000 C 
ATOM      4  C   UNL     1      33.088  39.847 145.968  1.00  0.00     0.004 C 
ENDBRANCH   2   3
BRANCH   2   5
ATOM      5  C   UNL     1      32.013  41.384 149.134  1.00  0.00    -0.014 C 
ATOM      6  C   UNL     1      32.119  40.445 150.351  1.00  0.00     0.007 C 
ATOM      7  C   UNL     1      30.671  41.116 148.422  1.00  0.00     0.007 C 
ENDBRANCH   2   5
ENDBRANCH   1   2
BRANCH   1   8
ATOM      8  C   UNL     1      35.515  42.579 148.118  1.00  0.00     0.004 C 
BRANCH   8   9
ATOM      9  C   UNL     1      36.627  41.896 147.269  1.00  0.00    -0.011 C 
ATOM     10  C   UNL     1      37.280  40.721 148.020  1.00  0.00     0.008 C 
BRANCH   9  11
ATOM     11  C   UNL     1      36.254  41.516 145.789  1.00  0.00    -0.002 C 
ATOM     12  C   UNL     1      36.795  40.154 145.353  1.00  0.00     0.005 C 
ATOM     13  C   UNL     1      36.491  42.488 144.571  1.00  0.00    -0.026 C 
ATOM     14  C   UNL     1      36.543  40.114 143.861  1.00  0.00     0.005 C 
ATOM     15  C   UNL     1      36.851  41.533 143.379  1.00  0.00    -0.001 C 
ATOM     16  C   UNL     1      35.199  43.315 144.278  1.00  0.00     0.007 C 
ATOM     17  C   UNL     1      37.667  43.473 144.768  1.00  0.00     0.012 C 
ATOM     18  C   UNL     1      36.230  41.931 142.000  1.00  0.00     0.004 C 
ATOM     19  C   UNL     1      34.170  42.531 143.454  1.00  0.00     0.005 C 
ATOM     20  C   UNL     1      34.696  42.293 142.020  1.00  0.00     0.003 C 
ATOM     21  C   UNL     1      36.668  40.971 140.869  1.00  0.00     0.085 C 
ATOM     22  C   UNL     1      33.754  41.416 141.100  1.00  0.00    -0.000 C 
ATOM     23  C   UNL     1      35.867  41.175 139.623  1.00  0.00     0.159 C 
ATOM     24  C   UNL     1      34.395  41.319 139.711  1.00  0.00     0.005 C 
ATOM     25  C   UNL     1      32.356  42.113 140.994  1.00  0.00     0.020 C 
ATOM     26  C   UNL     1      33.552  39.983 141.647  1.00  0.00     0.017 C 
ATOM     27  O   UNL     1      36.451  41.153 138.505  1.00  0.00    -0.295 OA
ATOM     28  C   UNL     1      33.652  41.281 138.589  1.00  0.00     0.055 C 
ATOM     29  C   UNL     1      31.453  41.506 139.917  1.00  0.00     0.081 C 
ATOM     30  C   UNL     1      32.186  41.387 138.619  1.00  0.00     0.156 C 
ATOM     31  O   UNL     1      31.536  41.334 137.540  1.00  0.00    -0.295 OA
ENDBRANCH   9  11
ENDBRANCH   8   9
ENDBRANCH   1   8
TORSDOF 6
ENDMDL
MODEL 3
REMARK VINA RESULT:    -6.644      3.544      6.796
REMARK INTER + INTRA:         -10.965
REMARK INTER:                  -8.499
REMARK INTRA:                  -2.467
REMARK UNBOUND:                -1.991
REMARK SMILES CC[C@H](CC[C@@H](C)[C@@H]1CC[C@H]2[C@H]3CC(=O)C4=CC(=O)CC[C@]4(C)[C@H]3CC[C@]21C)C(C)C
REMARK SMILES IDX 4 1 3 2 2 3 1 4 29 5 30 6 31 7 5 8 6 9 7 10 8 11 9 12 27 13
REMARK SMILES IDX 10 14 11 15 26 16 28 17 12 18 25 19 24 20 13 21 22 22 14 23
REMARK SMILES IDX 16 24 21 25 23 26 15 27 17 28 20 29 18 30 19 31
REMARK H PARENT
REMARK Flexibility Score: inf
ROOT
ATOM      1  C   UNL     1      39.813  42.438 141.160  1.00  0.00     0.004 C 
ENDROOT
BRANCH   1   2
ATOM      2  C   UNL     1      39.284  41.075 140.618  1.00  0.00    -0.009 C 
BRANCH   2   3
ATOM      3  C   UNL     1      39.977  39.855 141.296  1.00  0.00     0.000 C 
ATOM      4  C   UNL     1      39.028  38.712 141.675  1.00  0.00     0.004 C 
ENDBRANCH   2   3
BRANCH   2   5
ATOM      5  C   UNL     1      37.720  40.994 140.686  1.00  0.00    -0.014 C 
ATOM      6  C   UNL     1      37.088  40.846 139.289  1.00  0.00     0.007 C 
ATOM      7  C   UNL     1      37.105  42.230 141.375  1.00  0.00     0.007 C 
ENDBRANCH   2   5
ENDBRANCH   1   2
BRANCH   1   8
ATOM      8  C   UNL     1      41.179  42.420 141.888  1.00  0.00     0.004 C 
BRANCH   8   9
ATOM      9  C   UNL     1      41.104  42.634 143.429  1.00  0.00    -0.011 C 
ATOM     10  C   UNL     1      41.909  43.867 143.876  1.00  0.00     0.008 C 
BRANCH   9  11
ATOM     11  C   UNL     1      39.672  42.597 144.078  1.00  0.00    -0.002 C 
ATOM     12  C   UNL     1      39.077  43.983 144.326  1.00  0.00     0.005 C 
ATOM     13  C   UNL     1      39.338  41.744 145.362  1.00  0.00    -0.026 C 
ATOM     14  C   UNL     1      37.848  43.715 145.167  1.00  0.00     0.005 C 
ATOM     15  C   UNL     1      38.271  42.603 146.128  1.00  0.00    -0.001 C 
ATOM     16  C   UNL     1      38.768  40.349 144.952  1.00  0.00     0.007 C 
ATOM     17  C   UNL     1      40.542  41.522 146.304  1.00  0.00     0.012 C 
ATOM     18  C   UNL     1      37.106  41.788 146.778  1.00  0.00     0.004 C 
ATOM     19  C   UNL     1      37.277  40.401 144.595  1.00  0.00     0.005 C 
ATOM     20  C   UNL     1      36.432  40.704 145.855  1.00  0.00     0.003 C 
ATOM     21  C   UNL     1      36.125  42.698 147.554  1.00  0.00     0.085 C 
ATOM     22  C   UNL     1      34.880  40.868 145.593  1.00  0.00    -0.000 C 
ATOM     23  C   UNL     1      34.874  41.973 147.936  1.00  0.00     0.159 C 
ATOM     24  C   UNL     1      34.191  41.114 146.940  1.00  0.00     0.005 C 
ATOM     25  C   UNL     1      34.332  39.552 144.946  1.00  0.00     0.020 C 
ATOM     26  C   UNL     1      34.555  42.053 144.654  1.00  0.00     0.017 C 
ATOM     27  O   UNL     1      34.380  42.157 149.082  1.00  0.00    -0.295 OA
ATOM     28  C   UNL     1      32.959  40.639 147.202  1.00  0.00     0.055 C 
ATOM     29  C   UNL     1      32.803  39.487 144.900  1.00  0.00     0.081 C 
ATOM     30  C   UNL     1      32.219  39.809 146.239  1.00  0.00     0.156 C 
ATOM     31  O   UNL     1      31.063  39.399 146.529  1.00  0.00    -0.295 OA
ENDBRANCH   9  11
ENDBRANCH   8   9
ENDBRANCH   1   8
TORSDOF 6
ENDMDL
MODEL 4
REMARK VINA RESULT:    -6.643      3.461      5.397
REMARK INTER + INTRA:         -10.963
REMARK INTER:                  -9.167
REMARK INTRA:                  -1.796
REMARK UNBOUND:                -1.991
REMARK SMILES CC[C@H](CC[C@@H](C)[C@@H]1CC[C@H]2[C@H]3CC(=O)C4=CC(=O)CC[C@]4(C)[C@H]3CC[C@]21C)C(C)C
REMARK SMILES IDX 4 1 3 2 2 3 1 4 29 5 30 6 31 7 5 8 6 9 7 10 8 11 9 12 27 13
REMARK SMILES IDX 10 14 11 15 26 16 28 17 12 18 25 19 24 20 13 21 22 22 14 23
REMARK SMILES IDX 16 24 21 25 23 26 15 27 17 28 20 29 18 30 19 31
REMARK H PARENT
REMARK Flexibility Score: inf
ROOT
ATOM      1  C   UNL     1      36.099  42.668 143.902  1.00  0.00     0.004 C 
ENDROOT
BRANCH   1   2
ATOM      2  C   UNL     1      36.438  42.217 145.356  1.00  0.00    -0.009 C 
BRANCH   2   3
ATOM      3  C   UNL     1      37.518  43.121 146.024  1.00  0.00     0.000 C 
ATOM      4  C   UNL     1      38.317  43.988 145.044  1.00  0.00     0.004 C 
ENDBRANCH   2   3
BRANCH   2   5
ATOM      5  C   UNL     1      35.146  42.074 146.233  1.00  0.00    -0.014 C 
ATOM      6  C   UNL     1      35.440  42.271 147.732  1.00  0.00     0.007 C 
ATOM      7  C   UNL     1      34.463  40.704 146.041  1.00  0.00     0.007 C 
ENDBRANCH   2   5
ENDBRANCH   1   2
BRANCH   1   8
ATOM      8  C   UNL     1      36.781  41.891 142.751  1.00  0.00     0.004 C 
BRANCH   8   9
ATOM      9  C   UNL     1      36.026  40.612 142.285  1.00  0.00    -0.011 C 
ATOM     10  C   UNL     1      36.599  39.340 142.937  1.00  0.00     0.008 C 
BRANCH   9  11
ATOM     11  C   UNL     1      34.456  40.654 142.354  1.00  0.00    -0.002 C 
ATOM     12  C   UNL     1      33.815  39.279 142.548  1.00  0.00     0.005 C 
ATOM     13  C   UNL     1      33.572  41.397 141.279  1.00  0.00    -0.026 C 
ATOM     14  C   UNL     1      32.337  39.524 142.331  1.00  0.00     0.005 C 
ATOM     15  C   UNL     1      32.275  40.520 141.172  1.00  0.00    -0.001 C 
ATOM     16  C   UNL     1      33.250  42.849 141.754  1.00  0.00     0.007 C 
ATOM     17  C   UNL     1      34.216  41.475 139.876  1.00  0.00     0.012 C 
ATOM     18  C   UNL     1      30.941  41.324 141.039  1.00  0.00     0.004 C 
ATOM     19  C   UNL     1      32.084  42.900 142.751  1.00  0.00     0.005 C 
ATOM     20  C   UNL     1      30.759  42.520 142.049  1.00  0.00     0.003 C 
ATOM     21  C   UNL     1      29.715  40.392 140.891  1.00  0.00     0.085 C 
ATOM     22  C   UNL     1      29.496  42.453 143.000  1.00  0.00    -0.000 C 
ATOM     23  C   UNL     1      28.427  41.136 141.042  1.00  0.00     0.159 C 
ATOM     24  C   UNL     1      28.270  42.115 142.144  1.00  0.00     0.005 C 
ATOM     25  C   UNL     1      29.300  43.847 143.683  1.00  0.00     0.020 C 
ATOM     26  C   UNL     1      29.635  41.377 144.102  1.00  0.00     0.017 C 
ATOM     27  O   UNL     1      27.466  40.868 140.270  1.00  0.00    -0.295 OA
ATOM     28  C   UNL     1      27.053  42.619 142.420  1.00  0.00     0.055 C 
ATOM     29  C   UNL     1      27.959  43.987 144.409  1.00  0.00     0.081 C 
ATOM     30  C   UNL     1      26.831  43.569 143.521  1.00  0.00     0.156 C 
ATOM     31  O   UNL     1      25.669  44.002 143.744  1.00  0.00    -0.295 OA
ENDBRANCH   9  11
ENDBRANCH   8   9
ENDBRANCH   1   8
TORSDOF 6
ENDMDL
MODEL 5
REMARK VINA RESULT:    -6.256      3.391      8.323
REMARK INTER + INTRA:         -10.442
REMARK INTER:                  -8.699
REMARK INTRA:                  -1.743
REMARK UNBOUND:                -1.991
REMARK SMILES CC[C@H](CC[C@@H](C)[C@@H]1CC[C@H]2[C@H]3CC(=O)C4=CC(=O)CC[C@]4(C)[C@H]3CC[C@]21C)C(C)C
REMARK SMILES IDX 4 1 3 2 2 3 1 4 29 5 30 6 31 7 5 8 6 9 7 10 8 11 9 12 27 13
REMARK SMILES IDX 10 14 11 15 26 16 28 17 12 18 25 19 24 20 13 21 22 22 14 23
REMARK SMILES IDX 16 24 21 25 23 26 15 27 17 28 20 29 18 30 19 31
REMARK H PARENT
REMARK Flexibility Score: inf
ROOT
ATOM      1  C   UNL     1      33.978  40.551 137.354  1.00  0.00     0.004 C 
ENDROOT
BRANCH   1   2
ATOM      2  C   UNL     1      35.448  41.064 137.444  1.00  0.00    -0.009 C 
BRANCH   2   3
ATOM      3  C   UNL     1      36.259  40.353 138.569  1.00  0.00     0.000 C 
ATOM      4  C   UNL     1      36.351  41.138 139.882  1.00  0.00     0.004 C 
ENDBRANCH   2   3
BRANCH   2   5
ATOM      5  C   UNL     1      36.166  41.004 136.052  1.00  0.00    -0.014 C 
ATOM      6  C   UNL     1      35.521  39.966 135.114  1.00  0.00     0.007 C 
ATOM      7  C   UNL     1      37.668  40.677 136.187  1.00  0.00     0.007 C 
ENDBRANCH   2   5
ENDBRANCH   1   2
BRANCH   1   8
ATOM      8  C   UNL     1      32.859  41.570 137.677  1.00  0.00     0.004 C 
BRANCH   8   9
ATOM      9  C   UNL     1      31.935  41.173 138.867  1.00  0.00    -0.011 C 
ATOM     10  C   UNL     1      31.017  39.991 138.509  1.00  0.00     0.008 C 
BRANCH   9  11
ATOM     11  C   UNL     1      32.627  40.981 140.265  1.00  0.00    -0.002 C 
ATOM     12  C   UNL     1      32.726  39.519 140.703  1.00  0.00     0.005 C 
ATOM     13  C   UNL     1      32.201  41.791 141.550  1.00  0.00    -0.026 C 
ATOM     14  C   UNL     1      33.177  39.592 142.146  1.00  0.00     0.005 C 
ATOM     15  C   UNL     1      32.410  40.779 142.731  1.00  0.00    -0.001 C 
ATOM     16  C   UNL     1      33.095  43.060 141.711  1.00  0.00     0.007 C 
ATOM     17  C   UNL     1      30.720  42.233 141.554  1.00  0.00     0.012 C 
ATOM     18  C   UNL     1      33.011  41.398 144.035  1.00  0.00     0.004 C 
ATOM     19  C   UNL     1      34.452  42.749 142.356  1.00  0.00     0.005 C 
ATOM     20  C   UNL     1      34.264  42.333 143.834  1.00  0.00     0.003 C 
ATOM     21  C   UNL     1      33.143  40.351 145.166  1.00  0.00     0.085 C 
ATOM     22  C   UNL     1      35.591  41.903 144.580  1.00  0.00    -0.000 C 
ATOM     23  C   UNL     1      33.964  40.862 146.306  1.00  0.00     0.159 C 
ATOM     24  C   UNL     1      35.237  41.572 146.034  1.00  0.00     0.005 C 
ATOM     25  C   UNL     1      36.606  43.094 144.537  1.00  0.00     0.020 C 
ATOM     26  C   UNL     1      36.258  40.661 143.944  1.00  0.00     0.017 C 
ATOM     27  O   UNL     1      33.596  40.621 147.488  1.00  0.00    -0.295 OA
ATOM     28  C   UNL     1      36.083  41.836 147.048  1.00  0.00     0.055 C 
ATOM     29  C   UNL     1      37.814  42.898 145.458  1.00  0.00     0.081 C 
ATOM     30  C   UNL     1      37.373  42.509 146.833  1.00  0.00     0.156 C 
ATOM     31  O   UNL     1      38.134  42.723 147.815  1.00  0.00    -0.295 OA
ENDBRANCH   9  11
ENDBRANCH   8   9
ENDBRANCH   1   8
TORSDOF 6
ENDMDL
MODEL 6
REMARK VINA RESULT:    -6.113      3.720      6.036
REMARK INTER + INTRA:         -10.248
REMARK INTER:                  -8.705
REMARK INTRA:                  -1.544
REMARK UNBOUND:                -1.991
REMARK SMILES CC[C@H](CC[C@@H](C)[C@@H]1CC[C@H]2[C@H]3CC(=O)C4=CC(=O)CC[C@]4(C)[C@H]3CC[C@]21C)C(C)C
REMARK SMILES IDX 4 1 3 2 2 3 1 4 29 5 30 6 31 7 5 8 6 9 7 10 8 11 9 12 27 13
REMARK SMILES IDX 10 14 11 15 26 16 28 17 12 18 25 19 24 20 13 21 22 22 14 23
REMARK SMILES IDX 16 24 21 25 23 26 15 27 17 28 20 29 18 30 19 31
REMARK H PARENT
REMARK Flexibility Score: inf
ROOT
ATOM      1  C   UNL     1      37.709  41.366 144.111  1.00  0.00     0.004 C 
ENDROOT
BRANCH   1   2
ATOM      2  C   UNL     1      38.207  42.829 143.899  1.00  0.00    -0.009 C 
BRANCH   2   3
ATOM      3  C   UNL     1      37.817  43.768 145.081  1.00  0.00     0.000 C 
ATOM      4  C   UNL     1      37.546  43.046 146.406  1.00  0.00     0.004 C 
ENDBRANCH   2   3
BRANCH   2   5
ATOM      5  C   UNL     1      39.740  42.875 143.574  1.00  0.00    -0.014 C 
ATOM      6  C   UNL     1      40.402  44.165 144.095  1.00  0.00     0.007 C 
ATOM      7  C   UNL     1      40.016  42.757 142.061  1.00  0.00     0.007 C 
ENDBRANCH   2   5
ENDBRANCH   1   2
BRANCH   1   8
ATOM      8  C   UNL     1      36.854  40.746 142.980  1.00  0.00     0.004 C 
BRANCH   8   9
ATOM      9  C   UNL     1      36.143  41.778 142.056  1.00  0.00    -0.011 C 
ATOM     10  C   UNL     1      36.746  41.790 140.639  1.00  0.00     0.008 C 
BRANCH   9  11
ATOM     11  C   UNL     1      34.571  41.736 142.027  1.00  0.00    -0.002 C 
ATOM     12  C   UNL     1      33.952  42.693 141.009  1.00  0.00     0.005 C 
ATOM     13  C   UNL     1      33.689  41.856 143.329  1.00  0.00    -0.026 C 
ATOM     14  C   UNL     1      32.473  42.672 141.329  1.00  0.00     0.005 C 
ATOM     15  C   UNL     1      32.408  42.631 142.857  1.00  0.00    -0.001 C 
ATOM     16  C   UNL     1      33.335  40.437 143.876  1.00  0.00     0.007 C 
ATOM     17  C   UNL     1      34.349  42.667 144.467  1.00  0.00     0.012 C 
ATOM     18  C   UNL     1      31.062  42.120 143.466  1.00  0.00     0.004 C 
ATOM     19  C   UNL     1      32.156  39.794 143.134  1.00  0.00     0.005 C 
ATOM     20  C   UNL     1      30.847  40.560 143.437  1.00  0.00     0.003 C 
ATOM     21  C   UNL     1      29.855  42.963 142.991  1.00  0.00     0.085 C 
ATOM     22  C   UNL     1      29.574  40.038 142.655  1.00  0.00    -0.000 C 
ATOM     23  C   UNL     1      28.552  42.318 143.341  1.00  0.00     0.159 C 
ATOM     24  C   UNL     1      28.365  40.867 143.104  1.00  0.00     0.005 C 
ATOM     25  C   UNL     1      29.345  38.530 143.005  1.00  0.00     0.020 C 
ATOM     26  C   UNL     1      29.718  40.175 141.121  1.00  0.00     0.017 C 
ATOM     27  O   UNL     1      27.606  43.033 143.771  1.00  0.00    -0.295 OA
ATOM     28  C   UNL     1      27.135  40.328 143.207  1.00  0.00     0.055 C 
ATOM     29  C   UNL     1      27.993  37.992 142.528  1.00  0.00     0.081 C 
ATOM     30  C   UNL     1      26.884  38.901 142.952  1.00  0.00     0.156 C 
ATOM     31  O   UNL     1      25.711  38.449 143.051  1.00  0.00    -0.295 OA
ENDBRANCH   9  11
ENDBRANCH   8   9
ENDBRANCH   1   8
TORSDOF 6
ENDMDL
MODEL 7
REMARK VINA RESULT:    -6.088      3.261      8.134
REMARK INTER + INTRA:         -10.215
REMARK INTER:                  -8.113
REMARK INTRA:                  -2.101
REMARK UNBOUND:                -1.991
REMARK SMILES CC[C@H](CC[C@@H](C)[C@@H]1CC[C@H]2[C@H]3CC(=O)C4=CC(=O)CC[C@]4(C)[C@H]3CC[C@]21C)C(C)C
REMARK SMILES IDX 4 1 3 2 2 3 1 4 29 5 30 6 31 7 5 8 6 9 7 10 8 11 9 12 27 13
REMARK SMILES IDX 10 14 11 15 26 16 28 17 12 18 25 19 24 20 13 21 22 22 14 23
REMARK SMILES IDX 16 24 21 25 23 26 15 27 17 28 20 29 18 30 19 31
REMARK H PARENT
REMARK Flexibility Score: inf
ROOT
ATOM      1  C   UNL     1      33.724  41.334 138.139  1.00  0.00     0.004 C 
ENDROOT
BRANCH   1   2
ATOM      2  C   UNL     1      35.109  40.737 137.742  1.00  0.00    -0.009 C 
BRANCH   2   3
ATOM      3  C   UNL     1      35.293  39.274 138.249  1.00  0.00     0.000 C 
ATOM      4  C   UNL     1      36.283  39.122 139.409  1.00  0.00     0.004 C 
ENDBRANCH   2   3
BRANCH   2   5
ATOM      5  C   UNL     1      35.381  40.882 136.205  1.00  0.00    -0.014 C 
ATOM      6  C   UNL     1      34.966  39.621 135.424  1.00  0.00     0.007 C 
ATOM      7  C   UNL     1      36.864  41.180 135.904  1.00  0.00     0.007 C 
ENDBRANCH   2   5
ENDBRANCH   1   2
BRANCH   1   8
ATOM      8  C   UNL     1      32.634  40.335 138.595  1.00  0.00     0.004 C 
BRANCH   8   9
ATOM      9  C   UNL     1      32.222  40.453 140.093  1.00  0.00    -0.011 C 
ATOM     10  C   UNL     1      31.236  39.345 140.504  1.00  0.00     0.008 C 
BRANCH   9  11
ATOM     11  C   UNL     1      33.387  40.622 141.135  1.00  0.00    -0.002 C 
ATOM     12  C   UNL     1      33.363  39.581 142.254  1.00  0.00     0.005 C 
ATOM     13  C   UNL     1      33.720  41.999 141.829  1.00  0.00    -0.026 C 
ATOM     14  C   UNL     1      34.388  40.081 143.249  1.00  0.00     0.005 C 
ATOM     15  C   UNL     1      34.201  41.598 143.269  1.00  0.00    -0.001 C 
ATOM     16  C   UNL     1      34.835  42.750 141.036  1.00  0.00     0.007 C 
ATOM     17  C   UNL     1      32.504  42.943 141.975  1.00  0.00     0.012 C 
ATOM     18  C   UNL     1      35.410  42.425 143.817  1.00  0.00     0.004 C 
ATOM     19  C   UNL     1      36.243  42.239 141.369  1.00  0.00     0.005 C 
ATOM     20  C   UNL     1      36.619  42.607 142.824  1.00  0.00     0.003 C 
ATOM     21  C   UNL     1      35.794  42.004 145.255  1.00  0.00     0.085 C 
ATOM     22  C   UNL     1      38.020  42.056 143.310  1.00  0.00    -0.000 C 
ATOM     23  C   UNL     1      37.106  42.585 145.675  1.00  0.00     0.159 C 
ATOM     24  C   UNL     1      38.257  42.547 144.742  1.00  0.00     0.005 C 
ATOM     25  C   UNL     1      39.139  42.607 142.365  1.00  0.00     0.020 C 
ATOM     26  C   UNL     1      38.087  40.510 143.306  1.00  0.00     0.017 C 
ATOM     27  O   UNL     1      37.233  43.040 146.845  1.00  0.00    -0.295 OA
ATOM     28  C   UNL     1      39.487  42.864 145.189  1.00  0.00     0.055 C 
ATOM     29  C   UNL     1      40.557  42.367 142.894  1.00  0.00     0.081 C 
ATOM     30  C   UNL     1      40.672  42.813 144.317  1.00  0.00     0.156 C 
ATOM     31  O   UNL     1      41.803  43.107 144.788  1.00  0.00    -0.295 OA
ENDBRANCH   9  11
ENDBRANCH   8   9
ENDBRANCH   1   8
TORSDOF 6
ENDMDL
MODEL 8
REMARK VINA RESULT:    -6.042      1.797      3.599
REMARK INTER + INTRA:         -10.153
REMARK INTER:                  -7.827
REMARK INTRA:                  -2.326
REMARK UNBOUND:                -1.991
REMARK SMILES CC[C@H](CC[C@@H](C)[C@@H]1CC[C@H]2[C@H]3CC(=O)C4=CC(=O)CC[C@]4(C)[C@H]3CC[C@]21C)C(C)C
REMARK SMILES IDX 4 1 3 2 2 3 1 4 29 5 30 6 31 7 5 8 6 9 7 10 8 11 9 12 27 13
REMARK SMILES IDX 10 14 11 15 26 16 28 17 12 18 25 19 24 20 13 21 22 22 14 23
REMARK SMILES IDX 16 24 21 25 23 26 15 27 17 28 20 29 18 30 19 31
REMARK H PARENT
REMARK Flexibility Score: inf
ROOT
ATOM      1  C   UNL     1      35.347  42.344 146.954  1.00  0.00     0.004 C 
ENDROOT
BRANCH   1   2
ATOM      2  C   UNL     1      34.302  41.311 147.478  1.00  0.00    -0.009 C 
BRANCH   2   3
ATOM      3  C   UNL     1      34.478  39.906 146.828  1.00  0.00     0.000 C 
ATOM      4  C   UNL     1      34.432  39.901 145.296  1.00  0.00     0.004 C 
ENDBRANCH   2   3
BRANCH   2   5
ATOM      5  C   UNL     1      34.282  41.254 149.044  1.00  0.00    -0.014 C 
ATOM      6  C   UNL     1      34.723  39.877 149.577  1.00  0.00     0.007 C 
ATOM      7  C   UNL     1      32.889  41.580 149.620  1.00  0.00     0.007 C 
ENDBRANCH   2   5
ENDBRANCH   1   2
BRANCH   1   8
ATOM      8  C   UNL     1      36.654  42.494 147.769  1.00  0.00     0.004 C 
BRANCH   8   9
ATOM      9  C   UNL     1      37.901  41.807 147.138  1.00  0.00    -0.011 C 
ATOM     10  C   UNL     1      38.462  40.695 148.043  1.00  0.00     0.008 C 
BRANCH   9  11
ATOM     11  C   UNL     1      37.770  41.340 145.642  1.00  0.00    -0.002 C 
ATOM     12  C   UNL     1      38.288  39.923 145.396  1.00  0.00     0.005 C 
ATOM     13  C   UNL     1      38.281  42.207 144.428  1.00  0.00    -0.026 C 
ATOM     14  C   UNL     1      38.301  39.788 143.888  1.00  0.00     0.005 C 
ATOM     15  C   UNL     1      38.781  41.149 143.382  1.00  0.00    -0.001 C 
ATOM     16  C   UNL     1      37.118  43.079 143.856  1.00  0.00     0.007 C 
ATOM     17  C   UNL     1      39.466  43.139 144.771  1.00  0.00     0.012 C 
ATOM     18  C   UNL     1      38.440  41.478 141.892  1.00  0.00     0.004 C 
ATOM     19  C   UNL     1      36.201  42.292 142.911  1.00  0.00     0.005 C 
ATOM     20  C   UNL     1      36.954  41.922 141.612  1.00  0.00     0.003 C 
ATOM     21  C   UNL     1      39.006  40.415 140.920  1.00  0.00     0.085 C 
ATOM     22  C   UNL     1      36.132  41.032 140.595  1.00  0.00    -0.000 C 
ATOM     23  C   UNL     1      38.452  40.571 139.540  1.00  0.00     0.159 C 
ATOM     24  C   UNL     1      37.000  40.800 139.353  1.00  0.00     0.005 C 
ATOM     25  C   UNL     1      34.824  41.794 140.196  1.00  0.00     0.020 C 
ATOM     26  C   UNL     1      35.743  39.656 141.184  1.00  0.00     0.017 C 
ATOM     27  O   UNL     1      39.221  40.436 138.548  1.00  0.00    -0.295 OA
ATOM     28  C   UNL     1      36.465  40.720 138.120  1.00  0.00     0.055 C 
ATOM     29  C   UNL     1      34.086  41.159 139.013  1.00  0.00     0.081 C 
ATOM     30  C   UNL     1      35.026  40.906 137.878  1.00  0.00     0.156 C 
ATOM     31  O   UNL     1      34.575  40.809 136.706  1.00  0.00    -0.295 OA
ENDBRANCH   9  11
ENDBRANCH   8   9
ENDBRANCH   1   8
TORSDOF 6
ENDMDL
MODEL 9
REMARK VINA RESULT:    -5.999      9.186     12.919
REMARK INTER + INTRA:         -10.094
REMARK INTER:                  -7.411
REMARK INTRA:                  -2.683
REMARK UNBOUND:                -1.991
REMARK SMILES CC[C@H](CC[C@@H](C)[C@@H]1CC[C@H]2[C@H]3CC(=O)C4=CC(=O)CC[C@]4(C)[C@H]3CC[C@]21C)C(C)C
REMARK SMILES IDX 4 1 3 2 2 3 1 4 29 5 30 6 31 7 5 8 6 9 7 10 8 11 9 12 27 13
REMARK SMILES IDX 10 14 11 15 26 16 28 17 12 18 25 19 24 20 13 21 22 22 14 23
REMARK SMILES IDX 16 24 21 25 23 26 15 27 17 28 20 29 18 30 19 31
REMARK H PARENT
REMARK Flexibility Score: inf
ROOT
ATOM      1  C   UNL     1      25.316  29.830 141.166  1.00  0.00     0.004 C 
ENDROOT
BRANCH   1   2
ATOM      2  C   UNL     1      26.238  30.557 142.193  1.00  0.00    -0.009 C 
BRANCH   2   3
ATOM      3  C   UNL     1      27.751  30.364 141.873  1.00  0.00     0.000 C 
ATOM      4  C   UNL     1      28.600  29.903 143.063  1.00  0.00     0.004 C 
ENDBRANCH   2   3
BRANCH   2   5
ATOM      5  C   UNL     1      25.843  32.065 142.357  1.00  0.00    -0.014 C 
ATOM      6  C   UNL     1      24.523  32.398 141.636  1.00  0.00     0.007 C 
ATOM      7  C   UNL     1      26.942  33.013 141.832  1.00  0.00     0.007 C 
ENDBRANCH   2   5
ENDBRANCH   1   2
BRANCH   1   8
ATOM      8  C   UNL     1      25.980  29.320 139.865  1.00  0.00     0.004 C 
BRANCH   8   9
ATOM      9  C   UNL     1      25.803  30.251 138.630  1.00  0.00    -0.011 C 
ATOM     10  C   UNL     1      24.324  30.606 138.388  1.00  0.00     0.008 C 
BRANCH   9  11
ATOM     11  C   UNL     1      26.732  31.518 138.560  1.00  0.00    -0.002 C 
ATOM     12  C   UNL     1      25.986  32.806 138.213  1.00  0.00     0.005 C 
ATOM     13  C   UNL     1      28.069  31.552 137.725  1.00  0.00    -0.026 C 
ATOM     14  C   UNL     1      27.084  33.814 137.954  1.00  0.00     0.005 C 
ATOM     15  C   UNL     1      28.161  33.029 137.204  1.00  0.00    -0.001 C 
ATOM     16  C   UNL     1      29.285  31.183 138.633  1.00  0.00     0.007 C 
ATOM     17  C   UNL     1      28.073  30.610 136.499  1.00  0.00     0.012 C 
ATOM     18  C   UNL     1      29.595  33.652 137.226  1.00  0.00     0.004 C 
ATOM     19  C   UNL     1      29.777  32.370 139.472  1.00  0.00     0.005 C 
ATOM     20  C   UNL     1      30.408  33.449 138.561  1.00  0.00     0.003 C 
ATOM     21  C   UNL     1      29.612  35.089 136.655  1.00  0.00     0.085 C 
ATOM     22  C   UNL     1      30.874  34.763 139.309  1.00  0.00    -0.000 C 
ATOM     23  C   UNL     1      30.907  35.784 136.928  1.00  0.00     0.159 C 
ATOM     24  C   UNL     1      31.515  35.699 138.278  1.00  0.00     0.005 C 
ATOM     25  C   UNL     1      31.924  34.379 140.404  1.00  0.00     0.020 C 
ATOM     26  C   UNL     1      29.703  35.512 139.987  1.00  0.00     0.017 C 
ATOM     27  O   UNL     1      31.431  36.491 136.024  1.00  0.00    -0.295 OA
ATOM     28  C   UNL     1      32.554  36.495 138.592  1.00  0.00     0.055 C 
ATOM     29  C   UNL     1      32.649  35.588 141.004  1.00  0.00     0.081 C 
ATOM     30  C   UNL     1      33.177  36.477 139.924  1.00  0.00     0.156 C 
ATOM     31  O   UNL     1      34.141  37.251 140.171  1.00  0.00    -0.295 OA
ENDBRANCH   9  11
ENDBRANCH   8   9
ENDBRANCH   1   8
TORSDOF 6
ENDMDL
