MODEL 1
REMARK VINA RESULT:    -4.732      0.000      0.000
REMARK INTER + INTRA:          -7.401
REMARK INTER:                  -7.222
REMARK INTRA:                  -0.179
REMARK UNBOUND:                -0.179
REMARK SMILES CC1=CCC[C@H](C)C(=O)C[C@H](C(C)C)C(=O)C1
REMARK SMILES IDX 8 1 9 2 6 3 7 4 5 5 4 6 3 7 2 8 1 9 10 11 11 12 15 13 16 14
REMARK SMILES IDX 17 15 12 17 13 18 14 19
REMARK H PARENT
REMARK Flexibility Score: 70.00
ROOT
ATOM      1  C   UNL     1     119.506 176.619 128.695  1.00  0.00     0.136 C 
ATOM      2  O   UNL     1     120.073 175.543 128.580  1.00  0.00    -0.299 OA
ENDROOT
BRANCH   1   3
ATOM      3  C   UNL     1     120.183 177.757 129.428  1.00  0.00     0.053 C 
ATOM      4  C   UNL     1     120.171 177.470 130.933  1.00  0.00     0.016 C 
BRANCH   3   5
ATOM      5  C   UNL     1     121.631 178.002 128.942  1.00  0.00     0.015 C 
BRANCH   5   6
ATOM      6  C   UNL     1     121.716 178.624 127.535  1.00  0.00     0.028 C 
BRANCH   6   7
ATOM      7  C   UNL     1     122.095 177.596 126.492  1.00  0.00    -0.028 C 
ATOM      8  C   UNL     1     121.385 177.273 125.385  1.00  0.00    -0.070 CG0
ATOM      9  C   UNL     1     121.964 176.236 124.456  1.00  0.00     0.039 C 
ATOM     10  G   UNL     1     120.018 177.841 125.065  1.00  0.00     0.000 G0
ENDBRANCH   6   7
ENDBRANCH   5   6
ENDBRANCH   3   5
ENDBRANCH   1   3
BRANCH   1  11
ATOM     11  C   UNL     1     118.116 176.790 128.133  1.00  0.00     0.087 C 
BRANCH  11  12
ATOM     12  C   UNL     1     118.101 177.702 126.883  1.00  0.00     0.066 C 
BRANCH  12  13
ATOM     13  C   UNL     1     118.913 177.082 125.760  1.00  0.00     0.140 C 
ATOM     14  O   UNL     1     118.711 175.922 125.431  1.00  0.00    -0.299 OA
BRANCH  13  15
ATOM     15  C   UNL     1     119.995 177.858 125.057  1.00  0.00     0.106 CG0
ATOM     16  G   UNL     1     121.351 177.267 125.381  1.00  0.00     0.000 G0
ENDBRANCH  13  15
ENDBRANCH  12  13
BRANCH  12  17
ATOM     17  C   UNL     1     116.668 178.082 126.397  1.00  0.00    -0.006 C 
ATOM     18  C   UNL     1     116.353 179.562 126.669  1.00  0.00     0.008 C 
ATOM     19  C   UNL     1     115.551 177.197 126.976  1.00  0.00     0.008 C 
ENDBRANCH  12  17
ENDBRANCH  11  12
ENDBRANCH   1  11
TORSDOF 1
ENDMDL
MODEL 2
REMARK VINA RESULT:    -4.725      2.545      4.692
REMARK INTER + INTRA:          -7.390
REMARK INTER:                  -7.002
REMARK INTRA:                  -0.388
REMARK UNBOUND:                -0.179
REMARK SMILES CC1=CCC[C@H](C)C(=O)C[C@H](C(C)C)C(=O)C1
REMARK SMILES IDX 8 1 9 2 6 3 7 4 5 5 4 6 3 7 2 8 1 9 10 11 11 12 15 13 16 14
REMARK SMILES IDX 17 15 12 17 13 18 14 19
REMARK H PARENT
REMARK Flexibility Score: 70.00
ROOT
ATOM      1  C   UNL     1     116.832 175.858 126.539  1.00  0.00     0.136 C 
ATOM      2  O   UNL     1     116.086 174.983 126.127  1.00  0.00    -0.299 OA
ENDROOT
BRANCH   1   3
ATOM      3  C   UNL     1     116.414 176.718 127.713  1.00  0.00     0.053 C 
ATOM      4  C   UNL     1     115.225 177.592 127.303  1.00  0.00     0.016 C 
BRANCH   3   5
ATOM      5  C   UNL     1     116.059 175.885 128.966  1.00  0.00     0.015 C 
BRANCH   5   6
ATOM      6  C   UNL     1     117.269 175.572 129.867  1.00  0.00     0.028 C 
BRANCH   6   7
ATOM      7  C   UNL     1     117.867 174.220 129.550  1.00  0.00    -0.028 C 
ATOM      8  C   UNL     1     119.124 173.979 129.107  1.00  0.00    -0.070 CG0
ATOM      9  C   UNL     1     119.528 172.543 128.882  1.00  0.00     0.039 C 
ATOM     10  G   UNL     1     120.118 175.067 128.760  1.00  0.00     0.000 G0
ENDBRANCH   6   7
ENDBRANCH   5   6
ENDBRANCH   3   5
ENDBRANCH   1   3
BRANCH   1  11
ATOM     11  C   UNL     1     118.152 176.095 125.847  1.00  0.00     0.087 C 
BRANCH  11  12
ATOM     12  C   UNL     1     119.241 176.596 126.826  1.00  0.00     0.066 C 
BRANCH  12  13
ATOM     13  C   UNL     1     120.085 175.437 127.324  1.00  0.00     0.140 C 
ATOM     14  O   UNL     1     120.725 174.763 126.529  1.00  0.00    -0.299 OA
BRANCH  13  15
ATOM     15  C   UNL     1     120.128 175.073 128.784  1.00  0.00     0.106 CG0
ATOM     16  G   UNL     1     119.117 173.984 129.077  1.00  0.00     0.000 G0
ENDBRANCH  13  15
ENDBRANCH  12  13
BRANCH  12  17
ATOM     17  C   UNL     1     120.136 177.734 126.244  1.00  0.00    -0.006 C 
ATOM     18  C   UNL     1     121.148 178.244 127.283  1.00  0.00     0.008 C 
ATOM     19  C   UNL     1     119.348 178.920 125.660  1.00  0.00     0.008 C 
ENDBRANCH  12  17
ENDBRANCH  11  12
ENDBRANCH   1  11
TORSDOF 1
ENDMDL
MODEL 3
REMARK VINA RESULT:    -4.715      1.944      4.232
REMARK INTER + INTRA:          -7.375
REMARK INTER:                  -7.534
REMARK INTRA:                   0.159
REMARK UNBOUND:                -0.179
REMARK SMILES CC1=CCC[C@H](C)C(=O)C[C@H](C(C)C)C(=O)C1
REMARK SMILES IDX 8 1 9 2 6 3 7 4 5 5 4 6 3 7 2 8 1 9 10 11 11 12 15 13 16 14
REMARK SMILES IDX 17 15 12 17 13 18 14 19
REMARK H PARENT
REMARK Flexibility Score: 70.00
ROOT
ATOM      1  C   UNL     1     118.826 176.748 129.440  1.00  0.00     0.136 C 
ATOM      2  O   UNL     1     119.489 176.817 130.464  1.00  0.00    -0.299 OA
ENDROOT
BRANCH   1   3
ATOM      3  C   UNL     1     118.106 175.464 129.089  1.00  0.00     0.053 C 
ATOM      4  C   UNL     1     117.902 174.633 130.359  1.00  0.00     0.016 C 
BRANCH   3   5
ATOM      5  C   UNL     1     116.750 175.712 128.388  1.00  0.00     0.015 C 
BRANCH   5   6
ATOM      6  C   UNL     1     116.720 175.257 126.916  1.00  0.00     0.028 C 
BRANCH   6   7
ATOM      7  C   UNL     1     116.046 176.280 126.029  1.00  0.00    -0.028 C 
ATOM      8  C   UNL     1     116.657 177.109 125.149  1.00  0.00    -0.070 CG0
ATOM      9  C   UNL     1     115.788 178.036 124.336  1.00  0.00     0.039 C 
ATOM     10  G   UNL     1     118.159 177.207 124.987  1.00  0.00     0.000 G0
ENDBRANCH   6   7
ENDBRANCH   5   6
ENDBRANCH   3   5
ENDBRANCH   1   3
BRANCH   1  11
ATOM     11  C   UNL     1     118.763 177.939 128.515  1.00  0.00     0.087 C 
BRANCH  11  12
ATOM     12  C   UNL     1     119.532 177.693 127.195  1.00  0.00     0.066 C 
BRANCH  12  13
ATOM     13  C   UNL     1     118.722 178.180 126.008  1.00  0.00     0.140 C 
ATOM     14  O   UNL     1     118.493 179.374 125.874  1.00  0.00    -0.299 OA
BRANCH  13  15
ATOM     15  C   UNL     1     118.161 177.216 124.997  1.00  0.00     0.106 CG0
ATOM     16  G   UNL     1     116.660 177.108 125.161  1.00  0.00     0.000 G0
ENDBRANCH  13  15
ENDBRANCH  12  13
BRANCH  12  17
ATOM     17  C   UNL     1     120.970 178.299 127.181  1.00  0.00    -0.006 C 
ATOM     18  C   UNL     1     121.878 177.578 126.171  1.00  0.00     0.008 C 
ATOM     19  C   UNL     1     121.653 178.335 128.560  1.00  0.00     0.008 C 
ENDBRANCH  12  17
ENDBRANCH  11  12
ENDBRANCH   1  11
TORSDOF 1
ENDMDL
MODEL 4
REMARK VINA RESULT:    -4.669      1.915      4.241
REMARK INTER + INTRA:          -7.305
REMARK INTER:                  -6.854
REMARK INTRA:                  -0.450
REMARK UNBOUND:                -0.179
REMARK SMILES CC1=CCC[C@H](C)C(=O)C[C@H](C(C)C)C(=O)C1
REMARK SMILES IDX 8 1 9 2 6 3 7 4 5 5 4 6 3 7 2 8 1 9 10 11 11 12 15 13 16 14
REMARK SMILES IDX 17 15 12 17 13 18 14 19
REMARK H PARENT
REMARK Flexibility Score: 70.00
ROOT
ATOM      1  C   UNL     1     120.715 175.719 126.181  1.00  0.00     0.136 C 
ATOM      2  O   UNL     1     121.238 174.704 125.746  1.00  0.00    -0.299 OA
ENDROOT
BRANCH   1   3
ATOM      3  C   UNL     1     121.137 177.073 125.652  1.00  0.00     0.053 C 
ATOM      4  C   UNL     1     122.658 177.097 125.473  1.00  0.00     0.016 C 
BRANCH   3   5
ATOM      5  C   UNL     1     120.436 177.440 124.323  1.00  0.00     0.015 C 
BRANCH   5   6
ATOM      6  C   UNL     1     119.311 178.481 124.482  1.00  0.00     0.028 C 
BRANCH   6   7
ATOM      7  C   UNL     1     117.947 177.829 124.517  1.00  0.00    -0.028 C 
ATOM      8  C   UNL     1     117.085 177.822 125.561  1.00  0.00    -0.070 CG0
ATOM      9  C   UNL     1     115.755 177.136 125.372  1.00  0.00     0.039 C 
ATOM     10  G   UNL     1     117.407 178.400 126.923  1.00  0.00     0.000 G0
ENDBRANCH   6   7
ENDBRANCH   5   6
ENDBRANCH   3   5
ENDBRANCH   1   3
BRANCH   1  11
ATOM     11  C   UNL     1     119.675 175.611 127.269  1.00  0.00     0.087 C 
BRANCH  11  12
ATOM     12  C   UNL     1     119.386 176.977 127.935  1.00  0.00     0.066 C 
BRANCH  12  13
ATOM     13  C   UNL     1     117.907 177.308 127.852  1.00  0.00     0.140 C 
ATOM     14  O   UNL     1     117.099 176.664 128.506  1.00  0.00    -0.299 OA
BRANCH  13  15
ATOM     15  C   UNL     1     117.401 178.402 126.948  1.00  0.00     0.106 CG0
ATOM     16  G   UNL     1     117.097 177.840 125.575  1.00  0.00     0.000 G0
ENDBRANCH  13  15
ENDBRANCH  12  13
BRANCH  12  17
ATOM     17  C   UNL     1     119.903 177.085 129.403  1.00  0.00    -0.006 C 
ATOM     18  C   UNL     1     121.276 177.774 129.469  1.00  0.00     0.008 C 
ATOM     19  C   UNL     1     119.959 175.742 130.152  1.00  0.00     0.008 C 
ENDBRANCH  12  17
ENDBRANCH  11  12
ENDBRANCH   1  11
TORSDOF 1
ENDMDL
MODEL 5
REMARK VINA RESULT:    -4.521      1.939      3.923
REMARK INTER + INTRA:          -7.079
REMARK INTER:                  -6.968
REMARK INTRA:                  -0.111
REMARK UNBOUND:                -0.179
REMARK SMILES CC1=CCC[C@H](C)C(=O)C[C@H](C(C)C)C(=O)C1
REMARK SMILES IDX 8 1 9 2 6 3 7 4 5 5 4 6 3 7 2 8 1 9 10 11 11 12 15 13 16 14
REMARK SMILES IDX 17 15 12 17 13 18 14 19
REMARK H PARENT
REMARK Flexibility Score: 70.00
ROOT
ATOM      1  C   UNL     1     119.706 177.082 125.459  1.00  0.00     0.136 C 
ATOM      2  O   UNL     1     119.645 177.465 124.301  1.00  0.00    -0.299 OA
ENDROOT
BRANCH   1   3
ATOM      3  C   UNL     1     121.006 176.538 126.010  1.00  0.00     0.053 C 
ATOM      4  C   UNL     1     121.575 175.502 125.035  1.00  0.00     0.016 C 
BRANCH   3   5
ATOM      5  C   UNL     1     122.050 177.647 126.281  1.00  0.00     0.015 C 
BRANCH   5   6
ATOM      6  C   UNL     1     121.631 178.636 127.385  1.00  0.00     0.028 C 
BRANCH   6   7
ATOM      7  C   UNL     1     121.681 177.997 128.755  1.00  0.00    -0.028 C 
ATOM      8  C   UNL     1     120.625 177.546 129.473  1.00  0.00    -0.070 CG0
ATOM      9  C   UNL     1     120.903 176.910 130.812  1.00  0.00     0.039 C 
ATOM     10  G   UNL     1     119.183 177.705 129.039  1.00  0.00     0.000 G0
ENDBRANCH   6   7
ENDBRANCH   5   6
ENDBRANCH   3   5
ENDBRANCH   1   3
BRANCH   1  11
ATOM     11  C   UNL     1     118.467 177.124 126.321  1.00  0.00     0.087 C 
BRANCH  11  12
ATOM     12  C   UNL     1     118.377 175.905 127.270  1.00  0.00     0.066 C 
BRANCH  12  13
ATOM     13  C   UNL     1     118.597 176.333 128.710  1.00  0.00     0.140 C 
ATOM     14  O   UNL     1     118.269 175.590 129.624  1.00  0.00    -0.299 OA
BRANCH  13  15
ATOM     15  C   UNL     1     119.184 177.679 129.044  1.00  0.00     0.106 CG0
ATOM     16  G   UNL     1     120.623 177.521 129.489  1.00  0.00     0.000 G0
ENDBRANCH  13  15
ENDBRANCH  12  13
BRANCH  12  17
ATOM     17  C   UNL     1     117.056 175.089 127.123  1.00  0.00    -0.006 C 
ATOM     18  C   UNL     1     117.325 173.668 126.600  1.00  0.00     0.008 C 
ATOM     19  C   UNL     1     115.987 175.770 126.249  1.00  0.00     0.008 C 
ENDBRANCH  12  17
ENDBRANCH  11  12
ENDBRANCH   1  11
TORSDOF 1
ENDMDL
MODEL 6
REMARK VINA RESULT:    -4.510      2.011      2.932
REMARK INTER + INTRA:          -7.062
REMARK INTER:                  -6.673
REMARK INTRA:                  -0.389
REMARK UNBOUND:                -0.179
REMARK SMILES CC1=CCC[C@H](C)C(=O)C[C@H](C(C)C)C(=O)C1
REMARK SMILES IDX 8 1 9 2 6 3 7 4 5 5 4 6 3 7 2 8 1 9 10 11 11 12 15 13 16 14
REMARK SMILES IDX 17 15 12 17 13 18 14 19
REMARK H PARENT
REMARK Flexibility Score: 70.00
ROOT
ATOM      1  C   UNL     1     116.686 175.813 128.672  1.00  0.00     0.136 C 
ATOM      2  O   UNL     1     115.645 176.426 128.851  1.00  0.00    -0.299 OA
ENDROOT
BRANCH   1   3
ATOM      3  C   UNL     1     117.391 175.160 129.841  1.00  0.00     0.053 C 
ATOM      4  C   UNL     1     117.973 173.815 129.395  1.00  0.00     0.016 C 
BRANCH   3   5
ATOM      5  C   UNL     1     118.504 176.051 130.441  1.00  0.00     0.015 C 
BRANCH   5   6
ATOM      6  C   UNL     1     119.926 175.639 130.015  1.00  0.00     0.028 C 
BRANCH   6   7
ATOM      7  C   UNL     1     120.699 176.806 129.444  1.00  0.00    -0.028 C 
ATOM      8  C   UNL     1     120.827 177.122 128.133  1.00  0.00    -0.070 CG0
ATOM      9  C   UNL     1     121.622 178.355 127.781  1.00  0.00     0.039 C 
ATOM     10  G   UNL     1     120.281 176.273 127.004  1.00  0.00     0.000 G0
ENDBRANCH   6   7
ENDBRANCH   5   6
ENDBRANCH   3   5
ENDBRANCH   1   3
BRANCH   1  11
ATOM     11  C   UNL     1     117.277 175.744 127.284  1.00  0.00     0.087 C 
BRANCH  11  12
ATOM     12  C   UNL     1     117.789 177.122 126.800  1.00  0.00     0.066 C 
BRANCH  12  13
ATOM     13  C   UNL     1     119.193 177.001 126.236  1.00  0.00     0.140 C 
ATOM     14  O   UNL     1     119.453 177.477 125.140  1.00  0.00    -0.299 OA
BRANCH  13  15
ATOM     15  C   UNL     1     120.276 176.271 126.986  1.00  0.00     0.106 CG0
ATOM     16  G   UNL     1     120.800 177.136 128.113  1.00  0.00     0.000 G0
ENDBRANCH  13  15
ENDBRANCH  12  13
BRANCH  12  17
ATOM     17  C   UNL     1     116.835 177.827 125.787  1.00  0.00    -0.006 C 
ATOM     18  C   UNL     1     116.363 179.193 126.313  1.00  0.00     0.008 C 
ATOM     19  C   UNL     1     115.618 176.981 125.372  1.00  0.00     0.008 C 
ENDBRANCH  12  17
ENDBRANCH  11  12
ENDBRANCH   1  11
TORSDOF 1
ENDMDL
MODEL 7
REMARK VINA RESULT:    -4.475      2.562      4.036
REMARK INTER + INTRA:          -7.008
REMARK INTER:                  -6.869
REMARK INTRA:                  -0.139
REMARK UNBOUND:                -0.179
REMARK SMILES CC1=CCC[C@H](C)C(=O)C[C@H](C(C)C)C(=O)C1
REMARK SMILES IDX 8 1 9 2 6 3 7 4 5 5 4 6 3 7 2 8 1 9 10 11 11 12 15 13 16 14
REMARK SMILES IDX 17 15 12 17 13 18 14 19
REMARK H PARENT
REMARK Flexibility Score: 70.00
ROOT
ATOM      1  C   UNL     1     119.743 177.816 126.414  1.00  0.00     0.136 C 
ATOM      2  O   UNL     1     120.733 178.519 126.546  1.00  0.00    -0.299 OA
ENDROOT
BRANCH   1   3
ATOM      3  C   UNL     1     119.611 176.913 125.206  1.00  0.00     0.053 C 
ATOM      4  C   UNL     1     119.705 177.756 123.931  1.00  0.00     0.016 C 
BRANCH   3   5
ATOM      5  C   UNL     1     120.673 175.788 125.183  1.00  0.00     0.015 C 
BRANCH   5   6
ATOM      6  C   UNL     1     120.130 174.415 125.624  1.00  0.00     0.028 C 
BRANCH   6   7
ATOM      7  C   UNL     1     119.974 174.331 127.126  1.00  0.00    -0.028 C 
ATOM      8  C   UNL     1     118.813 174.398 127.820  1.00  0.00    -0.070 CG0
ATOM      9  C   UNL     1     118.881 174.261 129.320  1.00  0.00     0.039 C 
ATOM     10  G   UNL     1     117.466 174.672 127.184  1.00  0.00     0.000 G0
ENDBRANCH   6   7
ENDBRANCH   5   6
ENDBRANCH   3   5
ENDBRANCH   1   3
BRANCH   1  11
ATOM     11  C   UNL     1     118.642 177.883 127.444  1.00  0.00     0.087 C 
BRANCH  11  12
ATOM     12  C   UNL     1     117.308 177.310 126.908  1.00  0.00     0.066 C 
BRANCH  12  13
ATOM     13  C   UNL     1     116.943 176.033 127.643  1.00  0.00     0.140 C 
ATOM     14  O   UNL     1     116.232 176.083 128.637  1.00  0.00    -0.299 OA
BRANCH  13  15
ATOM     15  C   UNL     1     117.466 174.696 127.191  1.00  0.00     0.106 CG0
ATOM     16  G   UNL     1     118.813 174.424 127.829  1.00  0.00     0.000 G0
ENDBRANCH  13  15
ENDBRANCH  12  13
BRANCH  12  17
ATOM     17  C   UNL     1     116.128 178.331 126.935  1.00  0.00    -0.006 C 
ATOM     18  C   UNL     1     114.896 177.790 126.191  1.00  0.00     0.008 C 
ATOM     19  C   UNL     1     116.489 179.727 126.396  1.00  0.00     0.008 C 
ENDBRANCH  12  17
ENDBRANCH  11  12
ENDBRANCH   1  11
TORSDOF 1
ENDMDL
MODEL 8
REMARK VINA RESULT:    -4.440      2.043      4.326
REMARK INTER + INTRA:          -6.954
REMARK INTER:                  -7.169
REMARK INTRA:                   0.215
REMARK UNBOUND:                -0.179
REMARK SMILES CC1=CCC[C@H](C)C(=O)C[C@H](C(C)C)C(=O)C1
REMARK SMILES IDX 8 1 9 2 6 3 7 4 5 5 4 6 3 7 2 8 1 9 10 11 11 12 15 13 16 14
REMARK SMILES IDX 17 15 12 17 13 18 14 19
REMARK H PARENT
REMARK Flexibility Score: 70.00
ROOT
ATOM      1  C   UNL     1     116.444 175.627 126.648  1.00  0.00     0.136 C 
ATOM      2  O   UNL     1     116.576 174.503 126.185  1.00  0.00    -0.299 OA
ENDROOT
BRANCH   1   3
ATOM      3  C   UNL     1     115.901 176.743 125.782  1.00  0.00     0.053 C 
ATOM      4  C   UNL     1     115.034 177.671 126.637  1.00  0.00     0.016 C 
BRANCH   3   5
ATOM      5  C   UNL     1     117.018 177.550 125.080  1.00  0.00     0.015 C 
BRANCH   5   6
ATOM      6  C   UNL     1     117.511 178.763 125.892  1.00  0.00     0.028 C 
BRANCH   6   7
ATOM      7  C   UNL     1     119.020 178.787 125.999  1.00  0.00    -0.028 C 
ATOM      8  C   UNL     1     119.765 178.248 126.994  1.00  0.00    -0.070 CG0
ATOM      9  C   UNL     1     121.265 178.359 126.888  1.00  0.00     0.039 C 
ATOM     10  G   UNL     1     119.178 177.607 128.233  1.00  0.00     0.000 G0
ENDBRANCH   6   7
ENDBRANCH   5   6
ENDBRANCH   3   5
ENDBRANCH   1   3
BRANCH   1  11
ATOM     11  C   UNL     1     116.860 175.896 128.074  1.00  0.00     0.087 C 
BRANCH  11  12
ATOM     12  C   UNL     1     118.188 175.187 128.436  1.00  0.00     0.066 C 
BRANCH  12  13
ATOM     13  C   UNL     1     119.364 176.126 128.238  1.00  0.00     0.140 C 
ATOM     14  O   UNL     1     120.488 175.671 128.084  1.00  0.00    -0.299 OA
BRANCH  13  15
ATOM     15  C   UNL     1     119.183 177.621 128.259  1.00  0.00     0.106 CG0
ATOM     16  G   UNL     1     119.764 178.232 127.001  1.00  0.00     0.000 G0
ENDBRANCH  13  15
ENDBRANCH  12  13
BRANCH  12  17
ATOM     17  C   UNL     1     118.200 174.566 129.867  1.00  0.00    -0.006 C 
ATOM     18  C   UNL     1     117.834 173.073 129.838  1.00  0.00     0.008 C 
ATOM     19  C   UNL     1     117.305 175.301 130.881  1.00  0.00     0.008 C 
ENDBRANCH  12  17
ENDBRANCH  11  12
ENDBRANCH   1  11
TORSDOF 1
ENDMDL
MODEL 9
REMARK VINA RESULT:    -4.417      2.066      4.709
REMARK INTER + INTRA:          -6.920
REMARK INTER:                  -7.165
REMARK INTRA:                   0.245
REMARK UNBOUND:                -0.179
REMARK SMILES CC1=CCC[C@H](C)C(=O)C[C@H](C(C)C)C(=O)C1
REMARK SMILES IDX 8 1 9 2 6 3 7 4 5 5 4 6 3 7 2 8 1 9 10 11 11 12 15 13 16 14
REMARK SMILES IDX 17 15 12 17 13 18 14 19
REMARK H PARENT
REMARK Flexibility Score: 70.00
ROOT
ATOM      1  C   UNL     1     117.743 177.999 125.882  1.00  0.00     0.136 C 
ATOM      2  O   UNL     1     117.453 177.313 124.914  1.00  0.00    -0.299 OA
ENDROOT
BRANCH   1   3
ATOM      3  C   UNL     1     116.679 178.378 126.888  1.00  0.00     0.053 C 
ATOM      4  C   UNL     1     115.717 179.387 126.254  1.00  0.00     0.016 C 
BRANCH   3   5
ATOM      5  C   UNL     1     115.896 177.154 127.418  1.00  0.00     0.015 C 
BRANCH   5   6
ATOM      6  C   UNL     1     116.712 176.263 128.375  1.00  0.00     0.028 C 
BRANCH   6   7
ATOM      7  C   UNL     1     117.167 174.988 127.701  1.00  0.00    -0.028 C 
ATOM      8  C   UNL     1     118.443 174.546 127.591  1.00  0.00    -0.070 CG0
ATOM      9  C   UNL     1     118.673 173.225 126.901  1.00  0.00     0.039 C 
ATOM     10  G   UNL     1     119.650 175.333 128.056  1.00  0.00     0.000 G0
ENDBRANCH   6   7
ENDBRANCH   5   6
ENDBRANCH   3   5
ENDBRANCH   1   3
BRANCH   1  11
ATOM     11  C   UNL     1     119.161 178.493 126.043  1.00  0.00     0.087 C 
BRANCH  11  12
ATOM     12  C   UNL     1     119.875 177.830 127.245  1.00  0.00     0.066 C 
BRANCH  12  13
ATOM     13  C   UNL     1     120.051 176.342 127.006  1.00  0.00     0.140 C 
ATOM     14  O   UNL     1     120.498 175.944 125.939  1.00  0.00    -0.299 OA
BRANCH  13  15
ATOM     15  C   UNL     1     119.654 175.331 128.049  1.00  0.00     0.106 CG0
ATOM     16  G   UNL     1     118.445 174.549 127.580  1.00  0.00     0.000 G0
ENDBRANCH  13  15
ENDBRANCH  12  13
BRANCH  12  17
ATOM     17  C   UNL     1     121.231 178.503 127.621  1.00  0.00    -0.006 C 
ATOM     18  C   UNL     1     122.371 178.029 126.704  1.00  0.00     0.008 C 
ATOM     19  C   UNL     1     121.639 178.321 129.094  1.00  0.00     0.008 C 
ENDBRANCH  12  17
ENDBRANCH  11  12
ENDBRANCH   1  11
TORSDOF 1
ENDMDL
