MODEL 1
REMARK VINA RESULT:    -4.401      0.000      0.000
REMARK INTER + INTRA:          -9.068
REMARK INTER:                  -8.003
REMARK INTRA:                  -1.065
REMARK UNBOUND:                -1.065
REMARK SMILES CCCCCCCCCCCCCCCC(=O)[O-]
REMARK SMILES IDX 9 1 10 2 11 3 12 4 13 5 14 6 15 7 16 8 17 9 18 10 8 11 7 12
REMARK SMILES IDX 6 13 5 14 4 15 3 16 2 17 1 18
REMARK H PARENT
REMARK Flexibility Score: inf
ROOT
ATOM      1  C   UNL     1      -7.408  -0.600  -5.977  1.00  0.00     0.000 C 
ENDROOT
BRANCH   1   2
ATOM      2  C   UNL     1      -7.327  -1.150  -7.409  1.00  0.00     0.000 C 
BRANCH   2   3
ATOM      3  C   UNL     1      -6.702  -2.555  -7.475  1.00  0.00     0.000 C 
BRANCH   3   4
ATOM      4  C   UNL     1      -6.946  -3.319  -8.792  1.00  0.00     0.000 C 
BRANCH   4   5
ATOM      5  C   UNL     1      -5.693  -3.545  -9.659  1.00  0.00     0.000 C 
BRANCH   5   6
ATOM      6  C   UNL     1      -4.517  -4.137  -8.865  1.00  0.00     0.006 C 
BRANCH   6   7
ATOM      7  C   UNL     1      -3.168  -3.556  -9.308  1.00  0.00     0.053 C 
BRANCH   7   8
ATOM      8  C   UNL     1      -2.398  -2.992  -8.153  1.00  0.00     0.041 C 
ATOM      9  O   UNL     1      -3.001  -2.604  -7.117  1.00  0.00    -0.550 OA
ATOM     10  O   UNL     1      -1.012  -2.921  -8.210  1.00  0.00    -0.550 OA
ENDBRANCH   7   8
ENDBRANCH   6   7
ENDBRANCH   5   6
ENDBRANCH   4   5
ENDBRANCH   3   4
ENDBRANCH   2   3
ENDBRANCH   1   2
BRANCH   1  11
ATOM     11  C   UNL     1      -8.213  -1.544  -5.072  1.00  0.00     0.000 C 
BRANCH  11  12
ATOM     12  C   UNL     1      -8.130  -1.154  -3.588  1.00  0.00    -0.000 C 
BRANCH  12  13
ATOM     13  C   UNL     1      -8.662   0.266  -3.320  1.00  0.00    -0.000 C 
BRANCH  13  14
ATOM     14  C   UNL     1      -7.622   1.168  -2.637  1.00  0.00    -0.000 C 
BRANCH  14  15
ATOM     15  C   UNL     1      -7.540   2.565  -3.278  1.00  0.00    -0.000 C 
BRANCH  15  16
ATOM     16  C   UNL     1      -8.329   2.656  -4.594  1.00  0.00    -0.000 C 
BRANCH  16  17
ATOM     17  C   UNL     1      -9.479   3.672  -4.528  1.00  0.00    -0.003 C 
ATOM     18  C   UNL     1      -9.313   4.612  -3.338  1.00  0.00     0.004 C 
ENDBRANCH  16  17
ENDBRANCH  15  16
ENDBRANCH  14  15
ENDBRANCH  13  14
ENDBRANCH  12  13
ENDBRANCH  11  12
ENDBRANCH   1  11
TORSDOF 14
ENDMDL
MODEL 2
REMARK VINA RESULT:    -4.230      1.637      2.638
REMARK INTER + INTRA:          -8.757
REMARK INTER:                  -7.072
REMARK INTRA:                  -1.685
REMARK UNBOUND:                -1.065
REMARK SMILES CCCCCCCCCCCCCCCC(=O)[O-]
REMARK SMILES IDX 9 1 10 2 11 3 12 4 13 5 14 6 15 7 16 8 17 9 18 10 8 11 7 12
REMARK SMILES IDX 6 13 5 14 4 15 3 16 2 17 1 18
REMARK H PARENT
REMARK Flexibility Score: inf
ROOT
ATOM      1  C   UNL     1      -8.774  -2.902  -3.788  1.00  0.00     0.000 C 
ENDROOT
BRANCH   1   2
ATOM      2  C   UNL     1      -9.863  -3.374  -4.764  1.00  0.00     0.000 C 
BRANCH   2   3
ATOM      3  C   UNL     1      -9.305  -4.232  -5.913  1.00  0.00     0.000 C 
BRANCH   3   4
ATOM      4  C   UNL     1      -8.774  -3.440  -7.124  1.00  0.00     0.000 C 
BRANCH   4   5
ATOM      5  C   UNL     1      -7.372  -3.851  -7.611  1.00  0.00     0.000 C 
BRANCH   5   6
ATOM      6  C   UNL     1      -6.343  -2.713  -7.499  1.00  0.00     0.006 C 
BRANCH   6   7
ATOM      7  C   UNL     1      -5.183  -2.882  -8.489  1.00  0.00     0.053 C 
BRANCH   7   8
ATOM      8  C   UNL     1      -3.989  -3.517  -7.844  1.00  0.00     0.041 C 
ATOM      9  O   UNL     1      -3.871  -4.771  -7.822  1.00  0.00    -0.550 OA
ATOM     10  O   UNL     1      -2.993  -2.721  -7.292  1.00  0.00    -0.550 OA
ENDBRANCH   7   8
ENDBRANCH   6   7
ENDBRANCH   5   6
ENDBRANCH   4   5
ENDBRANCH   3   4
ENDBRANCH   2   3
ENDBRANCH   1   2
BRANCH   1  11
ATOM     11  C   UNL     1      -8.752  -1.369  -3.691  1.00  0.00     0.000 C 
BRANCH  11  12
ATOM     12  C   UNL     1      -7.778  -0.728  -4.693  1.00  0.00    -0.000 C 
BRANCH  12  13
ATOM     13  C   UNL     1      -8.501   0.086  -5.781  1.00  0.00    -0.000 C 
BRANCH  13  14
ATOM     14  C   UNL     1      -9.631   0.960  -5.213  1.00  0.00    -0.000 C 
BRANCH  14  15
ATOM     15  C   UNL     1      -9.515   2.432  -5.649  1.00  0.00    -0.000 C 
BRANCH  15  16
ATOM     16  C   UNL     1      -9.360   3.389  -4.456  1.00  0.00    -0.000 C 
BRANCH  16  17
ATOM     17  C   UNL     1      -8.373   2.869  -3.401  1.00  0.00    -0.003 C 
ATOM     18  C   UNL     1      -6.936   2.956  -3.904  1.00  0.00     0.004 C 
ENDBRANCH  16  17
ENDBRANCH  15  16
ENDBRANCH  14  15
ENDBRANCH  13  14
ENDBRANCH  12  13
ENDBRANCH  11  12
ENDBRANCH   1  11
TORSDOF 14
ENDMDL
MODEL 3
REMARK VINA RESULT:    -4.188      3.177      7.300
REMARK INTER + INTRA:          -8.681
REMARK INTER:                  -6.808
REMARK INTRA:                  -1.872
REMARK UNBOUND:                -1.065
REMARK SMILES CCCCCCCCCCCCCCCC(=O)[O-]
REMARK SMILES IDX 9 1 10 2 11 3 12 4 13 5 14 6 15 7 16 8 17 9 18 10 8 11 7 12
REMARK SMILES IDX 6 13 5 14 4 15 3 16 2 17 1 18
REMARK H PARENT
REMARK Flexibility Score: inf
ROOT
ATOM      1  C   UNL     1      -9.003  -3.326  -3.752  1.00  0.00     0.000 C 
ENDROOT
BRANCH   1   2
ATOM      2  C   UNL     1      -8.671  -1.830  -3.648  1.00  0.00     0.000 C 
BRANCH   2   3
ATOM      3  C   UNL     1      -7.951  -1.289  -4.897  1.00  0.00     0.000 C 
BRANCH   3   4
ATOM      4  C   UNL     1      -8.660  -0.117  -5.604  1.00  0.00     0.000 C 
BRANCH   4   5
ATOM      5  C   UNL     1      -9.878   0.458  -4.857  1.00  0.00     0.000 C 
BRANCH   5   6
ATOM      6  C   UNL     1      -9.613   1.853  -4.268  1.00  0.00     0.006 C 
BRANCH   6   7
ATOM      7  C   UNL     1      -9.186   1.788  -2.795  1.00  0.00     0.053 C 
BRANCH   7   8
ATOM      8  C   UNL     1      -7.696   1.847  -2.644  1.00  0.00     0.041 C 
ATOM      9  O   UNL     1      -7.101   1.033  -1.890  1.00  0.00    -0.550 OA
ATOM     10  O   UNL     1      -6.962   2.785  -3.360  1.00  0.00    -0.550 OA
ENDBRANCH   7   8
ENDBRANCH   6   7
ENDBRANCH   5   6
ENDBRANCH   4   5
ENDBRANCH   3   4
ENDBRANCH   2   3
ENDBRANCH   1   2
BRANCH   1  11
ATOM     11  C   UNL     1      -9.621  -3.656  -5.119  1.00  0.00     0.000 C 
BRANCH  11  12
ATOM     12  C   UNL     1      -9.088  -4.973  -5.706  1.00  0.00    -0.000 C 
BRANCH  12  13
ATOM     13  C   UNL     1      -8.336  -4.766  -7.033  1.00  0.00    -0.000 C 
BRANCH  13  14
ATOM     14  C   UNL     1      -8.709  -3.444  -7.725  1.00  0.00    -0.000 C 
BRANCH  14  15
ATOM     15  C   UNL     1      -7.499  -2.763  -8.389  1.00  0.00    -0.000 C 
BRANCH  15  16
ATOM     16  C   UNL     1      -6.189  -3.012  -7.624  1.00  0.00    -0.000 C 
BRANCH  16  17
ATOM     17  C   UNL     1      -5.065  -3.541  -8.527  1.00  0.00    -0.003 C 
ATOM     18  C   UNL     1      -3.699  -3.338  -7.879  1.00  0.00     0.004 C 
ENDBRANCH  16  17
ENDBRANCH  15  16
ENDBRANCH  14  15
ENDBRANCH  13  14
ENDBRANCH  12  13
ENDBRANCH  11  12
ENDBRANCH   1  11
TORSDOF 14
ENDMDL
MODEL 4
REMARK VINA RESULT:    -4.183      2.911      7.525
REMARK INTER + INTRA:          -8.671
REMARK INTER:                  -6.828
REMARK INTRA:                  -1.844
REMARK UNBOUND:                -1.065
REMARK SMILES CCCCCCCCCCCCCCCC(=O)[O-]
REMARK SMILES IDX 9 1 10 2 11 3 12 4 13 5 14 6 15 7 16 8 17 9 18 10 8 11 7 12
REMARK SMILES IDX 6 13 5 14 4 15 3 16 2 17 1 18
REMARK H PARENT
REMARK Flexibility Score: inf
ROOT
ATOM      1  C   UNL     1      -7.940  -1.549  -6.340  1.00  0.00     0.000 C 
ENDROOT
BRANCH   1   2
ATOM      2  C   UNL     1      -9.280  -1.016  -6.870  1.00  0.00     0.000 C 
BRANCH   2   3
ATOM      3  C   UNL     1      -9.875   0.092  -5.981  1.00  0.00     0.000 C 
BRANCH   3   4
ATOM      4  C   UNL     1      -9.252   1.489  -6.170  1.00  0.00     0.000 C 
BRANCH   4   5
ATOM      5  C   UNL     1      -9.181   2.351  -4.896  1.00  0.00     0.000 C 
BRANCH   5   6
ATOM      6  C   UNL     1      -7.738   2.601  -4.424  1.00  0.00     0.006 C 
BRANCH   6   7
ATOM      7  C   UNL     1      -6.958   1.293  -4.232  1.00  0.00     0.053 C 
BRANCH   7   8
ATOM      8  C   UNL     1      -7.312   0.619  -2.942  1.00  0.00     0.041 C 
ATOM      9  O   UNL     1      -7.120   1.207  -1.845  1.00  0.00    -0.550 OA
ATOM     10  O   UNL     1      -7.880  -0.648  -2.953  1.00  0.00    -0.550 OA
ENDBRANCH   7   8
ENDBRANCH   6   7
ENDBRANCH   5   6
ENDBRANCH   4   5
ENDBRANCH   3   4
ENDBRANCH   2   3
ENDBRANCH   1   2
BRANCH   1  11
ATOM     11  C   UNL     1      -6.783  -1.138  -7.263  1.00  0.00     0.000 C 
BRANCH  11  12
ATOM     12  C   UNL     1      -7.263  -0.733  -8.667  1.00  0.00    -0.000 C 
BRANCH  12  13
ATOM     13  C   UNL     1      -6.621  -1.584  -9.777  1.00  0.00    -0.000 C 
BRANCH  13  14
ATOM     14  C   UNL     1      -7.002  -3.071  -9.679  1.00  0.00    -0.000 C 
BRANCH  14  15
ATOM     15  C   UNL     1      -5.776  -3.999  -9.732  1.00  0.00    -0.000 C 
BRANCH  15  16
ATOM     16  C   UNL     1      -5.222  -4.324  -8.335  1.00  0.00    -0.000 C 
BRANCH  16  17
ATOM     17  C   UNL     1      -3.856  -3.673  -8.072  1.00  0.00    -0.003 C 
ATOM     18  C   UNL     1      -3.150  -3.332  -9.380  1.00  0.00     0.004 C 
ENDBRANCH  16  17
ENDBRANCH  15  16
ENDBRANCH  14  15
ENDBRANCH  13  14
ENDBRANCH  12  13
ENDBRANCH  11  12
ENDBRANCH   1  11
TORSDOF 14
ENDMDL
MODEL 5
REMARK VINA RESULT:    -4.154      1.265      1.946
REMARK INTER + INTRA:          -8.619
REMARK INTER:                  -6.801
REMARK INTRA:                  -1.818
REMARK UNBOUND:                -1.065
REMARK SMILES CCCCCCCCCCCCCCCC(=O)[O-]
REMARK SMILES IDX 9 1 10 2 11 3 12 4 13 5 14 6 15 7 16 8 17 9 18 10 8 11 7 12
REMARK SMILES IDX 6 13 5 14 4 15 3 16 2 17 1 18
REMARK H PARENT
REMARK Flexibility Score: inf
ROOT
ATOM      1  C   UNL     1      -7.126  -0.745  -6.816  1.00  0.00     0.000 C 
ENDROOT
BRANCH   1   2
ATOM      2  C   UNL     1      -8.029  -0.379  -8.004  1.00  0.00     0.000 C 
BRANCH   2   3
ATOM      3  C   UNL     1      -7.338  -0.582  -9.365  1.00  0.00     0.000 C 
BRANCH   3   4
ATOM      4  C   UNL     1      -7.157  -2.052  -9.794  1.00  0.00     0.000 C 
BRANCH   4   5
ATOM      5  C   UNL     1      -5.697  -2.502  -9.986  1.00  0.00     0.000 C 
BRANCH   5   6
ATOM      6  C   UNL     1      -5.079  -3.087  -8.705  1.00  0.00     0.006 C 
BRANCH   6   7
ATOM      7  C   UNL     1      -3.750  -3.804  -8.980  1.00  0.00     0.053 C 
BRANCH   7   8
ATOM      8  C   UNL     1      -2.585  -3.056  -8.405  1.00  0.00     0.041 C 
ATOM      9  O   UNL     1      -2.628  -2.627  -7.221  1.00  0.00    -0.550 OA
ATOM     10  O   UNL     1      -1.442  -2.857  -9.168  1.00  0.00    -0.550 OA
ENDBRANCH   7   8
ENDBRANCH   6   7
ENDBRANCH   5   6
ENDBRANCH   4   5
ENDBRANCH   3   4
ENDBRANCH   2   3
ENDBRANCH   1   2
BRANCH   1  11
ATOM     11  C   UNL     1      -7.711  -1.927  -6.028  1.00  0.00     0.000 C 
BRANCH  11  12
ATOM     12  C   UNL     1      -9.212  -1.760  -5.739  1.00  0.00    -0.000 C 
BRANCH  12  13
ATOM     13  C   UNL     1      -9.536  -1.832  -4.236  1.00  0.00    -0.000 C 
BRANCH  13  14
ATOM     14  C   UNL     1      -8.371  -1.350  -3.356  1.00  0.00    -0.000 C 
BRANCH  14  15
ATOM     15  C   UNL     1      -8.417   0.166  -3.093  1.00  0.00    -0.000 C 
BRANCH  15  16
ATOM     16  C   UNL     1      -7.079   0.858  -3.399  1.00  0.00    -0.000 C 
BRANCH  16  17
ATOM     17  C   UNL     1      -7.232   2.050  -4.354  1.00  0.00    -0.003 C 
ATOM     18  C   UNL     1      -8.630   2.088  -4.965  1.00  0.00     0.004 C 
ENDBRANCH  16  17
ENDBRANCH  15  16
ENDBRANCH  14  15
ENDBRANCH  13  14
ENDBRANCH  12  13
ENDBRANCH  11  12
ENDBRANCH   1  11
TORSDOF 14
ENDMDL
MODEL 6
REMARK VINA RESULT:    -4.153      3.032      6.796
REMARK INTER + INTRA:          -8.616
REMARK INTER:                  -6.730
REMARK INTRA:                  -1.887
REMARK UNBOUND:                -1.065
REMARK SMILES CCCCCCCCCCCCCCCC(=O)[O-]
REMARK SMILES IDX 9 1 10 2 11 3 12 4 13 5 14 6 15 7 16 8 17 9 18 10 8 11 7 12
REMARK SMILES IDX 6 13 5 14 4 15 3 16 2 17 1 18
REMARK H PARENT
REMARK Flexibility Score: inf
ROOT
ATOM      1  C   UNL     1      -8.770  -1.846  -3.895  1.00  0.00     0.000 C 
ENDROOT
BRANCH   1   2
ATOM      2  C   UNL     1     -10.014  -1.191  -4.513  1.00  0.00     0.000 C 
BRANCH   2   3
ATOM      3  C   UNL     1      -9.702  -0.416  -5.806  1.00  0.00     0.000 C 
BRANCH   3   4
ATOM      4  C   UNL     1     -10.124   1.068  -5.798  1.00  0.00     0.000 C 
BRANCH   4   5
ATOM      5  C   UNL     1      -9.719   1.856  -4.539  1.00  0.00     0.000 C 
BRANCH   5   6
ATOM      6  C   UNL     1      -8.601   2.877  -4.808  1.00  0.00     0.006 C 
BRANCH   6   7
ATOM      7  C   UNL     1      -7.459   2.767  -3.788  1.00  0.00     0.053 C 
BRANCH   7   8
ATOM      8  C   UNL     1      -6.987   1.354  -3.632  1.00  0.00     0.041 C 
ATOM      9  O   UNL     1      -6.560   0.713  -4.629  1.00  0.00    -0.550 OA
ATOM     10  O   UNL     1      -6.992   0.754  -2.379  1.00  0.00    -0.550 OA
ENDBRANCH   7   8
ENDBRANCH   6   7
ENDBRANCH   5   6
ENDBRANCH   4   5
ENDBRANCH   3   4
ENDBRANCH   2   3
ENDBRANCH   1   2
BRANCH   1  11
ATOM     11  C   UNL     1      -8.956  -3.366  -3.770  1.00  0.00     0.000 C 
BRANCH  11  12
ATOM     12  C   UNL     1      -9.796  -3.954  -4.915  1.00  0.00    -0.000 C 
BRANCH  12  13
ATOM     13  C   UNL     1      -9.353  -5.376  -5.303  1.00  0.00    -0.000 C 
BRANCH  13  14
ATOM     14  C   UNL     1      -8.712  -5.436  -6.700  1.00  0.00    -0.000 C 
BRANCH  14  15
ATOM     15  C   UNL     1      -8.687  -4.064  -7.397  1.00  0.00    -0.000 C 
BRANCH  15  16
ATOM     16  C   UNL     1      -7.260  -3.598  -7.729  1.00  0.00    -0.000 C 
BRANCH  16  17
ATOM     17  C   UNL     1      -6.901  -2.264  -7.058  1.00  0.00    -0.003 C 
ATOM     18  C   UNL     1      -6.930  -1.118  -8.064  1.00  0.00     0.004 C 
ENDBRANCH  16  17
ENDBRANCH  15  16
ENDBRANCH  14  15
ENDBRANCH  13  14
ENDBRANCH  12  13
ENDBRANCH  11  12
ENDBRANCH   1  11
TORSDOF 14
ENDMDL
MODEL 7
REMARK VINA RESULT:    -4.135      1.658      2.964
REMARK INTER + INTRA:          -8.585
REMARK INTER:                  -7.453
REMARK INTRA:                  -1.132
REMARK UNBOUND:                -1.065
REMARK SMILES CCCCCCCCCCCCCCCC(=O)[O-]
REMARK SMILES IDX 9 1 10 2 11 3 12 4 13 5 14 6 15 7 16 8 17 9 18 10 8 11 7 12
REMARK SMILES IDX 6 13 5 14 4 15 3 16 2 17 1 18
REMARK H PARENT
REMARK Flexibility Score: inf
ROOT
ATOM      1  C   UNL     1      -8.529  -4.769  -6.651  1.00  0.00     0.000 C 
ENDROOT
BRANCH   1   2
ATOM      2  C   UNL     1      -7.916  -6.103  -7.102  1.00  0.00     0.000 C 
BRANCH   2   3
ATOM      3  C   UNL     1      -7.043  -5.965  -8.363  1.00  0.00     0.000 C 
BRANCH   3   4
ATOM      4  C   UNL     1      -5.721  -6.759  -8.334  1.00  0.00     0.000 C 
BRANCH   4   5
ATOM      5  C   UNL     1      -4.477  -5.942  -7.939  1.00  0.00     0.000 C 
BRANCH   5   6
ATOM      6  C   UNL     1      -4.614  -4.447  -8.273  1.00  0.00     0.006 C 
BRANCH   6   7
ATOM      7  C   UNL     1      -3.367  -3.896  -8.978  1.00  0.00     0.053 C 
BRANCH   7   8
ATOM      8  C   UNL     1      -2.489  -3.129  -8.036  1.00  0.00     0.041 C 
ATOM      9  O   UNL     1      -2.992  -2.509  -7.062  1.00  0.00    -0.550 OA
ATOM     10  O   UNL     1      -1.112  -3.126  -8.218  1.00  0.00    -0.550 OA
ENDBRANCH   7   8
ENDBRANCH   6   7
ENDBRANCH   5   6
ENDBRANCH   4   5
ENDBRANCH   3   4
ENDBRANCH   2   3
ENDBRANCH   1   2
BRANCH   1  11
ATOM     11  C   UNL     1      -8.177  -3.644  -7.637  1.00  0.00     0.000 C 
BRANCH  11  12
ATOM     12  C   UNL     1      -7.528  -2.434  -6.945  1.00  0.00    -0.000 C 
BRANCH  12  13
ATOM     13  C   UNL     1      -8.150  -2.137  -5.569  1.00  0.00    -0.000 C 
BRANCH  13  14
ATOM     14  C   UNL     1      -7.755  -0.753  -5.027  1.00  0.00    -0.000 C 
BRANCH  14  15
ATOM     15  C   UNL     1      -8.100  -0.582  -3.537  1.00  0.00    -0.000 C 
BRANCH  15  16
ATOM     16  C   UNL     1      -7.700   0.799  -2.995  1.00  0.00    -0.000 C 
BRANCH  16  17
ATOM     17  C   UNL     1      -7.077   1.701  -4.069  1.00  0.00    -0.003 C 
ATOM     18  C   UNL     1      -7.516   3.151  -3.892  1.00  0.00     0.004 C 
ENDBRANCH  16  17
ENDBRANCH  15  16
ENDBRANCH  14  15
ENDBRANCH  13  14
ENDBRANCH  12  13
ENDBRANCH  11  12
ENDBRANCH   1  11
TORSDOF 14
ENDMDL
MODEL 8
REMARK VINA RESULT:    -4.096     13.398     15.461
REMARK INTER + INTRA:          -8.513
REMARK INTER:                  -5.732
REMARK INTRA:                  -2.781
REMARK UNBOUND:                -1.065
REMARK SMILES CCCCCCCCCCCCCCCC(=O)[O-]
REMARK SMILES IDX 9 1 10 2 11 3 12 4 13 5 14 6 15 7 16 8 17 9 18 10 8 11 7 12
REMARK SMILES IDX 6 13 5 14 4 15 3 16 2 17 1 18
REMARK H PARENT
REMARK Flexibility Score: inf
ROOT
ATOM      1  C   UNL     1      -5.796   6.926   6.725  1.00  0.00     0.000 C 
ENDROOT
BRANCH   1   2
ATOM      2  C   UNL     1      -5.591   8.405   7.085  1.00  0.00     0.000 C 
BRANCH   2   3
ATOM      3  C   UNL     1      -4.115   8.759   7.341  1.00  0.00     0.000 C 
BRANCH   3   4
ATOM      4  C   UNL     1      -3.301   7.679   8.084  1.00  0.00     0.000 C 
BRANCH   4   5
ATOM      5  C   UNL     1      -2.035   7.197   7.353  1.00  0.00     0.000 C 
BRANCH   5   6
ATOM      6  C   UNL     1      -2.157   5.753   6.837  1.00  0.00     0.006 C 
BRANCH   6   7
ATOM      7  C   UNL     1      -1.269   5.500   5.611  1.00  0.00     0.053 C 
BRANCH   7   8
ATOM      8  C   UNL     1      -0.000   4.793   5.979  1.00  0.00     0.041 C 
ATOM      9  O   UNL     1       0.158   3.578   5.685  1.00  0.00    -0.550 OA
ATOM     10  O   UNL     1       1.019   5.484   6.622  1.00  0.00    -0.550 OA
ENDBRANCH   7   8
ENDBRANCH   6   7
ENDBRANCH   5   6
ENDBRANCH   4   5
ENDBRANCH   3   4
ENDBRANCH   2   3
ENDBRANCH   1   2
BRANCH   1  11
ATOM     11  C   UNL     1      -6.045   6.758   5.218  1.00  0.00     0.000 C 
BRANCH  11  12
ATOM     12  C   UNL     1      -4.932   5.960   4.521  1.00  0.00    -0.000 C 
BRANCH  12  13
ATOM     13  C   UNL     1      -3.984   6.857   3.706  1.00  0.00    -0.000 C 
BRANCH  13  14
ATOM     14  C   UNL     1      -4.506   8.297   3.565  1.00  0.00    -0.000 C 
BRANCH  14  15
ATOM     15  C   UNL     1      -3.426   9.349   3.871  1.00  0.00    -0.000 C 
BRANCH  15  16
ATOM     16  C   UNL     1      -2.015   8.743   3.936  1.00  0.00    -0.000 C 
BRANCH  16  17
ATOM     17  C   UNL     1      -1.011   9.653   4.660  1.00  0.00    -0.003 C 
ATOM     18  C   UNL     1       0.267   8.895   5.005  1.00  0.00     0.004 C 
ENDBRANCH  16  17
ENDBRANCH  15  16
ENDBRANCH  14  15
ENDBRANCH  13  14
ENDBRANCH  12  13
ENDBRANCH  11  12
ENDBRANCH   1  11
TORSDOF 14
ENDMDL
MODEL 9
REMARK VINA RESULT:    -4.015      1.708      2.693
REMARK INTER + INTRA:          -8.366
REMARK INTER:                  -6.701
REMARK INTRA:                  -1.665
REMARK UNBOUND:                -1.065
REMARK SMILES CCCCCCCCCCCCCCCC(=O)[O-]
REMARK SMILES IDX 9 1 10 2 11 3 12 4 13 5 14 6 15 7 16 8 17 9 18 10 8 11 7 12
REMARK SMILES IDX 6 13 5 14 4 15 3 16 2 17 1 18
REMARK H PARENT
REMARK Flexibility Score: inf
ROOT
ATOM      1  C   UNL     1      -8.762  -3.999  -6.052  1.00  0.00     0.000 C 
ENDROOT
BRANCH   1   2
ATOM      2  C   UNL     1      -9.719  -3.846  -7.244  1.00  0.00     0.000 C 
BRANCH   2   3
ATOM      3  C   UNL     1      -9.206  -2.849  -8.299  1.00  0.00     0.000 C 
BRANCH   3   4
ATOM      4  C   UNL     1      -8.560  -1.569  -7.731  1.00  0.00     0.000 C 
BRANCH   4   5
ATOM      5  C   UNL     1      -7.127  -1.288  -8.219  1.00  0.00     0.000 C 
BRANCH   5   6
ATOM      6  C   UNL     1      -6.072  -2.141  -7.495  1.00  0.00     0.006 C 
BRANCH   6   7
ATOM      7  C   UNL     1      -5.248  -2.993  -8.469  1.00  0.00     0.053 C 
BRANCH   7   8
ATOM      8  C   UNL     1      -3.998  -3.517  -7.831  1.00  0.00     0.041 C 
ATOM      9  O   UNL     1      -3.203  -2.730  -7.252  1.00  0.00    -0.550 OA
ATOM     10  O   UNL     1      -3.726  -4.880  -7.851  1.00  0.00    -0.550 OA
ENDBRANCH   7   8
ENDBRANCH   6   7
ENDBRANCH   5   6
ENDBRANCH   4   5
ENDBRANCH   3   4
ENDBRANCH   2   3
ENDBRANCH   1   2
BRANCH   1  11
ATOM     11  C   UNL     1      -9.527  -3.919  -4.722  1.00  0.00     0.000 C 
BRANCH  11  12
ATOM     12  C   UNL     1      -9.703  -2.474  -4.228  1.00  0.00    -0.000 C 
BRANCH  12  13
ATOM     13  C   UNL     1      -8.428  -1.916  -3.569  1.00  0.00    -0.000 C 
BRANCH  13  14
ATOM     14  C   UNL     1      -7.865  -0.693  -4.312  1.00  0.00    -0.000 C 
BRANCH  14  15
ATOM     15  C   UNL     1      -8.860   0.480  -4.358  1.00  0.00    -0.000 C 
BRANCH  15  16
ATOM     16  C   UNL     1      -8.894   1.276  -3.043  1.00  0.00    -0.000 C 
BRANCH  16  17
ATOM     17  C   UNL     1      -7.550   1.943  -2.719  1.00  0.00    -0.003 C 
ATOM     18  C   UNL     1      -7.130   2.900  -3.830  1.00  0.00     0.004 C 
ENDBRANCH  16  17
ENDBRANCH  15  16
ENDBRANCH  14  15
ENDBRANCH  13  14
ENDBRANCH  12  13
ENDBRANCH  11  12
ENDBRANCH   1  11
TORSDOF 14
ENDMDL
