MODEL 1
REMARK VINA RESULT:    -4.059      0.000      0.000
REMARK INTER + INTRA:          -4.059
REMARK INTER:                  -4.059
REMARK INTRA:                   0.000
REMARK UNBOUND:                 0.000
REMARK SMILES CC1=CC(=O)[C@H]2C[C@@H]1C2(C)C
REMARK SMILES IDX 1 1 2 2 3 3 4 4 5 5 6 6 7 7 8 8 9 9 10 10 11 11
REMARK H PARENT
REMARK Flexibility Score: inf
ROOT
ATOM      1  C   UNL     1      22.836  33.024  88.797  1.00  0.00     0.040 C 
ATOM      2  C   UNL     1      23.032  34.275  88.001  1.00  0.00    -0.066 C 
ATOM      3  C   UNL     1      23.730  35.332  88.503  1.00  0.00     0.047 C 
ATOM      4  C   UNL     1      23.830  36.539  87.620  1.00  0.00     0.159 C 
ATOM      5  O   UNL     1      24.414  37.592  87.986  1.00  0.00    -0.295 OA
ATOM      6  C   UNL     1      23.173  36.402  86.246  1.00  0.00     0.067 C 
ATOM      7  C   UNL     1      23.636  35.017  85.743  1.00  0.00     0.021 C 
ATOM      8  C   UNL     1      22.474  34.424  86.570  1.00  0.00     0.022 C 
ATOM      9  C   UNL     1      21.754  35.796  86.435  1.00  0.00    -0.019 C 
ATOM     10  C   UNL     1      20.896  35.889  85.147  1.00  0.00     0.012 C 
ATOM     11  C   UNL     1      20.891  36.294  87.630  1.00  0.00     0.012 C 
ENDROOT
TORSDOF 0
ENDMDL
MODEL 2
REMARK VINA RESULT:    -4.035      1.662      2.993
REMARK INTER + INTRA:          -4.035
REMARK INTER:                  -4.035
REMARK INTRA:                   0.000
REMARK UNBOUND:                 0.000
REMARK SMILES CC1=CC(=O)[C@H]2C[C@@H]1C2(C)C
REMARK SMILES IDX 1 1 2 2 3 3 4 4 5 5 6 6 7 7 8 8 9 9 10 10 11 11
REMARK H PARENT
REMARK Flexibility Score: inf
ROOT
ATOM      1  C   UNL     1      24.010  37.737  88.190  1.00  0.00     0.040 C 
ATOM      2  C   UNL     1      23.315  36.437  87.933  1.00  0.00    -0.066 C 
ATOM      3  C   UNL     1      23.712  35.289  88.550  1.00  0.00     0.047 C 
ATOM      4  C   UNL     1      22.956  34.047  88.185  1.00  0.00     0.159 C 
ATOM      5  O   UNL     1      23.252  32.918  88.656  1.00  0.00    -0.295 OA
ATOM      6  C   UNL     1      21.802  34.247  87.202  1.00  0.00     0.067 C 
ATOM      7  C   UNL     1      21.061  35.492  87.737  1.00  0.00     0.021 C 
ATOM      8  C   UNL     1      22.109  36.336  86.977  1.00  0.00     0.022 C 
ATOM      9  C   UNL     1      22.306  35.124  86.021  1.00  0.00    -0.019 C 
ATOM     10  C   UNL     1      21.311  35.141  84.832  1.00  0.00     0.012 C 
ATOM     11  C   UNL     1      23.731  34.857  85.457  1.00  0.00     0.012 C 
ENDROOT
TORSDOF 0
ENDMDL
MODEL 3
REMARK VINA RESULT:    -3.778      1.761      2.852
REMARK INTER + INTRA:          -3.778
REMARK INTER:                  -3.778
REMARK INTRA:                   0.000
REMARK UNBOUND:                 0.000
REMARK SMILES CC1=CC(=O)[C@H]2C[C@@H]1C2(C)C
REMARK SMILES IDX 1 1 2 2 3 3 4 4 5 5 6 6 7 7 8 8 9 9 10 10 11 11
REMARK H PARENT
REMARK Flexibility Score: inf
ROOT
ATOM      1  C   UNL     1      23.414  35.011  85.465  1.00  0.00     0.040 C 
ATOM      2  C   UNL     1      23.384  35.602  86.839  1.00  0.00    -0.066 C 
ATOM      3  C   UNL     1      23.601  34.836  87.945  1.00  0.00     0.047 C 
ATOM      4  C   UNL     1      23.513  35.538  89.265  1.00  0.00     0.159 C 
ATOM      5  O   UNL     1      23.655  34.933  90.360  1.00  0.00    -0.295 OA
ATOM      6  C   UNL     1      23.239  37.041  89.191  1.00  0.00     0.067 C 
ATOM      7  C   UNL     1      24.200  37.546  88.092  1.00  0.00     0.021 C 
ATOM      8  C   UNL     1      23.126  37.105  87.072  1.00  0.00     0.022 C 
ATOM      9  C   UNL     1      22.067  37.281  88.198  1.00  0.00    -0.019 C 
ATOM     10  C   UNL     1      21.518  38.729  88.272  1.00  0.00     0.012 C 
ATOM     11  C   UNL     1      20.859  36.301  88.230  1.00  0.00     0.012 C 
ENDROOT
TORSDOF 0
ENDMDL
MODEL 4
REMARK VINA RESULT:    -3.765      1.719      3.028
REMARK INTER + INTRA:          -3.765
REMARK INTER:                  -3.765
REMARK INTRA:                   0.000
REMARK UNBOUND:                 0.000
REMARK SMILES CC1=CC(=O)[C@H]2C[C@@H]1C2(C)C
REMARK SMILES IDX 1 1 2 2 3 3 4 4 5 5 6 6 7 7 8 8 9 9 10 10 11 11
REMARK H PARENT
REMARK Flexibility Score: inf
ROOT
ATOM      1  C   UNL     1      24.266  37.929  88.296  1.00  0.00     0.040 C 
ATOM      2  C   UNL     1      23.489  36.986  87.432  1.00  0.00    -0.066 C 
ATOM      3  C   UNL     1      22.641  37.445  86.469  1.00  0.00     0.047 C 
ATOM      4  C   UNL     1      21.897  36.402  85.691  1.00  0.00     0.159 C 
ATOM      5  O   UNL     1      21.057  36.698  84.802  1.00  0.00    -0.295 OA
ATOM      6  C   UNL     1      22.230  34.953  86.052  1.00  0.00     0.067 C 
ATOM      7  C   UNL     1      23.772  34.928  86.130  1.00  0.00     0.021 C 
ATOM      8  C   UNL     1      23.622  35.456  87.574  1.00  0.00     0.022 C 
ATOM      9  C   UNL     1      22.206  34.812  87.601  1.00  0.00    -0.019 C 
ATOM     10  C   UNL     1      22.238  33.332  88.059  1.00  0.00     0.012 C 
ATOM     11  C   UNL     1      21.082  35.541  88.392  1.00  0.00     0.012 C 
ENDROOT
TORSDOF 0
ENDMDL
MODEL 5
REMARK VINA RESULT:    -3.704      1.120      2.309
REMARK INTER + INTRA:          -3.704
REMARK INTER:                  -3.704
REMARK INTRA:                   0.000
REMARK UNBOUND:                 0.000
REMARK SMILES CC1=CC(=O)[C@H]2C[C@@H]1C2(C)C
REMARK SMILES IDX 1 1 2 2 3 3 4 4 5 5 6 6 7 7 8 8 9 9 10 10 11 11
REMARK H PARENT
REMARK Flexibility Score: inf
ROOT
ATOM      1  C   UNL     1      19.916  36.195  88.500  1.00  0.00     0.040 C 
ATOM      2  C   UNL     1      21.381  36.229  88.199  1.00  0.00    -0.066 C 
ATOM      3  C   UNL     1      22.181  37.220  88.684  1.00  0.00     0.047 C 
ATOM      4  C   UNL     1      23.624  37.160  88.287  1.00  0.00     0.159 C 
ATOM      5  O   UNL     1      24.455  38.038  88.638  1.00  0.00    -0.295 OA
ATOM      6  C   UNL     1      24.018  35.958  87.427  1.00  0.00     0.067 C 
ATOM      7  C   UNL     1      23.341  34.757  88.124  1.00  0.00     0.021 C 
ATOM      8  C   UNL     1      22.061  35.138  87.347  1.00  0.00     0.022 C 
ATOM      9  C   UNL     1      22.977  35.808  86.282  1.00  0.00    -0.019 C 
ATOM     10  C   UNL     1      23.441  34.811  85.190  1.00  0.00     0.012 C 
ATOM     11  C   UNL     1      22.463  37.096  85.577  1.00  0.00     0.012 C 
ENDROOT
TORSDOF 0
ENDMDL
MODEL 6
REMARK VINA RESULT:    -3.679      1.529      2.147
REMARK INTER + INTRA:          -3.679
REMARK INTER:                  -3.679
REMARK INTRA:                   0.000
REMARK UNBOUND:                 0.000
REMARK SMILES CC1=CC(=O)[C@H]2C[C@@H]1C2(C)C
REMARK SMILES IDX 1 1 2 2 3 3 4 4 5 5 6 6 7 7 8 8 9 9 10 10 11 11
REMARK H PARENT
REMARK Flexibility Score: inf
ROOT
ATOM      1  C   UNL     1      19.993  33.842  86.607  1.00  0.00     0.040 C 
ATOM      2  C   UNL     1      21.324  34.453  86.916  1.00  0.00    -0.066 C 
ATOM      3  C   UNL     1      21.991  34.153  88.065  1.00  0.00     0.047 C 
ATOM      4  C   UNL     1      23.299  34.853  88.273  1.00  0.00     0.159 C 
ATOM      5  O   UNL     1      23.991  34.691  89.312  1.00  0.00    -0.295 OA
ATOM      6  C   UNL     1      23.735  35.779  87.136  1.00  0.00     0.067 C 
ATOM      7  C   UNL     1      23.479  34.952  85.857  1.00  0.00     0.021 C 
ATOM      8  C   UNL     1      22.013  35.433  85.944  1.00  0.00     0.022 C 
ATOM      9  C   UNL     1      22.527  36.671  86.735  1.00  0.00    -0.019 C 
ATOM     10  C   UNL     1      22.940  37.838  85.802  1.00  0.00     0.012 C 
ATOM     11  C   UNL     1      21.626  37.247  87.864  1.00  0.00     0.012 C 
ENDROOT
TORSDOF 0
ENDMDL
MODEL 7
REMARK VINA RESULT:    -3.628      1.834      2.738
REMARK INTER + INTRA:          -3.628
REMARK INTER:                  -3.628
REMARK INTRA:                   0.000
REMARK UNBOUND:                 0.000
REMARK SMILES CC1=CC(=O)[C@H]2C[C@@H]1C2(C)C
REMARK SMILES IDX 1 1 2 2 3 3 4 4 5 5 6 6 7 7 8 8 9 9 10 10 11 11
REMARK H PARENT
REMARK Flexibility Score: inf
ROOT
ATOM      1  C   UNL     1      23.729  35.798  90.834  1.00  0.00     0.040 C 
ATOM      2  C   UNL     1      23.130  36.238  89.536  1.00  0.00    -0.066 C 
ATOM      3  C   UNL     1      21.904  36.832  89.487  1.00  0.00     0.047 C 
ATOM      4  C   UNL     1      21.400  37.199  88.124  1.00  0.00     0.159 C 
ATOM      5  O   UNL     1      20.267  37.716  87.943  1.00  0.00    -0.295 OA
ATOM      6  C   UNL     1      22.358  36.901  86.969  1.00  0.00     0.067 C 
ATOM      7  C   UNL     1      23.725  37.417  87.469  1.00  0.00     0.021 C 
ATOM      8  C   UNL     1      23.874  36.061  88.196  1.00  0.00     0.022 C 
ATOM      9  C   UNL     1      22.904  35.455  87.141  1.00  0.00    -0.019 C 
ATOM     10  C   UNL     1      23.646  34.951  85.877  1.00  0.00     0.012 C 
ATOM     11  C   UNL     1      21.919  34.343  87.602  1.00  0.00     0.012 C 
ENDROOT
TORSDOF 0
ENDMDL
MODEL 8
REMARK VINA RESULT:    -3.530     10.757     12.137
REMARK INTER + INTRA:          -3.530
REMARK INTER:                  -3.530
REMARK INTRA:                   0.000
REMARK UNBOUND:                 0.000
REMARK SMILES CC1=CC(=O)[C@H]2C[C@@H]1C2(C)C
REMARK SMILES IDX 1 1 2 2 3 3 4 4 5 5 6 6 7 7 8 8 9 9 10 10 11 11
REMARK H PARENT
REMARK Flexibility Score: inf
ROOT
ATOM      1  C   UNL     1      29.464  44.538  82.086  1.00  0.00     0.040 C 
ATOM      2  C   UNL     1      29.099  45.081  83.431  1.00  0.00    -0.066 C 
ATOM      3  C   UNL     1      29.344  44.375  84.570  1.00  0.00     0.047 C 
ATOM      4  C   UNL     1      28.904  45.013  85.853  1.00  0.00     0.159 C 
ATOM      5  O   UNL     1      29.038  44.444  86.967  1.00  0.00    -0.295 OA
ATOM      6  C   UNL     1      28.280  46.403  85.713  1.00  0.00     0.067 C 
ATOM      7  C   UNL     1      29.229  47.147  84.747  1.00  0.00     0.021 C 
ATOM      8  C   UNL     1      28.448  46.470  83.597  1.00  0.00     0.022 C 
ATOM      9  C   UNL     1      27.233  46.361  84.563  1.00  0.00    -0.019 C 
ATOM     10  C   UNL     1      26.339  47.627  84.534  1.00  0.00     0.012 C 
ATOM     11  C   UNL     1      26.312  45.113  84.447  1.00  0.00     0.012 C 
ENDROOT
TORSDOF 0
ENDMDL
MODEL 9
REMARK VINA RESULT:    -3.525      1.745      3.415
REMARK INTER + INTRA:          -3.525
REMARK INTER:                  -3.525
REMARK INTRA:                   0.000
REMARK UNBOUND:                 0.000
REMARK SMILES CC1=CC(=O)[C@H]2C[C@@H]1C2(C)C
REMARK SMILES IDX 1 1 2 2 3 3 4 4 5 5 6 6 7 7 8 8 9 9 10 10 11 11
REMARK H PARENT
REMARK Flexibility Score: inf
ROOT
ATOM      1  C   UNL     1      23.663  34.886  85.330  1.00  0.00     0.040 C 
ATOM      2  C   UNL     1      22.892  35.657  86.354  1.00  0.00    -0.066 C 
ATOM      3  C   UNL     1      22.122  36.726  86.004  1.00  0.00     0.047 C 
ATOM      4  C   UNL     1      21.424  37.434  87.125  1.00  0.00     0.159 C 
ATOM      5  O   UNL     1      20.717  38.458  86.936  1.00  0.00    -0.295 OA
ATOM      6  C   UNL     1      21.631  36.828  88.514  1.00  0.00     0.067 C 
ATOM      7  C   UNL     1      21.435  35.311  88.296  1.00  0.00     0.021 C 
ATOM      8  C   UNL     1      22.913  35.272  87.848  1.00  0.00     0.022 C 
ATOM      9  C   UNL     1      23.148  36.547  88.709  1.00  0.00    -0.019 C 
ATOM     10  C   UNL     1      23.501  36.209  90.180  1.00  0.00     0.012 C 
ATOM     11  C   UNL     1      24.168  37.603  88.195  1.00  0.00     0.012 C 
ENDROOT
TORSDOF 0
ENDMDL
