MODEL 1
REMARK VINA RESULT:    -5.896      0.000      0.000
REMARK INTER + INTRA:         -20.891
REMARK INTER:                 -13.995
REMARK INTRA:                  -6.896
REMARK UNBOUND:                -6.896
REMARK SMILES O=C(OC[C@H]1O[C@H](OC(=O)c2cc(O)c(O)c(O)c2)[C@H](OC(=O)c2cc(O)c(O)c(O)c2)[C@@H](OC(=O)c2cc(O)c(O)c(O)c2)[C@H]1OC(=O)c1cc(O)c(O)c(O)c1)c1cc(O)c(O)c(O)c1
REMARK SMILES IDX 5 1 46 2 33 3 20 4 7 5 6 6 4 7 3 8 2 9 1 10 59 11 60 12
REMARK SMILES IDX 61 13 67 14 63 15 65 16 62 17 64 19 66 21 47 23 48 24 49 25
REMARK SMILES IDX 50 26 58 27 51 28 56 29 52 30 54 31 57 32 53 34 55 36 34 38
REMARK SMILES IDX 35 39 36 40 37 41 45 42 38 43 43 44 39 45 41 46 44 47 40 49
REMARK SMILES IDX 42 51 8 53 9 54 10 55 11 56 19 57 12 58 17 59 13 60 15 61
REMARK SMILES IDX 18 62 14 64 16 66 21 68 22 69 23 70 24 71 32 72 25 73 30 74
REMARK SMILES IDX 26 75 28 76 31 77 27 79 29 81
REMARK H PARENT 62 18 64 20 66 22 57 33 53 35 55 37 44 48 40 50 42 52 18 63
REMARK H PARENT 14 65 16 67 31 78 27 80 29 82
REMARK Flexibility Score: inf
ROOT
ATOM      1  C   UNL     1      10.871  33.660  50.661  1.00  0.00     0.205 C 
ATOM      2  C   UNL     1      12.327  33.495  51.133  1.00  0.00     0.254 C 
ATOM      3  C   UNL     1      12.289  32.859  52.527  1.00  0.00     0.267 C 
ATOM      4  C   UNL     1      11.529  31.521  52.465  1.00  0.00     0.290 C 
ATOM      5  C   UNL     1      10.148  31.739  51.805  1.00  0.00     0.357 C 
ATOM      6  O   UNL     1      10.249  32.388  50.543  1.00  0.00    -0.329 OA
ENDROOT
BRANCH   1   7
ATOM      7  C   UNL     1      10.774  34.397  49.313  1.00  0.00     0.269 C 
BRANCH   7   8
ATOM      8  O   UNL     1      11.312  35.708  49.448  1.00  0.00    -0.459 OA
BRANCH   8   9
ATOM      9  C   UNL     1      12.212  36.250  48.520  1.00  0.00     0.338 C 
ATOM     10  O   UNL     1      11.925  36.246  47.288  1.00  0.00    -0.246 OA
BRANCH   9  11
ATOM     11  C   UNL     1      13.508  36.792  48.978  1.00  0.00     0.067 A 
ATOM     12  C   UNL     1      14.551  36.996  48.064  1.00  0.00     0.066 A 
ATOM     13  C   UNL     1      15.798  37.460  48.490  1.00  0.00     0.162 A 
ATOM     14  C   UNL     1      13.724  37.070  50.343  1.00  0.00     0.066 A 
ATOM     15  C   UNL     1      16.024  37.702  49.865  1.00  0.00     0.200 A 
ATOM     16  C   UNL     1      14.977  37.510  50.784  1.00  0.00     0.162 A 
BRANCH  13  17
ATOM     17  O   UNL     1      16.774  37.675  47.516  1.00  0.00    -0.504 OA
ATOM     18  H   UNL     1      17.048  38.588  47.194  1.00  0.00     0.293 HD
ENDBRANCH  13  17
BRANCH  15  19
ATOM     19  O   UNL     1      17.267  38.125  50.349  1.00  0.00    -0.502 OA
ATOM     20  H   UNL     1      17.828  38.849  49.926  1.00  0.00     0.293 HD
ENDBRANCH  15  19
BRANCH  16  21
ATOM     21  O   UNL     1      15.159  37.747  52.146  1.00  0.00    -0.504 OA
ATOM     22  H   UNL     1      16.081  37.809  52.562  1.00  0.00     0.293 HD
ENDBRANCH  16  21
ENDBRANCH   9  11
ENDBRANCH   8   9
ENDBRANCH   7   8
ENDBRANCH   1   7
BRANCH   2  23
ATOM     23  O   UNL     1      13.040  32.629  50.248  1.00  0.00    -0.452 OA
BRANCH  23  24
ATOM     24  C   UNL     1      13.979  33.067  49.305  1.00  0.00     0.338 C 
ATOM     25  O   UNL     1      13.655  33.155  48.093  1.00  0.00    -0.246 OA
BRANCH  24  26
ATOM     26  C   UNL     1      15.340  33.440  49.750  1.00  0.00     0.067 A 
ATOM     27  C   UNL     1      16.474  33.032  49.023  1.00  0.00     0.066 A 
ATOM     28  C   UNL     1      15.517  34.164  50.941  1.00  0.00     0.066 A 
ATOM     29  C   UNL     1      17.766  33.331  49.488  1.00  0.00     0.162 A 
ATOM     30  C   UNL     1      16.801  34.472  51.402  1.00  0.00     0.162 A 
ATOM     31  C   UNL     1      17.930  34.056  50.680  1.00  0.00     0.200 A 
BRANCH  29  32
ATOM     32  O   UNL     1      18.883  32.904  48.775  1.00  0.00    -0.504 OA
ATOM     33  H   UNL     1      18.953  33.035  47.772  1.00  0.00     0.293 HD
ENDBRANCH  29  32
BRANCH  30  34
ATOM     34  O   UNL     1      16.935  35.189  52.588  1.00  0.00    -0.504 OA
ATOM     35  H   UNL     1      17.354  34.784  53.420  1.00  0.00     0.293 HD
ENDBRANCH  30  34
BRANCH  31  36
ATOM     36  O   UNL     1      19.200  34.363  51.164  1.00  0.00    -0.502 OA
ATOM     37  H   UNL     1      19.875  33.649  51.406  1.00  0.00     0.293 HD
ENDBRANCH  31  36
ENDBRANCH  24  26
ENDBRANCH  23  24
ENDBRANCH   2  23
BRANCH   3  38
ATOM     38  O   UNL     1      13.613  32.679  53.029  1.00  0.00    -0.450 OA
BRANCH  38  39
ATOM     39  C   UNL     1      14.062  33.287  54.210  1.00  0.00     0.338 C 
ATOM     40  O   UNL     1      13.568  34.387  54.581  1.00  0.00    -0.246 OA
BRANCH  39  41
ATOM     41  C   UNL     1      15.102  32.633  55.034  1.00  0.00     0.067 A 
ATOM     42  C   UNL     1      15.211  32.926  56.405  1.00  0.00     0.066 A 
ATOM     43  C   UNL     1      15.987  31.708  54.458  1.00  0.00     0.066 A 
ATOM     44  C   UNL     1      16.191  32.311  57.187  1.00  0.00     0.162 A 
ATOM     45  C   UNL     1      16.976  31.089  55.229  1.00  0.00     0.162 A 
ATOM     46  C   UNL     1      17.089  31.399  56.610  1.00  0.00     0.200 A 
BRANCH  44  47
ATOM     47  O   UNL     1      16.275  32.606  58.550  1.00  0.00    -0.504 OA
ATOM     48  H   UNL     1      15.885  33.463  58.935  1.00  0.00     0.293 HD
ENDBRANCH  44  47
BRANCH  45  49
ATOM     49  O   UNL     1      17.820  30.182  54.589  1.00  0.00    -0.504 OA
ATOM     50  H   UNL     1      17.669  29.830  53.655  1.00  0.00     0.293 HD
ENDBRANCH  45  49
BRANCH  46  51
ATOM     51  O   UNL     1      18.067  30.836  57.435  1.00  0.00    -0.502 OA
ATOM     52  H   UNL     1      18.179  29.838  57.572  1.00  0.00     0.293 HD
ENDBRANCH  46  51
ENDBRANCH  39  41
ENDBRANCH  38  39
ENDBRANCH   3  38
BRANCH   5  53
ATOM     53  O   UNL     1       9.285  32.462  52.682  1.00  0.00    -0.428 OA
BRANCH  53  54
ATOM     54  C   UNL     1       8.033  31.991  53.090  1.00  0.00     0.340 C 
ATOM     55  O   UNL     1       7.156  31.682  52.242  1.00  0.00    -0.246 OA
BRANCH  54  56
ATOM     56  C   UNL     1       7.748  31.850  54.527  1.00  0.00     0.067 A 
ATOM     57  C   UNL     1       8.370  30.853  55.288  1.00  0.00     0.066 A 
ATOM     58  C   UNL     1       6.856  32.731  55.150  1.00  0.00     0.066 A 
ATOM     59  C   UNL     1       8.137  30.745  56.664  1.00  0.00     0.162 A 
ATOM     60  C   UNL     1       6.587  32.624  56.515  1.00  0.00     0.162 A 
ATOM     61  C   UNL     1       7.235  31.642  57.292  1.00  0.00     0.200 A 
BRANCH  59  62
ATOM     62  O   UNL     1       8.824  29.744  57.359  1.00  0.00    -0.504 OA
ATOM     63  H   UNL     1       8.473  29.293  58.196  1.00  0.00     0.293 HD
ENDBRANCH  59  62
BRANCH  60  64
ATOM     64  O   UNL     1       5.663  33.503  57.081  1.00  0.00    -0.504 OA
ATOM     65  H   UNL     1       4.971  33.193  57.756  1.00  0.00     0.293 HD
ENDBRANCH  60  64
BRANCH  61  66
ATOM     66  O   UNL     1       6.968  31.590  58.668  1.00  0.00    -0.502 OA
ATOM     67  H   UNL     1       6.156  31.143  59.072  1.00  0.00     0.293 HD
ENDBRANCH  61  66
ENDBRANCH  54  56
ENDBRANCH  53  54
ENDBRANCH   5  53
BRANCH   4  68
ATOM     68  O   UNL     1      11.318  31.014  53.781  1.00  0.00    -0.448 OA
BRANCH  68  69
ATOM     69  C   UNL     1      12.040  29.956  54.341  1.00  0.00     0.339 C 
ATOM     70  O   UNL     1      12.232  28.896  53.682  1.00  0.00    -0.246 OA
BRANCH  69  71
ATOM     71  C   UNL     1      12.565  30.081  55.717  1.00  0.00     0.067 A 
ATOM     72  C   UNL     1      13.597  29.251  56.173  1.00  0.00     0.066 A 
ATOM     73  C   UNL     1      12.037  31.047  56.589  1.00  0.00     0.066 A 
ATOM     74  C   UNL     1      14.107  29.388  57.473  1.00  0.00     0.162 A 
ATOM     75  C   UNL     1      12.541  31.195  57.884  1.00  0.00     0.162 A 
ATOM     76  C   UNL     1      13.580  30.365  58.332  1.00  0.00     0.200 A 
BRANCH  74  77
ATOM     77  O   UNL     1      15.144  28.563  57.910  1.00  0.00    -0.504 OA
ATOM     78  H   UNL     1      16.107  28.729  57.635  1.00  0.00     0.293 HD
ENDBRANCH  74  77
BRANCH  75  79
ATOM     79  O   UNL     1      11.997  32.176  58.715  1.00  0.00    -0.504 OA
ATOM     80  H   UNL     1      11.210  31.994  59.322  1.00  0.00     0.293 HD
ENDBRANCH  75  79
BRANCH  76  81
ATOM     81  O   UNL     1      14.078  30.519  59.627  1.00  0.00    -0.502 OA
ATOM     82  H   UNL     1      13.594  30.167  60.440  1.00  0.00     0.293 HD
ENDBRANCH  76  81
ENDBRANCH  69  71
ENDBRANCH  68  69
ENDBRANCH   4  68
TORSDOF 31
ENDMDL
MODEL 2
REMARK VINA RESULT:    -5.733      1.758      3.134
REMARK INTER + INTRA:         -20.505
REMARK INTER:                 -13.514
REMARK INTRA:                  -6.991
REMARK UNBOUND:                -6.896
REMARK SMILES O=C(OC[C@H]1O[C@H](OC(=O)c2cc(O)c(O)c(O)c2)[C@H](OC(=O)c2cc(O)c(O)c(O)c2)[C@@H](OC(=O)c2cc(O)c(O)c(O)c2)[C@H]1OC(=O)c1cc(O)c(O)c(O)c1)c1cc(O)c(O)c(O)c1
REMARK SMILES IDX 5 1 46 2 33 3 20 4 7 5 6 6 4 7 3 8 2 9 1 10 59 11 60 12
REMARK SMILES IDX 61 13 67 14 63 15 65 16 62 17 64 19 66 21 47 23 48 24 49 25
REMARK SMILES IDX 50 26 58 27 51 28 56 29 52 30 54 31 57 32 53 34 55 36 34 38
REMARK SMILES IDX 35 39 36 40 37 41 45 42 38 43 43 44 39 45 41 46 44 47 40 49
REMARK SMILES IDX 42 51 8 53 9 54 10 55 11 56 19 57 12 58 17 59 13 60 15 61
REMARK SMILES IDX 18 62 14 64 16 66 21 68 22 69 23 70 24 71 32 72 25 73 30 74
REMARK SMILES IDX 26 75 28 76 31 77 27 79 29 81
REMARK H PARENT 62 18 64 20 66 22 57 33 53 35 55 37 44 48 40 50 42 52 18 63
REMARK H PARENT 14 65 16 67 31 78 27 80 29 82
REMARK Flexibility Score: inf
ROOT
ATOM      1  C   UNL     1      12.173  33.396  49.536  1.00  0.00     0.205 C 
ATOM      2  C   UNL     1      13.519  33.280  50.276  1.00  0.00     0.254 C 
ATOM      3  C   UNL     1      13.215  32.869  51.721  1.00  0.00     0.267 C 
ATOM      4  C   UNL     1      12.418  31.551  51.727  1.00  0.00     0.290 C 
ATOM      5  C   UNL     1      11.181  31.689  50.811  1.00  0.00     0.357 C 
ATOM      6  O   UNL     1      11.524  32.132  49.503  1.00  0.00    -0.329 OA
ENDROOT
BRANCH   1   7
ATOM      7  C   UNL     1      12.340  33.916  48.097  1.00  0.00     0.269 C 
BRANCH   7   8
ATOM      8  O   UNL     1      11.799  35.230  48.001  1.00  0.00    -0.459 OA
BRANCH   8   9
ATOM      9  C   UNL     1      11.973  36.188  49.010  1.00  0.00     0.338 C 
ATOM     10  O   UNL     1      10.974  36.602  49.665  1.00  0.00    -0.246 OA
BRANCH   9  11
ATOM     11  C   UNL     1      13.318  36.737  49.282  1.00  0.00     0.067 A 
ATOM     12  C   UNL     1      14.226  36.933  48.233  1.00  0.00     0.066 A 
ATOM     13  C   UNL     1      15.518  37.402  48.480  1.00  0.00     0.162 A 
ATOM     14  C   UNL     1      13.717  37.028  50.602  1.00  0.00     0.066 A 
ATOM     15  C   UNL     1      15.929  37.658  49.810  1.00  0.00     0.200 A 
ATOM     16  C   UNL     1      15.017  37.474  50.864  1.00  0.00     0.162 A 
BRANCH  13  17
ATOM     17  O   UNL     1      16.353  37.609  47.381  1.00  0.00    -0.504 OA
ATOM     18  H   UNL     1      16.369  37.010  46.573  1.00  0.00     0.293 HD
ENDBRANCH  13  17
BRANCH  15  19
ATOM     19  O   UNL     1      17.225  38.087  50.116  1.00  0.00    -0.502 OA
ATOM     20  H   UNL     1      17.764  38.724  49.549  1.00  0.00     0.293 HD
ENDBRANCH  15  19
BRANCH  16  21
ATOM     21  O   UNL     1      15.383  37.725  52.187  1.00  0.00    -0.504 OA
ATOM     22  H   UNL     1      15.682  36.986  52.811  1.00  0.00     0.293 HD
ENDBRANCH  16  21
ENDBRANCH   9  11
ENDBRANCH   8   9
ENDBRANCH   7   8
ENDBRANCH   1   7
BRANCH   2  23
ATOM     23  O   UNL     1      14.333  32.275  49.669  1.00  0.00    -0.452 OA
BRANCH  23  24
ATOM     24  C   UNL     1      15.492  32.541  48.928  1.00  0.00     0.338 C 
ATOM     25  O   UNL     1      15.489  32.382  47.680  1.00  0.00    -0.246 OA
BRANCH  24  26
ATOM     26  C   UNL     1      16.705  33.027  49.623  1.00  0.00     0.067 A 
ATOM     27  C   UNL     1      17.233  32.329  50.725  1.00  0.00     0.066 A 
ATOM     28  C   UNL     1      17.313  34.227  49.221  1.00  0.00     0.066 A 
ATOM     29  C   UNL     1      18.344  32.831  51.423  1.00  0.00     0.162 A 
ATOM     30  C   UNL     1      18.425  34.726  49.907  1.00  0.00     0.162 A 
ATOM     31  C   UNL     1      18.944  34.033  51.011  1.00  0.00     0.200 A 
BRANCH  29  32
ATOM     32  O   UNL     1      18.848  32.146  52.526  1.00  0.00    -0.504 OA
ATOM     33  H   UNL     1      18.824  31.134  52.576  1.00  0.00     0.293 HD
ENDBRANCH  29  32
BRANCH  30  34
ATOM     34  O   UNL     1      18.999  35.921  49.479  1.00  0.00    -0.504 OA
ATOM     35  H   UNL     1      19.936  36.199  49.754  1.00  0.00     0.293 HD
ENDBRANCH  30  34
BRANCH  31  36
ATOM     36  O   UNL     1      20.045  34.554  51.686  1.00  0.00    -0.502 OA
ATOM     37  H   UNL     1      20.767  33.965  52.082  1.00  0.00     0.293 HD
ENDBRANCH  31  36
ENDBRANCH  24  26
ENDBRANCH  23  24
ENDBRANCH   2  23
BRANCH   3  38
ATOM     38  O   UNL     1      14.424  32.745  52.468  1.00  0.00    -0.450 OA
BRANCH  38  39
ATOM     39  C   UNL     1      14.770  33.631  53.498  1.00  0.00     0.338 C 
ATOM     40  O   UNL     1      15.226  34.774  53.221  1.00  0.00    -0.246 OA
BRANCH  39  41
ATOM     41  C   UNL     1      14.581  33.238  54.912  1.00  0.00     0.067 A 
ATOM     42  C   UNL     1      15.688  32.900  55.709  1.00  0.00     0.066 A 
ATOM     43  C   UNL     1      13.294  33.202  55.473  1.00  0.00     0.066 A 
ATOM     44  C   UNL     1      15.515  32.527  57.045  1.00  0.00     0.162 A 
ATOM     45  C   UNL     1      13.107  32.826  56.807  1.00  0.00     0.162 A 
ATOM     46  C   UNL     1      14.228  32.474  57.603  1.00  0.00     0.200 A 
BRANCH  44  47
ATOM     47  O   UNL     1      16.629  32.208  57.824  1.00  0.00    -0.504 OA
ATOM     48  H   UNL     1      17.392  31.644  57.458  1.00  0.00     0.293 HD
ENDBRANCH  44  47
BRANCH  45  49
ATOM     49  O   UNL     1      11.801  32.812  57.296  1.00  0.00    -0.504 OA
ATOM     50  H   UNL     1      11.241  31.977  57.393  1.00  0.00     0.293 HD
ENDBRANCH  45  49
BRANCH  46  51
ATOM     51  O   UNL     1      14.113  32.067  58.935  1.00  0.00    -0.502 OA
ATOM     52  H   UNL     1      13.795  31.145  59.216  1.00  0.00     0.293 HD
ENDBRANCH  46  51
ENDBRANCH  39  41
ENDBRANCH  38  39
ENDBRANCH   3  38
BRANCH   5  53
ATOM     53  O   UNL     1      10.214  32.554  51.404  1.00  0.00    -0.428 OA
BRANCH  53  54
ATOM     54  C   UNL     1       8.941  32.129  51.800  1.00  0.00     0.340 C 
ATOM     55  O   UNL     1       8.164  31.580  50.978  1.00  0.00    -0.246 OA
BRANCH  54  56
ATOM     56  C   UNL     1       8.517  32.324  53.195  1.00  0.00     0.067 A 
ATOM     57  C   UNL     1       9.293  33.081  54.082  1.00  0.00     0.066 A 
ATOM     58  C   UNL     1       7.317  31.762  53.644  1.00  0.00     0.066 A 
ATOM     59  C   UNL     1       8.870  33.308  55.398  1.00  0.00     0.162 A 
ATOM     60  C   UNL     1       6.890  31.951  54.959  1.00  0.00     0.162 A 
ATOM     61  C   UNL     1       7.651  32.739  55.847  1.00  0.00     0.200 A 
BRANCH  59  62
ATOM     62  O   UNL     1       9.685  34.103  56.210  1.00  0.00    -0.504 OA
ATOM     63  H   UNL     1      10.697  34.048  56.224  1.00  0.00     0.293 HD
ENDBRANCH  59  62
BRANCH  60  64
ATOM     64  O   UNL     1       5.705  31.339  55.368  1.00  0.00    -0.504 OA
ATOM     65  H   UNL     1       5.499  31.167  56.347  1.00  0.00     0.293 HD
ENDBRANCH  60  64
BRANCH  61  66
ATOM     66  O   UNL     1       7.170  32.937  57.150  1.00  0.00    -0.502 OA
ATOM     67  H   UNL     1       7.158  33.832  57.620  1.00  0.00     0.293 HD
ENDBRANCH  61  66
ENDBRANCH  54  56
ENDBRANCH  53  54
ENDBRANCH   5  53
BRANCH   4  68
ATOM     68  O   UNL     1      11.963  31.258  53.047  1.00  0.00    -0.448 OA
BRANCH  68  69
ATOM     69  C   UNL     1      12.310  30.107  53.760  1.00  0.00     0.339 C 
ATOM     70  O   UNL     1      13.481  29.966  54.212  1.00  0.00    -0.246 OA
BRANCH  69  71
ATOM     71  C   UNL     1      11.300  29.049  53.970  1.00  0.00     0.067 A 
ATOM     72  C   UNL     1      10.069  29.337  54.573  1.00  0.00     0.066 A 
ATOM     73  C   UNL     1      11.560  27.732  53.556  1.00  0.00     0.066 A 
ATOM     74  C   UNL     1       9.104  28.334  54.750  1.00  0.00     0.162 A 
ATOM     75  C   UNL     1      10.604  26.726  53.724  1.00  0.00     0.162 A 
ATOM     76  C   UNL     1       9.370  27.023  54.321  1.00  0.00     0.200 A 
BRANCH  74  77
ATOM     77  O   UNL     1       7.876  28.637  55.340  1.00  0.00    -0.504 OA
ATOM     78  H   UNL     1       7.819  29.176  56.198  1.00  0.00     0.293 HD
ENDBRANCH  74  77
BRANCH  75  79
ATOM     79  O   UNL     1      10.898  25.433  53.288  1.00  0.00    -0.504 OA
ATOM     80  H   UNL     1      10.614  24.611  53.803  1.00  0.00     0.293 HD
ENDBRANCH  75  79
BRANCH  76  81
ATOM     81  O   UNL     1       8.421  26.013  54.486  1.00  0.00    -0.502 OA
ATOM     82  H   UNL     1       8.413  25.399  55.287  1.00  0.00     0.293 HD
ENDBRANCH  76  81
ENDBRANCH  69  71
ENDBRANCH  68  69
ENDBRANCH   4  68
TORSDOF 31
ENDMDL
MODEL 3
REMARK VINA RESULT:    -5.714      1.578      2.636
REMARK INTER + INTRA:         -20.461
REMARK INTER:                 -13.343
REMARK INTRA:                  -7.117
REMARK UNBOUND:                -6.896
REMARK SMILES O=C(OC[C@H]1O[C@H](OC(=O)c2cc(O)c(O)c(O)c2)[C@H](OC(=O)c2cc(O)c(O)c(O)c2)[C@@H](OC(=O)c2cc(O)c(O)c(O)c2)[C@H]1OC(=O)c1cc(O)c(O)c(O)c1)c1cc(O)c(O)c(O)c1
REMARK SMILES IDX 5 1 46 2 33 3 20 4 7 5 6 6 4 7 3 8 2 9 1 10 59 11 60 12
REMARK SMILES IDX 61 13 67 14 63 15 65 16 62 17 64 19 66 21 47 23 48 24 49 25
REMARK SMILES IDX 50 26 58 27 51 28 56 29 52 30 54 31 57 32 53 34 55 36 34 38
REMARK SMILES IDX 35 39 36 40 37 41 45 42 38 43 43 44 39 45 41 46 44 47 40 49
REMARK SMILES IDX 42 51 8 53 9 54 10 55 11 56 19 57 12 58 17 59 13 60 15 61
REMARK SMILES IDX 18 62 14 64 16 66 21 68 22 69 23 70 24 71 32 72 25 73 30 74
REMARK SMILES IDX 26 75 28 76 31 77 27 79 29 81
REMARK H PARENT 62 18 64 20 66 22 57 33 53 35 55 37 44 48 40 50 42 52 18 63
REMARK H PARENT 14 65 16 67 31 78 27 80 29 82
REMARK Flexibility Score: inf
ROOT
ATOM      1  C   UNL     1      10.845  33.672  51.135  1.00  0.00     0.205 C 
ATOM      2  C   UNL     1      12.306  33.513  51.595  1.00  0.00     0.254 C 
ATOM      3  C   UNL     1      12.280  32.957  53.023  1.00  0.00     0.267 C 
ATOM      4  C   UNL     1      11.502  31.628  53.046  1.00  0.00     0.290 C 
ATOM      5  C   UNL     1      10.114  31.829  52.395  1.00  0.00     0.357 C 
ATOM      6  O   UNL     1      10.205  32.404  51.098  1.00  0.00    -0.329 OA
ENDROOT
BRANCH   1   7
ATOM      7  C   UNL     1      10.737  34.334  49.749  1.00  0.00     0.269 C 
BRANCH   7   8
ATOM      8  O   UNL     1      11.247  35.662  49.816  1.00  0.00    -0.459 OA
BRANCH   8   9
ATOM      9  C   UNL     1      12.075  36.199  48.821  1.00  0.00     0.338 C 
ATOM     10  O   UNL     1      11.701  36.182  47.613  1.00  0.00    -0.246 OA
BRANCH   9  11
ATOM     11  C   UNL     1      13.397  36.752  49.180  1.00  0.00     0.067 A 
ATOM     12  C   UNL     1      14.357  36.991  48.187  1.00  0.00     0.066 A 
ATOM     13  C   UNL     1      15.629  37.465  48.517  1.00  0.00     0.162 A 
ATOM     14  C   UNL     1      13.724  37.004  50.529  1.00  0.00     0.066 A 
ATOM     15  C   UNL     1      15.967  37.682  49.874  1.00  0.00     0.200 A 
ATOM     16  C   UNL     1      15.003  37.454  50.873  1.00  0.00     0.162 A 
BRANCH  13  17
ATOM     17  O   UNL     1      16.517  37.716  47.470  1.00  0.00    -0.504 OA
ATOM     18  H   UNL     1      16.977  36.993  46.945  1.00  0.00     0.293 HD
ENDBRANCH  13  17
BRANCH  15  19
ATOM     19  O   UNL     1      17.240  38.114  50.261  1.00  0.00    -0.502 OA
ATOM     20  H   UNL     1      18.008  37.500  50.482  1.00  0.00     0.293 HD
ENDBRANCH  15  19
BRANCH  16  21
ATOM     21  O   UNL     1      15.297  37.665  52.220  1.00  0.00    -0.504 OA
ATOM     22  H   UNL     1      16.129  38.159  52.517  1.00  0.00     0.293 HD
ENDBRANCH  16  21
ENDBRANCH   9  11
ENDBRANCH   8   9
ENDBRANCH   7   8
ENDBRANCH   1   7
BRANCH   2  23
ATOM     23  O   UNL     1      12.994  32.590  50.750  1.00  0.00    -0.452 OA
BRANCH  23  24
ATOM     24  C   UNL     1      13.798  32.964  49.665  1.00  0.00     0.338 C 
ATOM     25  O   UNL     1      13.374  32.811  48.490  1.00  0.00    -0.246 OA
BRANCH  24  26
ATOM     26  C   UNL     1      15.132  33.553  49.914  1.00  0.00     0.067 A 
ATOM     27  C   UNL     1      16.031  33.778  48.855  1.00  0.00     0.066 A 
ATOM     28  C   UNL     1      15.538  33.844  51.227  1.00  0.00     0.066 A 
ATOM     29  C   UNL     1      17.321  34.273  49.106  1.00  0.00     0.162 A 
ATOM     30  C   UNL     1      16.818  34.347  51.480  1.00  0.00     0.162 A 
ATOM     31  C   UNL     1      17.715  34.562  50.424  1.00  0.00     0.200 A 
BRANCH  29  32
ATOM     32  O   UNL     1      18.212  34.473  48.055  1.00  0.00    -0.504 OA
ATOM     33  H   UNL     1      18.153  35.290  47.458  1.00  0.00     0.293 HD
ENDBRANCH  29  32
BRANCH  30  34
ATOM     34  O   UNL     1      17.184  34.622  52.796  1.00  0.00    -0.504 OA
ATOM     35  H   UNL     1      17.170  35.564  53.175  1.00  0.00     0.293 HD
ENDBRANCH  30  34
BRANCH  31  36
ATOM     36  O   UNL     1      18.990  35.052  50.700  1.00  0.00    -0.502 OA
ATOM     37  H   UNL     1      19.369  35.868  50.236  1.00  0.00     0.293 HD
ENDBRANCH  31  36
ENDBRANCH  24  26
ENDBRANCH  23  24
ENDBRANCH   2  23
BRANCH   3  38
ATOM     38  O   UNL     1      13.608  32.787  53.516  1.00  0.00    -0.450 OA
BRANCH  38  39
ATOM     39  C   UNL     1      14.129  33.558  54.564  1.00  0.00     0.338 C 
ATOM     40  O   UNL     1      14.394  34.778  54.380  1.00  0.00    -0.246 OA
BRANCH  39  41
ATOM     41  C   UNL     1      14.351  32.951  55.895  1.00  0.00     0.067 A 
ATOM     42  C   UNL     1      15.627  32.485  56.260  1.00  0.00     0.066 A 
ATOM     43  C   UNL     1      13.292  32.837  56.810  1.00  0.00     0.066 A 
ATOM     44  C   UNL     1      15.841  31.910  57.515  1.00  0.00     0.162 A 
ATOM     45  C   UNL     1      13.492  32.260  58.067  1.00  0.00     0.162 A 
ATOM     46  C   UNL     1      14.779  31.780  58.424  1.00  0.00     0.200 A 
BRANCH  44  47
ATOM     47  O   UNL     1      17.117  31.465  57.864  1.00  0.00    -0.504 OA
ATOM     48  H   UNL     1      17.515  30.619  57.464  1.00  0.00     0.293 HD
ENDBRANCH  44  47
BRANCH  45  49
ATOM     49  O   UNL     1      12.393  32.180  58.923  1.00  0.00    -0.504 OA
ATOM     50  H   UNL     1      11.432  32.191  58.613  1.00  0.00     0.293 HD
ENDBRANCH  45  49
BRANCH  46  51
ATOM     51  O   UNL     1      15.045  31.171  59.654  1.00  0.00    -0.502 OA
ATOM     52  H   UNL     1      15.909  30.684  59.864  1.00  0.00     0.293 HD
ENDBRANCH  46  51
ENDBRANCH  39  41
ENDBRANCH  38  39
ENDBRANCH   3  38
BRANCH   5  53
ATOM     53  O   UNL     1       9.274  32.611  53.242  1.00  0.00    -0.428 OA
BRANCH  53  54
ATOM     54  C   UNL     1       7.913  32.345  53.434  1.00  0.00     0.340 C 
ATOM     55  O   UNL     1       7.053  32.788  52.631  1.00  0.00    -0.246 OA
BRANCH  54  56
ATOM     56  C   UNL     1       7.493  31.532  54.587  1.00  0.00     0.067 A 
ATOM     57  C   UNL     1       6.897  30.279  54.401  1.00  0.00     0.066 A 
ATOM     58  C   UNL     1       7.703  32.006  55.887  1.00  0.00     0.066 A 
ATOM     59  C   UNL     1       6.538  29.482  55.496  1.00  0.00     0.162 A 
ATOM     60  C   UNL     1       7.327  31.241  56.992  1.00  0.00     0.162 A 
ATOM     61  C   UNL     1       6.756  29.964  56.812  1.00  0.00     0.200 A 
BRANCH  59  62
ATOM     62  O   UNL     1       5.980  28.228  55.226  1.00  0.00    -0.504 OA
ATOM     63  H   UNL     1       6.385  27.350  55.531  1.00  0.00     0.293 HD
ENDBRANCH  59  62
BRANCH  60  64
ATOM     64  O   UNL     1       7.524  31.773  58.267  1.00  0.00    -0.504 OA
ATOM     65  H   UNL     1       6.939  32.517  58.634  1.00  0.00     0.293 HD
ENDBRANCH  60  64
BRANCH  61  66
ATOM     66  O   UNL     1       6.426  29.210  57.947  1.00  0.00    -0.502 OA
ATOM     67  H   UNL     1       7.077  28.617  58.444  1.00  0.00     0.293 HD
ENDBRANCH  61  66
ENDBRANCH  54  56
ENDBRANCH  53  54
ENDBRANCH   5  53
BRANCH   4  68
ATOM     68  O   UNL     1      11.303  31.198  54.392  1.00  0.00    -0.448 OA
BRANCH  68  69
ATOM     69  C   UNL     1      11.753  29.977  54.901  1.00  0.00     0.339 C 
ATOM     70  O   UNL     1      12.990  29.756  55.028  1.00  0.00    -0.246 OA
BRANCH  69  71
ATOM     71  C   UNL     1      10.770  28.939  55.276  1.00  0.00     0.067 A 
ATOM     72  C   UNL     1      10.210  28.093  54.310  1.00  0.00     0.066 A 
ATOM     73  C   UNL     1      10.388  28.780  56.619  1.00  0.00     0.066 A 
ATOM     74  C   UNL     1       9.294  27.094  54.673  1.00  0.00     0.162 A 
ATOM     75  C   UNL     1       9.479  27.786  56.992  1.00  0.00     0.162 A 
ATOM     76  C   UNL     1       8.929  26.937  56.020  1.00  0.00     0.200 A 
BRANCH  74  77
ATOM     77  O   UNL     1       8.754  26.251  53.702  1.00  0.00    -0.504 OA
ATOM     78  H   UNL     1       9.347  25.698  53.090  1.00  0.00     0.293 HD
ENDBRANCH  74  77
BRANCH  75  79
ATOM     79  O   UNL     1       9.136  27.654  58.339  1.00  0.00    -0.504 OA
ATOM     80  H   UNL     1       8.204  27.397  58.636  1.00  0.00     0.293 HD
ENDBRANCH  75  79
BRANCH  76  81
ATOM     81  O   UNL     1       8.021  25.947  56.402  1.00  0.00    -0.502 OA
ATOM     82  H   UNL     1       7.993  25.567  57.336  1.00  0.00     0.293 HD
ENDBRANCH  76  81
ENDBRANCH  69  71
ENDBRANCH  68  69
ENDBRANCH   4  68
TORSDOF 31
ENDMDL
MODEL 4
REMARK VINA RESULT:    -5.708      1.997      5.073
REMARK INTER + INTRA:         -20.446
REMARK INTER:                 -13.490
REMARK INTRA:                  -6.956
REMARK UNBOUND:                -6.896
REMARK SMILES O=C(OC[C@H]1O[C@H](OC(=O)c2cc(O)c(O)c(O)c2)[C@H](OC(=O)c2cc(O)c(O)c(O)c2)[C@@H](OC(=O)c2cc(O)c(O)c(O)c2)[C@H]1OC(=O)c1cc(O)c(O)c(O)c1)c1cc(O)c(O)c(O)c1
REMARK SMILES IDX 5 1 46 2 33 3 20 4 7 5 6 6 4 7 3 8 2 9 1 10 59 11 60 12
REMARK SMILES IDX 61 13 67 14 63 15 65 16 62 17 64 19 66 21 47 23 48 24 49 25
REMARK SMILES IDX 50 26 58 27 51 28 56 29 52 30 54 31 57 32 53 34 55 36 34 38
REMARK SMILES IDX 35 39 36 40 37 41 45 42 38 43 43 44 39 45 41 46 44 47 40 49
REMARK SMILES IDX 42 51 8 53 9 54 10 55 11 56 19 57 12 58 17 59 13 60 15 61
REMARK SMILES IDX 18 62 14 64 16 66 21 68 22 69 23 70 24 71 32 72 25 73 30 74
REMARK SMILES IDX 26 75 28 76 31 77 27 79 29 81
REMARK H PARENT 62 18 64 20 66 22 57 33 53 35 55 37 44 48 40 50 42 52 18 63
REMARK H PARENT 14 65 16 67 31 78 27 80 29 82
REMARK Flexibility Score: inf
ROOT
ATOM      1  C   UNL     1      10.517  32.288  50.115  1.00  0.00     0.205 C 
ATOM      2  C   UNL     1      11.617  33.363  50.189  1.00  0.00     0.254 C 
ATOM      3  C   UNL     1      11.370  34.187  51.457  1.00  0.00     0.267 C 
ATOM      4  C   UNL     1      11.365  33.257  52.685  1.00  0.00     0.290 C 
ATOM      5  C   UNL     1      10.369  32.097  52.453  1.00  0.00     0.357 C 
ATOM      6  O   UNL     1      10.615  31.413  51.230  1.00  0.00    -0.329 OA
ENDROOT
BRANCH   1   7
ATOM      7  C   UNL     1      10.591  31.463  48.817  1.00  0.00     0.269 C 
BRANCH   7   8
ATOM      8  O   UNL     1      10.828  32.333  47.715  1.00  0.00    -0.459 OA
BRANCH   8   9
ATOM      9  C   UNL     1       9.800  32.767  46.866  1.00  0.00     0.338 C 
ATOM     10  O   UNL     1       9.462  32.059  45.874  1.00  0.00    -0.246 OA
BRANCH   9  11
ATOM     11  C   UNL     1       9.137  34.064  47.112  1.00  0.00     0.067 A 
ATOM     12  C   UNL     1       9.514  35.200  46.382  1.00  0.00     0.066 A 
ATOM     13  C   UNL     1       8.934  36.444  46.640  1.00  0.00     0.162 A 
ATOM     14  C   UNL     1       8.151  34.184  48.112  1.00  0.00     0.066 A 
ATOM     15  C   UNL     1       7.971  36.570  47.669  1.00  0.00     0.200 A 
ATOM     16  C   UNL     1       7.582  35.430  48.396  1.00  0.00     0.162 A 
BRANCH  13  17
ATOM     17  O   UNL     1       9.332  37.520  45.845  1.00  0.00    -0.504 OA
ATOM     18  H   UNL     1       8.952  37.710  44.934  1.00  0.00     0.293 HD
ENDBRANCH  13  17
BRANCH  15  19
ATOM     19  O   UNL     1       7.392  37.800  47.995  1.00  0.00    -0.502 OA
ATOM     20  H   UNL     1       6.522  37.907  48.494  1.00  0.00     0.293 HD
ENDBRANCH  15  19
BRANCH  16  21
ATOM     21  O   UNL     1       6.629  35.514  49.412  1.00  0.00    -0.504 OA
ATOM     22  H   UNL     1       5.664  35.757  49.224  1.00  0.00     0.293 HD
ENDBRANCH  16  21
ENDBRANCH   9  11
ENDBRANCH   8   9
ENDBRANCH   7   8
ENDBRANCH   1   7
BRANCH   2  23
ATOM     23  O   UNL     1      12.904  32.749  50.277  1.00  0.00    -0.452 OA
BRANCH  23  24
ATOM     24  C   UNL     1      13.987  33.069  49.448  1.00  0.00     0.338 C 
ATOM     25  O   UNL     1      13.873  32.961  48.199  1.00  0.00    -0.246 OA
BRANCH  24  26
ATOM     26  C   UNL     1      15.250  33.549  50.051  1.00  0.00     0.067 A 
ATOM     27  C   UNL     1      16.333  33.941  49.242  1.00  0.00     0.066 A 
ATOM     28  C   UNL     1      15.402  33.565  51.447  1.00  0.00     0.066 A 
ATOM     29  C   UNL     1      17.553  34.330  49.820  1.00  0.00     0.162 A 
ATOM     30  C   UNL     1      16.611  33.961  52.027  1.00  0.00     0.162 A 
ATOM     31  C   UNL     1      17.691  34.343  51.218  1.00  0.00     0.200 A 
BRANCH  29  32
ATOM     32  O   UNL     1      18.626  34.696  49.012  1.00  0.00    -0.504 OA
ATOM     33  H   UNL     1      18.613  34.539  48.011  1.00  0.00     0.293 HD
ENDBRANCH  29  32
BRANCH  30  34
ATOM     34  O   UNL     1      16.722  33.962  53.416  1.00  0.00    -0.504 OA
ATOM     35  H   UNL     1      17.429  34.506  53.901  1.00  0.00     0.293 HD
ENDBRANCH  30  34
BRANCH  31  36
ATOM     36  O   UNL     1      18.891  34.723  51.817  1.00  0.00    -0.502 OA
ATOM     37  H   UNL     1      19.132  35.692  51.979  1.00  0.00     0.293 HD
ENDBRANCH  31  36
ENDBRANCH  24  26
ENDBRANCH  23  24
ENDBRANCH   2  23
BRANCH   3  38
ATOM     38  O   UNL     1      12.357  35.209  51.587  1.00  0.00    -0.450 OA
BRANCH  38  39
ATOM     39  C   UNL     1      12.381  36.345  50.765  1.00  0.00     0.338 C 
ATOM     40  O   UNL     1      11.314  36.974  50.527  1.00  0.00    -0.246 OA
BRANCH  39  41
ATOM     41  C   UNL     1      13.659  36.821  50.192  1.00  0.00     0.067 A 
ATOM     42  C   UNL     1      13.849  36.843  48.799  1.00  0.00     0.066 A 
ATOM     43  C   UNL     1      14.696  37.259  51.032  1.00  0.00     0.066 A 
ATOM     44  C   UNL     1      15.054  37.291  48.253  1.00  0.00     0.162 A 
ATOM     45  C   UNL     1      15.909  37.705  50.498  1.00  0.00     0.162 A 
ATOM     46  C   UNL     1      16.098  37.714  49.092  1.00  0.00     0.200 A 
BRANCH  44  47
ATOM     47  O   UNL     1      15.218  37.319  46.866  1.00  0.00    -0.504 OA
ATOM     48  H   UNL     1      15.932  36.762  46.402  1.00  0.00     0.293 HD
ENDBRANCH  44  47
BRANCH  45  49
ATOM     49  O   UNL     1      16.892  38.125  51.394  1.00  0.00    -0.504 OA
ATOM     50  H   UNL     1      16.748  38.826  52.106  1.00  0.00     0.293 HD
ENDBRANCH  45  49
BRANCH  46  51
ATOM     51  O   UNL     1      17.291  38.125  48.491  1.00  0.00    -0.502 OA
ATOM     52  H   UNL     1      17.653  37.727  47.631  1.00  0.00     0.293 HD
ENDBRANCH  46  51
ENDBRANCH  39  41
ENDBRANCH  38  39
ENDBRANCH   3  38
BRANCH   5  53
ATOM     53  O   UNL     1       9.026  32.574  52.509  1.00  0.00    -0.428 OA
BRANCH  53  54
ATOM     54  C   UNL     1       7.967  31.829  53.040  1.00  0.00     0.340 C 
ATOM     55  O   UNL     1       7.212  31.161  52.288  1.00  0.00    -0.246 OA
BRANCH  54  56
ATOM     56  C   UNL     1       7.745  31.826  54.495  1.00  0.00     0.067 A 
ATOM     57  C   UNL     1       6.824  32.703  55.081  1.00  0.00     0.066 A 
ATOM     58  C   UNL     1       8.451  30.930  55.306  1.00  0.00     0.066 A 
ATOM     59  C   UNL     1       6.576  32.671  56.460  1.00  0.00     0.162 A 
ATOM     60  C   UNL     1       8.241  30.901  56.685  1.00  0.00     0.162 A 
ATOM     61  C   UNL     1       7.290  31.759  57.277  1.00  0.00     0.200 A 
BRANCH  59  62
ATOM     62  O   UNL     1       5.615  33.555  56.962  1.00  0.00    -0.504 OA
ATOM     63  H   UNL     1       5.609  33.904  57.914  1.00  0.00     0.293 HD
ENDBRANCH  59  62
BRANCH  60  64
ATOM     64  O   UNL     1       8.995  30.015  57.455  1.00  0.00    -0.504 OA
ATOM     65  H   UNL     1       8.561  29.297  58.026  1.00  0.00     0.293 HD
ENDBRANCH  60  64
BRANCH  61  66
ATOM     66  O   UNL     1       7.080  31.675  58.662  1.00  0.00    -0.502 OA
ATOM     67  H   UNL     1       7.498  30.973  59.257  1.00  0.00     0.293 HD
ENDBRANCH  61  66
ENDBRANCH  54  56
ENDBRANCH  53  54
ENDBRANCH   5  53
BRANCH   4  68
ATOM     68  O   UNL     1      10.947  33.976  53.844  1.00  0.00    -0.448 OA
BRANCH  68  69
ATOM     69  C   UNL     1      11.105  33.516  55.154  1.00  0.00     0.339 C 
ATOM     70  O   UNL     1      10.251  33.805  56.038  1.00  0.00    -0.246 OA
BRANCH  69  71
ATOM     71  C   UNL     1      12.288  32.700  55.501  1.00  0.00     0.067 A 
ATOM     72  C   UNL     1      13.546  33.291  55.672  1.00  0.00     0.066 A 
ATOM     73  C   UNL     1      12.162  31.312  55.673  1.00  0.00     0.066 A 
ATOM     74  C   UNL     1      14.662  32.517  56.024  1.00  0.00     0.162 A 
ATOM     75  C   UNL     1      13.266  30.531  56.026  1.00  0.00     0.162 A 
ATOM     76  C   UNL     1      14.522  31.131  56.204  1.00  0.00     0.200 A 
BRANCH  74  77
ATOM     77  O   UNL     1      15.906  33.120  56.204  1.00  0.00    -0.504 OA
ATOM     78  H   UNL     1      16.427  33.015  57.069  1.00  0.00     0.293 HD
ENDBRANCH  74  77
BRANCH  75  79
ATOM     79  O   UNL     1      13.096  29.156  56.199  1.00  0.00    -0.504 OA
ATOM     80  H   UNL     1      13.395  28.483  55.507  1.00  0.00     0.293 HD
ENDBRANCH  75  79
BRANCH  76  81
ATOM     81  O   UNL     1      15.620  30.344  56.557  1.00  0.00    -0.502 OA
ATOM     82  H   UNL     1      15.838  30.115  57.516  1.00  0.00     0.293 HD
ENDBRANCH  76  81
ENDBRANCH  69  71
ENDBRANCH  68  69
ENDBRANCH   4  68
TORSDOF 31
ENDMDL
MODEL 5
REMARK VINA RESULT:    -5.707      2.945     11.171
REMARK INTER + INTRA:         -20.443
REMARK INTER:                 -12.428
REMARK INTRA:                  -8.015
REMARK UNBOUND:                -6.896
REMARK SMILES O=C(OC[C@H]1O[C@H](OC(=O)c2cc(O)c(O)c(O)c2)[C@H](OC(=O)c2cc(O)c(O)c(O)c2)[C@@H](OC(=O)c2cc(O)c(O)c(O)c2)[C@H]1OC(=O)c1cc(O)c(O)c(O)c1)c1cc(O)c(O)c(O)c1
REMARK SMILES IDX 5 1 46 2 33 3 20 4 7 5 6 6 4 7 3 8 2 9 1 10 59 11 60 12
REMARK SMILES IDX 61 13 67 14 63 15 65 16 62 17 64 19 66 21 47 23 48 24 49 25
REMARK SMILES IDX 50 26 58 27 51 28 56 29 52 30 54 31 57 32 53 34 55 36 34 38
REMARK SMILES IDX 35 39 36 40 37 41 45 42 38 43 43 44 39 45 41 46 44 47 40 49
REMARK SMILES IDX 42 51 8 53 9 54 10 55 11 56 19 57 12 58 17 59 13 60 15 61
REMARK SMILES IDX 18 62 14 64 16 66 21 68 22 69 23 70 24 71 32 72 25 73 30 74
REMARK SMILES IDX 26 75 28 76 31 77 27 79 29 81
REMARK H PARENT 62 18 64 20 66 22 57 33 53 35 55 37 44 48 40 50 42 52 18 63
REMARK H PARENT 14 65 16 67 31 78 27 80 29 82
REMARK Flexibility Score: inf
ROOT
ATOM      1  C   UNL     1      18.195  33.254  52.620  1.00  0.00     0.205 C 
ATOM      2  C   UNL     1      16.989  33.543  51.707  1.00  0.00     0.254 C 
ATOM      3  C   UNL     1      17.493  34.394  50.536  1.00  0.00     0.267 C 
ATOM      4  C   UNL     1      18.626  33.651  49.806  1.00  0.00     0.290 C 
ATOM      5  C   UNL     1      19.710  33.229  50.824  1.00  0.00     0.357 C 
ATOM      6  O   UNL     1      19.169  32.495  51.916  1.00  0.00    -0.329 OA
ENDROOT
BRANCH   1   7
ATOM      7  C   UNL     1      17.792  32.497  53.899  1.00  0.00     0.269 C 
BRANCH   7   8
ATOM      8  O   UNL     1      16.737  33.196  54.552  1.00  0.00    -0.459 OA
BRANCH   8   9
ATOM      9  C   UNL     1      15.910  32.586  55.505  1.00  0.00     0.338 C 
ATOM     10  O   UNL     1      16.376  31.679  56.255  1.00  0.00    -0.246 OA
BRANCH   9  11
ATOM     11  C   UNL     1      14.490  32.978  55.610  1.00  0.00     0.067 A 
ATOM     12  C   UNL     1      13.705  32.514  56.674  1.00  0.00     0.066 A 
ATOM     13  C   UNL     1      12.348  32.833  56.759  1.00  0.00     0.162 A 
ATOM     14  C   UNL     1      13.897  33.787  54.619  1.00  0.00     0.066 A 
ATOM     15  C   UNL     1      11.746  33.614  55.744  1.00  0.00     0.200 A 
ATOM     16  C   UNL     1      12.533  34.092  54.680  1.00  0.00     0.162 A 
BRANCH  13  17
ATOM     17  O   UNL     1      11.642  32.367  57.868  1.00  0.00    -0.504 OA
ATOM     18  H   UNL     1      11.599  31.398  58.135  1.00  0.00     0.293 HD
ENDBRANCH  13  17
BRANCH  15  19
ATOM     19  O   UNL     1      10.383  33.926  55.759  1.00  0.00    -0.502 OA
ATOM     20  H   UNL     1       9.811  34.027  54.934  1.00  0.00     0.293 HD
ENDBRANCH  15  19
BRANCH  16  21
ATOM     21  O   UNL     1      11.977  34.872  53.666  1.00  0.00    -0.504 OA
ATOM     22  H   UNL     1      12.164  35.864  53.587  1.00  0.00     0.293 HD
ENDBRANCH  16  21
ENDBRANCH   9  11
ENDBRANCH   8   9
ENDBRANCH   7   8
ENDBRANCH   1   7
BRANCH   2  23
ATOM     23  O   UNL     1      16.451  32.323  51.195  1.00  0.00    -0.452 OA
BRANCH  23  24
ATOM     24  C   UNL     1      15.173  31.836  51.501  1.00  0.00     0.338 C 
ATOM     25  O   UNL     1      15.015  31.064  52.482  1.00  0.00    -0.246 OA
BRANCH  24  26
ATOM     26  C   UNL     1      14.018  32.252  50.676  1.00  0.00     0.067 A 
ATOM     27  C   UNL     1      12.856  32.777  51.273  1.00  0.00     0.066 A 
ATOM     28  C   UNL     1      14.048  32.075  49.283  1.00  0.00     0.066 A 
ATOM     29  C   UNL     1      11.737  33.106  50.491  1.00  0.00     0.162 A 
ATOM     30  C   UNL     1      12.939  32.411  48.499  1.00  0.00     0.162 A 
ATOM     31  C   UNL     1      11.780  32.926  49.098  1.00  0.00     0.200 A 
BRANCH  29  32
ATOM     32  O   UNL     1      10.584  33.605  51.091  1.00  0.00    -0.504 OA
ATOM     33  H   UNL     1       9.663  33.279  50.821  1.00  0.00     0.293 HD
ENDBRANCH  29  32
BRANCH  30  34
ATOM     34  O   UNL     1      13.008  32.219  47.121  1.00  0.00    -0.504 OA
ATOM     35  H   UNL     1      13.870  32.347  46.600  1.00  0.00     0.293 HD
ENDBRANCH  30  34
BRANCH  31  36
ATOM     36  O   UNL     1      10.683  33.243  48.299  1.00  0.00    -0.502 OA
ATOM     37  H   UNL     1      10.771  33.787  47.451  1.00  0.00     0.293 HD
ENDBRANCH  31  36
ENDBRANCH  24  26
ENDBRANCH  23  24
ENDBRANCH   2  23
BRANCH   3  38
ATOM     38  O   UNL     1      16.420  34.703  49.648  1.00  0.00    -0.450 OA
BRANCH  38  39
ATOM     39  C   UNL     1      15.876  35.991  49.539  1.00  0.00     0.338 C 
ATOM     40  O   UNL     1      16.636  36.996  49.504  1.00  0.00    -0.246 OA
BRANCH  39  41
ATOM     41  C   UNL     1      14.410  36.173  49.443  1.00  0.00     0.067 A 
ATOM     42  C   UNL     1      13.665  36.544  50.576  1.00  0.00     0.066 A 
ATOM     43  C   UNL     1      13.749  35.981  48.219  1.00  0.00     0.066 A 
ATOM     44  C   UNL     1      12.281  36.716  50.490  1.00  0.00     0.162 A 
ATOM     45  C   UNL     1      12.364  36.147  48.121  1.00  0.00     0.162 A 
ATOM     46  C   UNL     1      11.616  36.509  49.271  1.00  0.00     0.200 A 
BRANCH  44  47
ATOM     47  O   UNL     1      11.560  37.098  51.623  1.00  0.00    -0.504 OA
ATOM     48  H   UNL     1      11.695  38.006  52.061  1.00  0.00     0.293 HD
ENDBRANCH  44  47
BRANCH  45  49
ATOM     49  O   UNL     1      11.776  35.939  46.873  1.00  0.00    -0.504 OA
ATOM     50  H   UNL     1      11.845  36.585  46.100  1.00  0.00     0.293 HD
ENDBRANCH  45  49
BRANCH  46  51
ATOM     51  O   UNL     1      10.227  36.669  49.252  1.00  0.00    -0.502 OA
ATOM     52  H   UNL     1       9.735  37.220  48.558  1.00  0.00     0.293 HD
ENDBRANCH  46  51
ENDBRANCH  39  41
ENDBRANCH  38  39
ENDBRANCH   3  38
BRANCH   5  53
ATOM     53  O   UNL     1      20.432  34.370  51.285  1.00  0.00    -0.428 OA
BRANCH  53  54
ATOM     54  C   UNL     1      21.824  34.487  51.195  1.00  0.00     0.340 C 
ATOM     55  O   UNL     1      22.532  34.541  52.233  1.00  0.00    -0.246 OA
BRANCH  54  56
ATOM     56  C   UNL     1      22.458  34.541  49.868  1.00  0.00     0.067 A 
ATOM     57  C   UNL     1      22.522  35.742  49.151  1.00  0.00     0.066 A 
ATOM     58  C   UNL     1      23.020  33.384  49.316  1.00  0.00     0.066 A 
ATOM     59  C   UNL     1      23.166  35.808  47.909  1.00  0.00     0.162 A 
ATOM     60  C   UNL     1      23.641  33.419  48.067  1.00  0.00     0.162 A 
ATOM     61  C   UNL     1      23.737  34.633  47.356  1.00  0.00     0.200 A 
BRANCH  59  62
ATOM     62  O   UNL     1      23.216  37.052  47.273  1.00  0.00    -0.504 OA
ATOM     63  H   UNL     1      23.558  37.193  46.329  1.00  0.00     0.293 HD
ENDBRANCH  59  62
BRANCH  60  64
ATOM     64  O   UNL     1      24.153  32.231  47.545  1.00  0.00    -0.504 OA
ATOM     65  H   UNL     1      23.826  31.846  46.665  1.00  0.00     0.293 HD
ENDBRANCH  60  64
BRANCH  61  66
ATOM     66  O   UNL     1      24.402  34.637  46.120  1.00  0.00    -0.502 OA
ATOM     67  H   UNL     1      25.267  35.128  45.944  1.00  0.00     0.293 HD
ENDBRANCH  61  66
ENDBRANCH  54  56
ENDBRANCH  53  54
ENDBRANCH   5  53
BRANCH   4  68
ATOM     68  O   UNL     1      19.233  34.506  48.840  1.00  0.00    -0.448 OA
BRANCH  68  69
ATOM     69  C   UNL     1      19.213  34.274  47.461  1.00  0.00     0.339 C 
ATOM     70  O   UNL     1      20.279  33.982  46.850  1.00  0.00    -0.246 OA
BRANCH  69  71
ATOM     71  C   UNL     1      17.939  34.388  46.722  1.00  0.00     0.067 A 
ATOM     72  C   UNL     1      17.440  35.637  46.334  1.00  0.00     0.066 A 
ATOM     73  C   UNL     1      17.211  33.234  46.389  1.00  0.00     0.066 A 
ATOM     74  C   UNL     1      16.241  35.740  45.613  1.00  0.00     0.162 A 
ATOM     75  C   UNL     1      16.017  33.324  45.667  1.00  0.00     0.162 A 
ATOM     76  C   UNL     1      15.527  34.578  45.275  1.00  0.00     0.200 A 
BRANCH  74  77
ATOM     77  O   UNL     1      15.761  36.990  45.222  1.00  0.00    -0.504 OA
ATOM     78  H   UNL     1      15.328  37.132  44.315  1.00  0.00     0.293 HD
ENDBRANCH  74  77
BRANCH  75  79
ATOM     79  O   UNL     1      15.330  32.152  45.345  1.00  0.00    -0.504 OA
ATOM     80  H   UNL     1      14.755  31.661  46.016  1.00  0.00     0.293 HD
ENDBRANCH  75  79
BRANCH  76  81
ATOM     81  O   UNL     1      14.333  34.659  44.554  1.00  0.00    -0.502 OA
ATOM     82  H   UNL     1      14.185  35.341  43.825  1.00  0.00     0.293 HD
ENDBRANCH  76  81
ENDBRANCH  69  71
ENDBRANCH  68  69
ENDBRANCH   4  68
TORSDOF 31
ENDMDL
MODEL 6
REMARK VINA RESULT:    -5.705      2.572      6.915
REMARK INTER + INTRA:         -20.439
REMARK INTER:                 -14.244
REMARK INTRA:                  -6.194
REMARK UNBOUND:                -6.896
REMARK SMILES O=C(OC[C@H]1O[C@H](OC(=O)c2cc(O)c(O)c(O)c2)[C@H](OC(=O)c2cc(O)c(O)c(O)c2)[C@@H](OC(=O)c2cc(O)c(O)c(O)c2)[C@H]1OC(=O)c1cc(O)c(O)c(O)c1)c1cc(O)c(O)c(O)c1
REMARK SMILES IDX 5 1 46 2 33 3 20 4 7 5 6 6 4 7 3 8 2 9 1 10 59 11 60 12
REMARK SMILES IDX 61 13 67 14 63 15 65 16 62 17 64 19 66 21 47 23 48 24 49 25
REMARK SMILES IDX 50 26 58 27 51 28 56 29 52 30 54 31 57 32 53 34 55 36 34 38
REMARK SMILES IDX 35 39 36 40 37 41 45 42 38 43 43 44 39 45 41 46 44 47 40 49
REMARK SMILES IDX 42 51 8 53 9 54 10 55 11 56 19 57 12 58 17 59 13 60 15 61
REMARK SMILES IDX 18 62 14 64 16 66 21 68 22 69 23 70 24 71 32 72 25 73 30 74
REMARK SMILES IDX 26 75 28 76 31 77 27 79 29 81
REMARK H PARENT 62 18 64 20 66 22 57 33 53 35 55 37 44 48 40 50 42 52 18 63
REMARK H PARENT 14 65 16 67 31 78 27 80 29 82
REMARK Flexibility Score: inf
ROOT
ATOM      1  C   UNL     1      17.081  33.734  51.271  1.00  0.00     0.205 C 
ATOM      2  C   UNL     1      15.742  34.466  51.478  1.00  0.00     0.254 C 
ATOM      3  C   UNL     1      14.940  33.674  52.516  1.00  0.00     0.267 C 
ATOM      4  C   UNL     1      15.757  33.551  53.816  1.00  0.00     0.290 C 
ATOM      5  C   UNL     1      17.158  32.982  53.496  1.00  0.00     0.357 C 
ATOM      6  O   UNL     1      17.824  33.725  52.483  1.00  0.00    -0.329 OA
ENDROOT
BRANCH   1   7
ATOM      7  C   UNL     1      17.933  34.374  50.160  1.00  0.00     0.269 C 
BRANCH   7   8
ATOM      8  O   UNL     1      19.236  33.799  50.170  1.00  0.00    -0.459 OA
BRANCH   8   9
ATOM      9  C   UNL     1      20.120  33.926  49.090  1.00  0.00     0.338 C 
ATOM     10  O   UNL     1      19.932  33.249  48.039  1.00  0.00    -0.246 OA
BRANCH   9  11
ATOM     11  C   UNL     1      21.288  34.825  49.195  1.00  0.00     0.067 A 
ATOM     12  C   UNL     1      21.886  35.065  50.439  1.00  0.00     0.066 A 
ATOM     13  C   UNL     1      22.958  35.952  50.562  1.00  0.00     0.162 A 
ATOM     14  C   UNL     1      21.786  35.485  48.053  1.00  0.00     0.066 A 
ATOM     15  C   UNL     1      23.433  36.641  49.422  1.00  0.00     0.200 A 
ATOM     16  C   UNL     1      22.843  36.395  48.168  1.00  0.00     0.162 A 
BRANCH  13  17
ATOM     17  O   UNL     1      23.525  36.109  51.827  1.00  0.00    -0.504 OA
ATOM     18  H   UNL     1      23.017  35.984  52.686  1.00  0.00     0.293 HD
ENDBRANCH  13  17
BRANCH  15  19
ATOM     19  O   UNL     1      24.474  37.572  49.498  1.00  0.00    -0.502 OA
ATOM     20  H   UNL     1      25.225  37.644  48.829  1.00  0.00     0.293 HD
ENDBRANCH  15  19
BRANCH  16  21
ATOM     21  O   UNL     1      23.289  37.049  47.020  1.00  0.00    -0.504 OA
ATOM     22  H   UNL     1      24.138  37.602  47.012  1.00  0.00     0.293 HD
ENDBRANCH  16  21
ENDBRANCH   9  11
ENDBRANCH   8   9
ENDBRANCH   7   8
ENDBRANCH   1   7
BRANCH   2  23
ATOM     23  O   UNL     1      15.971  35.785  51.975  1.00  0.00    -0.452 OA
BRANCH  23  24
ATOM     24  C   UNL     1      15.598  36.957  51.302  1.00  0.00     0.338 C 
ATOM     25  O   UNL     1      16.094  38.061  51.646  1.00  0.00    -0.246 OA
BRANCH  24  26
ATOM     26  C   UNL     1      14.637  36.878  50.180  1.00  0.00     0.067 A 
ATOM     27  C   UNL     1      13.260  36.717  50.420  1.00  0.00     0.066 A 
ATOM     28  C   UNL     1      15.100  36.907  48.854  1.00  0.00     0.066 A 
ATOM     29  C   UNL     1      12.361  36.574  49.349  1.00  0.00     0.162 A 
ATOM     30  C   UNL     1      14.207  36.775  47.786  1.00  0.00     0.162 A 
ATOM     31  C   UNL     1      12.836  36.606  48.028  1.00  0.00     0.200 A 
BRANCH  29  32
ATOM     32  O   UNL     1      11.002  36.394  49.595  1.00  0.00    -0.504 OA
ATOM     33  H   UNL     1      10.612  35.474  49.764  1.00  0.00     0.293 HD
ENDBRANCH  29  32
BRANCH  30  34
ATOM     34  O   UNL     1      14.706  36.807  46.486  1.00  0.00    -0.504 OA
ATOM     35  H   UNL     1      15.451  37.439  46.209  1.00  0.00     0.293 HD
ENDBRANCH  30  34
BRANCH  31  36
ATOM     36  O   UNL     1      11.966  36.465  46.949  1.00  0.00    -0.502 OA
ATOM     37  H   UNL     1      10.964  36.567  47.044  1.00  0.00     0.293 HD
ENDBRANCH  31  36
ENDBRANCH  24  26
ENDBRANCH  23  24
ENDBRANCH   2  23
BRANCH   3  38
ATOM     38  O   UNL     1      13.680  34.299  52.754  1.00  0.00    -0.450 OA
BRANCH  38  39
ATOM     39  C   UNL     1      12.460  33.636  52.562  1.00  0.00     0.338 C 
ATOM     40  O   UNL     1      12.003  33.479  51.397  1.00  0.00    -0.246 OA
BRANCH  39  41
ATOM     41  C   UNL     1      11.714  33.100  53.722  1.00  0.00     0.067 A 
ATOM     42  C   UNL     1      11.837  31.746  54.081  1.00  0.00     0.066 A 
ATOM     43  C   UNL     1      10.879  33.937  54.479  1.00  0.00     0.066 A 
ATOM     44  C   UNL     1      11.134  31.235  55.175  1.00  0.00     0.162 A 
ATOM     45  C   UNL     1      10.167  33.437  55.574  1.00  0.00     0.162 A 
ATOM     46  C   UNL     1      10.286  32.067  55.924  1.00  0.00     0.200 A 
BRANCH  44  47
ATOM     47  O   UNL     1      11.279  29.891  55.525  1.00  0.00    -0.504 OA
ATOM     48  H   UNL     1      12.185  29.498  55.769  1.00  0.00     0.293 HD
ENDBRANCH  44  47
BRANCH  45  49
ATOM     49  O   UNL     1       9.358  34.328  56.278  1.00  0.00    -0.504 OA
ATOM     50  H   UNL     1       9.262  35.307  56.051  1.00  0.00     0.293 HD
ENDBRANCH  45  49
BRANCH  46  51
ATOM     51  O   UNL     1       9.587  31.495  56.990  1.00  0.00    -0.502 OA
ATOM     52  H   UNL     1       9.866  31.588  57.960  1.00  0.00     0.293 HD
ENDBRANCH  46  51
ENDBRANCH  39  41
ENDBRANCH  38  39
ENDBRANCH   3  38
BRANCH   5  53
ATOM     53  O   UNL     1      17.067  31.603  53.141  1.00  0.00    -0.428 OA
BRANCH  53  54
ATOM     54  C   UNL     1      17.814  30.598  53.765  1.00  0.00     0.340 C 
ATOM     55  O   UNL     1      19.014  30.398  53.445  1.00  0.00    -0.246 OA
BRANCH  54  56
ATOM     56  C   UNL     1      17.184  29.773  54.808  1.00  0.00     0.067 A 
ATOM     57  C   UNL     1      17.946  29.231  55.851  1.00  0.00     0.066 A 
ATOM     58  C   UNL     1      15.806  29.536  54.772  1.00  0.00     0.066 A 
ATOM     59  C   UNL     1      17.343  28.485  56.872  1.00  0.00     0.162 A 
ATOM     60  C   UNL     1      15.188  28.772  55.762  1.00  0.00     0.162 A 
ATOM     61  C   UNL     1      15.944  28.251  56.833  1.00  0.00     0.200 A 
BRANCH  59  62
ATOM     62  O   UNL     1      18.167  28.009  57.896  1.00  0.00    -0.504 OA
ATOM     63  H   UNL     1      18.147  27.056  58.243  1.00  0.00     0.293 HD
ENDBRANCH  59  62
BRANCH  60  64
ATOM     64  O   UNL     1      13.817  28.534  55.661  1.00  0.00    -0.504 OA
ATOM     65  H   UNL     1      13.449  27.636  55.363  1.00  0.00     0.293 HD
ENDBRANCH  60  64
BRANCH  61  66
ATOM     66  O   UNL     1      15.282  27.519  57.830  1.00  0.00    -0.502 OA
ATOM     67  H   UNL     1      14.890  26.597  57.691  1.00  0.00     0.293 HD
ENDBRANCH  61  66
ENDBRANCH  54  56
ENDBRANCH  53  54
ENDBRANCH   5  53
BRANCH   4  68
ATOM     68  O   UNL     1      15.110  32.658  54.720  1.00  0.00    -0.448 OA
BRANCH  68  69
ATOM     69  C   UNL     1      14.658  33.018  55.993  1.00  0.00     0.339 C 
ATOM     70  O   UNL     1      13.859  33.986  56.134  1.00  0.00    -0.246 OA
BRANCH  69  71
ATOM     71  C   UNL     1      15.132  32.267  57.174  1.00  0.00     0.067 A 
ATOM     72  C   UNL     1      16.495  32.214  57.494  1.00  0.00     0.066 A 
ATOM     73  C   UNL     1      14.215  31.598  58.000  1.00  0.00     0.066 A 
ATOM     74  C   UNL     1      16.939  31.518  58.628  1.00  0.00     0.162 A 
ATOM     75  C   UNL     1      14.647  30.904  59.135  1.00  0.00     0.162 A 
ATOM     76  C   UNL     1      16.012  30.863  59.455  1.00  0.00     0.200 A 
BRANCH  74  77
ATOM     77  O   UNL     1      18.298  31.485  58.944  1.00  0.00    -0.504 OA
ATOM     78  H   UNL     1      18.998  31.863  58.314  1.00  0.00     0.293 HD
ENDBRANCH  74  77
BRANCH  75  79
ATOM     79  O   UNL     1      13.702  30.263  59.937  1.00  0.00    -0.504 OA
ATOM     80  H   UNL     1      12.928  29.741  59.549  1.00  0.00     0.293 HD
ENDBRANCH  75  79
BRANCH  76  81
ATOM     81  O   UNL     1      16.435  30.168  60.590  1.00  0.00    -0.502 OA
ATOM     82  H   UNL     1      17.291  29.634  60.612  1.00  0.00     0.293 HD
ENDBRANCH  76  81
ENDBRANCH  69  71
ENDBRANCH  68  69
ENDBRANCH   4  68
TORSDOF 31
ENDMDL
MODEL 7
REMARK VINA RESULT:    -5.642      2.646      6.719
REMARK INTER + INTRA:         -20.289
REMARK INTER:                 -11.762
REMARK INTRA:                  -8.527
REMARK UNBOUND:                -6.896
REMARK SMILES O=C(OC[C@H]1O[C@H](OC(=O)c2cc(O)c(O)c(O)c2)[C@H](OC(=O)c2cc(O)c(O)c(O)c2)[C@@H](OC(=O)c2cc(O)c(O)c(O)c2)[C@H]1OC(=O)c1cc(O)c(O)c(O)c1)c1cc(O)c(O)c(O)c1
REMARK SMILES IDX 5 1 46 2 33 3 20 4 7 5 6 6 4 7 3 8 2 9 1 10 59 11 60 12
REMARK SMILES IDX 61 13 67 14 63 15 65 16 62 17 64 19 66 21 47 23 48 24 49 25
REMARK SMILES IDX 50 26 58 27 51 28 56 29 52 30 54 31 57 32 53 34 55 36 34 38
REMARK SMILES IDX 35 39 36 40 37 41 45 42 38 43 43 44 39 45 41 46 44 47 40 49
REMARK SMILES IDX 42 51 8 53 9 54 10 55 11 56 19 57 12 58 17 59 13 60 15 61
REMARK SMILES IDX 18 62 14 64 16 66 21 68 22 69 23 70 24 71 32 72 25 73 30 74
REMARK SMILES IDX 26 75 28 76 31 77 27 79 29 81
REMARK H PARENT 62 18 64 20 66 22 57 33 53 35 55 37 44 48 40 50 42 52 18 63
REMARK H PARENT 14 65 16 67 31 78 27 80 29 82
REMARK Flexibility Score: inf
ROOT
ATOM      1  C   UNL     1      16.946  32.404  48.403  1.00  0.00     0.205 C 
ATOM      2  C   UNL     1      17.533  33.821  48.541  1.00  0.00     0.254 C 
ATOM      3  C   UNL     1      16.845  34.488  49.737  1.00  0.00     0.267 C 
ATOM      4  C   UNL     1      17.057  33.632  50.999  1.00  0.00     0.290 C 
ATOM      5  C   UNL     1      16.617  32.177  50.719  1.00  0.00     0.357 C 
ATOM      6  O   UNL     1      17.244  31.637  49.562  1.00  0.00    -0.329 OA
ENDROOT
BRANCH   1   7
ATOM      7  C   UNL     1      17.478  31.669  47.160  1.00  0.00     0.269 C 
BRANCH   7   8
ATOM      8  O   UNL     1      16.392  31.347  46.297  1.00  0.00    -0.459 OA
BRANCH   8   9
ATOM      9  C   UNL     1      15.431  32.293  45.915  1.00  0.00     0.338 C 
ATOM     10  O   UNL     1      15.755  33.245  45.147  1.00  0.00    -0.246 OA
BRANCH   9  11
ATOM     11  C   UNL     1      14.052  32.197  46.436  1.00  0.00     0.067 A 
ATOM     12  C   UNL     1      13.163  33.270  46.286  1.00  0.00     0.066 A 
ATOM     13  C   UNL     1      11.873  33.214  46.818  1.00  0.00     0.162 A 
ATOM     14  C   UNL     1      13.629  31.043  47.127  1.00  0.00     0.066 A 
ATOM     15  C   UNL     1      11.463  32.071  47.544  1.00  0.00     0.200 A 
ATOM     16  C   UNL     1      12.348  30.987  47.687  1.00  0.00     0.162 A 
BRANCH  13  17
ATOM     17  O   UNL     1      11.033  34.306  46.594  1.00  0.00    -0.504 OA
ATOM     18  H   UNL     1      10.229  34.276  45.991  1.00  0.00     0.293 HD
ENDBRANCH  13  17
BRANCH  15  19
ATOM     19  O   UNL     1      10.198  31.982  48.134  1.00  0.00    -0.502 OA
ATOM     20  H   UNL     1       9.949  32.399  49.017  1.00  0.00     0.293 HD
ENDBRANCH  15  19
BRANCH  16  21
ATOM     21  O   UNL     1      11.975  29.839  48.387  1.00  0.00    -0.504 OA
ATOM     22  H   UNL     1      12.030  29.784  49.397  1.00  0.00     0.293 HD
ENDBRANCH  16  21
ENDBRANCH   9  11
ENDBRANCH   8   9
ENDBRANCH   7   8
ENDBRANCH   1   7
BRANCH   2  23
ATOM     23  O   UNL     1      18.937  33.753  48.792  1.00  0.00    -0.452 OA
BRANCH  23  24
ATOM     24  C   UNL     1      19.897  34.512  48.109  1.00  0.00     0.338 C 
ATOM     25  O   UNL     1      19.765  34.725  46.876  1.00  0.00    -0.246 OA
BRANCH  24  26
ATOM     26  C   UNL     1      21.048  35.072  48.852  1.00  0.00     0.067 A 
ATOM     27  C   UNL     1      21.997  35.885  48.205  1.00  0.00     0.066 A 
ATOM     28  C   UNL     1      21.234  34.751  50.206  1.00  0.00     0.066 A 
ATOM     29  C   UNL     1      23.124  36.357  48.899  1.00  0.00     0.162 A 
ATOM     30  C   UNL     1      22.349  35.227  50.904  1.00  0.00     0.162 A 
ATOM     31  C   UNL     1      23.299  36.029  50.254  1.00  0.00     0.200 A 
BRANCH  29  32
ATOM     32  O   UNL     1      24.071  37.143  48.247  1.00  0.00    -0.504 OA
ATOM     33  H   UNL     1      23.957  38.146  48.160  1.00  0.00     0.293 HD
ENDBRANCH  29  32
BRANCH  30  34
ATOM     34  O   UNL     1      22.499  34.884  52.245  1.00  0.00    -0.504 OA
ATOM     35  H   UNL     1      21.901  35.267  52.971  1.00  0.00     0.293 HD
ENDBRANCH  30  34
BRANCH  31  36
ATOM     36  O   UNL     1      24.408  36.483  50.965  1.00  0.00    -0.502 OA
ATOM     37  H   UNL     1      24.526  36.307  51.954  1.00  0.00     0.293 HD
ENDBRANCH  31  36
ENDBRANCH  24  26
ENDBRANCH  23  24
ENDBRANCH   2  23
BRANCH   3  38
ATOM     38  O   UNL     1      17.342  35.813  49.922  1.00  0.00    -0.450 OA
BRANCH  38  39
ATOM     39  C   UNL     1      16.546  36.952  49.737  1.00  0.00     0.338 C 
ATOM     40  O   UNL     1      17.072  38.098  49.738  1.00  0.00    -0.246 OA
BRANCH  39  41
ATOM     41  C   UNL     1      15.089  36.812  49.519  1.00  0.00     0.067 A 
ATOM     42  C   UNL     1      14.216  36.677  50.613  1.00  0.00     0.066 A 
ATOM     43  C   UNL     1      14.561  36.818  48.218  1.00  0.00     0.066 A 
ATOM     44  C   UNL     1      12.840  36.544  50.412  1.00  0.00     0.162 A 
ATOM     45  C   UNL     1      13.186  36.681  48.003  1.00  0.00     0.162 A 
ATOM     46  C   UNL     1      12.312  36.532  49.111  1.00  0.00     0.200 A 
BRANCH  44  47
ATOM     47  O   UNL     1      11.988  36.424  51.512  1.00  0.00    -0.504 OA
ATOM     48  H   UNL     1      12.328  36.111  52.418  1.00  0.00     0.293 HD
ENDBRANCH  44  47
BRANCH  45  49
ATOM     49  O   UNL     1      12.735  36.695  46.683  1.00  0.00    -0.504 OA
ATOM     50  H   UNL     1      11.934  37.221  46.364  1.00  0.00     0.293 HD
ENDBRANCH  45  49
BRANCH  46  51
ATOM     51  O   UNL     1      10.932  36.368  48.970  1.00  0.00    -0.502 OA
ATOM     52  H   UNL     1      10.491  35.481  48.753  1.00  0.00     0.293 HD
ENDBRANCH  46  51
ENDBRANCH  39  41
ENDBRANCH  38  39
ENDBRANCH   3  38
BRANCH   5  53
ATOM     53  O   UNL     1      15.196  32.097  50.612  1.00  0.00    -0.428 OA
BRANCH  53  54
ATOM     54  C   UNL     1      14.417  31.215  51.369  1.00  0.00     0.340 C 
ATOM     55  O   UNL     1      14.900  30.135  51.795  1.00  0.00    -0.246 OA
BRANCH  54  56
ATOM     56  C   UNL     1      13.020  31.565  51.671  1.00  0.00     0.067 A 
ATOM     57  C   UNL     1      12.316  30.900  52.682  1.00  0.00     0.066 A 
ATOM     58  C   UNL     1      12.385  32.584  50.951  1.00  0.00     0.066 A 
ATOM     59  C   UNL     1      11.002  31.262  53.004  1.00  0.00     0.162 A 
ATOM     60  C   UNL     1      11.067  32.942  51.236  1.00  0.00     0.162 A 
ATOM     61  C   UNL     1      10.364  32.298  52.275  1.00  0.00     0.200 A 
BRANCH  59  62
ATOM     62  O   UNL     1      10.380  30.572  54.050  1.00  0.00    -0.504 OA
ATOM     63  H   UNL     1      10.882  30.079  54.781  1.00  0.00     0.293 HD
ENDBRANCH  59  62
BRANCH  60  64
ATOM     64  O   UNL     1      10.467  33.939  50.466  1.00  0.00    -0.504 OA
ATOM     65  H   UNL     1      10.766  34.136  49.516  1.00  0.00     0.293 HD
ENDBRANCH  60  64
BRANCH  61  66
ATOM     66  O   UNL     1       9.053  32.710  52.556  1.00  0.00    -0.502 OA
ATOM     67  H   UNL     1       8.624  32.654  53.469  1.00  0.00     0.293 HD
ENDBRANCH  61  66
ENDBRANCH  54  56
ENDBRANCH  53  54
ENDBRANCH   5  53
BRANCH   4  68
ATOM     68  O   UNL     1      16.265  34.136  52.074  1.00  0.00    -0.448 OA
BRANCH  68  69
ATOM     69  C   UNL     1      16.350  33.682  53.393  1.00  0.00     0.339 C 
ATOM     70  O   UNL     1      17.469  33.368  53.888  1.00  0.00    -0.246 OA
BRANCH  69  71
ATOM     71  C   UNL     1      15.119  33.559  54.201  1.00  0.00     0.067 A 
ATOM     72  C   UNL     1      15.113  32.837  55.401  1.00  0.00     0.066 A 
ATOM     73  C   UNL     1      13.931  34.175  53.776  1.00  0.00     0.066 A 
ATOM     74  C   UNL     1      13.948  32.740  56.176  1.00  0.00     0.162 A 
ATOM     75  C   UNL     1      12.765  34.089  54.542  1.00  0.00     0.162 A 
ATOM     76  C   UNL     1      12.768  33.371  55.747  1.00  0.00     0.200 A 
BRANCH  74  77
ATOM     77  O   UNL     1      13.960  32.029  57.376  1.00  0.00    -0.504 OA
ATOM     78  H   UNL     1      13.121  31.920  57.937  1.00  0.00     0.293 HD
ENDBRANCH  74  77
BRANCH  75  79
ATOM     79  O   UNL     1      11.608  34.727  54.090  1.00  0.00    -0.504 OA
ATOM     80  H   UNL     1      11.303  35.617  54.459  1.00  0.00     0.293 HD
ENDBRANCH  75  79
BRANCH  76  81
ATOM     81  O   UNL     1      11.600  33.289  56.507  1.00  0.00    -0.502 OA
ATOM     82  H   UNL     1      11.516  32.686  57.311  1.00  0.00     0.293 HD
ENDBRANCH  76  81
ENDBRANCH  69  71
ENDBRANCH  68  69
ENDBRANCH   4  68
TORSDOF 31
ENDMDL
MODEL 8
REMARK VINA RESULT:    -5.615      1.797      3.814
REMARK INTER + INTRA:         -20.225
REMARK INTER:                 -12.847
REMARK INTRA:                  -7.379
REMARK UNBOUND:                -6.896
REMARK SMILES O=C(OC[C@H]1O[C@H](OC(=O)c2cc(O)c(O)c(O)c2)[C@H](OC(=O)c2cc(O)c(O)c(O)c2)[C@@H](OC(=O)c2cc(O)c(O)c(O)c2)[C@H]1OC(=O)c1cc(O)c(O)c(O)c1)c1cc(O)c(O)c(O)c1
REMARK SMILES IDX 5 1 46 2 33 3 20 4 7 5 6 6 4 7 3 8 2 9 1 10 59 11 60 12
REMARK SMILES IDX 61 13 67 14 63 15 65 16 62 17 64 19 66 21 47 23 48 24 49 25
REMARK SMILES IDX 50 26 58 27 51 28 56 29 52 30 54 31 57 32 53 34 55 36 34 38
REMARK SMILES IDX 35 39 36 40 37 41 45 42 38 43 43 44 39 45 41 46 44 47 40 49
REMARK SMILES IDX 42 51 8 53 9 54 10 55 11 56 19 57 12 58 17 59 13 60 15 61
REMARK SMILES IDX 18 62 14 64 16 66 21 68 22 69 23 70 24 71 32 72 25 73 30 74
REMARK SMILES IDX 26 75 28 76 31 77 27 79 29 81
REMARK H PARENT 62 18 64 20 66 22 57 33 53 35 55 37 44 48 40 50 42 52 18 63
REMARK H PARENT 14 65 16 67 31 78 27 80 29 82
REMARK Flexibility Score: inf
ROOT
ATOM      1  C   UNL     1      12.533  34.071  52.084  1.00  0.00     0.205 C 
ATOM      2  C   UNL     1      13.959  33.826  51.559  1.00  0.00     0.254 C 
ATOM      3  C   UNL     1      14.808  33.347  52.742  1.00  0.00     0.267 C 
ATOM      4  C   UNL     1      14.176  32.084  53.355  1.00  0.00     0.290 C 
ATOM      5  C   UNL     1      12.689  32.355  53.682  1.00  0.00     0.357 C 
ATOM      6  O   UNL     1      11.972  32.855  52.560  1.00  0.00    -0.329 OA
ENDROOT
BRANCH   1   7
ATOM      7  C   UNL     1      11.607  34.667  51.007  1.00  0.00     0.269 C 
BRANCH   7   8
ATOM      8  O   UNL     1      11.925  36.041  50.816  1.00  0.00    -0.459 OA
BRANCH   8   9
ATOM      9  C   UNL     1      12.455  36.529  49.613  1.00  0.00     0.338 C 
ATOM     10  O   UNL     1      11.737  36.553  48.572  1.00  0.00    -0.246 OA
BRANCH   9  11
ATOM     11  C   UNL     1      13.860  36.982  49.555  1.00  0.00     0.067 A 
ATOM     12  C   UNL     1      14.556  36.971  48.339  1.00  0.00     0.066 A 
ATOM     13  C   UNL     1      15.900  37.347  48.278  1.00  0.00     0.162 A 
ATOM     14  C   UNL     1      14.528  37.388  50.729  1.00  0.00     0.066 A 
ATOM     15  C   UNL     1      16.580  37.719  49.462  1.00  0.00     0.200 A 
ATOM     16  C   UNL     1      15.881  37.742  50.683  1.00  0.00     0.162 A 
BRANCH  13  17
ATOM     17  O   UNL     1      16.515  37.348  47.025  1.00  0.00    -0.504 OA
ATOM     18  H   UNL     1      16.636  36.523  46.463  1.00  0.00     0.293 HD
ENDBRANCH  13  17
BRANCH  15  19
ATOM     19  O   UNL     1      17.936  38.062  49.462  1.00  0.00    -0.502 OA
ATOM     20  H   UNL     1      18.667  37.499  49.869  1.00  0.00     0.293 HD
ENDBRANCH  15  19
BRANCH  16  21
ATOM     21  O   UNL     1      16.515  38.111  51.870  1.00  0.00    -0.504 OA
ATOM     22  H   UNL     1      16.557  39.075  52.179  1.00  0.00     0.293 HD
ENDBRANCH  16  21
ENDBRANCH   9  11
ENDBRANCH   8   9
ENDBRANCH   7   8
ENDBRANCH   1   7
BRANCH   2  23
ATOM     23  O   UNL     1      13.950  32.810  50.554  1.00  0.00    -0.452 OA
BRANCH  23  24
ATOM     24  C   UNL     1      14.135  33.054  49.186  1.00  0.00     0.338 C 
ATOM     25  O   UNL     1      13.178  33.481  48.491  1.00  0.00    -0.246 OA
BRANCH  24  26
ATOM     26  C   UNL     1      15.465  32.823  48.579  1.00  0.00     0.067 A 
ATOM     27  C   UNL     1      16.225  31.689  48.918  1.00  0.00     0.066 A 
ATOM     28  C   UNL     1      16.008  33.769  47.695  1.00  0.00     0.066 A 
ATOM     29  C   UNL     1      17.516  31.510  48.391  1.00  0.00     0.162 A 
ATOM     30  C   UNL     1      17.288  33.590  47.160  1.00  0.00     0.162 A 
ATOM     31  C   UNL     1      18.047  32.463  47.506  1.00  0.00     0.200 A 
BRANCH  29  32
ATOM     32  O   UNL     1      18.270  30.396  48.748  1.00  0.00    -0.504 OA
ATOM     33  H   UNL     1      17.893  29.457  48.680  1.00  0.00     0.293 HD
ENDBRANCH  29  32
BRANCH  30  34
ATOM     34  O   UNL     1      17.792  34.552  46.288  1.00  0.00    -0.504 OA
ATOM     35  H   UNL     1      17.820  35.538  46.529  1.00  0.00     0.293 HD
ENDBRANCH  30  34
BRANCH  31  36
ATOM     36  O   UNL     1      19.325  32.311  46.971  1.00  0.00    -0.502 OA
ATOM     37  H   UNL     1      20.145  32.719  47.402  1.00  0.00     0.293 HD
ENDBRANCH  31  36
ENDBRANCH  24  26
ENDBRANCH  23  24
ENDBRANCH   2  23
BRANCH   3  38
ATOM     38  O   UNL     1      16.151  33.103  52.324  1.00  0.00    -0.450 OA
BRANCH  38  39
ATOM     39  C   UNL     1      17.113  34.119  52.240  1.00  0.00     0.338 C 
ATOM     40  O   UNL     1      16.991  35.163  52.938  1.00  0.00    -0.246 OA
BRANCH  39  41
ATOM     41  C   UNL     1      18.284  33.963  51.350  1.00  0.00     0.067 A 
ATOM     42  C   UNL     1      19.155  32.870  51.507  1.00  0.00     0.066 A 
ATOM     43  C   UNL     1      18.536  34.901  50.336  1.00  0.00     0.066 A 
ATOM     44  C   UNL     1      20.263  32.719  50.669  1.00  0.00     0.162 A 
ATOM     45  C   UNL     1      19.644  34.763  49.494  1.00  0.00     0.162 A 
ATOM     46  C   UNL     1      20.526  33.665  49.666  1.00  0.00     0.200 A 
BRANCH  44  47
ATOM     47  O   UNL     1      21.108  31.620  50.832  1.00  0.00    -0.504 OA
ATOM     48  H   UNL     1      21.984  31.692  51.345  1.00  0.00     0.293 HD
ENDBRANCH  44  47
BRANCH  45  49
ATOM     49  O   UNL     1      19.831  35.734  48.510  1.00  0.00    -0.504 OA
ATOM     50  H   UNL     1      20.656  35.803  47.932  1.00  0.00     0.293 HD
ENDBRANCH  45  49
BRANCH  46  51
ATOM     51  O   UNL     1      21.664  33.477  48.876  1.00  0.00    -0.502 OA
ATOM     52  H   UNL     1      21.778  33.877  47.951  1.00  0.00     0.293 HD
ENDBRANCH  46  51
ENDBRANCH  39  41
ENDBRANCH  38  39
ENDBRANCH   3  38
BRANCH   5  53
ATOM     53  O   UNL     1      12.577  33.242  54.794  1.00  0.00    -0.428 OA
BRANCH  53  54
ATOM     54  C   UNL     1      11.908  32.910  55.978  1.00  0.00     0.340 C 
ATOM     55  O   UNL     1      12.510  32.932  57.082  1.00  0.00    -0.246 OA
BRANCH  54  56
ATOM     56  C   UNL     1      10.485  32.539  55.922  1.00  0.00     0.067 A 
ATOM     57  C   UNL     1       9.984  31.498  56.714  1.00  0.00     0.066 A 
ATOM     58  C   UNL     1       9.614  33.240  55.081  1.00  0.00     0.066 A 
ATOM     59  C   UNL     1       8.622  31.173  56.699  1.00  0.00     0.162 A 
ATOM     60  C   UNL     1       8.259  32.914  55.028  1.00  0.00     0.162 A 
ATOM     61  C   UNL     1       7.742  31.889  55.848  1.00  0.00     0.200 A 
BRANCH  59  62
ATOM     62  O   UNL     1       8.195  30.144  57.545  1.00  0.00    -0.504 OA
ATOM     63  H   UNL     1       8.711  29.285  57.698  1.00  0.00     0.293 HD
ENDBRANCH  59  62
BRANCH  60  64
ATOM     64  O   UNL     1       7.439  33.619  54.146  1.00  0.00    -0.504 OA
ATOM     65  H   UNL     1       7.547  33.548  53.140  1.00  0.00     0.293 HD
ENDBRANCH  60  64
BRANCH  61  66
ATOM     66  O   UNL     1       6.367  31.615  55.794  1.00  0.00    -0.502 OA
ATOM     67  H   UNL     1       5.713  32.109  55.203  1.00  0.00     0.293 HD
ENDBRANCH  61  66
ENDBRANCH  54  56
ENDBRANCH  53  54
ENDBRANCH   5  53
BRANCH   4  68
ATOM     68  O   UNL     1      14.842  31.740  54.568  1.00  0.00    -0.448 OA
BRANCH  68  69
ATOM     69  C   UNL     1      14.929  30.441  55.077  1.00  0.00     0.339 C 
ATOM     70  O   UNL     1      15.406  29.511  54.368  1.00  0.00    -0.246 OA
BRANCH  69  71
ATOM     71  C   UNL     1      14.444  30.161  56.444  1.00  0.00     0.067 A 
ATOM     72  C   UNL     1      13.250  29.460  56.656  1.00  0.00     0.066 A 
ATOM     73  C   UNL     1      15.185  30.590  57.558  1.00  0.00     0.066 A 
ATOM     74  C   UNL     1      12.805  29.176  57.956  1.00  0.00     0.162 A 
ATOM     75  C   UNL     1      14.752  30.310  58.857  1.00  0.00     0.162 A 
ATOM     76  C   UNL     1      13.560  29.600  59.062  1.00  0.00     0.200 A 
BRANCH  74  77
ATOM     77  O   UNL     1      11.620  28.466  58.153  1.00  0.00    -0.504 OA
ATOM     78  H   UNL     1      10.925  28.770  58.826  1.00  0.00     0.293 HD
ENDBRANCH  74  77
BRANCH  75  79
ATOM     79  O   UNL     1      15.524  30.744  59.936  1.00  0.00    -0.504 OA
ATOM     80  H   UNL     1      15.502  31.698  60.268  1.00  0.00     0.293 HD
ENDBRANCH  75  79
BRANCH  76  81
ATOM     81  O   UNL     1      13.135  29.324  60.363  1.00  0.00    -0.502 OA
ATOM     82  H   UNL     1      12.381  28.684  60.564  1.00  0.00     0.293 HD
ENDBRANCH  76  81
ENDBRANCH  69  71
ENDBRANCH  68  69
ENDBRANCH   4  68
TORSDOF 31
ENDMDL
MODEL 9
REMARK VINA RESULT:    -5.600      2.043      6.730
REMARK INTER + INTRA:         -20.190
REMARK INTER:                 -12.884
REMARK INTRA:                  -7.305
REMARK UNBOUND:                -6.896
REMARK SMILES O=C(OC[C@H]1O[C@H](OC(=O)c2cc(O)c(O)c(O)c2)[C@H](OC(=O)c2cc(O)c(O)c(O)c2)[C@@H](OC(=O)c2cc(O)c(O)c(O)c2)[C@H]1OC(=O)c1cc(O)c(O)c(O)c1)c1cc(O)c(O)c(O)c1
REMARK SMILES IDX 5 1 46 2 33 3 20 4 7 5 6 6 4 7 3 8 2 9 1 10 59 11 60 12
REMARK SMILES IDX 61 13 67 14 63 15 65 16 62 17 64 19 66 21 47 23 48 24 49 25
REMARK SMILES IDX 50 26 58 27 51 28 56 29 52 30 54 31 57 32 53 34 55 36 34 38
REMARK SMILES IDX 35 39 36 40 37 41 45 42 38 43 43 44 39 45 41 46 44 47 40 49
REMARK SMILES IDX 42 51 8 53 9 54 10 55 11 56 19 57 12 58 17 59 13 60 15 61
REMARK SMILES IDX 18 62 14 64 16 66 21 68 22 69 23 70 24 71 32 72 25 73 30 74
REMARK SMILES IDX 26 75 28 76 31 77 27 79 29 81
REMARK H PARENT 62 18 64 20 66 22 57 33 53 35 55 37 44 48 40 50 42 52 18 63
REMARK H PARENT 14 65 16 67 31 78 27 80 29 82
REMARK Flexibility Score: inf
ROOT
ATOM      1  C   UNL     1      17.490  33.843  52.292  1.00  0.00     0.205 C 
ATOM      2  C   UNL     1      16.926  32.884  53.357  1.00  0.00     0.254 C 
ATOM      3  C   UNL     1      15.522  33.379  53.723  1.00  0.00     0.267 C 
ATOM      4  C   UNL     1      14.649  33.440  52.456  1.00  0.00     0.290 C 
ATOM      5  C   UNL     1      15.372  34.266  51.367  1.00  0.00     0.357 C 
ATOM      6  O   UNL     1      16.691  33.794  51.119  1.00  0.00    -0.329 OA
ENDROOT
BRANCH   1   7
ATOM      7  C   UNL     1      18.949  33.515  51.924  1.00  0.00     0.269 C 
BRANCH   7   8
ATOM      8  O   UNL     1      19.077  33.447  50.507  1.00  0.00    -0.459 OA
BRANCH   8   9
ATOM      9  C   UNL     1      19.554  34.522  49.744  1.00  0.00     0.338 C 
ATOM     10  O   UNL     1      20.694  35.011  49.988  1.00  0.00    -0.246 OA
BRANCH   9  11
ATOM     11  C   UNL     1      18.709  35.104  48.680  1.00  0.00     0.067 A 
ATOM     12  C   UNL     1      18.074  36.337  48.877  1.00  0.00     0.066 A 
ATOM     13  C   UNL     1      17.232  36.874  47.901  1.00  0.00     0.162 A 
ATOM     14  C   UNL     1      18.499  34.405  47.474  1.00  0.00     0.066 A 
ATOM     15  C   UNL     1      16.992  36.155  46.707  1.00  0.00     0.200 A 
ATOM     16  C   UNL     1      17.637  34.922  46.501  1.00  0.00     0.162 A 
BRANCH  13  17
ATOM     17  O   UNL     1      16.666  38.125  48.153  1.00  0.00    -0.504 OA
ATOM     18  H   UNL     1      17.190  38.983  48.158  1.00  0.00     0.293 HD
ENDBRANCH  13  17
BRANCH  15  19
ATOM     19  O   UNL     1      16.124  36.628  45.718  1.00  0.00    -0.502 OA
ATOM     20  H   UNL     1      16.171  36.367  44.744  1.00  0.00     0.293 HD
ENDBRANCH  15  19
BRANCH  16  21
ATOM     21  O   UNL     1      17.433  34.188  45.332  1.00  0.00    -0.504 OA
ATOM     22  H   UNL     1      18.185  33.991  44.682  1.00  0.00     0.293 HD
ENDBRANCH  16  21
ENDBRANCH   9  11
ENDBRANCH   8   9
ENDBRANCH   7   8
ENDBRANCH   1   7
BRANCH   2  23
ATOM     23  O   UNL     1      16.829  31.560  52.830  1.00  0.00    -0.452 OA
BRANCH  23  24
ATOM     24  C   UNL     1      17.551  30.463  53.318  1.00  0.00     0.338 C 
ATOM     25  O   UNL     1      18.625  30.120  52.758  1.00  0.00    -0.246 OA
BRANCH  24  26
ATOM     26  C   UNL     1      17.051  29.729  54.501  1.00  0.00     0.067 A 
ATOM     27  C   UNL     1      15.694  29.370  54.606  1.00  0.00     0.066 A 
ATOM     28  C   UNL     1      17.919  29.431  55.564  1.00  0.00     0.066 A 
ATOM     29  C   UNL     1      15.211  28.735  55.763  1.00  0.00     0.162 A 
ATOM     30  C   UNL     1      17.445  28.790  56.713  1.00  0.00     0.162 A 
ATOM     31  C   UNL     1      16.090  28.441  56.818  1.00  0.00     0.200 A 
BRANCH  29  32
ATOM     32  O   UNL     1      13.863  28.401  55.868  1.00  0.00    -0.504 OA
ATOM     33  H   UNL     1      13.279  28.783  56.604  1.00  0.00     0.293 HD
ENDBRANCH  29  32
BRANCH  30  34
ATOM     34  O   UNL     1      18.338  28.514  57.746  1.00  0.00    -0.504 OA
ATOM     35  H   UNL     1      19.062  27.808  57.659  1.00  0.00     0.293 HD
ENDBRANCH  30  34
BRANCH  31  36
ATOM     36  O   UNL     1      15.637  27.814  57.977  1.00  0.00    -0.502 OA
ATOM     37  H   UNL     1      14.938  28.229  58.580  1.00  0.00     0.293 HD
ENDBRANCH  31  36
ENDBRANCH  24  26
ENDBRANCH  23  24
ENDBRANCH   2  23
BRANCH   3  38
ATOM     38  O   UNL     1      14.939  32.532  54.713  1.00  0.00    -0.450 OA
BRANCH  38  39
ATOM     39  C   UNL     1      14.588  32.994  55.989  1.00  0.00     0.338 C 
ATOM     40  O   UNL     1      13.837  34.000  56.112  1.00  0.00    -0.246 OA
BRANCH  39  41
ATOM     41  C   UNL     1      15.078  32.291  57.195  1.00  0.00     0.067 A 
ATOM     42  C   UNL     1      16.454  32.245  57.481  1.00  0.00     0.066 A 
ATOM     43  C   UNL     1      14.175  31.665  58.069  1.00  0.00     0.066 A 
ATOM     44  C   UNL     1      16.922  31.581  58.618  1.00  0.00     0.162 A 
ATOM     45  C   UNL     1      14.631  30.994  59.209  1.00  0.00     0.162 A 
ATOM     46  C   UNL     1      16.022  30.941  59.484  1.00  0.00     0.200 A 
BRANCH  44  47
ATOM     47  O   UNL     1      18.291  31.558  58.891  1.00  0.00    -0.504 OA
ATOM     48  H   UNL     1      18.649  31.263  59.796  1.00  0.00     0.293 HD
ENDBRANCH  44  47
BRANCH  45  49
ATOM     49  O   UNL     1      13.675  30.396  60.030  1.00  0.00    -0.504 OA
ATOM     50  H   UNL     1      13.741  30.354  61.037  1.00  0.00     0.293 HD
ENDBRANCH  45  49
BRANCH  46  51
ATOM     51  O   UNL     1      16.549  30.269  60.591  1.00  0.00    -0.502 OA
ATOM     52  H   UNL     1      17.329  29.623  60.537  1.00  0.00     0.293 HD
ENDBRANCH  46  51
ENDBRANCH  39  41
ENDBRANCH  38  39
ENDBRANCH   3  38
BRANCH   5  53
ATOM     53  O   UNL     1      15.383  35.649  51.716  1.00  0.00    -0.428 OA
BRANCH  53  54
ATOM     54  C   UNL     1      14.892  36.657  50.879  1.00  0.00     0.340 C 
ATOM     55  O   UNL     1      15.348  37.827  50.947  1.00  0.00    -0.246 OA
BRANCH  54  56
ATOM     56  C   UNL     1      13.835  36.336  49.907  1.00  0.00     0.067 A 
ATOM     57  C   UNL     1      12.486  36.558  50.213  1.00  0.00     0.066 A 
ATOM     58  C   UNL     1      14.175  35.814  48.654  1.00  0.00     0.066 A 
ATOM     59  C   UNL     1      11.481  36.297  49.274  1.00  0.00     0.162 A 
ATOM     60  C   UNL     1      13.188  35.520  47.713  1.00  0.00     0.162 A 
ATOM     61  C   UNL     1      11.831  35.773  48.004  1.00  0.00     0.200 A 
BRANCH  59  62
ATOM     62  O   UNL     1      10.162  36.579  49.645  1.00  0.00    -0.504 OA
ATOM     63  H   UNL     1       9.706  36.185  50.460  1.00  0.00     0.293 HD
ENDBRANCH  59  62
BRANCH  60  64
ATOM     64  O   UNL     1      13.576  34.967  46.492  1.00  0.00    -0.504 OA
ATOM     65  H   UNL     1      14.452  35.217  46.044  1.00  0.00     0.293 HD
ENDBRANCH  60  64
BRANCH  61  66
ATOM     66  O   UNL     1      10.871  35.499  47.019  1.00  0.00    -0.502 OA
ATOM     67  H   UNL     1      10.083  34.879  47.151  1.00  0.00     0.293 HD
ENDBRANCH  61  66
ENDBRANCH  54  56
ENDBRANCH  53  54
ENDBRANCH   5  53
BRANCH   4  68
ATOM     68  O   UNL     1      13.407  34.077  52.746  1.00  0.00    -0.448 OA
BRANCH  68  69
ATOM     69  C   UNL     1      12.157  33.471  52.592  1.00  0.00     0.339 C 
ATOM     70  O   UNL     1      11.611  33.416  51.455  1.00  0.00    -0.246 OA
BRANCH  69  71
ATOM     71  C   UNL     1      11.471  32.906  53.774  1.00  0.00     0.067 A 
ATOM     72  C   UNL     1      11.766  31.615  54.230  1.00  0.00     0.066 A 
ATOM     73  C   UNL     1      10.513  33.666  54.464  1.00  0.00     0.066 A 
ATOM     74  C   UNL     1      11.130  31.091  55.365  1.00  0.00     0.162 A 
ATOM     75  C   UNL     1       9.875  33.156  55.598  1.00  0.00     0.162 A 
ATOM     76  C   UNL     1      10.182  31.865  56.055  1.00  0.00     0.200 A 
BRANCH  74  77
ATOM     77  O   UNL     1      11.443  29.809  55.816  1.00  0.00    -0.504 OA
ATOM     78  H   UNL     1      12.204  29.647  56.467  1.00  0.00     0.293 HD
ENDBRANCH  74  77
BRANCH  75  79
ATOM     79  O   UNL     1       8.938  33.949  56.263  1.00  0.00    -0.504 OA
ATOM     80  H   UNL     1       8.355  34.617  55.779  1.00  0.00     0.293 HD
ENDBRANCH  75  79
BRANCH  76  81
ATOM     81  O   UNL     1       9.541  31.362  57.188  1.00  0.00    -0.502 OA
ATOM     82  H   UNL     1      10.026  31.194  58.057  1.00  0.00     0.293 HD
ENDBRANCH  76  81
ENDBRANCH  69  71
ENDBRANCH  68  69
ENDBRANCH   4  68
TORSDOF 31
ENDMDL
