MODEL 1
REMARK VINA RESULT:    -7.219      0.000      0.000
REMARK INTER + INTRA:          -7.852
REMARK INTER:                  -7.852
REMARK INTRA:                   0.000
REMARK UNBOUND:                 0.000
REMARK SMILES C[C@H]1CC[C@H]2[N@H+](C1)C[C@@H]1[C@@H]3C[C@H]4[C@H](C[C@H](O)[C@H]5C[C@H](O)CC[C@]54C)[C@@H]3CC[C@@H]1[C@]2(C)O
REMARK SMILES IDX 5 1 6 2 8 3 7 4 4 5 29 6 3 7 28 8 30 9 2 10 27 11 9 12 1 13
REMARK SMILES IDX 26 14 10 15 25 16 11 17 13 18 12 19 14 20 23 21 15 22 17 23
REMARK SMILES IDX 22 24 24 25 18 26 21 27 19 28 31 30 16 32 20 34
REMARK H PARENT 6 29 31 31 16 33 20 35
REMARK Flexibility Score: inf
ROOT
ATOM      1  C   UNL     1      17.495  14.316  16.685  1.00  0.00     0.216 C 
ATOM      2  N   UNL     1      18.314  14.554  17.943  1.00  0.00    -0.330 N 
ATOM      3  C   UNL     1      18.760  13.501  18.930  1.00  0.00     0.266 C 
ATOM      4  C   UNL     1      18.833  15.922  17.951  1.00  0.00     0.265 C 
ATOM      5  C   UNL     1      15.819  14.964  16.727  1.00  0.00     0.069 C 
ATOM      6  C   UNL     1      18.049  12.931  16.002  1.00  0.00     0.117 C 
ATOM      7  C   UNL     1      15.992  16.216  17.738  1.00  0.00     0.015 C 
ATOM      8  C   UNL     1      19.494  12.556  16.705  1.00  0.00     0.036 C 
ATOM      9  C   UNL     1      17.014  11.795  16.233  1.00  0.00     0.049 C 
ATOM     10  C   UNL     1      17.514  16.979  17.584  1.00  0.00     0.041 C 
ATOM     11  C   UNL     1      20.749  13.547  16.598  1.00  0.00     0.007 C 
ATOM     12  C   UNL     1      19.408  12.228  18.214  1.00  0.00     0.054 C 
ATOM     13  C   UNL     1      17.446  17.874  16.312  1.00  0.00     0.013 C 
ATOM     14  C   UNL     1      21.469  14.143  17.923  1.00  0.00     0.004 C 
ATOM     15  C   UNL     1      20.756  11.937  18.997  1.00  0.00     0.002 C 
ATOM     16  C   UNL     1      21.875  13.046  18.942  1.00  0.00    -0.004 C 
ATOM     17  C   UNL     1      20.533  11.614  20.479  1.00  0.00     0.009 C 
ATOM     18  C   UNL     1      22.116  13.439  20.513  1.00  0.00    -0.001 C 
ATOM     19  C   UNL     1      21.024  12.835  21.371  1.00  0.00    -0.001 C 
ATOM     20  C   UNL     1      22.694  14.736  21.234  1.00  0.00     0.036 C 
ATOM     21  C   UNL     1      20.065  13.930  22.127  1.00  0.00    -0.024 C 
ATOM     22  C   UNL     1      22.410  14.785  22.838  1.00  0.00     0.118 C 
ATOM     23  C   UNL     1      20.928  14.378  23.346  1.00  0.00     0.026 C 
ATOM     24  C   UNL     1      19.747  15.354  21.483  1.00  0.00     0.010 C 
ATOM     25  C   UNL     1      18.791  13.216  22.682  1.00  0.00     0.012 C 
ATOM     26  C   UNL     1      20.161  15.392  24.298  1.00  0.00     0.038 C 
ATOM     27  C   UNL     1      18.775  16.253  22.255  1.00  0.00     0.032 C 
ATOM     28  C   UNL     1      19.389  16.592  23.653  1.00  0.00     0.114 C 
ATOM     29  H   UNL     1      17.335  14.427  18.432  1.00  0.00     0.348 HD
ENDROOT
BRANCH   6  30
ATOM     30  O   UNL     1      18.250  13.121  14.613  1.00  0.00    -0.384 OA
ATOM     31  H   UNL     1      19.229  12.979  14.432  1.00  0.00     0.211 HD
ENDBRANCH   6  30
BRANCH  22  32
ATOM     32  O   UNL     1      23.300  13.880  23.445  1.00  0.00    -0.393 OA
ATOM     33  H   UNL     1      22.710  13.150  23.808  1.00  0.00     0.210 HD
ENDBRANCH  22  32
BRANCH  28  34
ATOM     34  O   UNL     1      18.393  17.072  24.532  1.00  0.00    -0.393 OA
ATOM     35  H   UNL     1      18.807  17.126  25.440  1.00  0.00     0.210 HD
ENDBRANCH  28  34
TORSDOF 3
ENDMDL
MODEL 2
REMARK VINA RESULT:    -7.186      2.625      5.823
REMARK INTER + INTRA:          -7.816
REMARK INTER:                  -7.816
REMARK INTRA:                   0.000
REMARK UNBOUND:                 0.000
REMARK SMILES C[C@H]1CC[C@H]2[N@H+](C1)C[C@@H]1[C@@H]3C[C@H]4[C@H](C[C@H](O)[C@H]5C[C@H](O)CC[C@]54C)[C@@H]3CC[C@@H]1[C@]2(C)O
REMARK SMILES IDX 5 1 6 2 8 3 7 4 4 5 29 6 3 7 28 8 30 9 2 10 27 11 9 12 1 13
REMARK SMILES IDX 26 14 10 15 25 16 11 17 13 18 12 19 14 20 23 21 15 22 17 23
REMARK SMILES IDX 22 24 24 25 18 26 21 27 19 28 31 30 16 32 20 34
REMARK H PARENT 6 29 31 31 16 33 20 35
REMARK Flexibility Score: inf
ROOT
ATOM      1  C   UNL     1      22.302   9.607  19.284  1.00  0.00     0.216 C 
ATOM      2  N   UNL     1      21.787  11.020  19.505  1.00  0.00    -0.330 N 
ATOM      3  C   UNL     1      20.499  11.402  20.196  1.00  0.00     0.266 C 
ATOM      4  C   UNL     1      22.831  11.990  19.175  1.00  0.00     0.265 C 
ATOM      5  C   UNL     1      22.296   9.048  17.576  1.00  0.00     0.069 C 
ATOM      6  C   UNL     1      21.979   8.755  20.648  1.00  0.00     0.117 C 
ATOM      7  C   UNL     1      22.478  10.450  16.786  1.00  0.00     0.015 C 
ATOM      8  C   UNL     1      21.593   9.828  21.842  1.00  0.00     0.036 C 
ATOM      9  C   UNL     1      20.798   7.782  20.381  1.00  0.00     0.049 C 
ATOM     10  C   UNL     1      23.474  11.553  17.630  1.00  0.00     0.041 C 
ATOM     11  C   UNL     1      22.644  10.932  22.335  1.00  0.00     0.007 C 
ATOM     12  C   UNL     1      20.299  10.636  21.584  1.00  0.00     0.054 C 
ATOM     13  C   UNL     1      24.947  11.105  17.397  1.00  0.00     0.013 C 
ATOM     14  C   UNL     1      22.300  12.515  22.266  1.00  0.00     0.004 C 
ATOM     15  C   UNL     1      19.889  11.752  22.634  1.00  0.00     0.002 C 
ATOM     16  C   UNL     1      20.951  12.876  22.942  1.00  0.00    -0.004 C 
ATOM     17  C   UNL     1      18.585  12.469  22.270  1.00  0.00     0.009 C 
ATOM     18  C   UNL     1      20.181  14.264  22.538  1.00  0.00    -0.001 C 
ATOM     19  C   UNL     1      18.908  13.948  21.782  1.00  0.00    -0.001 C 
ATOM     20  C   UNL     1      20.694  15.712  22.121  1.00  0.00     0.036 C 
ATOM     21  C   UNL     1      18.883  14.484  20.232  1.00  0.00    -0.024 C 
ATOM     22  C   UNL     1      19.541  16.665  21.476  1.00  0.00     0.118 C 
ATOM     23  C   UNL     1      18.548  15.999  20.384  1.00  0.00     0.026 C 
ATOM     24  C   UNL     1      20.213  14.588  19.358  1.00  0.00     0.010 C 
ATOM     25  C   UNL     1      17.702  13.810  19.463  1.00  0.00     0.012 C 
ATOM     26  C   UNL     1      18.380  16.731  18.985  1.00  0.00     0.038 C 
ATOM     27  C   UNL     1      20.042  15.028  17.901  1.00  0.00     0.032 C 
ATOM     28  C   UNL     1      19.448  16.475  17.869  1.00  0.00     0.114 C 
ATOM     29  H   UNL     1      21.120  10.755  18.670  1.00  0.00     0.348 HD
ENDROOT
BRANCH   6  30
ATOM     30  O   UNL     1      23.125   8.022  21.045  1.00  0.00    -0.384 OA
ATOM     31  H   UNL     1      23.547   7.656  20.209  1.00  0.00     0.211 HD
ENDBRANCH   6  30
BRANCH  22  32
ATOM     32  O   UNL     1      18.728  17.106  22.535  1.00  0.00    -0.393 OA
ATOM     33  H   UNL     1      19.318  17.725  23.067  1.00  0.00     0.210 HD
ENDBRANCH  22  32
BRANCH  28  34
ATOM     34  O   UNL     1      18.914  16.768  16.594  1.00  0.00    -0.393 OA
ATOM     35  H   UNL     1      18.228  16.069  16.398  1.00  0.00     0.210 HD
ENDBRANCH  28  34
TORSDOF 3
ENDMDL
MODEL 3
REMARK VINA RESULT:    -7.122      3.669      8.216
REMARK INTER + INTRA:          -7.747
REMARK INTER:                  -7.747
REMARK INTRA:                   0.000
REMARK UNBOUND:                 0.000
REMARK SMILES C[C@H]1CC[C@H]2[N@H+](C1)C[C@@H]1[C@@H]3C[C@H]4[C@H](C[C@H](O)[C@H]5C[C@H](O)CC[C@]54C)[C@@H]3CC[C@@H]1[C@]2(C)O
REMARK SMILES IDX 5 1 6 2 8 3 7 4 4 5 29 6 3 7 28 8 30 9 2 10 27 11 9 12 1 13
REMARK SMILES IDX 26 14 10 15 25 16 11 17 13 18 12 19 14 20 23 21 15 22 17 23
REMARK SMILES IDX 22 24 24 25 18 26 21 27 19 28 31 30 16 32 20 34
REMARK H PARENT 6 29 31 31 16 33 20 35
REMARK Flexibility Score: inf
ROOT
ATOM      1  C   UNL     1      21.678  15.124  26.996  1.00  0.00     0.216 C 
ATOM      2  N   UNL     1      21.646  14.481  25.619  1.00  0.00    -0.330 N 
ATOM      3  C   UNL     1      20.518  14.571  24.619  1.00  0.00     0.266 C 
ATOM      4  C   UNL     1      22.970  13.958  25.281  1.00  0.00     0.265 C 
ATOM      5  C   UNL     1      21.591  13.979  28.378  1.00  0.00     0.069 C 
ATOM      6  C   UNL     1      21.011  16.616  26.849  1.00  0.00     0.117 C 
ATOM      7  C   UNL     1      22.273  12.658  27.736  1.00  0.00     0.015 C 
ATOM      8  C   UNL     1      20.929  16.984  25.242  1.00  0.00     0.036 C 
ATOM      9  C   UNL     1      19.594  16.611  27.484  1.00  0.00     0.049 C 
ATOM     10  C   UNL     1      23.524  13.037  26.635  1.00  0.00     0.041 C 
ATOM     11  C   UNL     1      22.255  17.082  24.346  1.00  0.00     0.007 C 
ATOM     12  C   UNL     1      19.993  16.067  24.420  1.00  0.00     0.054 C 
ATOM     13  C   UNL     1      24.777  13.405  27.481  1.00  0.00     0.013 C 
ATOM     14  C   UNL     1      22.457  16.151  23.034  1.00  0.00     0.004 C 
ATOM     15  C   UNL     1      19.912  16.288  22.852  1.00  0.00     0.002 C 
ATOM     16  C   UNL     1      21.264  16.224  22.045  1.00  0.00    -0.004 C 
ATOM     17  C   UNL     1      18.942  15.326  22.159  1.00  0.00     0.009 C 
ATOM     18  C   UNL     1      21.021  15.014  20.968  1.00  0.00    -0.001 C 
ATOM     19  C   UNL     1      19.762  14.251  21.324  1.00  0.00    -0.001 C 
ATOM     20  C   UNL     1      22.007  14.057  20.166  1.00  0.00     0.036 C 
ATOM     21  C   UNL     1      20.009  12.683  21.739  1.00  0.00    -0.024 C 
ATOM     22  C   UNL     1      21.274  12.776  19.475  1.00  0.00     0.118 C 
ATOM     23  C   UNL     1      20.185  11.972  20.363  1.00  0.00     0.026 C 
ATOM     24  C   UNL     1      21.349  12.207  22.462  1.00  0.00     0.010 C 
ATOM     25  C   UNL     1      18.720  12.110  22.410  1.00  0.00     0.012 C 
ATOM     26  C   UNL     1      20.352  10.400  20.504  1.00  0.00     0.038 C 
ATOM     27  C   UNL     1      21.421  10.731  22.867  1.00  0.00     0.032 C 
ATOM     28  C   UNL     1      21.341   9.842  21.582  1.00  0.00     0.114 C 
ATOM     29  H   UNL     1      20.980  13.765  26.125  1.00  0.00     0.348 HD
ENDROOT
BRANCH   6  30
ATOM     30  O   UNL     1      21.825  17.577  27.498  1.00  0.00    -0.384 OA
ATOM     31  H   UNL     1      22.772  17.412  27.204  1.00  0.00     0.211 HD
ENDBRANCH   6  30
BRANCH  22  32
ATOM     32  O   UNL     1      20.590  13.251  18.342  1.00  0.00    -0.393 OA
ATOM     33  H   UNL     1      20.800  14.236  18.313  1.00  0.00     0.210 HD
ENDBRANCH  22  32
BRANCH  28  34
ATOM     34  O   UNL     1      21.011   8.510  21.917  1.00  0.00    -0.393 OA
ATOM     35  H   UNL     1      21.852   8.070  22.229  1.00  0.00     0.210 HD
ENDBRANCH  28  34
TORSDOF 3
ENDMDL
MODEL 4
REMARK VINA RESULT:    -7.023      3.378      7.751
REMARK INTER + INTRA:          -7.638
REMARK INTER:                  -7.638
REMARK INTRA:                   0.000
REMARK UNBOUND:                 0.000
REMARK SMILES C[C@H]1CC[C@H]2[N@H+](C1)C[C@@H]1[C@@H]3C[C@H]4[C@H](C[C@H](O)[C@H]5C[C@H](O)CC[C@]54C)[C@@H]3CC[C@@H]1[C@]2(C)O
REMARK SMILES IDX 5 1 6 2 8 3 7 4 4 5 29 6 3 7 28 8 30 9 2 10 27 11 9 12 1 13
REMARK SMILES IDX 26 14 10 15 25 16 11 17 13 18 12 19 14 20 23 21 15 22 17 23
REMARK SMILES IDX 22 24 24 25 18 26 21 27 19 28 31 30 16 32 20 34
REMARK H PARENT 6 29 31 31 16 33 20 35
REMARK Flexibility Score: inf
ROOT
ATOM      1  C   UNL     1      22.403  15.175  25.329  1.00  0.00     0.216 C 
ATOM      2  N   UNL     1      22.283  14.221  24.152  1.00  0.00    -0.330 N 
ATOM      3  C   UNL     1      21.010  13.591  23.640  1.00  0.00     0.266 C 
ATOM      4  C   UNL     1      23.545  14.179  23.413  1.00  0.00     0.265 C 
ATOM      5  C   UNL     1      23.241  14.510  26.773  1.00  0.00     0.069 C 
ATOM      6  C   UNL     1      21.117  16.192  25.260  1.00  0.00     0.117 C 
ATOM      7  C   UNL     1      24.239  13.434  26.090  1.00  0.00     0.015 C 
ATOM      8  C   UNL     1      20.429  16.046  23.767  1.00  0.00     0.036 C 
ATOM      9  C   UNL     1      20.102  15.813  26.372  1.00  0.00     0.049 C 
ATOM     10  C   UNL     1      24.814  13.951  24.565  1.00  0.00     0.041 C 
ATOM     11  C   UNL     1      21.252  16.400  22.438  1.00  0.00     0.007 C 
ATOM     12  C   UNL     1      19.828  14.652  23.471  1.00  0.00     0.054 C 
ATOM     13  C   UNL     1      25.941  14.990  24.834  1.00  0.00     0.013 C 
ATOM     14  C   UNL     1      21.480  15.300  21.269  1.00  0.00     0.004 C 
ATOM     15  C   UNL     1      19.218  14.389  22.031  1.00  0.00     0.002 C 
ATOM     16  C   UNL     1      20.163  14.634  20.793  1.00  0.00    -0.004 C 
ATOM     17  C   UNL     1      18.645  12.977  21.870  1.00  0.00     0.009 C 
ATOM     18  C   UNL     1      20.208  13.181  20.040  1.00  0.00    -0.001 C 
ATOM     19  C   UNL     1      19.595  12.119  20.928  1.00  0.00    -0.001 C 
ATOM     20  C   UNL     1      21.254  12.499  19.051  1.00  0.00     0.036 C 
ATOM     21  C   UNL     1      20.636  10.946  21.409  1.00  0.00    -0.024 C 
ATOM     22  C   UNL     1      21.026  10.900  18.844  1.00  0.00     0.118 C 
ATOM     23  C   UNL     1      20.723  10.012  20.164  1.00  0.00     0.026 C 
ATOM     24  C   UNL     1      22.187  11.242  21.634  1.00  0.00     0.010 C 
ATOM     25  C   UNL     1      19.998  10.126  22.575  1.00  0.00     0.012 C 
ATOM     26  C   UNL     1      21.622   8.730  20.423  1.00  0.00     0.038 C 
ATOM     27  C   UNL     1      23.036  10.079  22.160  1.00  0.00     0.032 C 
ATOM     28  C   UNL     1      23.014   8.914  21.116  1.00  0.00     0.114 C 
ATOM     29  H   UNL     1      22.191  13.470  24.953  1.00  0.00     0.348 HD
ENDROOT
BRANCH   6  30
ATOM     30  O   UNL     1      21.547  17.530  25.438  1.00  0.00    -0.384 OA
ATOM     31  H   UNL     1      20.741  18.068  25.704  1.00  0.00     0.211 HD
ENDBRANCH   6  30
BRANCH  22  32
ATOM     32  O   UNL     1      19.914  10.745  17.997  1.00  0.00    -0.393 OA
ATOM     33  H   UNL     1      19.302  10.119  18.495  1.00  0.00     0.210 HD
ENDBRANCH  22  32
BRANCH  28  34
ATOM     34  O   UNL     1      23.438   7.705  21.709  1.00  0.00    -0.393 OA
ATOM     35  H   UNL     1      22.660   7.079  21.684  1.00  0.00     0.210 HD
ENDBRANCH  28  34
TORSDOF 3
ENDMDL
MODEL 5
REMARK VINA RESULT:    -7.016      4.533      9.481
REMARK INTER + INTRA:          -7.632
REMARK INTER:                  -7.632
REMARK INTRA:                   0.000
REMARK UNBOUND:                 0.000
REMARK SMILES C[C@H]1CC[C@H]2[N@H+](C1)C[C@@H]1[C@@H]3C[C@H]4[C@H](C[C@H](O)[C@H]5C[C@H](O)CC[C@]54C)[C@@H]3CC[C@@H]1[C@]2(C)O
REMARK SMILES IDX 5 1 6 2 8 3 7 4 4 5 29 6 3 7 28 8 30 9 2 10 27 11 9 12 1 13
REMARK SMILES IDX 26 14 10 15 25 16 11 17 13 18 12 19 14 20 23 21 15 22 17 23
REMARK SMILES IDX 22 24 24 25 18 26 21 27 19 28 31 30 16 32 20 34
REMARK H PARENT 6 29 31 31 16 33 20 35
REMARK Flexibility Score: inf
ROOT
ATOM      1  C   UNL     1      21.527  18.009  29.080  1.00  0.00     0.216 C 
ATOM      2  N   UNL     1      21.277  17.208  27.813  1.00  0.00    -0.330 N 
ATOM      3  C   UNL     1      22.301  16.869  26.755  1.00  0.00     0.266 C 
ATOM      4  C   UNL     1      19.954  16.586  27.868  1.00  0.00     0.265 C 
ATOM      5  C   UNL     1      20.753  19.631  29.125  1.00  0.00     0.069 C 
ATOM      6  C   UNL     1      22.987  17.547  29.666  1.00  0.00     0.117 C 
ATOM      7  C   UNL     1      19.460  19.389  28.181  1.00  0.00     0.015 C 
ATOM      8  C   UNL     1      23.428  16.153  28.900  1.00  0.00     0.036 C 
ATOM      9  C   UNL     1      24.027  18.671  29.402  1.00  0.00     0.049 C 
ATOM     10  C   UNL     1      18.825  17.810  28.333  1.00  0.00     0.041 C 
ATOM     11  C   UNL     1      22.542  14.824  29.025  1.00  0.00     0.007 C 
ATOM     12  C   UNL     1      23.659  16.302  27.378  1.00  0.00     0.054 C 
ATOM     13  C   UNL     1      18.003  17.776  29.655  1.00  0.00     0.013 C 
ATOM     14  C   UNL     1      21.925  14.094  27.715  1.00  0.00     0.004 C 
ATOM     15  C   UNL     1      24.004  15.001  26.539  1.00  0.00     0.002 C 
ATOM     16  C   UNL     1      22.988  13.800  26.625  1.00  0.00    -0.004 C 
ATOM     17  C   UNL     1      24.221  15.287  25.050  1.00  0.00     0.009 C 
ATOM     18  C   UNL     1      22.522  13.569  25.071  1.00  0.00    -0.001 C 
ATOM     19  C   UNL     1      22.990  14.726  24.214  1.00  0.00    -0.001 C 
ATOM     20  C   UNL     1      21.232  12.912  24.408  1.00  0.00     0.036 C 
ATOM     21  C   UNL     1      21.784  15.617  23.550  1.00  0.00    -0.024 C 
ATOM     22  C   UNL     1      21.067  13.232  22.819  1.00  0.00     0.118 C 
ATOM     23  C   UNL     1      21.331  14.754  22.333  1.00  0.00     0.026 C 
ATOM     24  C   UNL     1      20.380  15.808  24.283  1.00  0.00     0.010 C 
ATOM     25  C   UNL     1      22.366  16.955  22.994  1.00  0.00     0.012 C 
ATOM     26  C   UNL     1      20.208  15.465  21.464  1.00  0.00     0.038 C 
ATOM     27  C   UNL     1      19.367  16.728  23.593  1.00  0.00     0.032 C 
ATOM     28  C   UNL     1      18.993  16.125  22.199  1.00  0.00     0.114 C 
ATOM     29  H   UNL     1      21.301  18.205  27.347  1.00  0.00     0.348 HD
ENDROOT
BRANCH   6  30
ATOM     30  O   UNL     1      22.895  17.296  31.057  1.00  0.00    -0.384 OA
ATOM     31  H   UNL     1      22.287  16.504  31.176  1.00  0.00     0.211 HD
ENDBRANCH   6  30
BRANCH  22  32
ATOM     32  O   UNL     1      21.999  12.430  22.135  1.00  0.00    -0.393 OA
ATOM     33  H   UNL     1      21.672  12.419  21.183  1.00  0.00     0.210 HD
ENDBRANCH  22  32
BRANCH  28  34
ATOM     34  O   UNL     1      18.389  17.103  21.378  1.00  0.00    -0.393 OA
ATOM     35  H   UNL     1      18.229  16.679  20.488  1.00  0.00     0.210 HD
ENDBRANCH  28  34
TORSDOF 3
ENDMDL
MODEL 6
REMARK VINA RESULT:    -7.008      3.183      8.255
REMARK INTER + INTRA:          -7.623
REMARK INTER:                  -7.623
REMARK INTRA:                   0.000
REMARK UNBOUND:                 0.000
REMARK SMILES C[C@H]1CC[C@H]2[N@H+](C1)C[C@@H]1[C@@H]3C[C@H]4[C@H](C[C@H](O)[C@H]5C[C@H](O)CC[C@]54C)[C@@H]3CC[C@@H]1[C@]2(C)O
REMARK SMILES IDX 5 1 6 2 8 3 7 4 4 5 29 6 3 7 28 8 30 9 2 10 27 11 9 12 1 13
REMARK SMILES IDX 26 14 10 15 25 16 11 17 13 18 12 19 14 20 23 21 15 22 17 23
REMARK SMILES IDX 22 24 24 25 18 26 21 27 19 28 31 30 16 32 20 34
REMARK H PARENT 6 29 31 31 16 33 20 35
REMARK Flexibility Score: inf
ROOT
ATOM      1  C   UNL     1      23.649  13.030  25.840  1.00  0.00     0.216 C 
ATOM      2  N   UNL     1      22.859  13.392  24.593  1.00  0.00    -0.330 N 
ATOM      3  C   UNL     1      21.388  13.725  24.535  1.00  0.00     0.266 C 
ATOM      4  C   UNL     1      23.772  13.619  23.472  1.00  0.00     0.265 C 
ATOM      5  C   UNL     1      24.201  11.321  25.928  1.00  0.00     0.069 C 
ATOM      6  C   UNL     1      23.121  14.006  27.047  1.00  0.00     0.117 C 
ATOM      7  C   UNL     1      24.347  10.957  24.357  1.00  0.00     0.015 C 
ATOM      8  C   UNL     1      22.249  15.232  26.370  1.00  0.00     0.036 C 
ATOM      9  C   UNL     1      22.242  13.183  28.028  1.00  0.00     0.049 C 
ATOM     10  C   UNL     1      24.873  12.287  23.422  1.00  0.00     0.041 C 
ATOM     11  C   UNL     1      22.923  16.255  25.336  1.00  0.00     0.007 C 
ATOM     12  C   UNL     1      20.955  14.780  25.654  1.00  0.00     0.054 C 
ATOM     13  C   UNL     1      26.408  12.420  23.645  1.00  0.00     0.013 C 
ATOM     14  C   UNL     1      22.344  16.438  23.832  1.00  0.00     0.004 C 
ATOM     15  C   UNL     1      20.091  15.875  24.900  1.00  0.00     0.002 C 
ATOM     16  C   UNL     1      20.821  16.733  23.797  1.00  0.00    -0.004 C 
ATOM     17  C   UNL     1      18.831  15.301  24.244  1.00  0.00     0.009 C 
ATOM     18  C   UNL     1      19.963  16.434  22.435  1.00  0.00    -0.001 C 
ATOM     19  C   UNL     1      19.015  15.276  22.666  1.00  0.00    -0.001 C 
ATOM     20  C   UNL     1      20.314  16.525  20.885  1.00  0.00     0.036 C 
ATOM     21  C   UNL     1      19.317  13.952  21.746  1.00  0.00    -0.024 C 
ATOM     22  C   UNL     1      19.232  15.789  19.915  1.00  0.00     0.118 C 
ATOM     23  C   UNL     1      18.700  14.327  20.364  1.00  0.00     0.026 C 
ATOM     24  C   UNL     1      20.797  13.570  21.285  1.00  0.00     0.010 C 
ATOM     25  C   UNL     1      18.522  12.731  22.307  1.00  0.00     0.012 C 
ATOM     26  C   UNL     1      18.793  13.143  19.311  1.00  0.00     0.038 C 
ATOM     27  C   UNL     1      20.953  12.266  20.496  1.00  0.00     0.032 C 
ATOM     28  C   UNL     1      20.150  12.377  19.158  1.00  0.00     0.114 C 
ATOM     29  H   UNL     1      22.499  12.356  24.693  1.00  0.00     0.348 HD
ENDROOT
BRANCH   6  30
ATOM     30  O   UNL     1      24.226  14.559  27.742  1.00  0.00    -0.384 OA
ATOM     31  H   UNL     1      24.303  15.520  27.460  1.00  0.00     0.211 HD
ENDBRANCH   6  30
BRANCH  22  32
ATOM     32  O   UNL     1      18.099  16.620  19.849  1.00  0.00    -0.393 OA
ATOM     33  H   UNL     1      17.355  16.012  19.551  1.00  0.00     0.210 HD
ENDBRANCH  22  32
BRANCH  28  34
ATOM     34  O   UNL     1      19.938  11.099  18.595  1.00  0.00    -0.393 OA
ATOM     35  H   UNL     1      20.035  11.196  17.605  1.00  0.00     0.210 HD
ENDBRANCH  28  34
TORSDOF 3
ENDMDL
MODEL 7
REMARK VINA RESULT:    -6.991      2.832      5.795
REMARK INTER + INTRA:          -7.604
REMARK INTER:                  -7.604
REMARK INTRA:                   0.000
REMARK UNBOUND:                 0.000
REMARK SMILES C[C@H]1CC[C@H]2[N@H+](C1)C[C@@H]1[C@@H]3C[C@H]4[C@H](C[C@H](O)[C@H]5C[C@H](O)CC[C@]54C)[C@@H]3CC[C@@H]1[C@]2(C)O
REMARK SMILES IDX 5 1 6 2 8 3 7 4 4 5 29 6 3 7 28 8 30 9 2 10 27 11 9 12 1 13
REMARK SMILES IDX 26 14 10 15 25 16 11 17 13 18 12 19 14 20 23 21 15 22 17 23
REMARK SMILES IDX 22 24 24 25 18 26 21 27 19 28 31 30 16 32 20 34
REMARK H PARENT 6 29 31 31 16 33 20 35
REMARK Flexibility Score: inf
ROOT
ATOM      1  C   UNL     1      20.836  11.478  19.792  1.00  0.00     0.216 C 
ATOM      2  N   UNL     1      21.204  12.208  21.073  1.00  0.00    -0.330 N 
ATOM      3  C   UNL     1      21.673  13.639  21.181  1.00  0.00     0.266 C 
ATOM      4  C   UNL     1      20.807  11.410  22.234  1.00  0.00     0.265 C 
ATOM      5  C   UNL     1      21.971  10.174  19.300  1.00  0.00     0.069 C 
ATOM      6  C   UNL     1      20.014  12.539  18.849  1.00  0.00     0.117 C 
ATOM      7  C   UNL     1      22.553   9.705  20.736  1.00  0.00     0.015 C 
ATOM      8  C   UNL     1      19.573  13.823  19.789  1.00  0.00     0.036 C 
ATOM      9  C   UNL     1      20.925  13.001  17.680  1.00  0.00     0.049 C 
ATOM     10  C   UNL     1      21.384   9.800  21.979  1.00  0.00     0.041 C 
ATOM     11  C   UNL     1      18.610  13.630  21.055  1.00  0.00     0.007 C 
ATOM     12  C   UNL     1      20.758  14.647  20.345  1.00  0.00     0.054 C 
ATOM     13  C   UNL     1      20.457   8.559  21.826  1.00  0.00     0.013 C 
ATOM     14  C   UNL     1      19.080  14.063  22.545  1.00  0.00     0.004 C 
ATOM     15  C   UNL     1      20.439  15.851  21.327  1.00  0.00     0.002 C 
ATOM     16  C   UNL     1      19.601  15.522  22.621  1.00  0.00    -0.004 C 
ATOM     17  C   UNL     1      21.695  16.593  21.796  1.00  0.00     0.009 C 
ATOM     18  C   UNL     1      20.582  15.976  23.850  1.00  0.00    -0.001 C 
ATOM     19  C   UNL     1      21.974  16.256  23.324  1.00  0.00    -0.001 C 
ATOM     20  C   UNL     1      20.675  15.554  25.382  1.00  0.00     0.036 C 
ATOM     21  C   UNL     1      23.136  15.250  23.897  1.00  0.00    -0.024 C 
ATOM     22  C   UNL     1      22.047  16.029  26.120  1.00  0.00     0.118 C 
ATOM     23  C   UNL     1      23.437  15.823  25.316  1.00  0.00     0.026 C 
ATOM     24  C   UNL     1      22.820  13.734  24.281  1.00  0.00     0.010 C 
ATOM     25  C   UNL     1      24.432  15.401  23.038  1.00  0.00     0.012 C 
ATOM     26  C   UNL     1      24.616  15.053  26.048  1.00  0.00     0.038 C 
ATOM     27  C   UNL     1      24.009  12.878  24.730  1.00  0.00     0.032 C 
ATOM     28  C   UNL     1      24.614  13.487  26.038  1.00  0.00     0.114 C 
ATOM     29  H   UNL     1      22.230  12.025  20.715  1.00  0.00     0.348 HD
ENDROOT
BRANCH   6  30
ATOM     30  O   UNL     1      18.845  11.925  18.334  1.00  0.00    -0.384 OA
ATOM     31  H   UNL     1      18.432  12.572  17.684  1.00  0.00     0.211 HD
ENDBRANCH   6  30
BRANCH  22  32
ATOM     32  O   UNL     1      21.931  17.410  26.364  1.00  0.00    -0.393 OA
ATOM     33  H   UNL     1      22.511  17.841  25.663  1.00  0.00     0.210 HD
ENDBRANCH  22  32
BRANCH  28  34
ATOM     34  O   UNL     1      25.915  12.987  26.266  1.00  0.00    -0.393 OA
ATOM     35  H   UNL     1      25.864  11.993  26.183  1.00  0.00     0.210 HD
ENDBRANCH  28  34
TORSDOF 3
ENDMDL
MODEL 8
REMARK VINA RESULT:    -6.943      5.243      8.466
REMARK INTER + INTRA:          -7.552
REMARK INTER:                  -7.552
REMARK INTRA:                   0.000
REMARK UNBOUND:                 0.000
REMARK SMILES C[C@H]1CC[C@H]2[N@H+](C1)C[C@@H]1[C@@H]3C[C@H]4[C@H](C[C@H](O)[C@H]5C[C@H](O)CC[C@]54C)[C@@H]3CC[C@@H]1[C@]2(C)O
REMARK SMILES IDX 5 1 6 2 8 3 7 4 4 5 29 6 3 7 28 8 30 9 2 10 27 11 9 12 1 13
REMARK SMILES IDX 26 14 10 15 25 16 11 17 13 18 12 19 14 20 23 21 15 22 17 23
REMARK SMILES IDX 22 24 24 25 18 26 21 27 19 28 31 30 16 32 20 34
REMARK H PARENT 6 29 31 31 16 33 20 35
REMARK Flexibility Score: inf
ROOT
ATOM      1  C   UNL     1      22.471  13.834  23.794  1.00  0.00     0.216 C 
ATOM      2  N   UNL     1      22.445  14.835  24.938  1.00  0.00    -0.330 N 
ATOM      3  C   UNL     1      21.781  14.638  26.280  1.00  0.00     0.266 C 
ATOM      4  C   UNL     1      23.369  15.935  24.660  1.00  0.00     0.265 C 
ATOM      5  C   UNL     1      21.505  14.297  22.350  1.00  0.00     0.069 C 
ATOM      6  C   UNL     1      22.691  12.349  24.455  1.00  0.00     0.117 C 
ATOM      7  C   UNL     1      21.567  15.912  22.435  1.00  0.00     0.015 C 
ATOM      8  C   UNL     1      23.181  12.552  26.018  1.00  0.00     0.036 C 
ATOM      9  C   UNL     1      21.356  11.557  24.396  1.00  0.00     0.049 C 
ATOM     10  C   UNL     1      23.058  16.480  23.049  1.00  0.00     0.041 C 
ATOM     11  C   UNL     1      24.546  13.317  26.365  1.00  0.00     0.007 C 
ATOM     12  C   UNL     1      22.135  13.225  26.936  1.00  0.00     0.054 C 
ATOM     13  C   UNL     1      24.090  16.392  21.887  1.00  0.00     0.013 C 
ATOM     14  C   UNL     1      24.558  14.635  27.309  1.00  0.00     0.004 C 
ATOM     15  C   UNL     1      22.543  13.539  28.436  1.00  0.00     0.002 C 
ATOM     16  C   UNL     1      23.829  14.422  28.662  1.00  0.00    -0.004 C 
ATOM     17  C   UNL     1      21.416  14.193  29.242  1.00  0.00     0.009 C 
ATOM     18  C   UNL     1      23.275  15.713  29.503  1.00  0.00    -0.001 C 
ATOM     19  C   UNL     1      21.761  15.723  29.497  1.00  0.00    -0.001 C 
ATOM     20  C   UNL     1      23.810  17.201  29.690  1.00  0.00     0.036 C 
ATOM     21  C   UNL     1      21.089  17.009  28.732  1.00  0.00    -0.024 C 
ATOM     22  C   UNL     1      22.721  18.220  30.346  1.00  0.00     0.118 C 
ATOM     23  C   UNL     1      21.203  18.152  29.786  1.00  0.00     0.026 C 
ATOM     24  C   UNL     1      21.803  17.714  27.491  1.00  0.00     0.010 C 
ATOM     25  C   UNL     1      19.571  16.738  28.486  1.00  0.00     0.012 C 
ATOM     26  C   UNL     1      20.527  19.503  29.299  1.00  0.00     0.038 C 
ATOM     27  C   UNL     1      21.033  18.855  26.817  1.00  0.00     0.032 C 
ATOM     28  C   UNL     1      20.823  20.013  27.848  1.00  0.00     0.114 C 
ATOM     29  H   UNL     1      21.414  14.996  24.586  1.00  0.00     0.348 HD
ENDROOT
BRANCH   6  30
ATOM     30  O   UNL     1      23.698  11.647  23.746  1.00  0.00    -0.384 OA
ATOM     31  H   UNL     1      24.010  10.897  24.338  1.00  0.00     0.211 HD
ENDBRANCH   6  30
BRANCH  22  32
ATOM     32  O   UNL     1      22.651  17.925  31.720  1.00  0.00    -0.393 OA
ATOM     33  H   UNL     1      21.679  18.046  31.956  1.00  0.00     0.210 HD
ENDBRANCH  22  32
BRANCH  28  34
ATOM     34  O   UNL     1      19.806  20.891  27.412  1.00  0.00    -0.393 OA
ATOM     35  H   UNL     1      19.221  21.074  28.201  1.00  0.00     0.210 HD
ENDBRANCH  28  34
TORSDOF 3
ENDMDL
MODEL 9
REMARK VINA RESULT:    -6.936      2.900      6.399
REMARK INTER + INTRA:          -7.544
REMARK INTER:                  -7.544
REMARK INTRA:                   0.000
REMARK UNBOUND:                 0.000
REMARK SMILES C[C@H]1CC[C@H]2[N@H+](C1)C[C@@H]1[C@@H]3C[C@H]4[C@H](C[C@H](O)[C@H]5C[C@H](O)CC[C@]54C)[C@@H]3CC[C@@H]1[C@]2(C)O
REMARK SMILES IDX 5 1 6 2 8 3 7 4 4 5 29 6 3 7 28 8 30 9 2 10 27 11 9 12 1 13
REMARK SMILES IDX 26 14 10 15 25 16 11 17 13 18 12 19 14 20 23 21 15 22 17 23
REMARK SMILES IDX 22 24 24 25 18 26 21 27 19 28 31 30 16 32 20 34
REMARK H PARENT 6 29 31 31 16 33 20 35
REMARK Flexibility Score: inf
ROOT
ATOM      1  C   UNL     1      19.472  15.147  20.389  1.00  0.00     0.216 C 
ATOM      2  N   UNL     1      19.761  13.665  20.217  1.00  0.00    -0.330 N 
ATOM      3  C   UNL     1      20.971  12.926  20.739  1.00  0.00     0.266 C 
ATOM      4  C   UNL     1      18.581  12.984  19.685  1.00  0.00     0.265 C 
ATOM      5  C   UNL     1      19.572  16.126  18.884  1.00  0.00     0.069 C 
ATOM      6  C   UNL     1      19.916  15.553  21.915  1.00  0.00     0.117 C 
ATOM      7  C   UNL     1      19.179  15.024  17.765  1.00  0.00     0.015 C 
ATOM      8  C   UNL     1      20.126  14.160  22.775  1.00  0.00     0.036 C 
ATOM      9  C   UNL     1      21.234  16.373  21.866  1.00  0.00     0.049 C 
ATOM     10  C   UNL     1      18.020  13.901  18.330  1.00  0.00     0.041 C 
ATOM     11  C   UNL     1      18.914  13.137  23.002  1.00  0.00     0.007 C 
ATOM     12  C   UNL     1      21.280  13.263  22.270  1.00  0.00     0.054 C 
ATOM     13  C   UNL     1      16.636  14.611  18.275  1.00  0.00     0.013 C 
ATOM     14  C   UNL     1      19.010  11.594  22.513  1.00  0.00     0.004 C 
ATOM     15  C   UNL     1      21.508  11.863  22.979  1.00  0.00     0.002 C 
ATOM     16  C   UNL     1      20.284  10.871  23.023  1.00  0.00    -0.004 C 
ATOM     17  C   UNL     1      22.687  11.078  22.395  1.00  0.00     0.009 C 
ATOM     18  C   UNL     1      20.832   9.537  22.246  1.00  0.00    -0.001 C 
ATOM     19  C   UNL     1      22.142   9.845  21.553  1.00  0.00    -0.001 C 
ATOM     20  C   UNL     1      20.103   8.343  21.486  1.00  0.00     0.036 C 
ATOM     21  C   UNL     1      22.092   9.735  19.917  1.00  0.00    -0.024 C 
ATOM     22  C   UNL     1      21.098   7.430  20.576  1.00  0.00     0.118 C 
ATOM     23  C   UNL     1      22.187   8.200  19.658  1.00  0.00     0.026 C 
ATOM     24  C   UNL     1      20.765  10.065  19.094  1.00  0.00     0.010 C 
ATOM     25  C   UNL     1      23.366  10.401  19.307  1.00  0.00     0.012 C 
ATOM     26  C   UNL     1      22.247   7.844  18.113  1.00  0.00     0.038 C 
ATOM     27  C   UNL     1      20.873  10.000  17.567  1.00  0.00     0.032 C 
ATOM     28  C   UNL     1      21.236   8.540  17.140  1.00  0.00     0.114 C 
ATOM     29  H   UNL     1      20.465  14.035  19.456  1.00  0.00     0.348 HD
ENDROOT
BRANCH   6  30
ATOM     30  O   UNL     1      18.895  16.321  22.528  1.00  0.00    -0.384 OA
ATOM     31  H   UNL     1      18.993  17.265  22.196  1.00  0.00     0.211 HD
ENDBRANCH   6  30
BRANCH  22  32
ATOM     32  O   UNL     1      21.828   6.609  21.454  1.00  0.00    -0.393 OA
ATOM     33  H   UNL     1      22.367   6.008  20.851  1.00  0.00     0.210 HD
ENDBRANCH  22  32
BRANCH  28  34
ATOM     34  O   UNL     1      21.725   8.514  15.815  1.00  0.00    -0.393 OA
ATOM     35  H   UNL     1      21.790   9.463  15.509  1.00  0.00     0.210 HD
ENDBRANCH  28  34
TORSDOF 3
ENDMDL
