MODEL 1
REMARK VINA RESULT:    -6.485      0.000      0.000
REMARK INTER + INTRA:          -9.572
REMARK INTER:                  -8.570
REMARK INTRA:                  -1.002
REMARK UNBOUND:                -1.002
REMARK SMILES CC[C@@H](C=C[C@H](C)[C@@H]1CC[C@@H]2[C@H]3CC[C@H]4C[C@@H](O)CC[C@@]4(C)[C@@H]3CC[C@@]21C)C(C)C
REMARK SMILES IDX 6 1 7 2 5 3 4 4 3 5 2 6 1 7 28 8 29 9 30 10 8 11 9 12 26 13
REMARK SMILES IDX 10 14 11 15 25 16 27 17 12 18 24 19 23 20 13 21 21 22 14 23
REMARK SMILES IDX 15 24 20 25 22 26 16 27 19 28 17 29 18 30
REMARK H PARENT 18 31
REMARK Flexibility Score: inf
ROOT
ATOM      1  C   UNL     1     135.063 139.621 137.546  1.00  0.00     0.012 C 
ATOM      2  C   UNL     1     135.285 138.176 137.066  1.00  0.00     0.012 C 
ENDROOT
BRANCH   1   3
ATOM      3  C   UNL     1     133.625 140.022 137.257  1.00  0.00    -0.028 C 
ATOM      4  C   UNL     1     132.560 139.253 137.553  1.00  0.00    -0.027 C 
BRANCH   4   5
ATOM      5  C   UNL     1     131.166 139.553 137.011  1.00  0.00     0.014 C 
BRANCH   5   6
ATOM      6  C   UNL     1     130.259 139.891 138.226  1.00  0.00     0.004 C 
ATOM      7  C   UNL     1     130.795 140.991 139.143  1.00  0.00     0.004 C 
ENDBRANCH   5   6
BRANCH   5   8
ATOM      8  C   UNL     1     130.587 138.408 136.093  1.00  0.00    -0.011 C 
ATOM      9  C   UNL     1     131.208 137.035 136.435  1.00  0.00     0.008 C 
ATOM     10  C   UNL     1     129.054 138.259 136.193  1.00  0.00     0.008 C 
ENDBRANCH   5   8
ENDBRANCH   4   5
ENDBRANCH   1   3
BRANCH   1  11
ATOM     11  C   UNL     1     135.521 139.828 139.048  1.00  0.00     0.002 C 
ATOM     12  C   UNL     1     134.585 140.715 139.864  1.00  0.00     0.005 C 
ATOM     13  C   UNL     1     136.951 140.425 139.316  1.00  0.00    -0.026 C 
ATOM     14  C   UNL     1     135.345 141.041 141.128  1.00  0.00     0.005 C 
ATOM     15  C   UNL     1     136.838 141.066 140.757  1.00  0.00    -0.001 C 
ATOM     16  C   UNL     1     137.350 141.504 138.258  1.00  0.00     0.007 C 
ATOM     17  C   UNL     1     138.012 139.286 139.321  1.00  0.00     0.012 C 
ATOM     18  C   UNL     1     137.434 142.502 140.872  1.00  0.00    -0.004 C 
ATOM     19  C   UNL     1     138.588 142.356 138.625  1.00  0.00     0.005 C 
ATOM     20  C   UNL     1     138.802 142.541 140.146  1.00  0.00    -0.001 C 
ATOM     21  C   UNL     1     137.498 142.994 142.347  1.00  0.00     0.004 C 
ATOM     22  C   UNL     1     139.675 143.777 140.570  1.00  0.00    -0.026 C 
ATOM     23  C   UNL     1     138.896 142.955 142.959  1.00  0.00     0.004 C 
ATOM     24  C   UNL     1     140.041 143.588 142.098  1.00  0.00    -0.002 C 
ATOM     25  C   UNL     1     140.971 143.931 139.690  1.00  0.00     0.010 C 
ATOM     26  C   UNL     1     138.911 145.123 140.359  1.00  0.00     0.012 C 
ATOM     27  C   UNL     1     141.297 142.699 142.336  1.00  0.00     0.036 C 
ATOM     28  C   UNL     1     142.090 142.941 140.004  1.00  0.00     0.032 C 
ATOM     29  C   UNL     1     142.490 143.075 141.467  1.00  0.00     0.114 C 
BRANCH  29  30
ATOM     30  O   UNL     1     143.555 142.206 141.747  1.00  0.00    -0.393 OA
ATOM     31  H   UNL     1     143.740 142.282 142.721  1.00  0.00     0.210 HD
ENDBRANCH  29  30
ENDBRANCH   1  11
TORSDOF 6
ENDMDL
MODEL 2
REMARK VINA RESULT:    -6.390      1.614      3.271
REMARK INTER + INTRA:          -9.447
REMARK INTER:                  -8.395
REMARK INTRA:                  -1.052
REMARK UNBOUND:                -1.002
REMARK SMILES CC[C@@H](C=C[C@H](C)[C@@H]1CC[C@@H]2[C@H]3CC[C@H]4C[C@@H](O)CC[C@@]4(C)[C@@H]3CC[C@@]21C)C(C)C
REMARK SMILES IDX 6 1 7 2 5 3 4 4 3 5 2 6 1 7 28 8 29 9 30 10 8 11 9 12 26 13
REMARK SMILES IDX 10 14 11 15 25 16 27 17 12 18 24 19 23 20 13 21 21 22 14 23
REMARK SMILES IDX 15 24 20 25 22 26 16 27 19 28 17 29 18 30
REMARK H PARENT 18 31
REMARK Flexibility Score: inf
ROOT
ATOM      1  C   UNL     1     133.826 140.402 136.967  1.00  0.00     0.012 C 
ATOM      2  C   UNL     1     133.505 140.472 135.464  1.00  0.00     0.012 C 
ENDROOT
BRANCH   1   3
ATOM      3  C   UNL     1     132.798 139.515 137.651  1.00  0.00    -0.028 C 
ATOM      4  C   UNL     1     131.782 138.912 137.004  1.00  0.00    -0.027 C 
BRANCH   4   5
ATOM      5  C   UNL     1     130.620 138.259 137.746  1.00  0.00     0.014 C 
BRANCH   5   6
ATOM      6  C   UNL     1     130.581 136.765 137.323  1.00  0.00     0.004 C 
ATOM      7  C   UNL     1     131.861 136.249 136.665  1.00  0.00     0.004 C 
ENDBRANCH   5   6
BRANCH   5   8
ATOM      8  C   UNL     1     129.244 139.006 137.545  1.00  0.00    -0.011 C 
ATOM      9  C   UNL     1     129.245 140.393 138.226  1.00  0.00     0.008 C 
ATOM     10  C   UNL     1     128.875 139.221 136.062  1.00  0.00     0.008 C 
ENDBRANCH   5   8
ENDBRANCH   4   5
ENDBRANCH   1   3
BRANCH   1  11
ATOM     11  C   UNL     1     135.334 140.001 137.238  1.00  0.00     0.002 C 
ATOM     12  C   UNL     1     135.526 138.537 137.623  1.00  0.00     0.005 C 
ATOM     13  C   UNL     1     136.133 140.797 138.333  1.00  0.00    -0.026 C 
ATOM     14  C   UNL     1     136.943 138.442 138.138  1.00  0.00     0.005 C 
ATOM     15  C   UNL     1     137.276 139.801 138.778  1.00  0.00    -0.001 C 
ATOM     16  C   UNL     1     135.235 141.192 139.551  1.00  0.00     0.007 C 
ATOM     17  C   UNL     1     136.756 142.081 137.712  1.00  0.00     0.012 C 
ATOM     18  C   UNL     1     137.460 139.678 140.322  1.00  0.00    -0.004 C 
ATOM     19  C   UNL     1     136.003 141.691 140.798  1.00  0.00     0.005 C 
ATOM     20  C   UNL     1     137.423 141.094 140.949  1.00  0.00    -0.001 C 
ATOM     21  C   UNL     1     138.732 138.864 140.698  1.00  0.00     0.004 C 
ATOM     22  C   UNL     1     138.029 141.128 142.398  1.00  0.00    -0.026 C 
ATOM     23  C   UNL     1     139.904 139.720 141.175  1.00  0.00     0.004 C 
ATOM     24  C   UNL     1     139.570 140.792 142.267  1.00  0.00    -0.002 C 
ATOM     25  C   UNL     1     137.807 142.513 143.113  1.00  0.00     0.010 C 
ATOM     26  C   UNL     1     137.329 140.098 143.341  1.00  0.00     0.012 C 
ATOM     27  C   UNL     1     140.454 142.030 141.936  1.00  0.00     0.036 C 
ATOM     28  C   UNL     1     138.712 143.645 142.629  1.00  0.00     0.032 C 
ATOM     29  C   UNL     1     140.168 143.243 142.812  1.00  0.00     0.114 C 
BRANCH  29  30
ATOM     30  O   UNL     1     141.003 144.301 142.421  1.00  0.00    -0.393 OA
ATOM     31  H   UNL     1     140.871 145.031 143.084  1.00  0.00     0.210 HD
ENDBRANCH  29  30
ENDBRANCH   1  11
TORSDOF 6
ENDMDL
MODEL 3
REMARK VINA RESULT:    -6.250      2.815      6.268
REMARK INTER + INTRA:          -9.261
REMARK INTER:                  -7.601
REMARK INTRA:                  -1.661
REMARK UNBOUND:                -1.002
REMARK SMILES CC[C@@H](C=C[C@H](C)[C@@H]1CC[C@@H]2[C@H]3CC[C@H]4C[C@@H](O)CC[C@@]4(C)[C@@H]3CC[C@@]21C)C(C)C
REMARK SMILES IDX 6 1 7 2 5 3 4 4 3 5 2 6 1 7 28 8 29 9 30 10 8 11 9 12 26 13
REMARK SMILES IDX 10 14 11 15 25 16 27 17 12 18 24 19 23 20 13 21 21 22 14 23
REMARK SMILES IDX 15 24 20 25 22 26 16 27 19 28 17 29 18 30
REMARK H PARENT 18 31
REMARK Flexibility Score: inf
ROOT
ATOM      1  C   UNL     1     138.010 142.572 142.548  1.00  0.00     0.012 C 
ATOM      2  C   UNL     1     137.321 143.739 143.278  1.00  0.00     0.012 C 
ENDROOT
BRANCH   1   3
ATOM      3  C   UNL     1     137.007 141.910 141.618  1.00  0.00    -0.028 C 
ATOM      4  C   UNL     1     136.997 140.590 141.345  1.00  0.00    -0.027 C 
BRANCH   4   5
ATOM      5  C   UNL     1     136.164 140.002 140.211  1.00  0.00     0.014 C 
BRANCH   5   6
ATOM      6  C   UNL     1     137.123 139.170 139.315  1.00  0.00     0.004 C 
ATOM      7  C   UNL     1     138.586 139.177 139.759  1.00  0.00     0.004 C 
ENDBRANCH   5   6
BRANCH   5   8
ATOM      8  C   UNL     1     135.333 141.080 139.413  1.00  0.00    -0.011 C 
ATOM      9  C   UNL     1     136.164 141.706 138.270  1.00  0.00     0.008 C 
ATOM     10  C   UNL     1     134.040 140.516 138.787  1.00  0.00     0.008 C 
ENDBRANCH   5   8
ENDBRANCH   4   5
ENDBRANCH   1   3
BRANCH   1  11
ATOM     11  C   UNL     1     139.365 143.015 141.857  1.00  0.00     0.002 C 
ATOM     12  C   UNL     1     139.357 142.881 140.338  1.00  0.00     0.005 C 
ATOM     13  C   UNL     1     140.696 142.307 142.302  1.00  0.00    -0.026 C 
ATOM     14  C   UNL     1     140.800 143.039 139.916  1.00  0.00     0.005 C 
ATOM     15  C   UNL     1     141.663 142.489 141.065  1.00  0.00    -0.001 C 
ATOM     16  C   UNL     1     140.482 140.792 142.622  1.00  0.00     0.007 C 
ATOM     17  C   UNL     1     141.289 143.021 143.552  1.00  0.00     0.012 C 
ATOM     18  C   UNL     1     142.421 141.193 140.643  1.00  0.00    -0.004 C 
ATOM     19  C   UNL     1     141.780 139.961 142.757  1.00  0.00     0.005 C 
ATOM     20  C   UNL     1     142.963 140.490 141.913  1.00  0.00    -0.001 C 
ATOM     21  C   UNL     1     143.515 141.476 139.574  1.00  0.00     0.004 C 
ATOM     22  C   UNL     1     144.094 139.448 141.589  1.00  0.00    -0.026 C 
ATOM     23  C   UNL     1     144.941 141.479 140.122  1.00  0.00     0.004 C 
ATOM     24  C   UNL     1     145.330 140.260 141.026  1.00  0.00    -0.002 C 
ATOM     25  C   UNL     1     144.501 138.589 142.843  1.00  0.00     0.010 C 
ATOM     26  C   UNL     1     143.620 138.389 140.542  1.00  0.00     0.012 C 
ATOM     27  C   UNL     1     146.261 140.831 142.136  1.00  0.00     0.036 C 
ATOM     28  C   UNL     1     145.364 139.314 143.874  1.00  0.00     0.032 C 
ATOM     29  C   UNL     1     146.637 139.814 143.206  1.00  0.00     0.114 C 
BRANCH  29  30
ATOM     30  O   UNL     1     147.459 140.433 144.161  1.00  0.00    -0.393 OA
ATOM     31  H   UNL     1     147.387 139.894 144.994  1.00  0.00     0.210 HD
ENDBRANCH  29  30
ENDBRANCH   1  11
TORSDOF 6
ENDMDL
MODEL 4
REMARK VINA RESULT:    -6.232     10.043     14.020
REMARK INTER + INTRA:          -9.238
REMARK INTER:                  -7.602
REMARK INTRA:                  -1.636
REMARK UNBOUND:                -1.002
REMARK SMILES CC[C@@H](C=C[C@H](C)[C@@H]1CC[C@@H]2[C@H]3CC[C@H]4C[C@@H](O)CC[C@@]4(C)[C@@H]3CC[C@@]21C)C(C)C
REMARK SMILES IDX 6 1 7 2 5 3 4 4 3 5 2 6 1 7 28 8 29 9 30 10 8 11 9 12 26 13
REMARK SMILES IDX 10 14 11 15 25 16 27 17 12 18 24 19 23 20 13 21 21 22 14 23
REMARK SMILES IDX 15 24 20 25 22 26 16 27 19 28 17 29 18 30
REMARK H PARENT 18 31
REMARK Flexibility Score: inf
ROOT
ATOM      1  C   UNL     1     144.774 134.294 147.707  1.00  0.00     0.012 C 
ATOM      2  C   UNL     1     146.090 133.574 148.052  1.00  0.00     0.012 C 
ENDROOT
BRANCH   1   3
ATOM      3  C   UNL     1     145.084 135.499 146.835  1.00  0.00    -0.028 C 
ATOM      4  C   UNL     1     144.477 136.695 146.967  1.00  0.00    -0.027 C 
BRANCH   4   5
ATOM      5  C   UNL     1     144.607 137.793 145.916  1.00  0.00     0.014 C 
BRANCH   5   6
ATOM      6  C   UNL     1     143.445 137.603 144.902  1.00  0.00     0.004 C 
ATOM      7  C   UNL     1     142.114 137.176 145.521  1.00  0.00     0.004 C 
ENDBRANCH   5   6
BRANCH   5   8
ATOM      8  C   UNL     1     146.030 137.853 145.240  1.00  0.00    -0.011 C 
ATOM      9  C   UNL     1     146.026 138.756 143.986  1.00  0.00     0.008 C 
ATOM     10  C   UNL     1     147.135 138.377 146.182  1.00  0.00     0.008 C 
ENDBRANCH   5   8
ENDBRANCH   4   5
ENDBRANCH   1   3
BRANCH   1  11
ATOM     11  C   UNL     1     143.689 133.304 147.113  1.00  0.00     0.002 C 
ATOM     12  C   UNL     1     143.390 133.531 145.634  1.00  0.00     0.005 C 
ATOM     13  C   UNL     1     142.272 133.255 147.792  1.00  0.00    -0.026 C 
ATOM     14  C   UNL     1     142.140 132.731 145.353  1.00  0.00     0.005 C 
ATOM     15  C   UNL     1     141.317 132.718 146.653  1.00  0.00    -0.001 C 
ATOM     16  C   UNL     1     141.806 134.661 148.291  1.00  0.00     0.007 C 
ATOM     17  C   UNL     1     142.289 132.259 148.988  1.00  0.00     0.012 C 
ATOM     18  C   UNL     1     139.987 133.517 146.498  1.00  0.00    -0.004 C 
ATOM     19  C   UNL     1     140.311 134.756 148.679  1.00  0.00     0.005 C 
ATOM     20  C   UNL     1     139.392 133.784 147.902  1.00  0.00    -0.001 C 
ATOM     21  C   UNL     1     138.994 132.819 145.524  1.00  0.00     0.004 C 
ATOM     22  C   UNL     1     137.871 134.176 147.849  1.00  0.00    -0.026 C 
ATOM     23  C   UNL     1     137.842 132.096 146.217  1.00  0.00     0.004 C 
ATOM     24  C   UNL     1     137.081 132.912 147.317  1.00  0.00    -0.002 C 
ATOM     25  C   UNL     1     137.318 134.646 149.246  1.00  0.00     0.010 C 
ATOM     26  C   UNL     1     137.624 135.402 146.912  1.00  0.00     0.012 C 
ATOM     27  C   UNL     1     136.714 131.889 148.432  1.00  0.00     0.036 C 
ATOM     28  C   UNL     1     137.069 133.525 150.254  1.00  0.00     0.032 C 
ATOM     29  C   UNL     1     136.085 132.524 149.666  1.00  0.00     0.114 C 
BRANCH  29  30
ATOM     30  O   UNL     1     135.810 131.522 150.609  1.00  0.00    -0.393 OA
ATOM     31  H   UNL     1     136.311 131.760 151.435  1.00  0.00     0.210 HD
ENDBRANCH  29  30
ENDBRANCH   1  11
TORSDOF 6
ENDMDL
MODEL 5
REMARK VINA RESULT:    -6.214      4.646     10.577
REMARK INTER + INTRA:          -9.213
REMARK INTER:                  -8.243
REMARK INTRA:                  -0.970
REMARK UNBOUND:                -1.002
REMARK SMILES CC[C@@H](C=C[C@H](C)[C@@H]1CC[C@@H]2[C@H]3CC[C@H]4C[C@@H](O)CC[C@@]4(C)[C@@H]3CC[C@@]21C)C(C)C
REMARK SMILES IDX 6 1 7 2 5 3 4 4 3 5 2 6 1 7 28 8 29 9 30 10 8 11 9 12 26 13
REMARK SMILES IDX 10 14 11 15 25 16 27 17 12 18 24 19 23 20 13 21 21 22 14 23
REMARK SMILES IDX 15 24 20 25 22 26 16 27 19 28 17 29 18 30
REMARK H PARENT 18 31
REMARK Flexibility Score: inf
ROOT
ATOM      1  C   UNL     1     143.383 138.638 143.283  1.00  0.00     0.012 C 
ATOM      2  C   UNL     1     143.390 137.176 142.802  1.00  0.00     0.012 C 
ENDROOT
BRANCH   1   3
ATOM      3  C   UNL     1     144.705 138.938 143.973  1.00  0.00    -0.028 C 
ATOM      4  C   UNL     1     145.593 137.990 144.332  1.00  0.00    -0.027 C 
BRANCH   4   5
ATOM      5  C   UNL     1     146.769 138.287 145.256  1.00  0.00     0.014 C 
BRANCH   5   6
ATOM      6  C   UNL     1     146.375 137.804 146.679  1.00  0.00     0.004 C 
ATOM      7  C   UNL     1     145.403 136.624 146.711  1.00  0.00     0.004 C 
ENDBRANCH   5   6
BRANCH   5   8
ATOM      8  C   UNL     1     147.242 139.792 145.210  1.00  0.00    -0.011 C 
ATOM      9  C   UNL     1     147.196 140.445 146.610  1.00  0.00     0.008 C 
ATOM     10  C   UNL     1     148.676 139.966 144.667  1.00  0.00     0.008 C 
ENDBRANCH   5   8
ENDBRANCH   4   5
ENDBRANCH   1   3
BRANCH   1  11
ATOM     11  C   UNL     1     142.995 139.647 142.125  1.00  0.00     0.002 C 
ATOM     12  C   UNL     1     143.492 141.071 142.352  1.00  0.00     0.005 C 
ATOM     13  C   UNL     1     141.474 139.820 141.766  1.00  0.00    -0.026 C 
ATOM     14  C   UNL     1     142.764 141.915 141.333  1.00  0.00     0.005 C 
ATOM     15  C   UNL     1     141.395 141.252 141.101  1.00  0.00    -0.001 C 
ATOM     16  C   UNL     1     140.555 139.743 143.029  1.00  0.00     0.007 C 
ATOM     17  C   UNL     1     141.039 138.731 140.743  1.00  0.00     0.012 C 
ATOM     18  C   UNL     1     140.229 142.144 141.626  1.00  0.00    -0.004 C 
ATOM     19  C   UNL     1     139.098 140.215 142.809  1.00  0.00     0.005 C 
ATOM     20  C   UNL     1     138.939 141.291 141.709  1.00  0.00    -0.001 C 
ATOM     21  C   UNL     1     140.062 143.444 140.789  1.00  0.00     0.004 C 
ATOM     22  C   UNL     1     137.639 142.169 141.794  1.00  0.00    -0.026 C 
ATOM     23  C   UNL     1     138.880 143.418 139.822  1.00  0.00     0.004 C 
ATOM     24  C   UNL     1     137.512 142.949 140.423  1.00  0.00    -0.002 C 
ATOM     25  C   UNL     1     136.349 141.314 142.084  1.00  0.00     0.010 C 
ATOM     26  C   UNL     1     137.701 143.177 142.986  1.00  0.00     0.012 C 
ATOM     27  C   UNL     1     136.810 142.130 139.300  1.00  0.00     0.036 C 
ATOM     28  C   UNL     1     135.820 140.516 140.894  1.00  0.00     0.032 C 
ATOM     29  C   UNL     1     135.513 141.465 139.744  1.00  0.00     0.114 C 
BRANCH  29  30
ATOM     30  O   UNL     1     134.974 140.744 138.667  1.00  0.00    -0.393 OA
ATOM     31  H   UNL     1     135.222 139.790 138.808  1.00  0.00     0.210 HD
ENDBRANCH  29  30
ENDBRANCH   1  11
TORSDOF 6
ENDMDL
MODEL 6
REMARK VINA RESULT:    -6.194      4.647     10.750
REMARK INTER + INTRA:          -9.188
REMARK INTER:                  -8.039
REMARK INTRA:                  -1.148
REMARK UNBOUND:                -1.002
REMARK SMILES CC[C@@H](C=C[C@H](C)[C@@H]1CC[C@@H]2[C@H]3CC[C@H]4C[C@@H](O)CC[C@@]4(C)[C@@H]3CC[C@@]21C)C(C)C
REMARK SMILES IDX 6 1 7 2 5 3 4 4 3 5 2 6 1 7 28 8 29 9 30 10 8 11 9 12 26 13
REMARK SMILES IDX 10 14 11 15 25 16 27 17 12 18 24 19 23 20 13 21 21 22 14 23
REMARK SMILES IDX 15 24 20 25 22 26 16 27 19 28 17 29 18 30
REMARK H PARENT 18 31
REMARK Flexibility Score: inf
ROOT
ATOM      1  C   UNL     1     144.685 138.464 141.598  1.00  0.00     0.012 C 
ATOM      2  C   UNL     1     144.890 137.065 140.989  1.00  0.00     0.012 C 
ENDROOT
BRANCH   1   3
ATOM      3  C   UNL     1     146.016 138.973 142.125  1.00  0.00    -0.028 C 
ATOM      4  C   UNL     1     146.235 139.300 143.414  1.00  0.00    -0.027 C 
BRANCH   4   5
ATOM      5  C   UNL     1     147.481 140.058 143.859  1.00  0.00     0.014 C 
BRANCH   5   6
ATOM      6  C   UNL     1     148.574 139.830 142.778  1.00  0.00     0.004 C 
ATOM      7  C   UNL     1     149.037 141.095 142.055  1.00  0.00     0.004 C 
ENDBRANCH   5   6
BRANCH   5   8
ATOM      8  C   UNL     1     147.954 139.693 145.319  1.00  0.00    -0.011 C 
ATOM      9  C   UNL     1     147.208 140.527 146.385  1.00  0.00     0.008 C 
ATOM     10  C   UNL     1     147.750 138.205 145.674  1.00  0.00     0.008 C 
ENDBRANCH   5   8
ENDBRANCH   4   5
ENDBRANCH   1   3
BRANCH   1  11
ATOM     11  C   UNL     1     143.945 139.447 140.600  1.00  0.00     0.002 C 
ATOM     12  C   UNL     1     144.634 140.799 140.439  1.00  0.00     0.005 C 
ATOM     13  C   UNL     1     142.442 139.809 140.886  1.00  0.00    -0.026 C 
ATOM     14  C   UNL     1     143.630 141.675 139.726  1.00  0.00     0.005 C 
ATOM     15  C   UNL     1     142.233 141.196 140.158  1.00  0.00    -0.001 C 
ATOM     16  C   UNL     1     142.145 139.935 142.416  1.00  0.00     0.007 C 
ATOM     17  C   UNL     1     141.506 138.733 140.264  1.00  0.00     0.012 C 
ATOM     18  C   UNL     1     141.498 142.271 141.016  1.00  0.00    -0.004 C 
ATOM     19  C   UNL     1     140.789 140.590 142.769  1.00  0.00     0.005 C 
ATOM     20  C   UNL     1     140.287 141.612 141.721  1.00  0.00    -0.001 C 
ATOM     21  C   UNL     1     141.124 143.531 140.183  1.00  0.00     0.004 C 
ATOM     22  C   UNL     1     139.242 142.666 142.238  1.00  0.00    -0.026 C 
ATOM     23  C   UNL     1     139.647 143.613 139.802  1.00  0.00     0.004 C 
ATOM     24  C   UNL     1     138.624 143.374 140.964  1.00  0.00    -0.002 C 
ATOM     25  C   UNL     1     138.119 142.017 143.129  1.00  0.00     0.010 C 
ATOM     26  C   UNL     1     139.907 143.723 143.176  1.00  0.00     0.012 C 
ATOM     27  C   UNL     1     137.433 142.597 140.333  1.00  0.00     0.036 C 
ATOM     28  C   UNL     1     137.056 141.232 142.362  1.00  0.00     0.032 C 
ATOM     29  C   UNL     1     136.387 142.145 141.345  1.00  0.00     0.114 C 
BRANCH  29  30
ATOM     30  O   UNL     1     135.372 141.444 140.676  1.00  0.00    -0.393 OA
ATOM     31  H   UNL     1     135.708 140.518 140.535  1.00  0.00     0.210 HD
ENDBRANCH  29  30
ENDBRANCH   1  11
TORSDOF 6
ENDMDL
MODEL 7
REMARK VINA RESULT:    -6.159     10.247     14.128
REMARK INTER + INTRA:          -9.141
REMARK INTER:                  -8.647
REMARK INTRA:                  -0.494
REMARK UNBOUND:                -1.002
REMARK SMILES CC[C@@H](C=C[C@H](C)[C@@H]1CC[C@@H]2[C@H]3CC[C@H]4C[C@@H](O)CC[C@@]4(C)[C@@H]3CC[C@@]21C)C(C)C
REMARK SMILES IDX 6 1 7 2 5 3 4 4 3 5 2 6 1 7 28 8 29 9 30 10 8 11 9 12 26 13
REMARK SMILES IDX 10 14 11 15 25 16 27 17 12 18 24 19 23 20 13 21 21 22 14 23
REMARK SMILES IDX 15 24 20 25 22 26 16 27 19 28 17 29 18 30
REMARK H PARENT 18 31
REMARK Flexibility Score: inf
ROOT
ATOM      1  C   UNL     1     142.350 135.145 148.978  1.00  0.00     0.012 C 
ATOM      2  C   UNL     1     142.792 133.821 149.627  1.00  0.00     0.012 C 
ENDROOT
BRANCH   1   3
ATOM      3  C   UNL     1     143.032 135.285 147.626  1.00  0.00    -0.028 C 
ATOM      4  C   UNL     1     143.470 136.457 147.127  1.00  0.00    -0.027 C 
BRANCH   4   5
ATOM      5  C   UNL     1     143.897 136.610 145.671  1.00  0.00     0.014 C 
BRANCH   5   6
ATOM      6  C   UNL     1     143.648 135.247 144.968  1.00  0.00     0.004 C 
ATOM      7  C   UNL     1     143.310 135.342 143.480  1.00  0.00     0.004 C 
ENDBRANCH   5   6
BRANCH   5   8
ATOM      8  C   UNL     1     145.370 137.147 145.498  1.00  0.00    -0.011 C 
ATOM      9  C   UNL     1     145.395 138.531 144.812  1.00  0.00     0.008 C 
ATOM     10  C   UNL     1     146.133 137.281 146.833  1.00  0.00     0.008 C 
ENDBRANCH   5   8
ENDBRANCH   4   5
ENDBRANCH   1   3
BRANCH   1  11
ATOM     11  C   UNL     1     140.774 135.299 148.947  1.00  0.00     0.002 C 
ATOM     12  C   UNL     1     140.107 135.112 150.307  1.00  0.00     0.005 C 
ATOM     13  C   UNL     1     139.953 134.368 147.982  1.00  0.00    -0.026 C 
ATOM     14  C   UNL     1     138.632 134.978 150.012  1.00  0.00     0.005 C 
ATOM     15  C   UNL     1     138.511 134.318 148.628  1.00  0.00    -0.001 C 
ATOM     16  C   UNL     1     140.566 132.934 147.879  1.00  0.00     0.007 C 
ATOM     17  C   UNL     1     139.880 135.003 146.563  1.00  0.00     0.012 C 
ATOM     18  C   UNL     1     137.898 132.887 148.726  1.00  0.00    -0.004 C 
ATOM     19  C   UNL     1     139.654 131.878 147.210  1.00  0.00     0.005 C 
ATOM     20  C   UNL     1     138.140 132.142 147.390  1.00  0.00    -0.001 C 
ATOM     21  C   UNL     1     136.404 132.918 149.159  1.00  0.00     0.004 C 
ATOM     22  C   UNL     1     137.202 130.893 147.217  1.00  0.00    -0.026 C 
ATOM     23  C   UNL     1     135.417 132.671 148.020  1.00  0.00     0.004 C 
ATOM     24  C   UNL     1     135.719 131.436 147.106  1.00  0.00    -0.002 C 
ATOM     25  C   UNL     1     137.583 130.020 145.964  1.00  0.00     0.010 C 
ATOM     26  C   UNL     1     137.329 129.905 148.420  1.00  0.00     0.012 C 
ATOM     27  C   UNL     1     135.315 131.861 145.664  1.00  0.00     0.036 C 
ATOM     28  C   UNL     1     137.172 130.607 144.615  1.00  0.00     0.032 C 
ATOM     29  C   UNL     1     135.667 130.832 144.597  1.00  0.00     0.114 C 
BRANCH  29  30
ATOM     30  O   UNL     1     135.277 131.319 143.341  1.00  0.00    -0.393 OA
ATOM     31  H   UNL     1     134.350 131.666 143.443  1.00  0.00     0.210 HD
ENDBRANCH  29  30
ENDBRANCH   1  11
TORSDOF 6
ENDMDL
MODEL 8
REMARK VINA RESULT:    -6.106      1.118      1.703
REMARK INTER + INTRA:          -9.071
REMARK INTER:                  -8.000
REMARK INTRA:                  -1.072
REMARK UNBOUND:                -1.002
REMARK SMILES CC[C@@H](C=C[C@H](C)[C@@H]1CC[C@@H]2[C@H]3CC[C@H]4C[C@@H](O)CC[C@@]4(C)[C@@H]3CC[C@@]21C)C(C)C
REMARK SMILES IDX 6 1 7 2 5 3 4 4 3 5 2 6 1 7 28 8 29 9 30 10 8 11 9 12 26 13
REMARK SMILES IDX 10 14 11 15 25 16 27 17 12 18 24 19 23 20 13 21 21 22 14 23
REMARK SMILES IDX 15 24 20 25 22 26 16 27 19 28 17 29 18 30
REMARK H PARENT 18 31
REMARK Flexibility Score: inf
ROOT
ATOM      1  C   UNL     1     136.037 139.021 138.008  1.00  0.00     0.012 C 
ATOM      2  C   UNL     1     135.995 137.484 137.948  1.00  0.00     0.012 C 
ENDROOT
BRANCH   1   3
ATOM      3  C   UNL     1     134.848 139.579 137.243  1.00  0.00    -0.028 C 
ATOM      4  C   UNL     1     133.763 138.851 136.913  1.00  0.00    -0.027 C 
BRANCH   4   5
ATOM      5  C   UNL     1     132.719 139.353 135.920  1.00  0.00     0.014 C 
BRANCH   5   6
ATOM      6  C   UNL     1     133.135 140.788 135.497  1.00  0.00     0.004 C 
ATOM      7  C   UNL     1     133.642 140.913 134.060  1.00  0.00     0.004 C 
ENDBRANCH   5   6
BRANCH   5   8
ATOM      8  C   UNL     1     131.240 139.259 136.460  1.00  0.00    -0.011 C 
ATOM      9  C   UNL     1     130.710 137.808 136.420  1.00  0.00     0.008 C 
ATOM     10  C   UNL     1     131.083 139.768 137.908  1.00  0.00     0.008 C 
ENDBRANCH   5   8
ENDBRANCH   4   5
ENDBRANCH   1   3
BRANCH   1  11
ATOM     11  C   UNL     1     136.184 139.557 139.492  1.00  0.00     0.002 C 
ATOM     12  C   UNL     1     135.129 140.588 139.884  1.00  0.00     0.005 C 
ATOM     13  C   UNL     1     137.546 140.218 139.915  1.00  0.00    -0.026 C 
ATOM     14  C   UNL     1     135.624 141.192 141.177  1.00  0.00     0.005 C 
ATOM     15  C   UNL     1     137.161 141.156 141.127  1.00  0.00    -0.001 C 
ATOM     16  C   UNL     1     138.189 141.045 138.754  1.00  0.00     0.007 C 
ATOM     17  C   UNL     1     138.547 139.122 140.385  1.00  0.00     0.012 C 
ATOM     18  C   UNL     1     137.767 142.590 141.050  1.00  0.00    -0.004 C 
ATOM     19  C   UNL     1     139.352 141.974 139.178  1.00  0.00     0.005 C 
ATOM     20  C   UNL     1     139.255 142.488 140.634  1.00  0.00    -0.001 C 
ATOM     21  C   UNL     1     137.542 143.393 142.364  1.00  0.00     0.004 C 
ATOM     22  C   UNL     1     140.062 143.798 140.952  1.00  0.00    -0.026 C 
ATOM     23  C   UNL     1     138.783 143.507 143.247  1.00  0.00     0.004 C 
ATOM     24  C   UNL     1     140.100 143.952 142.527  1.00  0.00    -0.002 C 
ATOM     25  C   UNL     1     141.515 143.775 140.347  1.00  0.00     0.010 C 
ATOM     26  C   UNL     1     139.401 145.055 140.301  1.00  0.00     0.012 C 
ATOM     27  C   UNL     1     141.251 143.153 143.206  1.00  0.00     0.036 C 
ATOM     28  C   UNL     1     142.514 142.892 141.094  1.00  0.00     0.032 C 
ATOM     29  C   UNL     1     142.609 143.347 142.543  1.00  0.00     0.114 C 
BRANCH  29  30
ATOM     30  O   UNL     1     143.565 142.575 143.219  1.00  0.00    -0.393 OA
ATOM     31  H   UNL     1     143.106 141.743 143.514  1.00  0.00     0.210 HD
ENDBRANCH  29  30
ENDBRANCH   1  11
TORSDOF 6
ENDMDL
MODEL 9
REMARK VINA RESULT:    -6.037      5.040     10.761
REMARK INTER + INTRA:          -8.981
REMARK INTER:                  -7.544
REMARK INTRA:                  -1.436
REMARK UNBOUND:                -1.002
REMARK SMILES CC[C@@H](C=C[C@H](C)[C@@H]1CC[C@@H]2[C@H]3CC[C@H]4C[C@@H](O)CC[C@@]4(C)[C@@H]3CC[C@@]21C)C(C)C
REMARK SMILES IDX 6 1 7 2 5 3 4 4 3 5 2 6 1 7 28 8 29 9 30 10 8 11 9 12 26 13
REMARK SMILES IDX 10 14 11 15 25 16 27 17 12 18 24 19 23 20 13 21 21 22 14 23
REMARK SMILES IDX 15 24 20 25 22 26 16 27 19 28 17 29 18 30
REMARK H PARENT 18 31
REMARK Flexibility Score: inf
ROOT
ATOM      1  C   UNL     1     143.751 137.149 144.143  1.00  0.00     0.012 C 
ATOM      2  C   UNL     1     143.825 135.700 144.657  1.00  0.00     0.012 C 
ENDROOT
BRANCH   1   3
ATOM      3  C   UNL     1     145.146 137.753 144.165  1.00  0.00    -0.028 C 
ATOM      4  C   UNL     1     145.412 139.008 144.578  1.00  0.00    -0.027 C 
BRANCH   4   5
ATOM      5  C   UNL     1     146.762 139.673 144.335  1.00  0.00     0.014 C 
BRANCH   5   6
ATOM      6  C   UNL     1     147.409 138.975 143.107  1.00  0.00     0.004 C 
ATOM      7  C   UNL     1     147.173 139.676 141.769  1.00  0.00     0.004 C 
ENDBRANCH   5   6
BRANCH   5   8
ATOM      8  C   UNL     1     147.692 139.696 145.609  1.00  0.00    -0.011 C 
ATOM      9  C   UNL     1     146.868 139.663 146.916  1.00  0.00     0.008 C 
ATOM     10  C   UNL     1     148.687 138.518 145.662  1.00  0.00     0.008 C 
ENDBRANCH   5   8
ENDBRANCH   4   5
ENDBRANCH   1   3
BRANCH   1  11
ATOM     11  C   UNL     1     143.004 137.251 142.750  1.00  0.00     0.002 C 
ATOM     12  C   UNL     1     143.885 137.759 141.612  1.00  0.00     0.005 C 
ATOM     13  C   UNL     1     141.708 138.136 142.661  1.00  0.00    -0.026 C 
ATOM     14  C   UNL     1     142.933 138.082 140.485  1.00  0.00     0.005 C 
ATOM     15  C   UNL     1     141.609 138.523 141.132  1.00  0.00    -0.001 C 
ATOM     16  C   UNL     1     141.804 139.417 143.553  1.00  0.00     0.007 C 
ATOM     17  C   UNL     1     140.463 137.303 143.083  1.00  0.00     0.012 C 
ATOM     18  C   UNL     1     141.314 140.031 140.866  1.00  0.00    -0.004 C 
ATOM     19  C   UNL     1     140.719 140.487 143.282  1.00  0.00     0.005 C 
ATOM     20  C   UNL     1     140.195 140.504 141.827  1.00  0.00    -0.001 C 
ATOM     21  C   UNL     1     141.008 140.313 139.367  1.00  0.00     0.004 C 
ATOM     22  C   UNL     1     139.523 141.845 141.357  1.00  0.00    -0.026 C 
ATOM     23  C   UNL     1     139.528 140.533 139.061  1.00  0.00     0.004 C 
ATOM     24  C   UNL     1     138.776 141.540 139.995  1.00  0.00    -0.002 C 
ATOM     25  C   UNL     1     138.533 142.433 142.430  1.00  0.00     0.010 C 
ATOM     26  C   UNL     1     140.579 142.978 141.153  1.00  0.00     0.012 C 
ATOM     27  C   UNL     1     137.343 140.962 140.184  1.00  0.00     0.036 C 
ATOM     28  C   UNL     1     137.191 141.713 142.537  1.00  0.00     0.032 C 
ATOM     29  C   UNL     1     136.494 141.736 141.184  1.00  0.00     0.114 C 
BRANCH  29  30
ATOM     30  O   UNL     1     135.236 141.124 141.291  1.00  0.00    -0.393 OA
ATOM     31  H   UNL     1     134.614 141.809 141.657  1.00  0.00     0.210 HD
ENDBRANCH  29  30
ENDBRANCH   1  11
TORSDOF 6
ENDMDL
