MODEL 1
REMARK VINA RESULT:    -5.268      0.000      0.000
REMARK INTER + INTRA:         -19.178
REMARK INTER:                 -13.890
REMARK INTRA:                  -5.288
REMARK UNBOUND:                -5.288
REMARK SMILES CCCCCCCCCCCCCCCCCCCCCCCCCCCCCC(=O)[O-]
REMARK SMILES IDX 16 1 17 2 18 3 19 4 20 5 21 6 22 7 23 8 24 9 25 10 26 11
REMARK SMILES IDX 27 12 28 13 29 14 30 15 31 16 32 17 15 18 14 19 13 20 12 21
REMARK SMILES IDX 11 22 10 23 9 24 8 25 7 26 6 27 5 28 4 29 3 30 2 31 1 32
REMARK H PARENT
REMARK Flexibility Score: inf
ROOT
ATOM      1  C   UNL     1       2.501  52.393  19.055  1.00  0.00     0.000 C 
ENDROOT
BRANCH   1   2
ATOM      2  C   UNL     1       1.035  52.155  19.476  1.00  0.00     0.000 C 
BRANCH   2   3
ATOM      3  C   UNL     1       0.217  51.419  18.398  1.00  0.00     0.000 C 
BRANCH   3   4
ATOM      4  C   UNL     1      -0.450  50.140  18.932  1.00  0.00     0.000 C 
BRANCH   4   5
ATOM      5  C   UNL     1      -1.674  49.719  18.106  1.00  0.00     0.000 C 
BRANCH   5   6
ATOM      6  C   UNL     1      -2.975  50.099  18.829  1.00  0.00     0.000 C 
BRANCH   6   7
ATOM      7  C   UNL     1      -2.931  49.789  20.335  1.00  0.00     0.000 C 
BRANCH   7   8
ATOM      8  C   UNL     1      -3.405  50.937  21.249  1.00  0.00     0.000 C 
BRANCH   8   9
ATOM      9  C   UNL     1      -2.388  51.386  22.313  1.00  0.00     0.000 C 
BRANCH   9  10
ATOM     10  C   UNL     1      -2.204  52.911  22.356  1.00  0.00     0.000 C 
BRANCH  10  11
ATOM     11  C   UNL     1      -1.355  53.400  21.176  1.00  0.00     0.000 C 
BRANCH  11  12
ATOM     12  C   UNL     1      -2.149  54.331  20.235  1.00  0.00     0.000 C 
BRANCH  12  13
ATOM     13  C   UNL     1      -2.591  53.648  18.926  1.00  0.00     0.006 C 
BRANCH  13  14
ATOM     14  C   UNL     1      -2.593  54.577  17.704  1.00  0.00     0.053 C 
BRANCH  14  15
ATOM     15  C   UNL     1      -3.168  55.926  18.018  1.00  0.00     0.041 C 
ATOM     16  O   UNL     1      -4.300  56.020  18.562  1.00  0.00    -0.550 OA
ATOM     17  O   UNL     1      -2.475  57.079  17.669  1.00  0.00    -0.550 OA
ENDBRANCH  14  15
ENDBRANCH  13  14
ENDBRANCH  12  13
ENDBRANCH  11  12
ENDBRANCH  10  11
ENDBRANCH   9  10
ENDBRANCH   8   9
ENDBRANCH   7   8
ENDBRANCH   6   7
ENDBRANCH   5   6
ENDBRANCH   4   5
ENDBRANCH   3   4
ENDBRANCH   2   3
ENDBRANCH   1   2
BRANCH   1  18
ATOM     18  C   UNL     1       3.256  53.403  19.941  1.00  0.00     0.000 C 
BRANCH  18  19
ATOM     19  C   UNL     1       2.371  54.349  20.774  1.00  0.00     0.000 C 
BRANCH  19  20
ATOM     20  C   UNL     1       2.250  55.786  20.227  1.00  0.00     0.000 C 
BRANCH  20  21
ATOM     21  C   UNL     1       0.977  56.040  19.389  1.00  0.00     0.000 C 
BRANCH  21  22
ATOM     22  C   UNL     1       1.210  56.963  18.180  1.00  0.00     0.000 C 
BRANCH  22  23
ATOM     23  C   UNL     1       0.851  56.292  16.843  1.00  0.00     0.000 C 
BRANCH  23  24
ATOM     24  C   UNL     1       0.946  54.753  16.921  1.00  0.00    -0.000 C 
BRANCH  24  25
ATOM     25  C   UNL     1       1.986  54.152  15.959  1.00  0.00    -0.000 C 
BRANCH  25  26
ATOM     26  C   UNL     1       3.049  55.171  15.515  1.00  0.00    -0.000 C 
BRANCH  26  27
ATOM     27  C   UNL     1       4.464  54.788  16.003  1.00  0.00    -0.000 C 
BRANCH  27  28
ATOM     28  C   UNL     1       4.759  55.206  17.458  1.00  0.00    -0.000 C 
BRANCH  28  29
ATOM     29  C   UNL     1       5.109  56.691  17.652  1.00  0.00    -0.000 C 
BRANCH  29  30
ATOM     30  C   UNL     1       6.503  57.051  17.112  1.00  0.00    -0.000 C 
BRANCH  30  31
ATOM     31  C   UNL     1       7.568  57.098  18.218  1.00  0.00    -0.003 C 
ATOM     32  C   UNL     1       8.995  57.008  17.675  1.00  0.00     0.004 C 
ENDBRANCH  30  31
ENDBRANCH  29  30
ENDBRANCH  28  29
ENDBRANCH  27  28
ENDBRANCH  26  27
ENDBRANCH  25  26
ENDBRANCH  24  25
ENDBRANCH  23  24
ENDBRANCH  22  23
ENDBRANCH  21  22
ENDBRANCH  20  21
ENDBRANCH  19  20
ENDBRANCH  18  19
ENDBRANCH   1  18
TORSDOF 28
ENDMDL
MODEL 2
REMARK VINA RESULT:    -5.198      3.806      8.846
REMARK INTER + INTRA:         -18.995
REMARK INTER:                 -14.404
REMARK INTRA:                  -4.591
REMARK UNBOUND:                -5.288
REMARK SMILES CCCCCCCCCCCCCCCCCCCCCCCCCCCCCC(=O)[O-]
REMARK SMILES IDX 16 1 17 2 18 3 19 4 20 5 21 6 22 7 23 8 24 9 25 10 26 11
REMARK SMILES IDX 27 12 28 13 29 14 30 15 31 16 32 17 15 18 14 19 13 20 12 21
REMARK SMILES IDX 11 22 10 23 9 24 8 25 7 26 6 27 5 28 4 29 3 30 2 31 1 32
REMARK H PARENT
REMARK Flexibility Score: inf
ROOT
ATOM      1  C   UNL     1       1.625  55.586  20.240  1.00  0.00     0.000 C 
ENDROOT
BRANCH   1   2
ATOM      2  C   UNL     1       1.899  54.067  20.220  1.00  0.00     0.000 C 
BRANCH   2   3
ATOM      3  C   UNL     1       3.359  53.720  20.570  1.00  0.00     0.000 C 
BRANCH   3   4
ATOM      4  C   UNL     1       4.086  52.998  19.421  1.00  0.00     0.000 C 
BRANCH   4   5
ATOM      5  C   UNL     1       3.153  52.656  18.250  1.00  0.00     0.000 C 
BRANCH   5   6
ATOM      6  C   UNL     1       3.439  53.564  17.044  1.00  0.00     0.000 C 
BRANCH   6   7
ATOM      7  C   UNL     1       4.667  54.465  17.256  1.00  0.00     0.000 C 
BRANCH   7   8
ATOM      8  C   UNL     1       4.791  55.638  16.264  1.00  0.00     0.000 C 
BRANCH   8   9
ATOM      9  C   UNL     1       5.343  56.944  16.863  1.00  0.00     0.000 C 
BRANCH   9  10
ATOM     10  C   UNL     1       6.584  56.720  17.740  1.00  0.00     0.000 C 
BRANCH  10  11
ATOM     11  C   UNL     1       6.834  57.917  18.666  1.00  0.00     0.000 C 
BRANCH  11  12
ATOM     12  C   UNL     1       8.195  58.591  18.390  1.00  0.00     0.000 C 
BRANCH  12  13
ATOM     13  C   UNL     1       8.839  58.150  17.061  1.00  0.00     0.006 C 
BRANCH  13  14
ATOM     14  C   UNL     1      10.353  58.397  16.988  1.00  0.00     0.053 C 
BRANCH  14  15
ATOM     15  C   UNL     1      11.144  57.142  17.215  1.00  0.00     0.041 C 
ATOM     16  O   UNL     1      10.737  56.045  16.748  1.00  0.00    -0.550 OA
ATOM     17  O   UNL     1      12.303  57.177  17.980  1.00  0.00    -0.550 OA
ENDBRANCH  14  15
ENDBRANCH  13  14
ENDBRANCH  12  13
ENDBRANCH  11  12
ENDBRANCH  10  11
ENDBRANCH   9  10
ENDBRANCH   8   9
ENDBRANCH   7   8
ENDBRANCH   6   7
ENDBRANCH   5   6
ENDBRANCH   4   5
ENDBRANCH   3   4
ENDBRANCH   2   3
ENDBRANCH   1   2
BRANCH   1  18
ATOM     18  C   UNL     1       2.603  56.416  19.387  1.00  0.00     0.000 C 
BRANCH  18  19
ATOM     19  C   UNL     1       1.965  57.225  18.241  1.00  0.00     0.000 C 
BRANCH  19  20
ATOM     20  C   UNL     1       1.239  56.386  17.170  1.00  0.00     0.000 C 
BRANCH  20  21
ATOM     21  C   UNL     1      -0.200  56.858  16.862  1.00  0.00     0.000 C 
BRANCH  21  22
ATOM     22  C   UNL     1      -1.165  56.708  18.051  1.00  0.00     0.000 C 
BRANCH  22  23
ATOM     23  C   UNL     1      -2.599  56.371  17.612  1.00  0.00     0.000 C 
BRANCH  23  24
ATOM     24  C   UNL     1      -3.203  55.214  18.438  1.00  0.00    -0.000 C 
BRANCH  24  25
ATOM     25  C   UNL     1      -2.416  54.900  19.722  1.00  0.00    -0.000 C 
BRANCH  25  26
ATOM     26  C   UNL     1      -3.235  54.093  20.744  1.00  0.00    -0.000 C 
BRANCH  26  27
ATOM     27  C   UNL     1      -2.851  52.597  20.748  1.00  0.00    -0.000 C 
BRANCH  27  28
ATOM     28  C   UNL     1      -1.386  52.325  20.354  1.00  0.00    -0.000 C 
BRANCH  28  29
ATOM     29  C   UNL     1      -1.094  50.892  19.876  1.00  0.00    -0.000 C 
BRANCH  29  30
ATOM     30  C   UNL     1      -0.864  50.805  18.358  1.00  0.00    -0.000 C 
BRANCH  30  31
ATOM     31  C   UNL     1      -1.383  52.044  17.612  1.00  0.00    -0.003 C 
ATOM     32  C   UNL     1      -0.270  53.024  17.241  1.00  0.00     0.004 C 
ENDBRANCH  30  31
ENDBRANCH  29  30
ENDBRANCH  28  29
ENDBRANCH  27  28
ENDBRANCH  26  27
ENDBRANCH  25  26
ENDBRANCH  24  25
ENDBRANCH  23  24
ENDBRANCH  22  23
ENDBRANCH  21  22
ENDBRANCH  20  21
ENDBRANCH  19  20
ENDBRANCH  18  19
ENDBRANCH   1  18
TORSDOF 28
ENDMDL
MODEL 3
REMARK VINA RESULT:    -5.062      4.161      9.211
REMARK INTER + INTRA:         -18.636
REMARK INTER:                 -14.270
REMARK INTRA:                  -4.367
REMARK UNBOUND:                -5.288
REMARK SMILES CCCCCCCCCCCCCCCCCCCCCCCCCCCCCC(=O)[O-]
REMARK SMILES IDX 16 1 17 2 18 3 19 4 20 5 21 6 22 7 23 8 24 9 25 10 26 11
REMARK SMILES IDX 27 12 28 13 29 14 30 15 31 16 32 17 15 18 14 19 13 20 12 21
REMARK SMILES IDX 11 22 10 23 9 24 8 25 7 26 6 27 5 28 4 29 3 30 2 31 1 32
REMARK H PARENT
REMARK Flexibility Score: inf
ROOT
ATOM      1  C   UNL     1       1.572  55.786  19.525  1.00  0.00     0.000 C 
ENDROOT
BRANCH   1   2
ATOM      2  C   UNL     1       2.539  55.020  20.453  1.00  0.00     0.000 C 
BRANCH   2   3
ATOM      3  C   UNL     1       2.778  53.568  19.998  1.00  0.00     0.000 C 
BRANCH   3   4
ATOM      4  C   UNL     1       4.168  53.367  19.370  1.00  0.00     0.000 C 
BRANCH   4   5
ATOM      5  C   UNL     1       4.100  53.000  17.880  1.00  0.00     0.000 C 
BRANCH   5   6
ATOM      6  C   UNL     1       2.911  53.698  17.202  1.00  0.00     0.000 C 
BRANCH   6   7
ATOM      7  C   UNL     1       3.351  54.764  16.183  1.00  0.00     0.000 C 
BRANCH   7   8
ATOM      8  C   UNL     1       4.843  55.147  16.247  1.00  0.00     0.000 C 
BRANCH   8   9
ATOM      9  C   UNL     1       5.123  56.624  16.579  1.00  0.00     0.000 C 
BRANCH   9  10
ATOM     10  C   UNL     1       5.627  56.828  18.016  1.00  0.00     0.000 C 
BRANCH  10  11
ATOM     11  C   UNL     1       7.156  56.727  18.088  1.00  0.00     0.000 C 
BRANCH  11  12
ATOM     12  C   UNL     1       7.849  57.857  17.298  1.00  0.00     0.000 C 
BRANCH  12  13
ATOM     13  C   UNL     1       9.376  57.901  17.503  1.00  0.00     0.006 C 
BRANCH  13  14
ATOM     14  C   UNL     1      10.131  56.742  16.837  1.00  0.00     0.053 C 
BRANCH  14  15
ATOM     15  C   UNL     1      11.615  56.960  16.831  1.00  0.00     0.041 C 
ATOM     16  O   UNL     1      12.241  57.077  17.918  1.00  0.00    -0.550 OA
ATOM     17  O   UNL     1      12.298  57.080  15.627  1.00  0.00    -0.550 OA
ENDBRANCH  14  15
ENDBRANCH  13  14
ENDBRANCH  12  13
ENDBRANCH  11  12
ENDBRANCH  10  11
ENDBRANCH   9  10
ENDBRANCH   8   9
ENDBRANCH   7   8
ENDBRANCH   6   7
ENDBRANCH   5   6
ENDBRANCH   4   5
ENDBRANCH   3   4
ENDBRANCH   2   3
ENDBRANCH   1   2
BRANCH   1  18
ATOM     18  C   UNL     1       2.196  57.016  18.839  1.00  0.00     0.000 C 
BRANCH  18  19
ATOM     19  C   UNL     1       1.366  57.636  17.698  1.00  0.00     0.000 C 
BRANCH  19  20
ATOM     20  C   UNL     1       0.414  56.660  16.977  1.00  0.00     0.000 C 
BRANCH  20  21
ATOM     21  C   UNL     1      -1.086  56.942  17.221  1.00  0.00     0.000 C 
BRANCH  21  22
ATOM     22  C   UNL     1      -1.731  55.998  18.250  1.00  0.00     0.000 C 
BRANCH  22  23
ATOM     23  C   UNL     1      -2.814  55.098  17.634  1.00  0.00     0.000 C 
BRANCH  23  24
ATOM     24  C   UNL     1      -2.350  53.630  17.511  1.00  0.00    -0.000 C 
BRANCH  24  25
ATOM     25  C   UNL     1      -0.891  53.409  17.946  1.00  0.00    -0.000 C 
BRANCH  25  26
ATOM     26  C   UNL     1      -0.763  52.473  19.161  1.00  0.00    -0.000 C 
BRANCH  26  27
ATOM     27  C   UNL     1      -0.770  53.247  20.497  1.00  0.00    -0.000 C 
BRANCH  27  28
ATOM     28  C   UNL     1      -2.163  53.365  21.146  1.00  0.00    -0.000 C 
BRANCH  28  29
ATOM     29  C   UNL     1      -3.129  52.209  20.833  1.00  0.00    -0.000 C 
BRANCH  29  30
ATOM     30  C   UNL     1      -3.628  51.489  22.098  1.00  0.00    -0.000 C 
BRANCH  30  31
ATOM     31  C   UNL     1      -2.481  50.885  22.922  1.00  0.00    -0.003 C 
ATOM     32  C   UNL     1      -2.363  51.499  24.317  1.00  0.00     0.004 C 
ENDBRANCH  30  31
ENDBRANCH  29  30
ENDBRANCH  28  29
ENDBRANCH  27  28
ENDBRANCH  26  27
ENDBRANCH  25  26
ENDBRANCH  24  25
ENDBRANCH  23  24
ENDBRANCH  22  23
ENDBRANCH  21  22
ENDBRANCH  20  21
ENDBRANCH  19  20
ENDBRANCH  18  19
ENDBRANCH   1  18
TORSDOF 28
ENDMDL
MODEL 4
REMARK VINA RESULT:    -4.987      3.052      8.559
REMARK INTER + INTRA:         -18.439
REMARK INTER:                 -13.173
REMARK INTRA:                  -5.266
REMARK UNBOUND:                -5.288
REMARK SMILES CCCCCCCCCCCCCCCCCCCCCCCCCCCCCC(=O)[O-]
REMARK SMILES IDX 16 1 17 2 18 3 19 4 20 5 21 6 22 7 23 8 24 9 25 10 26 11
REMARK SMILES IDX 27 12 28 13 29 14 30 15 31 16 32 17 15 18 14 19 13 20 12 21
REMARK SMILES IDX 11 22 10 23 9 24 8 25 7 26 6 27 5 28 4 29 3 30 2 31 1 32
REMARK H PARENT
REMARK Flexibility Score: inf
ROOT
ATOM      1  C   UNL     1       1.139  52.048  18.000  1.00  0.00     0.000 C 
ENDROOT
BRANCH   1   2
ATOM      2  C   UNL     1       1.374  52.355  19.496  1.00  0.00     0.000 C 
BRANCH   2   3
ATOM      3  C   UNL     1       2.379  53.501  19.718  1.00  0.00     0.000 C 
BRANCH   3   4
ATOM      4  C   UNL     1       1.788  54.651  20.552  1.00  0.00     0.000 C 
BRANCH   4   5
ATOM      5  C   UNL     1       0.281  54.490  20.802  1.00  0.00     0.000 C 
BRANCH   5   6
ATOM      6  C   UNL     1      -0.519  55.507  19.976  1.00  0.00     0.000 C 
BRANCH   6   7
ATOM      7  C   UNL     1       0.378  56.401  19.103  1.00  0.00     0.000 C 
BRANCH   7   8
ATOM      8  C   UNL     1      -0.175  56.698  17.694  1.00  0.00     0.000 C 
BRANCH   8   9
ATOM      9  C   UNL     1       0.835  56.520  16.546  1.00  0.00     0.000 C 
BRANCH   9  10
ATOM     10  C   UNL     1       2.228  56.098  17.038  1.00  0.00     0.000 C 
BRANCH  10  11
ATOM     11  C   UNL     1       2.912  55.163  16.032  1.00  0.00     0.000 C 
BRANCH  11  12
ATOM     12  C   UNL     1       4.431  55.051  16.283  1.00  0.00     0.000 C 
BRANCH  12  13
ATOM     13  C   UNL     1       5.118  56.412  16.505  1.00  0.00     0.006 C 
BRANCH  13  14
ATOM     14  C   UNL     1       5.790  56.557  17.879  1.00  0.00     0.053 C 
BRANCH  14  15
ATOM     15  C   UNL     1       7.084  57.313  17.800  1.00  0.00     0.041 C 
ATOM     16  O   UNL     1       7.894  57.083  16.862  1.00  0.00    -0.550 OA
ATOM     17  O   UNL     1       7.415  58.235  18.784  1.00  0.00    -0.550 OA
ENDBRANCH  14  15
ENDBRANCH  13  14
ENDBRANCH  12  13
ENDBRANCH  11  12
ENDBRANCH  10  11
ENDBRANCH   9  10
ENDBRANCH   8   9
ENDBRANCH   7   8
ENDBRANCH   6   7
ENDBRANCH   5   6
ENDBRANCH   4   5
ENDBRANCH   3   4
ENDBRANCH   2   3
ENDBRANCH   1   2
BRANCH   1  18
ATOM     18  C   UNL     1       0.222  53.057  17.285  1.00  0.00     0.000 C 
BRANCH  18  19
ATOM     19  C   UNL     1      -1.255  52.638  17.154  1.00  0.00     0.000 C 
BRANCH  19  20
ATOM     20  C   UNL     1      -2.081  52.732  18.452  1.00  0.00     0.000 C 
BRANCH  20  21
ATOM     21  C   UNL     1      -2.609  51.374  18.968  1.00  0.00     0.000 C 
BRANCH  21  22
ATOM     22  C   UNL     1      -2.385  50.213  17.985  1.00  0.00     0.000 C 
BRANCH  22  23
ATOM     23  C   UNL     1      -1.304  49.229  18.463  1.00  0.00     0.000 C 
BRANCH  23  24
ATOM     24  C   UNL     1      -0.881  49.496  19.924  1.00  0.00    -0.000 C 
BRANCH  24  25
ATOM     25  C   UNL     1      -1.172  48.320  20.872  1.00  0.00    -0.000 C 
BRANCH  25  26
ATOM     26  C   UNL     1      -2.632  47.840  20.801  1.00  0.00    -0.000 C 
BRANCH  26  27
ATOM     27  C   UNL     1      -3.488  48.403  21.957  1.00  0.00    -0.000 C 
BRANCH  27  28
ATOM     28  C   UNL     1      -4.439  49.541  21.536  1.00  0.00    -0.000 C 
BRANCH  28  29
ATOM     29  C   UNL     1      -4.124  50.915  22.151  1.00  0.00    -0.000 C 
BRANCH  29  30
ATOM     30  C   UNL     1      -2.768  50.949  22.875  1.00  0.00    -0.000 C 
BRANCH  30  31
ATOM     31  C   UNL     1      -2.516  52.284  23.592  1.00  0.00    -0.003 C 
ATOM     32  C   UNL     1      -3.637  53.300  23.367  1.00  0.00     0.004 C 
ENDBRANCH  30  31
ENDBRANCH  29  30
ENDBRANCH  28  29
ENDBRANCH  27  28
ENDBRANCH  26  27
ENDBRANCH  25  26
ENDBRANCH  24  25
ENDBRANCH  23  24
ENDBRANCH  22  23
ENDBRANCH  21  22
ENDBRANCH  20  21
ENDBRANCH  19  20
ENDBRANCH  18  19
ENDBRANCH   1  18
TORSDOF 28
ENDMDL
MODEL 5
REMARK VINA RESULT:    -4.985      2.009      4.819
REMARK INTER + INTRA:         -18.433
REMARK INTER:                 -14.252
REMARK INTRA:                  -4.182
REMARK UNBOUND:                -5.288
REMARK SMILES CCCCCCCCCCCCCCCCCCCCCCCCCCCCCC(=O)[O-]
REMARK SMILES IDX 16 1 17 2 18 3 19 4 20 5 21 6 22 7 23 8 24 9 25 10 26 11
REMARK SMILES IDX 27 12 28 13 29 14 30 15 31 16 32 17 15 18 14 19 13 20 12 21
REMARK SMILES IDX 11 22 10 23 9 24 8 25 7 26 6 27 5 28 4 29 3 30 2 31 1 32
REMARK H PARENT
REMARK Flexibility Score: inf
ROOT
ATOM      1  C   UNL     1       1.949  54.524  20.634  1.00  0.00     0.000 C 
ENDROOT
BRANCH   1   2
ATOM      2  C   UNL     1       2.250  55.836  19.877  1.00  0.00     0.000 C 
BRANCH   2   3
ATOM      3  C   UNL     1       0.987  56.478  19.272  1.00  0.00     0.000 C 
BRANCH   3   4
ATOM      4  C   UNL     1       1.305  57.402  18.084  1.00  0.00     0.000 C 
BRANCH   4   5
ATOM      5  C   UNL     1       0.401  57.140  16.870  1.00  0.00     0.000 C 
BRANCH   5   6
ATOM      6  C   UNL     1      -0.750  56.194  17.243  1.00  0.00     0.000 C 
BRANCH   6   7
ATOM      7  C   UNL     1      -2.117  56.899  17.258  1.00  0.00     0.000 C 
BRANCH   7   8
ATOM      8  C   UNL     1      -3.245  56.114  17.957  1.00  0.00     0.000 C 
BRANCH   8   9
ATOM      9  C   UNL     1      -2.858  54.704  18.438  1.00  0.00     0.000 C 
BRANCH   9  10
ATOM     10  C   UNL     1      -3.034  54.522  19.953  1.00  0.00     0.000 C 
BRANCH  10  11
ATOM     11  C   UNL     1      -1.750  53.990  20.601  1.00  0.00     0.000 C 
BRANCH  11  12
ATOM     12  C   UNL     1      -1.975  52.637  21.310  1.00  0.00     0.000 C 
BRANCH  12  13
ATOM     13  C   UNL     1      -1.558  51.422  20.459  1.00  0.00     0.006 C 
BRANCH  13  14
ATOM     14  C   UNL     1      -2.739  50.593  19.931  1.00  0.00     0.053 C 
BRANCH  14  15
ATOM     15  C   UNL     1      -2.761  50.528  18.433  1.00  0.00     0.041 C 
ATOM     16  O   UNL     1      -3.402  49.614  17.849  1.00  0.00    -0.550 OA
ATOM     17  O   UNL     1      -2.039  51.448  17.684  1.00  0.00    -0.550 OA
ENDBRANCH  14  15
ENDBRANCH  13  14
ENDBRANCH  12  13
ENDBRANCH  11  12
ENDBRANCH  10  11
ENDBRANCH   9  10
ENDBRANCH   8   9
ENDBRANCH   7   8
ENDBRANCH   6   7
ENDBRANCH   5   6
ENDBRANCH   4   5
ENDBRANCH   3   4
ENDBRANCH   2   3
ENDBRANCH   1   2
BRANCH   1  18
ATOM     18  C   UNL     1       2.169  53.248  19.800  1.00  0.00     0.000 C 
BRANCH  18  19
ATOM     19  C   UNL     1       1.154  53.013  18.664  1.00  0.00     0.000 C 
BRANCH  19  20
ATOM     20  C   UNL     1       1.771  52.814  17.265  1.00  0.00     0.000 C 
BRANCH  20  21
ATOM     21  C   UNL     1       2.374  54.096  16.649  1.00  0.00     0.000 C 
BRANCH  21  22
ATOM     22  C   UNL     1       3.888  54.236  16.879  1.00  0.00     0.000 C 
BRANCH  22  23
ATOM     23  C   UNL     1       4.501  55.413  16.102  1.00  0.00     0.000 C 
BRANCH  23  24
ATOM     24  C   UNL     1       4.377  56.746  16.873  1.00  0.00    -0.000 C 
BRANCH  24  25
ATOM     25  C   UNL     1       5.451  56.930  17.958  1.00  0.00    -0.000 C 
BRANCH  25  26
ATOM     26  C   UNL     1       6.882  56.769  17.418  1.00  0.00    -0.000 C 
BRANCH  26  27
ATOM     27  C   UNL     1       7.941  57.324  18.395  1.00  0.00    -0.000 C 
BRANCH  27  28
ATOM     28  C   UNL     1       8.590  58.644  17.933  1.00  0.00    -0.000 C 
BRANCH  28  29
ATOM     29  C   UNL     1       9.759  58.486  16.946  1.00  0.00    -0.000 C 
BRANCH  29  30
ATOM     30  C   UNL     1      10.572  57.203  17.185  1.00  0.00    -0.000 C 
BRANCH  30  31
ATOM     31  C   UNL     1      11.997  57.494  17.681  1.00  0.00    -0.003 C 
ATOM     32  C   UNL     1      12.487  58.891  17.298  1.00  0.00     0.004 C 
ENDBRANCH  30  31
ENDBRANCH  29  30
ENDBRANCH  28  29
ENDBRANCH  27  28
ENDBRANCH  26  27
ENDBRANCH  25  26
ENDBRANCH  24  25
ENDBRANCH  23  24
ENDBRANCH  22  23
ENDBRANCH  21  22
ENDBRANCH  20  21
ENDBRANCH  19  20
ENDBRANCH  18  19
ENDBRANCH   1  18
TORSDOF 28
ENDMDL
MODEL 6
REMARK VINA RESULT:    -4.978      3.998      9.684
REMARK INTER + INTRA:         -18.414
REMARK INTER:                 -14.536
REMARK INTRA:                  -3.878
REMARK UNBOUND:                -5.288
REMARK SMILES CCCCCCCCCCCCCCCCCCCCCCCCCCCCCC(=O)[O-]
REMARK SMILES IDX 16 1 17 2 18 3 19 4 20 5 21 6 22 7 23 8 24 9 25 10 26 11
REMARK SMILES IDX 27 12 28 13 29 14 30 15 31 16 32 17 15 18 14 19 13 20 12 21
REMARK SMILES IDX 11 22 10 23 9 24 8 25 7 26 6 27 5 28 4 29 3 30 2 31 1 32
REMARK H PARENT
REMARK Flexibility Score: inf
ROOT
ATOM      1  C   UNL     1       3.365  52.852  18.605  1.00  0.00     0.000 C 
ENDROOT
BRANCH   1   2
ATOM      2  C   UNL     1       1.946  52.554  18.072  1.00  0.00     0.000 C 
BRANCH   2   3
ATOM      3  C   UNL     1       1.676  53.204  16.702  1.00  0.00     0.000 C 
BRANCH   3   4
ATOM      4  C   UNL     1       2.182  54.655  16.626  1.00  0.00     0.000 C 
BRANCH   4   5
ATOM      5  C   UNL     1       3.045  54.919  15.383  1.00  0.00     0.000 C 
BRANCH   5   6
ATOM      6  C   UNL     1       4.526  55.056  15.769  1.00  0.00     0.000 C 
BRANCH   6   7
ATOM      7  C   UNL     1       4.735  55.917  17.026  1.00  0.00     0.000 C 
BRANCH   7   8
ATOM      8  C   UNL     1       5.935  56.883  16.959  1.00  0.00     0.000 C 
BRANCH   8   9
ATOM      9  C   UNL     1       6.957  56.735  18.101  1.00  0.00     0.000 C 
BRANCH   9  10
ATOM     10  C   UNL     1       8.165  57.672  17.945  1.00  0.00     0.000 C 
BRANCH  10  11
ATOM     11  C   UNL     1       8.961  57.343  16.675  1.00  0.00     0.000 C 
BRANCH  11  12
ATOM     12  C   UNL     1      10.216  56.498  16.980  1.00  0.00     0.000 C 
BRANCH  12  13
ATOM     13  C   UNL     1      11.424  57.337  17.439  1.00  0.00     0.006 C 
BRANCH  13  14
ATOM     14  C   UNL     1      11.936  58.329  16.383  1.00  0.00     0.053 C 
BRANCH  14  15
ATOM     15  C   UNL     1      11.928  59.743  16.883  1.00  0.00     0.041 C 
ATOM     16  O   UNL     1      10.862  60.255  17.317  1.00  0.00    -0.550 OA
ATOM     17  O   UNL     1      13.086  60.509  16.828  1.00  0.00    -0.550 OA
ENDBRANCH  14  15
ENDBRANCH  13  14
ENDBRANCH  12  13
ENDBRANCH  11  12
ENDBRANCH  10  11
ENDBRANCH   9  10
ENDBRANCH   8   9
ENDBRANCH   7   8
ENDBRANCH   6   7
ENDBRANCH   5   6
ENDBRANCH   4   5
ENDBRANCH   3   4
ENDBRANCH   2   3
ENDBRANCH   1   2
BRANCH   1  18
ATOM     18  C   UNL     1       3.393  53.477  20.012  1.00  0.00     0.000 C 
BRANCH  18  19
ATOM     19  C   UNL     1       2.134  54.271  20.413  1.00  0.00     0.000 C 
BRANCH  19  20
ATOM     20  C   UNL     1       2.203  55.788  20.146  1.00  0.00     0.000 C 
BRANCH  20  21
ATOM     21  C   UNL     1       1.009  56.345  19.339  1.00  0.00     0.000 C 
BRANCH  21  22
ATOM     22  C   UNL     1      -0.184  55.377  19.257  1.00  0.00     0.000 C 
BRANCH  22  23
ATOM     23  C   UNL     1      -1.383  55.974  18.503  1.00  0.00     0.000 C 
BRANCH  23  24
ATOM     24  C   UNL     1      -2.319  54.881  17.940  1.00  0.00    -0.000 C 
BRANCH  24  25
ATOM     25  C   UNL     1      -1.646  53.503  17.812  1.00  0.00    -0.000 C 
BRANCH  25  26
ATOM     26  C   UNL     1      -2.550  52.350  18.282  1.00  0.00    -0.000 C 
BRANCH  26  27
ATOM     27  C   UNL     1      -1.842  51.434  19.304  1.00  0.00    -0.000 C 
BRANCH  27  28
ATOM     28  C   UNL     1      -1.182  52.191  20.473  1.00  0.00    -0.000 C 
BRANCH  28  29
ATOM     29  C   UNL     1      -2.110  53.154  21.233  1.00  0.00    -0.000 C 
BRANCH  29  30
ATOM     30  C   UNL     1      -3.126  52.423  22.128  1.00  0.00    -0.000 C 
BRANCH  30  31
ATOM     31  C   UNL     1      -2.890  52.689  23.623  1.00  0.00    -0.003 C 
ATOM     32  C   UNL     1      -2.230  51.510  24.340  1.00  0.00     0.004 C 
ENDBRANCH  30  31
ENDBRANCH  29  30
ENDBRANCH  28  29
ENDBRANCH  27  28
ENDBRANCH  26  27
ENDBRANCH  25  26
ENDBRANCH  24  25
ENDBRANCH  23  24
ENDBRANCH  22  23
ENDBRANCH  21  22
ENDBRANCH  20  21
ENDBRANCH  19  20
ENDBRANCH  18  19
ENDBRANCH   1  18
TORSDOF 28
ENDMDL
MODEL 7
REMARK VINA RESULT:    -4.971      3.474      8.376
REMARK INTER + INTRA:         -18.397
REMARK INTER:                 -13.791
REMARK INTRA:                  -4.606
REMARK UNBOUND:                -5.288
REMARK SMILES CCCCCCCCCCCCCCCCCCCCCCCCCCCCCC(=O)[O-]
REMARK SMILES IDX 16 1 17 2 18 3 19 4 20 5 21 6 22 7 23 8 24 9 25 10 26 11
REMARK SMILES IDX 27 12 28 13 29 14 30 15 31 16 32 17 15 18 14 19 13 20 12 21
REMARK SMILES IDX 11 22 10 23 9 24 8 25 7 26 6 27 5 28 4 29 3 30 2 31 1 32
REMARK H PARENT
REMARK Flexibility Score: inf
ROOT
ATOM      1  C   UNL     1      -0.372  54.492  21.040  1.00  0.00     0.000 C 
ENDROOT
BRANCH   1   2
ATOM      2  C   UNL     1       0.780  54.341  20.022  1.00  0.00     0.000 C 
BRANCH   2   3
ATOM      3  C   UNL     1       2.168  54.325  20.690  1.00  0.00     0.000 C 
BRANCH   3   4
ATOM      4  C   UNL     1       3.186  53.470  19.917  1.00  0.00     0.000 C 
BRANCH   4   5
ATOM      5  C   UNL     1       2.550  52.702  18.748  1.00  0.00     0.000 C 
BRANCH   5   6
ATOM      6  C   UNL     1       3.012  53.279  17.402  1.00  0.00     0.000 C 
BRANCH   6   7
ATOM      7  C   UNL     1       1.907  54.074  16.685  1.00  0.00     0.000 C 
BRANCH   7   8
ATOM      8  C   UNL     1       2.223  55.565  16.456  1.00  0.00     0.000 C 
BRANCH   8   9
ATOM      9  C   UNL     1       2.455  56.387  17.737  1.00  0.00     0.000 C 
BRANCH   9  10
ATOM     10  C   UNL     1       3.789  57.151  17.721  1.00  0.00     0.000 C 
BRANCH  10  11
ATOM     11  C   UNL     1       4.980  56.188  17.807  1.00  0.00     0.000 C 
BRANCH  11  12
ATOM     12  C   UNL     1       6.234  56.752  17.106  1.00  0.00     0.000 C 
BRANCH  12  13
ATOM     13  C   UNL     1       7.447  56.902  18.045  1.00  0.00     0.006 C 
BRANCH  13  14
ATOM     14  C   UNL     1       7.916  58.352  18.236  1.00  0.00     0.053 C 
BRANCH  14  15
ATOM     15  C   UNL     1       9.137  58.665  17.422  1.00  0.00     0.041 C 
ATOM     16  O   UNL     1       9.745  59.756  17.589  1.00  0.00    -0.550 OA
ATOM     17  O   UNL     1       9.575  57.775  16.450  1.00  0.00    -0.550 OA
ENDBRANCH  14  15
ENDBRANCH  13  14
ENDBRANCH  12  13
ENDBRANCH  11  12
ENDBRANCH  10  11
ENDBRANCH   9  10
ENDBRANCH   8   9
ENDBRANCH   7   8
ENDBRANCH   6   7
ENDBRANCH   5   6
ENDBRANCH   4   5
ENDBRANCH   3   4
ENDBRANCH   2   3
ENDBRANCH   1   2
BRANCH   1  18
ATOM     18  C   UNL     1      -1.162  53.195  21.295  1.00  0.00     0.000 C 
BRANCH  18  19
ATOM     19  C   UNL     1      -2.670  53.374  21.556  1.00  0.00     0.000 C 
BRANCH  19  20
ATOM     20  C   UNL     1      -3.212  52.645  22.802  1.00  0.00     0.000 C 
BRANCH  20  21
ATOM     21  C   UNL     1      -3.151  51.104  22.712  1.00  0.00     0.000 C 
BRANCH  21  22
ATOM     22  C   UNL     1      -3.786  50.537  21.431  1.00  0.00     0.000 C 
BRANCH  22  23
ATOM     23  C   UNL     1      -2.795  49.715  20.590  1.00  0.00     0.000 C 
BRANCH  23  24
ATOM     24  C   UNL     1      -3.342  49.414  19.177  1.00  0.00    -0.000 C 
BRANCH  24  25
ATOM     25  C   UNL     1      -2.418  49.897  18.045  1.00  0.00    -0.000 C 
BRANCH  25  26
ATOM     26  C   UNL     1      -1.177  50.643  18.563  1.00  0.00    -0.000 C 
BRANCH  26  27
ATOM     27  C   UNL     1      -0.929  51.963  17.800  1.00  0.00    -0.000 C 
BRANCH  27  28
ATOM     28  C   UNL     1      -2.212  52.629  17.266  1.00  0.00    -0.000 C 
BRANCH  28  29
ATOM     29  C   UNL     1      -2.624  53.923  17.988  1.00  0.00    -0.000 C 
BRANCH  29  30
ATOM     30  C   UNL     1      -1.702  55.110  17.658  1.00  0.00    -0.000 C 
BRANCH  30  31
ATOM     31  C   UNL     1      -2.399  56.466  17.848  1.00  0.00    -0.003 C 
ATOM     32  C   UNL     1      -3.508  56.424  18.900  1.00  0.00     0.004 C 
ENDBRANCH  30  31
ENDBRANCH  29  30
ENDBRANCH  28  29
ENDBRANCH  27  28
ENDBRANCH  26  27
ENDBRANCH  25  26
ENDBRANCH  24  25
ENDBRANCH  23  24
ENDBRANCH  22  23
ENDBRANCH  21  22
ENDBRANCH  20  21
ENDBRANCH  19  20
ENDBRANCH  18  19
ENDBRANCH   1  18
TORSDOF 28
ENDMDL
MODEL 8
REMARK VINA RESULT:    -4.955      3.835      9.321
REMARK INTER + INTRA:         -18.354
REMARK INTER:                 -14.084
REMARK INTRA:                  -4.270
REMARK UNBOUND:                -5.288
REMARK SMILES CCCCCCCCCCCCCCCCCCCCCCCCCCCCCC(=O)[O-]
REMARK SMILES IDX 16 1 17 2 18 3 19 4 20 5 21 6 22 7 23 8 24 9 25 10 26 11
REMARK SMILES IDX 27 12 28 13 29 14 30 15 31 16 32 17 15 18 14 19 13 20 12 21
REMARK SMILES IDX 11 22 10 23 9 24 8 25 7 26 6 27 5 28 4 29 3 30 2 31 1 32
REMARK H PARENT
REMARK Flexibility Score: inf
ROOT
ATOM      1  C   UNL     1       1.267  55.996  19.487  1.00  0.00     0.000 C 
ENDROOT
BRANCH   1   2
ATOM      2  C   UNL     1       1.464  54.939  20.596  1.00  0.00     0.000 C 
BRANCH   2   3
ATOM      3  C   UNL     1       2.561  53.913  20.253  1.00  0.00     0.000 C 
BRANCH   3   4
ATOM      4  C   UNL     1       2.031  52.744  19.405  1.00  0.00     0.000 C 
BRANCH   4   5
ATOM      5  C   UNL     1       2.615  52.730  17.984  1.00  0.00     0.000 C 
BRANCH   5   6
ATOM      6  C   UNL     1       4.069  53.223  17.988  1.00  0.00     0.000 C 
BRANCH   6   7
ATOM      7  C   UNL     1       4.351  54.254  16.882  1.00  0.00     0.000 C 
BRANCH   7   8
ATOM      8  C   UNL     1       3.670  55.623  17.083  1.00  0.00     0.000 C 
BRANCH   8   9
ATOM      9  C   UNL     1       4.599  56.749  17.572  1.00  0.00     0.000 C 
BRANCH   9  10
ATOM     10  C   UNL     1       5.966  56.741  16.868  1.00  0.00     0.000 C 
BRANCH  10  11
ATOM     11  C   UNL     1       7.077  57.224  17.810  1.00  0.00     0.000 C 
BRANCH  11  12
ATOM     12  C   UNL     1       8.231  57.905  17.044  1.00  0.00     0.000 C 
BRANCH  12  13
ATOM     13  C   UNL     1       8.952  58.994  17.862  1.00  0.00     0.006 C 
BRANCH  13  14
ATOM     14  C   UNL     1      10.456  59.102  17.572  1.00  0.00     0.053 C 
BRANCH  14  15
ATOM     15  C   UNL     1      10.776  60.241  16.651  1.00  0.00     0.041 C 
ATOM     16  O   UNL     1      11.423  61.236  17.075  1.00  0.00    -0.550 OA
ATOM     17  O   UNL     1      10.321  60.227  15.338  1.00  0.00    -0.550 OA
ENDBRANCH  14  15
ENDBRANCH  13  14
ENDBRANCH  12  13
ENDBRANCH  11  12
ENDBRANCH  10  11
ENDBRANCH   9  10
ENDBRANCH   8   9
ENDBRANCH   7   8
ENDBRANCH   6   7
ENDBRANCH   5   6
ENDBRANCH   4   5
ENDBRANCH   3   4
ENDBRANCH   2   3
ENDBRANCH   1   2
BRANCH   1  18
ATOM     18  C   UNL     1      -0.029  55.824  18.673  1.00  0.00     0.000 C 
BRANCH  18  19
ATOM     19  C   UNL     1      -1.336  56.123  19.432  1.00  0.00     0.000 C 
BRANCH  19  20
ATOM     20  C   UNL     1      -2.518  55.191  19.096  1.00  0.00     0.000 C 
BRANCH  20  21
ATOM     21  C   UNL     1      -2.976  54.299  20.272  1.00  0.00     0.000 C 
BRANCH  21  22
ATOM     22  C   UNL     1      -1.814  53.635  21.030  1.00  0.00     0.000 C 
BRANCH  22  23
ATOM     23  C   UNL     1      -2.270  52.447  21.894  1.00  0.00     0.000 C 
BRANCH  23  24
ATOM     24  C   UNL     1      -3.504  51.735  21.298  1.00  0.00    -0.000 C 
BRANCH  24  25
ATOM     25  C   UNL     1      -3.543  50.225  21.592  1.00  0.00    -0.000 C 
BRANCH  25  26
ATOM     26  C   UNL     1      -2.160  49.646  21.935  1.00  0.00    -0.000 C 
BRANCH  26  27
ATOM     27  C   UNL     1      -1.515  48.923  20.732  1.00  0.00    -0.000 C 
BRANCH  27  28
ATOM     28  C   UNL     1      -0.591  49.820  19.885  1.00  0.00    -0.000 C 
BRANCH  28  29
ATOM     29  C   UNL     1      -0.924  49.867  18.384  1.00  0.00    -0.000 C 
BRANCH  29  30
ATOM     30  C   UNL     1      -2.378  50.286  18.109  1.00  0.00    -0.000 C 
BRANCH  30  31
ATOM     31  C   UNL     1      -2.489  51.742  17.630  1.00  0.00    -0.003 C 
ATOM     32  C   UNL     1      -1.128  52.414  17.447  1.00  0.00     0.004 C 
ENDBRANCH  30  31
ENDBRANCH  29  30
ENDBRANCH  28  29
ENDBRANCH  27  28
ENDBRANCH  26  27
ENDBRANCH  25  26
ENDBRANCH  24  25
ENDBRANCH  23  24
ENDBRANCH  22  23
ENDBRANCH  21  22
ENDBRANCH  20  21
ENDBRANCH  19  20
ENDBRANCH  18  19
ENDBRANCH   1  18
TORSDOF 28
ENDMDL
MODEL 9
REMARK VINA RESULT:    -4.952      2.673      4.905
REMARK INTER + INTRA:         -18.346
REMARK INTER:                 -13.049
REMARK INTRA:                  -5.297
REMARK UNBOUND:                -5.288
REMARK SMILES CCCCCCCCCCCCCCCCCCCCCCCCCCCCCC(=O)[O-]
REMARK SMILES IDX 16 1 17 2 18 3 19 4 20 5 21 6 22 7 23 8 24 9 25 10 26 11
REMARK SMILES IDX 27 12 28 13 29 14 30 15 31 16 32 17 15 18 14 19 13 20 12 21
REMARK SMILES IDX 11 22 10 23 9 24 8 25 7 26 6 27 5 28 4 29 3 30 2 31 1 32
REMARK H PARENT
REMARK Flexibility Score: inf
ROOT
ATOM      1  C   UNL     1      -1.762  57.124  17.137  1.00  0.00     0.000 C 
ENDROOT
BRANCH   1   2
ATOM      2  C   UNL     1      -2.451  56.251  18.209  1.00  0.00     0.000 C 
BRANCH   2   3
ATOM      3  C   UNL     1      -2.634  54.789  17.759  1.00  0.00     0.000 C 
BRANCH   3   4
ATOM      4  C   UNL     1      -2.245  53.781  18.854  1.00  0.00     0.000 C 
BRANCH   4   5
ATOM      5  C   UNL     1      -1.670  54.459  20.107  1.00  0.00     0.000 C 
BRANCH   5   6
ATOM      6  C   UNL     1      -1.418  53.427  21.217  1.00  0.00     0.000 C 
BRANCH   6   7
ATOM      7  C   UNL     1      -2.626  53.253  22.153  1.00  0.00     0.000 C 
BRANCH   7   8
ATOM      8  C   UNL     1      -2.397  52.293  23.337  1.00  0.00     0.000 C 
BRANCH   8   9
ATOM      9  C   UNL     1      -2.673  50.809  23.037  1.00  0.00     0.000 C 
BRANCH   9  10
ATOM     10  C   UNL     1      -3.734  50.609  21.943  1.00  0.00     0.000 C 
BRANCH  10  11
ATOM     11  C   UNL     1      -3.164  49.825  20.754  1.00  0.00     0.000 C 
BRANCH  11  12
ATOM     12  C   UNL     1      -1.676  49.465  20.956  1.00  0.00     0.000 C 
BRANCH  12  13
ATOM     13  C   UNL     1      -0.745  50.095  19.902  1.00  0.00     0.006 C 
BRANCH  13  14
ATOM     14  C   UNL     1      -0.102  49.079  18.947  1.00  0.00     0.053 C 
BRANCH  14  15
ATOM     15  C   UNL     1       1.233  48.603  19.439  1.00  0.00     0.041 C 
ATOM     16  O   UNL     1       2.269  48.808  18.753  1.00  0.00    -0.550 OA
ATOM     17  O   UNL     1       1.325  47.895  20.631  1.00  0.00    -0.550 OA
ENDBRANCH  14  15
ENDBRANCH  13  14
ENDBRANCH  12  13
ENDBRANCH  11  12
ENDBRANCH  10  11
ENDBRANCH   9  10
ENDBRANCH   8   9
ENDBRANCH   7   8
ENDBRANCH   6   7
ENDBRANCH   5   6
ENDBRANCH   4   5
ENDBRANCH   3   4
ENDBRANCH   2   3
ENDBRANCH   1   2
BRANCH   1  18
ATOM     18  C   UNL     1      -0.314  56.706  16.818  1.00  0.00     0.000 C 
BRANCH  18  19
ATOM     19  C   UNL     1       0.753  57.177  17.826  1.00  0.00     0.000 C 
BRANCH  19  20
ATOM     20  C   UNL     1       0.805  56.380  19.145  1.00  0.00     0.000 C 
BRANCH  20  21
ATOM     21  C   UNL     1       2.228  55.952  19.571  1.00  0.00     0.000 C 
BRANCH  21  22
ATOM     22  C   UNL     1       2.257  55.092  20.845  1.00  0.00     0.000 C 
BRANCH  22  23
ATOM     23  C   UNL     1       3.018  53.770  20.653  1.00  0.00     0.000 C 
BRANCH  23  24
ATOM     24  C   UNL     1       3.412  53.535  19.178  1.00  0.00    -0.000 C 
BRANCH  24  25
ATOM     25  C   UNL     1       2.681  52.347  18.528  1.00  0.00    -0.000 C 
BRANCH  25  26
ATOM     26  C   UNL     1       1.190  52.627  18.275  1.00  0.00    -0.000 C 
BRANCH  26  27
ATOM     27  C   UNL     1       0.956  53.394  16.955  1.00  0.00    -0.000 C 
BRANCH  27  28
ATOM     28  C   UNL     1       2.216  53.529  16.077  1.00  0.00    -0.000 C 
BRANCH  28  29
ATOM     29  C   UNL     1       2.621  54.973  15.733  1.00  0.00    -0.000 C 
BRANCH  29  30
ATOM     30  C   UNL     1       4.126  55.230  15.917  1.00  0.00    -0.000 C 
BRANCH  30  31
ATOM     31  C   UNL     1       4.410  56.421  16.846  1.00  0.00    -0.003 C 
ATOM     32  C   UNL     1       5.803  56.367  17.473  1.00  0.00     0.004 C 
ENDBRANCH  30  31
ENDBRANCH  29  30
ENDBRANCH  28  29
ENDBRANCH  27  28
ENDBRANCH  26  27
ENDBRANCH  25  26
ENDBRANCH  24  25
ENDBRANCH  23  24
ENDBRANCH  22  23
ENDBRANCH  21  22
ENDBRANCH  20  21
ENDBRANCH  19  20
ENDBRANCH  18  19
ENDBRANCH   1  18
TORSDOF 28
ENDMDL
