MODEL 1
REMARK VINA RESULT:    -5.096      0.000      0.000
REMARK INTER + INTRA:          -6.129
REMARK INTER:                  -5.989
REMARK INTRA:                  -0.139
REMARK UNBOUND:                -0.139
REMARK SMILES O=C([O-])C=Cc1ccc(O)c(O)c1
REMARK SMILES IDX 6 1 13 2 7 3 11 4 8 5 9 6 5 7 4 8 2 9 1 10 3 11 12 12 10 14
REMARK H PARENT 12 13 10 15
REMARK Flexibility Score: inf
ROOT
ATOM      1  C   UNL     1      11.969   3.664  13.258  1.00  0.00    -0.022 A 
ATOM      2  C   UNL     1      12.592   4.688  12.524  1.00  0.00     0.058 A 
ATOM      3  C   UNL     1      12.511   2.365  13.206  1.00  0.00     0.012 A 
ATOM      4  C   UNL     1      13.748   4.429  11.772  1.00  0.00     0.157 A 
ATOM      5  C   UNL     1      13.661   2.107  12.457  1.00  0.00     0.051 A 
ATOM      6  C   UNL     1      14.285   3.137  11.741  1.00  0.00     0.157 A 
ENDROOT
BRANCH   1   7
ATOM      7  C   UNL     1      10.743   3.989  14.029  1.00  0.00     0.010 C 
ATOM      8  C   UNL     1       9.849   3.073  14.425  1.00  0.00     0.025 C 
BRANCH   8   9
ATOM      9  C   UNL     1       8.651   3.438  15.198  1.00  0.00     0.064 C 
ATOM     10  O   UNL     1       8.302   2.728  16.176  1.00  0.00    -0.545 OA
ATOM     11  O   UNL     1       7.896   4.556  14.864  1.00  0.00    -0.545 OA
ENDBRANCH   8   9
ENDBRANCH   1   7
BRANCH   4  12
ATOM     12  O   UNL     1      14.366   5.451  11.055  1.00  0.00    -0.504 OA
ATOM     13  H   UNL     1      14.992   6.111  11.503  1.00  0.00     0.293 HD
ENDBRANCH   4  12
BRANCH   6  14
ATOM     14  O   UNL     1      15.434   2.884  10.994  1.00  0.00    -0.504 OA
ATOM     15  H   UNL     1      15.731   3.507  10.252  1.00  0.00     0.293 HD
ENDBRANCH   6  14
TORSDOF 4
ENDMDL
MODEL 2
REMARK VINA RESULT:    -4.874      2.684      5.312
REMARK INTER + INTRA:          -5.868
REMARK INTER:                  -5.740
REMARK INTRA:                  -0.128
REMARK UNBOUND:                -0.139
REMARK SMILES O=C([O-])C=Cc1ccc(O)c(O)c1
REMARK SMILES IDX 6 1 13 2 7 3 11 4 8 5 9 6 5 7 4 8 2 9 1 10 3 11 12 12 10 14
REMARK H PARENT 12 13 10 15
REMARK Flexibility Score: inf
ROOT
ATOM      1  C   UNL     1      13.428   4.142  11.777  1.00  0.00    -0.022 A 
ATOM      2  C   UNL     1      12.183   3.700  12.256  1.00  0.00     0.058 A 
ATOM      3  C   UNL     1      14.592   3.454  12.175  1.00  0.00     0.012 A 
ATOM      4  C   UNL     1      12.094   2.579  13.094  1.00  0.00     0.157 A 
ATOM      5  C   UNL     1      14.503   2.338  13.011  1.00  0.00     0.051 A 
ATOM      6  C   UNL     1      13.255   1.895  13.470  1.00  0.00     0.157 A 
ENDROOT
BRANCH   1   7
ATOM      7  C   UNL     1      13.468   5.339  10.902  1.00  0.00     0.010 C 
ATOM      8  C   UNL     1      13.586   6.593  11.360  1.00  0.00     0.025 C 
BRANCH   8   9
ATOM      9  C   UNL     1      13.632   7.752  10.454  1.00  0.00     0.064 C 
ATOM     10  O   UNL     1      14.182   8.817  10.835  1.00  0.00    -0.545 OA
ATOM     11  O   UNL     1      13.076   7.689   9.181  1.00  0.00    -0.545 OA
ENDBRANCH   8   9
ENDBRANCH   1   7
BRANCH   4  12
ATOM     12  O   UNL     1      10.855   2.141  13.556  1.00  0.00    -0.504 OA
ATOM     13  H   UNL     1      10.135   1.816  12.921  1.00  0.00     0.293 HD
ENDBRANCH   4  12
BRANCH   6  14
ATOM     14  O   UNL     1      13.164   0.781  14.302  1.00  0.00    -0.504 OA
ATOM     15  H   UNL     1      13.622   0.755  15.205  1.00  0.00     0.293 HD
ENDBRANCH   6  14
TORSDOF 4
ENDMDL
MODEL 3
REMARK VINA RESULT:    -4.803      1.028      1.947
REMARK INTER + INTRA:          -5.785
REMARK INTER:                  -5.643
REMARK INTRA:                  -0.142
REMARK UNBOUND:                -0.139
REMARK SMILES O=C([O-])C=Cc1ccc(O)c(O)c1
REMARK SMILES IDX 6 1 13 2 7 3 11 4 8 5 9 6 5 7 4 8 2 9 1 10 3 11 12 12 10 14
REMARK H PARENT 12 13 10 15
REMARK Flexibility Score: inf
ROOT
ATOM      1  C   UNL     1      12.462   3.195  12.891  1.00  0.00    -0.022 A 
ATOM      2  C   UNL     1      13.631   2.439  13.081  1.00  0.00     0.058 A 
ATOM      3  C   UNL     1      12.505   4.311  12.032  1.00  0.00     0.012 A 
ATOM      4  C   UNL     1      14.817   2.772  12.407  1.00  0.00     0.157 A 
ATOM      5  C   UNL     1      13.686   4.643  11.363  1.00  0.00     0.051 A 
ATOM      6  C   UNL     1      14.842   3.875  11.545  1.00  0.00     0.157 A 
ENDROOT
BRANCH   1   7
ATOM      7  C   UNL     1      11.238   2.806  13.635  1.00  0.00     0.010 C 
ATOM      8  C   UNL     1      10.311   3.679  14.051  1.00  0.00     0.025 C 
BRANCH   8   9
ATOM      9  C   UNL     1       9.105   3.248  14.777  1.00  0.00     0.064 C 
ATOM     10  O   UNL     1       8.947   2.030  15.050  1.00  0.00    -0.545 OA
ATOM     11  O   UNL     1       8.136   4.165  15.166  1.00  0.00    -0.545 OA
ENDBRANCH   8   9
ENDBRANCH   1   7
BRANCH   4  12
ATOM     12  O   UNL     1      15.970   2.013  12.592  1.00  0.00    -0.504 OA
ATOM     13  H   UNL     1      16.888   2.440  12.618  1.00  0.00     0.293 HD
ENDBRANCH   4  12
BRANCH   6  14
ATOM     14  O   UNL     1      16.021   4.202  10.877  1.00  0.00    -0.504 OA
ATOM     15  H   UNL     1      16.022   4.446   9.893  1.00  0.00     0.293 HD
ENDBRANCH   6  14
TORSDOF 4
ENDMDL
MODEL 4
REMARK VINA RESULT:    -4.694      4.320      5.600
REMARK INTER + INTRA:          -5.656
REMARK INTER:                  -5.522
REMARK INTRA:                  -0.134
REMARK UNBOUND:                -0.139
REMARK SMILES O=C([O-])C=Cc1ccc(O)c(O)c1
REMARK SMILES IDX 6 1 13 2 7 3 11 4 8 5 9 6 5 7 4 8 2 9 1 10 3 11 12 12 10 14
REMARK H PARENT 12 13 10 15
REMARK Flexibility Score: inf
ROOT
ATOM      1  C   UNL     1      13.988   1.723  14.787  1.00  0.00    -0.022 A 
ATOM      2  C   UNL     1      14.365   2.940  15.382  1.00  0.00     0.058 A 
ATOM      3  C   UNL     1      13.050   1.742  13.737  1.00  0.00     0.012 A 
ATOM      4  C   UNL     1      13.836   4.155  14.922  1.00  0.00     0.157 A 
ATOM      5  C   UNL     1      12.522   2.952  13.280  1.00  0.00     0.051 A 
ATOM      6  C   UNL     1      12.915   4.161  13.868  1.00  0.00     0.157 A 
ENDROOT
BRANCH   1   7
ATOM      7  C   UNL     1      14.570   0.465  15.317  1.00  0.00     0.010 C 
ATOM      8  C   UNL     1      14.926   0.291  16.597  1.00  0.00     0.025 C 
BRANCH   8   9
ATOM      9  C   UNL     1      15.489  -0.979  17.083  1.00  0.00     0.064 C 
ATOM     10  O   UNL     1      15.756  -1.895  16.262  1.00  0.00    -0.545 OA
ATOM     11  O   UNL     1      15.731  -1.186  18.436  1.00  0.00    -0.545 OA
ENDBRANCH   8   9
ENDBRANCH   1   7
BRANCH   4  12
ATOM     12  O   UNL     1      14.220   5.358  15.509  1.00  0.00    -0.504 OA
ATOM     13  H   UNL     1      13.592   6.152  15.555  1.00  0.00     0.293 HD
ENDBRANCH   4  12
BRANCH   6  14
ATOM     14  O   UNL     1      12.392   5.371  13.413  1.00  0.00    -0.504 OA
ATOM     15  H   UNL     1      12.657   5.758  12.515  1.00  0.00     0.293 HD
ENDBRANCH   6  14
TORSDOF 4
ENDMDL
MODEL 5
REMARK VINA RESULT:    -4.672      3.099      5.306
REMARK INTER + INTRA:          -5.631
REMARK INTER:                  -5.505
REMARK INTRA:                  -0.126
REMARK UNBOUND:                -0.139
REMARK SMILES O=C([O-])C=Cc1ccc(O)c(O)c1
REMARK SMILES IDX 6 1 13 2 7 3 11 4 8 5 9 6 5 7 4 8 2 9 1 10 3 11 12 12 10 14
REMARK H PARENT 12 13 10 15
REMARK Flexibility Score: inf
ROOT
ATOM      1  C   UNL     1      13.343   4.151  11.763  1.00  0.00    -0.022 A 
ATOM      2  C   UNL     1      14.506   3.561  12.289  1.00  0.00     0.058 A 
ATOM      3  C   UNL     1      12.091   3.590  12.085  1.00  0.00     0.012 A 
ATOM      4  C   UNL     1      14.423   2.450  13.141  1.00  0.00     0.157 A 
ATOM      5  C   UNL     1      12.009   2.482  12.932  1.00  0.00     0.051 A 
ATOM      6  C   UNL     1      13.172   1.911  13.465  1.00  0.00     0.157 A 
ENDROOT
BRANCH   1   7
ATOM      7  C   UNL     1      13.487   5.319  10.858  1.00  0.00     0.010 C 
ATOM      8  C   UNL     1      13.584   6.584  11.287  1.00  0.00     0.025 C 
BRANCH   8   9
ATOM      9  C   UNL     1      13.737   7.713  10.354  1.00  0.00     0.064 C 
ATOM     10  O   UNL     1      14.429   8.708  10.691  1.00  0.00    -0.545 OA
ATOM     11  O   UNL     1      13.126   7.698   9.106  1.00  0.00    -0.545 OA
ENDBRANCH   8   9
ENDBRANCH   1   7
BRANCH   4  12
ATOM     12  O   UNL     1      15.578   1.877  13.667  1.00  0.00    -0.504 OA
ATOM     13  H   UNL     1      16.430   1.805  13.123  1.00  0.00     0.293 HD
ENDBRANCH   4  12
BRANCH   6  14
ATOM     14  O   UNL     1      13.093   0.807  14.312  1.00  0.00    -0.504 OA
ATOM     15  H   UNL     1      13.856   0.146  14.393  1.00  0.00     0.293 HD
ENDBRANCH   6  14
TORSDOF 4
ENDMDL
MODEL 6
REMARK VINA RESULT:    -4.643      4.493      5.561
REMARK INTER + INTRA:          -5.596
REMARK INTER:                  -5.455
REMARK INTRA:                  -0.141
REMARK UNBOUND:                -0.139
REMARK SMILES O=C([O-])C=Cc1ccc(O)c(O)c1
REMARK SMILES IDX 6 1 13 2 7 3 11 4 8 5 9 6 5 7 4 8 2 9 1 10 3 11 12 12 10 14
REMARK H PARENT 12 13 10 15
REMARK Flexibility Score: inf
ROOT
ATOM      1  C   UNL     1      14.238   2.113  15.267  1.00  0.00    -0.022 A 
ATOM      2  C   UNL     1      13.703   1.804  14.005  1.00  0.00     0.058 A 
ATOM      3  C   UNL     1      14.403   3.466  15.622  1.00  0.00     0.012 A 
ATOM      4  C   UNL     1      13.317   2.823  13.121  1.00  0.00     0.157 A 
ATOM      5  C   UNL     1      14.019   4.481  14.742  1.00  0.00     0.051 A 
ATOM      6  C   UNL     1      13.473   4.164  13.492  1.00  0.00     0.157 A 
ENDROOT
BRANCH   1   7
ATOM      7  C   UNL     1      14.640   0.997  16.159  1.00  0.00     0.010 C 
ATOM      8  C   UNL     1      15.406   1.154  17.247  1.00  0.00     0.025 C 
BRANCH   8   9
ATOM      9  C   UNL     1      15.773   0.020  18.111  1.00  0.00     0.064 C 
ATOM     10  O   UNL     1      15.766  -1.147  17.640  1.00  0.00    -0.545 OA
ATOM     11  O   UNL     1      16.125   0.216  19.441  1.00  0.00    -0.545 OA
ENDBRANCH   8   9
ENDBRANCH   1   7
BRANCH   4  12
ATOM     12  O   UNL     1      12.778   2.510  11.875  1.00  0.00    -0.504 OA
ATOM     13  H   UNL     1      13.306   2.639  11.020  1.00  0.00     0.293 HD
ENDBRANCH   4  12
BRANCH   6  14
ATOM     14  O   UNL     1      13.087   5.174  12.613  1.00  0.00    -0.504 OA
ATOM     15  H   UNL     1      12.234   5.702  12.754  1.00  0.00     0.293 HD
ENDBRANCH   6  14
TORSDOF 4
ENDMDL
MODEL 7
REMARK VINA RESULT:    -4.504     15.141     16.020
REMARK INTER + INTRA:          -5.433
REMARK INTER:                  -5.293
REMARK INTRA:                  -0.140
REMARK UNBOUND:                -0.139
REMARK SMILES O=C([O-])C=Cc1ccc(O)c(O)c1
REMARK SMILES IDX 6 1 13 2 7 3 11 4 8 5 9 6 5 7 4 8 2 9 1 10 3 11 12 12 10 14
REMARK H PARENT 12 13 10 15
REMARK Flexibility Score: inf
ROOT
ATOM      1  C   UNL     1      -3.570   2.007  14.980  1.00  0.00    -0.022 A 
ATOM      2  C   UNL     1      -3.794   3.300  15.483  1.00  0.00     0.058 A 
ATOM      3  C   UNL     1      -3.156   1.860  13.642  1.00  0.00     0.012 A 
ATOM      4  C   UNL     1      -3.585   4.428  14.675  1.00  0.00     0.157 A 
ATOM      5  C   UNL     1      -2.949   2.983  12.838  1.00  0.00     0.051 A 
ATOM      6  C   UNL     1      -3.159   4.269  13.351  1.00  0.00     0.157 A 
ENDROOT
BRANCH   1   7
ATOM      7  C   UNL     1      -3.815   0.847  15.873  1.00  0.00     0.010 C 
ATOM      8  C   UNL     1      -3.707  -0.430  15.481  1.00  0.00     0.025 C 
BRANCH   8   9
ATOM      9  C   UNL     1      -3.949  -1.551  16.404  1.00  0.00     0.064 C 
ATOM     10  O   UNL     1      -4.008  -2.724  15.954  1.00  0.00    -0.545 OA
ATOM     11  O   UNL     1      -4.116  -1.334  17.767  1.00  0.00    -0.545 OA
ENDBRANCH   8   9
ENDBRANCH   1   7
BRANCH   4  12
ATOM     12  O   UNL     1      -3.800   5.708  15.182  1.00  0.00    -0.504 OA
ATOM     13  H   UNL     1      -3.347   6.521  14.782  1.00  0.00     0.293 HD
ENDBRANCH   4  12
BRANCH   6  14
ATOM     14  O   UNL     1      -2.952   5.392  12.552  1.00  0.00    -0.504 OA
ATOM     15  H   UNL     1      -3.580   5.625  11.792  1.00  0.00     0.293 HD
ENDBRANCH   6  14
TORSDOF 4
ENDMDL
MODEL 8
REMARK VINA RESULT:    -4.414      2.075      5.814
REMARK INTER + INTRA:          -5.328
REMARK INTER:                  -5.201
REMARK INTRA:                  -0.127
REMARK UNBOUND:                -0.139
REMARK SMILES O=C([O-])C=Cc1ccc(O)c(O)c1
REMARK SMILES IDX 6 1 13 2 7 3 11 4 8 5 9 6 5 7 4 8 2 9 1 10 3 11 12 12 10 14
REMARK H PARENT 12 13 10 15
REMARK Flexibility Score: inf
ROOT
ATOM      1  C   UNL     1      13.399   4.302  12.712  1.00  0.00    -0.022 A 
ATOM      2  C   UNL     1      12.220   4.922  13.159  1.00  0.00     0.058 A 
ATOM      3  C   UNL     1      13.474   2.895  12.726  1.00  0.00     0.012 A 
ATOM      4  C   UNL     1      11.126   4.156  13.589  1.00  0.00     0.157 A 
ATOM      5  C   UNL     1      12.385   2.132  13.154  1.00  0.00     0.051 A 
ATOM      6  C   UNL     1      11.208   2.759  13.583  1.00  0.00     0.157 A 
ENDROOT
BRANCH   1   7
ATOM      7  C   UNL     1      14.530   5.158  12.278  1.00  0.00     0.010 C 
ATOM      8  C   UNL     1      14.441   6.070  11.300  1.00  0.00     0.025 C 
BRANCH   8   9
ATOM      9  C   UNL     1      15.588   6.906  10.910  1.00  0.00     0.064 C 
ATOM     10  O   UNL     1      16.092   7.699  11.746  1.00  0.00    -0.545 OA
ATOM     11  O   UNL     1      16.122   6.837   9.628  1.00  0.00    -0.545 OA
ENDBRANCH   8   9
ENDBRANCH   1   7
BRANCH   4  12
ATOM     12  O   UNL     1       9.956   4.777  14.021  1.00  0.00    -0.504 OA
ATOM     13  H   UNL     1       9.061   4.304  13.990  1.00  0.00     0.293 HD
ENDBRANCH   4  12
BRANCH   6  14
ATOM     14  O   UNL     1      10.118   2.000  14.009  1.00  0.00    -0.504 OA
ATOM     15  H   UNL     1       9.423   1.658  13.356  1.00  0.00     0.293 HD
ENDBRANCH   6  14
TORSDOF 4
ENDMDL
MODEL 9
REMARK VINA RESULT:    -4.414     14.214     15.569
REMARK INTER + INTRA:          -5.327
REMARK INTER:                  -5.202
REMARK INTRA:                  -0.125
REMARK UNBOUND:                -0.139
REMARK SMILES O=C([O-])C=Cc1ccc(O)c(O)c1
REMARK SMILES IDX 6 1 13 2 7 3 11 4 8 5 9 6 5 7 4 8 2 9 1 10 3 11 12 12 10 14
REMARK H PARENT 12 13 10 15
REMARK Flexibility Score: inf
ROOT
ATOM      1  C   UNL     1      -2.956   0.994  15.048  1.00  0.00    -0.022 A 
ATOM      2  C   UNL     1      -1.708   0.447  15.391  1.00  0.00     0.058 A 
ATOM      3  C   UNL     1      -4.100   0.175  15.122  1.00  0.00     0.012 A 
ATOM      4  C   UNL     1      -1.603  -0.883  15.825  1.00  0.00     0.157 A 
ATOM      5  C   UNL     1      -3.996  -1.149  15.554  1.00  0.00     0.051 A 
ATOM      6  C   UNL     1      -2.750  -1.681  15.909  1.00  0.00     0.157 A 
ENDROOT
BRANCH   1   7
ATOM      7  C   UNL     1      -3.010   2.403  14.585  1.00  0.00     0.010 C 
ATOM      8  C   UNL     1      -3.048   2.762  13.295  1.00  0.00     0.025 C 
BRANCH   8   9
ATOM      9  C   UNL     1      -3.112   4.173  12.881  1.00  0.00     0.064 C 
ATOM     10  O   UNL     1      -4.125   4.594  12.264  1.00  0.00    -0.545 OA
ATOM     11  O   UNL     1      -2.070   5.050  13.159  1.00  0.00    -0.545 OA
ENDBRANCH   8   9
ENDBRANCH   1   7
BRANCH   4  12
ATOM     12  O   UNL     1      -0.364  -1.416  16.173  1.00  0.00    -0.504 OA
ATOM     13  H   UNL     1       0.093  -1.172  17.044  1.00  0.00     0.293 HD
ENDBRANCH   4  12
BRANCH   6  14
ATOM     14  O   UNL     1      -2.643  -3.002  16.341  1.00  0.00    -0.504 OA
ATOM     15  H   UNL     1      -1.827  -3.330  16.845  1.00  0.00     0.293 HD
ENDBRANCH   6  14
TORSDOF 4
ENDMDL
