MODEL 1
REMARK VINA RESULT:    -4.681      0.000      0.000
REMARK INTER + INTRA:          -6.795
REMARK INTER:                  -6.323
REMARK INTRA:                  -0.472
REMARK UNBOUND:                -0.472
REMARK SMILES CCCCCCCC(=O)[O-]
REMARK SMILES IDX 5 1 6 2 7 3 8 4 9 5 10 6 4 7 3 8 2 9 1 10
REMARK H PARENT
REMARK Flexibility Score: inf
ROOT
ATOM      1  C   UNL     1      20.242   5.983  -9.784  1.00  0.00     0.000 C 
ENDROOT
BRANCH   1   2
ATOM      2  C   UNL     1      21.578   6.472 -10.355  1.00  0.00     0.006 C 
BRANCH   2   3
ATOM      3  C   UNL     1      21.461   6.764 -11.854  1.00  0.00     0.053 C 
BRANCH   3   4
ATOM      4  C   UNL     1      21.639   5.508 -12.647  1.00  0.00     0.041 C 
ATOM      5  O   UNL     1      22.786   5.014 -12.803  1.00  0.00    -0.550 OA
ATOM      6  O   UNL     1      20.543   4.909 -13.256  1.00  0.00    -0.550 OA
ENDBRANCH   3   4
ENDBRANCH   2   3
ENDBRANCH   1   2
BRANCH   1   7
ATOM      7  C   UNL     1      19.078   6.843 -10.290  1.00  0.00     0.000 C 
BRANCH   7   8
ATOM      8  C   UNL     1      17.995   5.972 -10.944  1.00  0.00    -0.000 C 
BRANCH   8   9
ATOM      9  C   UNL     1      18.271   4.468 -10.785  1.00  0.00    -0.003 C 
ATOM     10  C   UNL     1      16.996   3.626 -10.811  1.00  0.00     0.004 C 
ENDBRANCH   8   9
ENDBRANCH   7   8
ENDBRANCH   1   7
TORSDOF 6
ENDMDL
MODEL 2
REMARK VINA RESULT:    -4.628      2.546      4.416
REMARK INTER + INTRA:          -6.723
REMARK INTER:                  -6.271
REMARK INTRA:                  -0.452
REMARK UNBOUND:                -0.472
REMARK SMILES CCCCCCCC(=O)[O-]
REMARK SMILES IDX 5 1 6 2 7 3 8 4 9 5 10 6 4 7 3 8 2 9 1 10
REMARK H PARENT
REMARK Flexibility Score: inf
ROOT
ATOM      1  C   UNL     1      19.219   7.101 -10.325  1.00  0.00     0.000 C 
ENDROOT
BRANCH   1   2
ATOM      2  C   UNL     1      18.240   6.283 -11.175  1.00  0.00     0.006 C 
BRANCH   2   3
ATOM      3  C   UNL     1      18.399   4.783 -10.907  1.00  0.00     0.053 C 
BRANCH   3   4
ATOM      4  C   UNL     1      17.061   4.134 -10.752  1.00  0.00     0.041 C 
ATOM      5  O   UNL     1      16.869   2.967 -11.183  1.00  0.00    -0.550 OA
ATOM      6  O   UNL     1      16.010   4.836 -10.176  1.00  0.00    -0.550 OA
ENDBRANCH   3   4
ENDBRANCH   2   3
ENDBRANCH   1   2
BRANCH   1   7
ATOM      7  C   UNL     1      20.229   6.190  -9.617  1.00  0.00     0.000 C 
BRANCH   7   8
ATOM      8  C   UNL     1      21.664   6.510 -10.061  1.00  0.00    -0.000 C 
BRANCH   8   9
ATOM      9  C   UNL     1      21.768   6.785 -11.570  1.00  0.00    -0.003 C 
ATOM     10  C   UNL     1      22.194   5.554 -12.368  1.00  0.00     0.004 C 
ENDBRANCH   8   9
ENDBRANCH   7   8
ENDBRANCH   1   7
TORSDOF 6
ENDMDL
MODEL 3
REMARK VINA RESULT:    -4.180      2.633      4.460
REMARK INTER + INTRA:          -6.118
REMARK INTER:                  -5.687
REMARK INTRA:                  -0.431
REMARK UNBOUND:                -0.472
REMARK SMILES CCCCCCCC(=O)[O-]
REMARK SMILES IDX 5 1 6 2 7 3 8 4 9 5 10 6 4 7 3 8 2 9 1 10
REMARK H PARENT
REMARK Flexibility Score: inf
ROOT
ATOM      1  C   UNL     1      19.647   5.780 -12.447  1.00  0.00     0.000 C 
ENDROOT
BRANCH   1   2
ATOM      2  C   UNL     1      18.473   6.040 -11.495  1.00  0.00     0.006 C 
BRANCH   2   3
ATOM      3  C   UNL     1      18.330   4.906 -10.476  1.00  0.00     0.053 C 
BRANCH   3   4
ATOM      4  C   UNL     1      17.026   4.197 -10.662  1.00  0.00     0.041 C 
ATOM      5  O   UNL     1      16.989   3.079 -11.240  1.00  0.00    -0.550 OA
ATOM      6  O   UNL     1      15.844   4.792 -10.240  1.00  0.00    -0.550 OA
ENDBRANCH   3   4
ENDBRANCH   2   3
ENDBRANCH   1   2
BRANCH   1   7
ATOM      7  C   UNL     1      20.763   6.811 -12.241  1.00  0.00     0.000 C 
BRANCH   7   8
ATOM      8  C   UNL     1      21.856   6.259 -11.313  1.00  0.00    -0.000 C 
BRANCH   8   9
ATOM      9  C   UNL     1      21.702   6.748  -9.864  1.00  0.00    -0.003 C 
ATOM     10  C   UNL     1      21.470   5.605  -8.876  1.00  0.00     0.004 C 
ENDBRANCH   8   9
ENDBRANCH   7   8
ENDBRANCH   1   7
TORSDOF 6
ENDMDL
MODEL 4
REMARK VINA RESULT:    -3.984      2.703      4.819
REMARK INTER + INTRA:          -5.853
REMARK INTER:                  -5.592
REMARK INTRA:                  -0.261
REMARK UNBOUND:                -0.472
REMARK SMILES CCCCCCCC(=O)[O-]
REMARK SMILES IDX 5 1 6 2 7 3 8 4 9 5 10 6 4 7 3 8 2 9 1 10
REMARK H PARENT
REMARK Flexibility Score: inf
ROOT
ATOM      1  C   UNL     1      19.602   5.871 -12.498  1.00  0.00     0.000 C 
ENDROOT
BRANCH   1   2
ATOM      2  C   UNL     1      18.520   6.013 -11.420  1.00  0.00     0.006 C 
BRANCH   2   3
ATOM      3  C   UNL     1      18.431   4.748 -10.560  1.00  0.00     0.053 C 
BRANCH   3   4
ATOM      4  C   UNL     1      17.085   4.112 -10.702  1.00  0.00     0.041 C 
ATOM      5  O   UNL     1      16.965   3.006 -11.291  1.00  0.00    -0.550 OA
ATOM      6  O   UNL     1      15.954   4.765 -10.228  1.00  0.00    -0.550 OA
ENDBRANCH   3   4
ENDBRANCH   2   3
ENDBRANCH   1   2
BRANCH   1   7
ATOM      7  C   UNL     1      20.765   6.835 -12.241  1.00  0.00     0.000 C 
BRANCH   7   8
ATOM      8  C   UNL     1      22.019   6.074 -11.786  1.00  0.00    -0.000 C 
BRANCH   8   9
ATOM      9  C   UNL     1      22.466   5.011 -12.802  1.00  0.00    -0.003 C 
ATOM     10  C   UNL     1      23.807   5.343 -13.455  1.00  0.00     0.004 C 
ENDBRANCH   8   9
ENDBRANCH   7   8
ENDBRANCH   1   7
TORSDOF 6
ENDMDL
MODEL 5
REMARK VINA RESULT:    -3.438      2.084      2.697
REMARK INTER + INTRA:          -5.115
REMARK INTER:                  -5.039
REMARK INTRA:                  -0.076
REMARK UNBOUND:                -0.472
REMARK SMILES CCCCCCCC(=O)[O-]
REMARK SMILES IDX 5 1 6 2 7 3 8 4 9 5 10 6 4 7 3 8 2 9 1 10
REMARK H PARENT
REMARK Flexibility Score: inf
ROOT
ATOM      1  C   UNL     1      21.010   5.220 -13.077  1.00  0.00     0.000 C 
ENDROOT
BRANCH   1   2
ATOM      2  C   UNL     1      21.988   5.631 -11.971  1.00  0.00     0.006 C 
BRANCH   2   3
ATOM      3  C   UNL     1      21.541   6.932 -11.296  1.00  0.00     0.053 C 
BRANCH   3   4
ATOM      4  C   UNL     1      20.980   6.651  -9.938  1.00  0.00     0.041 C 
ATOM      5  O   UNL     1      21.675   6.050  -9.077  1.00  0.00    -0.550 OA
ATOM      6  O   UNL     1      19.672   7.010  -9.638  1.00  0.00    -0.550 OA
ENDBRANCH   3   4
ENDBRANCH   2   3
ENDBRANCH   1   2
BRANCH   1   7
ATOM      7  C   UNL     1      19.558   5.440 -12.638  1.00  0.00     0.000 C 
BRANCH   7   8
ATOM      8  C   UNL     1      18.945   4.141 -12.095  1.00  0.00    -0.000 C 
BRANCH   8   9
ATOM      9  C   UNL     1      18.082   4.372 -10.843  1.00  0.00    -0.003 C 
ATOM     10  C   UNL     1      16.809   3.528 -10.838  1.00  0.00     0.004 C 
ENDBRANCH   8   9
ENDBRANCH   7   8
ENDBRANCH   1   7
TORSDOF 6
ENDMDL
MODEL 6
REMARK VINA RESULT:    -3.409     12.220     13.788
REMARK INTER + INTRA:          -5.077
REMARK INTER:                  -4.971
REMARK INTRA:                  -0.106
REMARK UNBOUND:                -0.472
REMARK SMILES CCCCCCCC(=O)[O-]
REMARK SMILES IDX 5 1 6 2 7 3 8 4 9 5 10 6 4 7 3 8 2 9 1 10
REMARK H PARENT
REMARK Flexibility Score: inf
ROOT
ATOM      1  C   UNL     1      25.101  -2.436 -20.132  1.00  0.00     0.000 C 
ENDROOT
BRANCH   1   2
ATOM      2  C   UNL     1      26.047  -3.566 -20.553  1.00  0.00     0.006 C 
BRANCH   2   3
ATOM      3  C   UNL     1      25.490  -4.932 -20.140  1.00  0.00     0.053 C 
BRANCH   3   4
ATOM      4  C   UNL     1      26.013  -6.006 -21.040  1.00  0.00     0.041 C 
ATOM      5  O   UNL     1      25.610  -7.191 -20.913  1.00  0.00    -0.550 OA
ATOM      6  O   UNL     1      26.983  -5.707 -21.988  1.00  0.00    -0.550 OA
ENDBRANCH   3   4
ENDBRANCH   2   3
ENDBRANCH   1   2
BRANCH   1   7
ATOM      7  C   UNL     1      24.242  -2.854 -18.933  1.00  0.00     0.000 C 
BRANCH   7   8
ATOM      8  C   UNL     1      24.997  -2.634 -17.614  1.00  0.00    -0.000 C 
BRANCH   8   9
ATOM      9  C   UNL     1      24.339  -1.564 -16.728  1.00  0.00    -0.003 C 
ATOM     10  C   UNL     1      23.658  -0.462 -17.537  1.00  0.00     0.004 C 
ENDBRANCH   8   9
ENDBRANCH   7   8
ENDBRANCH   1   7
TORSDOF 6
ENDMDL
MODEL 7
REMARK VINA RESULT:    -3.396     11.764     13.572
REMARK INTER + INTRA:          -5.059
REMARK INTER:                  -4.672
REMARK INTRA:                  -0.387
REMARK UNBOUND:                -0.472
REMARK SMILES CCCCCCCC(=O)[O-]
REMARK SMILES IDX 5 1 6 2 7 3 8 4 9 5 10 6 4 7 3 8 2 9 1 10
REMARK H PARENT
REMARK Flexibility Score: inf
ROOT
ATOM      1  C   UNL     1      25.106  -2.661 -20.494  1.00  0.00     0.000 C 
ENDROOT
BRANCH   1   2
ATOM      2  C   UNL     1      24.182  -2.959 -19.307  1.00  0.00     0.006 C 
BRANCH   2   3
ATOM      3  C   UNL     1      24.916  -2.764 -17.977  1.00  0.00     0.053 C 
BRANCH   3   4
ATOM      4  C   UNL     1      24.334  -1.613 -17.221  1.00  0.00     0.041 C 
ATOM      5  O   UNL     1      24.344  -1.611 -15.962  1.00  0.00    -0.550 OA
ATOM      6  O   UNL     1      23.735  -0.563 -17.905  1.00  0.00    -0.550 OA
ENDBRANCH   3   4
ENDBRANCH   2   3
ENDBRANCH   1   2
BRANCH   1   7
ATOM      7  C   UNL     1      26.314  -3.605 -20.503  1.00  0.00     0.000 C 
BRANCH   7   8
ATOM      8  C   UNL     1      26.312  -4.488 -21.760  1.00  0.00    -0.000 C 
BRANCH   8   9
ATOM      9  C   UNL     1      26.481  -5.981 -21.434  1.00  0.00    -0.003 C 
ATOM     10  C   UNL     1      25.634  -6.426 -20.243  1.00  0.00     0.004 C 
ENDBRANCH   8   9
ENDBRANCH   7   8
ENDBRANCH   1   7
TORSDOF 6
ENDMDL
MODEL 8
REMARK VINA RESULT:    -3.255     11.744     13.510
REMARK INTER + INTRA:          -4.869
REMARK INTER:                  -4.492
REMARK INTRA:                  -0.377
REMARK UNBOUND:                -0.472
REMARK SMILES CCCCCCCC(=O)[O-]
REMARK SMILES IDX 5 1 6 2 7 3 8 4 9 5 10 6 4 7 3 8 2 9 1 10
REMARK H PARENT
REMARK Flexibility Score: inf
ROOT
ATOM      1  C   UNL     1      25.114  -4.444 -18.259  1.00  0.00     0.000 C 
ENDROOT
BRANCH   1   2
ATOM      2  C   UNL     1      25.528  -2.970 -18.350  1.00  0.00     0.006 C 
BRANCH   2   3
ATOM      3  C   UNL     1      24.417  -2.125 -18.981  1.00  0.00     0.053 C 
BRANCH   3   4
ATOM      4  C   UNL     1      23.977  -1.051 -18.038  1.00  0.00     0.041 C 
ATOM      5  O   UNL     1      23.419  -0.012 -18.477  1.00  0.00    -0.550 OA
ATOM      6  O   UNL     1      24.227  -1.175 -16.677  1.00  0.00    -0.550 OA
ENDBRANCH   3   4
ENDBRANCH   2   3
ENDBRANCH   1   2
BRANCH   1   7
ATOM      7  C   UNL     1      24.751  -5.001 -19.640  1.00  0.00     0.000 C 
BRANCH   7   8
ATOM      8  C   UNL     1      25.594  -6.242 -19.970  1.00  0.00    -0.000 C 
BRANCH   8   9
ATOM      9  C   UNL     1      26.291  -6.136 -21.337  1.00  0.00    -0.003 C 
ATOM     10  C   UNL     1      26.467  -4.691 -21.801  1.00  0.00     0.004 C 
ENDBRANCH   8   9
ENDBRANCH   7   8
ENDBRANCH   1   7
TORSDOF 6
ENDMDL
