MODEL 1
REMARK VINA RESULT:    -4.790      0.000      0.000
REMARK INTER + INTRA:          -8.037
REMARK INTER:                  -6.611
REMARK INTRA:                  -1.427
REMARK UNBOUND:                -1.427
REMARK SMILES CCCCc1cccc(O)c1CCCC
REMARK SMILES IDX 5 1 11 2 9 3 8 4 7 5 6 6 4 7 3 8 2 9 1 10 12 11 13 12 14 13
REMARK SMILES IDX 15 14 10 15
REMARK H PARENT 10 16
REMARK Flexibility Score: inf
ROOT
ATOM      1  C   UNL     1      19.257  49.438  44.956  1.00  0.00    -0.041 A 
ATOM      2  C   UNL     1      18.783  48.622  43.891  1.00  0.00    -0.003 A 
ATOM      3  C   UNL     1      17.923  49.188  42.922  1.00  0.00     0.119 A 
ATOM      4  C   UNL     1      17.512  50.522  43.036  1.00  0.00     0.046 A 
ATOM      5  C   UNL     1      17.953  51.306  44.099  1.00  0.00     0.004 A 
ATOM      6  C   UNL     1      18.817  50.770  45.052  1.00  0.00     0.004 A 
ENDROOT
BRANCH   1   7
ATOM      7  C   UNL     1      20.184  48.917  46.033  1.00  0.00     0.036 C 
BRANCH   7   8
ATOM      8  C   UNL     1      21.460  49.769  46.108  1.00  0.00     0.004 C 
BRANCH   8   9
ATOM      9  C   UNL     1      22.571  49.245  45.185  1.00  0.00    -0.003 C 
ATOM     10  C   UNL     1      22.651  50.014  43.866  1.00  0.00     0.004 C 
ENDBRANCH   8   9
ENDBRANCH   7   8
ENDBRANCH   1   7
BRANCH   2  11
ATOM     11  C   UNL     1      19.218  47.178  43.730  1.00  0.00     0.040 C 
BRANCH  11  12
ATOM     12  C   UNL     1      20.525  47.091  42.934  1.00  0.00     0.005 C 
BRANCH  12  13
ATOM     13  C   UNL     1      21.325  45.843  43.325  1.00  0.00    -0.003 C 
ATOM     14  C   UNL     1      21.369  45.669  44.840  1.00  0.00     0.004 C 
ENDBRANCH  12  13
ENDBRANCH  11  12
ENDBRANCH   2  11
BRANCH   3  15
ATOM     15  O   UNL     1      17.478  48.422  41.844  1.00  0.00    -0.508 OA
ATOM     16  H   UNL     1      16.496  48.209  41.711  1.00  0.00     0.293 HD
ENDBRANCH   3  15
TORSDOF 7
ENDMDL
MODEL 2
REMARK VINA RESULT:    -4.686      1.434      3.525
REMARK INTER + INTRA:          -7.893
REMARK INTER:                  -6.718
REMARK INTRA:                  -1.175
REMARK UNBOUND:                -1.427
REMARK SMILES CCCCc1cccc(O)c1CCCC
REMARK SMILES IDX 5 1 11 2 9 3 8 4 7 5 6 6 4 7 3 8 2 9 1 10 12 11 13 12 14 13
REMARK SMILES IDX 15 14 10 15
REMARK H PARENT 10 16
REMARK Flexibility Score: inf
ROOT
ATOM      1  C   UNL     1      18.776  48.568  44.015  1.00  0.00    -0.041 A 
ATOM      2  C   UNL     1      19.192  49.546  44.962  1.00  0.00    -0.003 A 
ATOM      3  C   UNL     1      18.751  50.880  44.810  1.00  0.00     0.119 A 
ATOM      4  C   UNL     1      17.951  51.240  43.719  1.00  0.00     0.046 A 
ATOM      5  C   UNL     1      17.575  50.286  42.777  1.00  0.00     0.004 A 
ATOM      6  C   UNL     1      17.984  48.962  42.921  1.00  0.00     0.004 A 
ENDROOT
BRANCH   1   7
ATOM      7  C   UNL     1      19.195  47.116  44.101  1.00  0.00     0.036 C 
BRANCH   7   8
ATOM      8  C   UNL     1      20.126  46.752  42.936  1.00  0.00     0.004 C 
BRANCH   8   9
ATOM      9  C   UNL     1      21.150  45.672  43.319  1.00  0.00    -0.003 C 
ATOM     10  C   UNL     1      21.349  45.560  44.830  1.00  0.00     0.004 C 
ENDBRANCH   8   9
ENDBRANCH   7   8
ENDBRANCH   1   7
BRANCH   2  11
ATOM     11  C   UNL     1      20.046  49.187  46.162  1.00  0.00     0.040 C 
BRANCH  11  12
ATOM     12  C   UNL     1      21.442  49.809  46.040  1.00  0.00     0.005 C 
BRANCH  12  13
ATOM     13  C   UNL     1      22.289  49.058  45.006  1.00  0.00    -0.003 C 
ATOM     14  C   UNL     1      22.572  49.932  43.787  1.00  0.00     0.004 C 
ENDBRANCH  12  13
ENDBRANCH  11  12
ENDBRANCH   2  11
BRANCH   3  15
ATOM     15  O   UNL     1      19.109  51.850  45.749  1.00  0.00    -0.508 OA
ATOM     16  H   UNL     1      19.902  52.462  45.606  1.00  0.00     0.293 HD
ENDBRANCH   3  15
TORSDOF 7
ENDMDL
MODEL 3
REMARK VINA RESULT:    -4.629      1.371      4.222
REMARK INTER + INTRA:          -7.815
REMARK INTER:                  -6.396
REMARK INTRA:                  -1.419
REMARK UNBOUND:                -1.427
REMARK SMILES CCCCc1cccc(O)c1CCCC
REMARK SMILES IDX 5 1 11 2 9 3 8 4 7 5 6 6 4 7 3 8 2 9 1 10 12 11 13 12 14 13
REMARK SMILES IDX 15 14 10 15
REMARK H PARENT 10 16
REMARK Flexibility Score: inf
ROOT
ATOM      1  C   UNL     1      20.474  48.455  44.628  1.00  0.00    -0.041 A 
ATOM      2  C   UNL     1      19.487  48.369  43.606  1.00  0.00    -0.003 A 
ATOM      3  C   UNL     1      19.378  47.176  42.856  1.00  0.00     0.119 A 
ATOM      4  C   UNL     1      20.257  46.111  43.089  1.00  0.00     0.046 A 
ATOM      5  C   UNL     1      21.243  46.215  44.067  1.00  0.00     0.004 A 
ATOM      6  C   UNL     1      21.353  47.376  44.830  1.00  0.00     0.004 A 
ENDROOT
BRANCH   1   7
ATOM      7  C   UNL     1      20.659  49.690  45.483  1.00  0.00     0.036 C 
BRANCH   7   8
ATOM      8  C   UNL     1      20.492  49.349  46.971  1.00  0.00     0.004 C 
BRANCH   8   9
ATOM      9  C   UNL     1      19.057  48.922  47.318  1.00  0.00    -0.003 C 
ATOM     10  C   UNL     1      18.973  47.464  47.771  1.00  0.00     0.004 C 
ENDBRANCH   8   9
ENDBRANCH   7   8
ENDBRANCH   1   7
BRANCH   2  11
ATOM     11  C   UNL     1      18.510  49.496  43.337  1.00  0.00     0.040 C 
BRANCH  11  12
ATOM     12  C   UNL     1      17.210  49.287  44.123  1.00  0.00     0.005 C 
BRANCH  12  13
ATOM     13  C   UNL     1      16.777  50.581  44.822  1.00  0.00    -0.003 C 
ATOM     14  C   UNL     1      17.759  51.714  44.542  1.00  0.00     0.004 C 
ENDBRANCH  12  13
ENDBRANCH  11  12
ENDBRANCH   2  11
BRANCH   3  15
ATOM     15  O   UNL     1      18.390  47.048  41.878  1.00  0.00    -0.508 OA
ATOM     16  H   UNL     1      18.520  46.458  41.065  1.00  0.00     0.293 HD
ENDBRANCH   3  15
TORSDOF 7
ENDMDL
MODEL 4
REMARK VINA RESULT:    -4.600      2.167      4.798
REMARK INTER + INTRA:          -7.775
REMARK INTER:                  -6.868
REMARK INTRA:                  -0.907
REMARK UNBOUND:                -1.427
REMARK SMILES CCCCc1cccc(O)c1CCCC
REMARK SMILES IDX 5 1 11 2 9 3 8 4 7 5 6 6 4 7 3 8 2 9 1 10 12 11 13 12 14 13
REMARK SMILES IDX 15 14 10 15
REMARK H PARENT 10 16
REMARK Flexibility Score: inf
ROOT
ATOM      1  C   UNL     1      21.055  49.311  44.965  1.00  0.00    -0.041 A 
ATOM      2  C   UNL     1      20.131  49.742  45.957  1.00  0.00    -0.003 A 
ATOM      3  C   UNL     1      20.619  50.379  47.121  1.00  0.00     0.119 A 
ATOM      4  C   UNL     1      21.997  50.543  47.310  1.00  0.00     0.046 A 
ATOM      5  C   UNL     1      22.898  50.089  46.351  1.00  0.00     0.004 A 
ATOM      6  C   UNL     1      22.433  49.476  45.189  1.00  0.00     0.004 A 
ENDROOT
BRANCH   1   7
ATOM      7  C   UNL     1      20.621  48.626  43.687  1.00  0.00     0.036 C 
BRANCH   7   8
ATOM      8  C   UNL     1      21.399  47.317  43.483  1.00  0.00     0.004 C 
BRANCH   8   9
ATOM      9  C   UNL     1      20.970  46.219  44.469  1.00  0.00    -0.003 C 
ATOM     10  C   UNL     1      21.682  44.891  44.214  1.00  0.00     0.004 C 
ENDBRANCH   8   9
ENDBRANCH   7   8
ENDBRANCH   1   7
BRANCH   2  11
ATOM     11  C   UNL     1      18.632  49.592  45.778  1.00  0.00     0.040 C 
BRANCH  11  12
ATOM     12  C   UNL     1      18.053  50.793  45.022  1.00  0.00     0.005 C 
BRANCH  12  13
ATOM     13  C   UNL     1      17.074  50.338  43.934  1.00  0.00    -0.003 C 
ATOM     14  C   UNL     1      17.661  50.546  42.541  1.00  0.00     0.004 C 
ENDBRANCH  12  13
ENDBRANCH  11  12
ENDBRANCH   2  11
BRANCH   3  15
ATOM     15  O   UNL     1      19.732  50.850  48.090  1.00  0.00    -0.508 OA
ATOM     16  H   UNL     1      18.742  50.641  48.052  1.00  0.00     0.293 HD
ENDBRANCH   3  15
TORSDOF 7
ENDMDL
MODEL 5
REMARK VINA RESULT:    -4.597      2.327      3.942
REMARK INTER + INTRA:          -7.771
REMARK INTER:                  -6.909
REMARK INTRA:                  -0.861
REMARK UNBOUND:                -1.427
REMARK SMILES CCCCc1cccc(O)c1CCCC
REMARK SMILES IDX 5 1 11 2 9 3 8 4 7 5 6 6 4 7 3 8 2 9 1 10 12 11 13 12 14 13
REMARK SMILES IDX 15 14 10 15
REMARK H PARENT 10 16
REMARK Flexibility Score: inf
ROOT
ATOM      1  C   UNL     1      19.806  49.373  45.570  1.00  0.00    -0.041 A 
ATOM      2  C   UNL     1      19.804  48.027  46.033  1.00  0.00    -0.003 A 
ATOM      3  C   UNL     1      19.705  47.778  47.421  1.00  0.00     0.119 A 
ATOM      4  C   UNL     1      19.654  48.844  48.328  1.00  0.00     0.046 A 
ATOM      5  C   UNL     1      19.691  50.159  47.871  1.00  0.00     0.004 A 
ATOM      6  C   UNL     1      19.767  50.423  46.504  1.00  0.00     0.004 A 
ENDROOT
BRANCH   1   7
ATOM      7  C   UNL     1      19.902  49.732  44.103  1.00  0.00     0.036 C 
BRANCH   7   8
ATOM      8  C   UNL     1      18.653  50.503  43.651  1.00  0.00     0.004 C 
BRANCH   8   9
ATOM      9  C   UNL     1      17.364  49.686  43.822  1.00  0.00    -0.003 C 
ATOM     10  C   UNL     1      16.332  50.393  44.700  1.00  0.00     0.004 C 
ENDBRANCH   8   9
ENDBRANCH   7   8
ENDBRANCH   1   7
BRANCH   2  11
ATOM     11  C   UNL     1      19.844  46.850  45.078  1.00  0.00     0.040 C 
BRANCH  11  12
ATOM     12  C   UNL     1      21.287  46.525  44.677  1.00  0.00     0.005 C 
BRANCH  12  13
ATOM     13  C   UNL     1      21.335  45.331  43.717  1.00  0.00    -0.003 C 
ATOM     14  C   UNL     1      22.167  44.191  44.296  1.00  0.00     0.004 C 
ENDBRANCH  12  13
ENDBRANCH  11  12
ENDBRANCH   2  11
BRANCH   3  15
ATOM     15  O   UNL     1      19.658  46.468  47.899  1.00  0.00    -0.508 OA
ATOM     16  H   UNL     1      19.874  46.244  48.863  1.00  0.00     0.293 HD
ENDBRANCH   3  15
TORSDOF 7
ENDMDL
MODEL 6
REMARK VINA RESULT:    -4.583      2.182      4.381
REMARK INTER + INTRA:          -7.752
REMARK INTER:                  -6.611
REMARK INTRA:                  -1.140
REMARK UNBOUND:                -1.427
REMARK SMILES CCCCc1cccc(O)c1CCCC
REMARK SMILES IDX 5 1 11 2 9 3 8 4 7 5 6 6 4 7 3 8 2 9 1 10 12 11 13 12 14 13
REMARK SMILES IDX 15 14 10 15
REMARK H PARENT 10 16
REMARK Flexibility Score: inf
ROOT
ATOM      1  C   UNL     1      19.806  48.269  45.164  1.00  0.00    -0.041 A 
ATOM      2  C   UNL     1      19.253  49.352  45.903  1.00  0.00    -0.003 A 
ATOM      3  C   UNL     1      18.878  49.144  47.250  1.00  0.00     0.119 A 
ATOM      4  C   UNL     1      19.011  47.878  47.832  1.00  0.00     0.046 A 
ATOM      5  C   UNL     1      19.521  46.813  47.093  1.00  0.00     0.004 A 
ATOM      6  C   UNL     1      19.914  47.006  45.770  1.00  0.00     0.004 A 
ENDROOT
BRANCH   1   7
ATOM      7  C   UNL     1      20.240  48.403  43.720  1.00  0.00     0.036 C 
BRANCH   7   8
ATOM      8  C   UNL     1      21.771  48.376  43.610  1.00  0.00     0.004 C 
BRANCH   8   9
ATOM      9  C   UNL     1      22.404  49.752  43.868  1.00  0.00    -0.003 C 
ATOM     10  C   UNL     1      23.083  49.839  45.234  1.00  0.00     0.004 C 
ENDBRANCH   8   9
ENDBRANCH   7   8
ENDBRANCH   1   7
BRANCH   2  11
ATOM     11  C   UNL     1      19.108  50.740  45.308  1.00  0.00     0.040 C 
BRANCH  11  12
ATOM     12  C   UNL     1      17.760  50.886  44.593  1.00  0.00     0.005 C 
BRANCH  12  13
ATOM     13  C   UNL     1      17.957  51.094  43.087  1.00  0.00    -0.003 C 
ATOM     14  C   UNL     1      17.202  50.041  42.282  1.00  0.00     0.004 C 
ENDBRANCH  12  13
ENDBRANCH  11  12
ENDBRANCH   2  11
BRANCH   3  15
ATOM     15  O   UNL     1      18.373  50.200  48.011  1.00  0.00    -0.508 OA
ATOM     16  H   UNL     1      18.065  50.068  48.967  1.00  0.00     0.293 HD
ENDBRANCH   3  15
TORSDOF 7
ENDMDL
MODEL 7
REMARK VINA RESULT:    -4.574      1.164      3.875
REMARK INTER + INTRA:          -7.738
REMARK INTER:                  -6.323
REMARK INTRA:                  -1.416
REMARK UNBOUND:                -1.427
REMARK SMILES CCCCc1cccc(O)c1CCCC
REMARK SMILES IDX 5 1 11 2 9 3 8 4 7 5 6 6 4 7 3 8 2 9 1 10 12 11 13 12 14 13
REMARK SMILES IDX 15 14 10 15
REMARK H PARENT 10 16
REMARK Flexibility Score: inf
ROOT
ATOM      1  C   UNL     1      19.456  47.378  45.079  1.00  0.00    -0.041 A 
ATOM      2  C   UNL     1      18.877  47.550  43.791  1.00  0.00    -0.003 A 
ATOM      3  C   UNL     1      19.288  46.706  42.734  1.00  0.00     0.119 A 
ATOM      4  C   UNL     1      20.283  45.744  42.945  1.00  0.00     0.046 A 
ATOM      5  C   UNL     1      20.870  45.603  44.200  1.00  0.00     0.004 A 
ATOM      6  C   UNL     1      20.462  46.413  45.258  1.00  0.00     0.004 A 
ENDROOT
BRANCH   1   7
ATOM      7  C   UNL     1      19.071  48.232  46.268  1.00  0.00     0.036 C 
BRANCH   7   8
ATOM      8  C   UNL     1      20.304  48.943  46.844  1.00  0.00     0.004 C 
BRANCH   8   9
ATOM      9  C   UNL     1      20.878  49.995  45.883  1.00  0.00    -0.003 C 
ATOM     10  C   UNL     1      22.288  49.647  45.405  1.00  0.00     0.004 C 
ENDBRANCH   8   9
ENDBRANCH   7   8
ENDBRANCH   1   7
BRANCH   2  11
ATOM     11  C   UNL     1      17.788  48.573  43.530  1.00  0.00     0.040 C 
BRANCH  11  12
ATOM     12  C   UNL     1      18.394  49.912  43.095  1.00  0.00     0.005 C 
BRANCH  12  13
ATOM     13  C   UNL     1      17.889  51.057  43.980  1.00  0.00    -0.003 C 
ATOM     14  C   UNL     1      16.627  50.654  44.737  1.00  0.00     0.004 C 
ENDBRANCH  12  13
ENDBRANCH  11  12
ENDBRANCH   2  11
BRANCH   3  15
ATOM     15  O   UNL     1      18.705  46.825  41.471  1.00  0.00    -0.508 OA
ATOM     16  H   UNL     1      19.265  46.936  40.634  1.00  0.00     0.293 HD
ENDBRANCH   3  15
TORSDOF 7
ENDMDL
MODEL 8
REMARK VINA RESULT:    -4.516      1.815      4.363
REMARK INTER + INTRA:          -7.660
REMARK INTER:                  -7.122
REMARK INTRA:                  -0.538
REMARK UNBOUND:                -1.427
REMARK SMILES CCCCc1cccc(O)c1CCCC
REMARK SMILES IDX 5 1 11 2 9 3 8 4 7 5 6 6 4 7 3 8 2 9 1 10 12 11 13 12 14 13
REMARK SMILES IDX 15 14 10 15
REMARK H PARENT 10 16
REMARK Flexibility Score: inf
ROOT
ATOM      1  C   UNL     1      20.063  48.772  44.428  1.00  0.00    -0.041 A 
ATOM      2  C   UNL     1      19.221  49.909  44.272  1.00  0.00    -0.003 A 
ATOM      3  C   UNL     1      19.189  50.886  45.293  1.00  0.00     0.119 A 
ATOM      4  C   UNL     1      19.943  50.713  46.460  1.00  0.00     0.046 A 
ATOM      5  C   UNL     1      20.738  49.582  46.622  1.00  0.00     0.004 A 
ATOM      6  C   UNL     1      20.798  48.618  45.617  1.00  0.00     0.004 A 
ENDROOT
BRANCH   1   7
ATOM      7  C   UNL     1      20.164  47.681  43.385  1.00  0.00     0.036 C 
BRANCH   7   8
ATOM      8  C   UNL     1      21.383  46.787  43.653  1.00  0.00     0.004 C 
BRANCH   8   9
ATOM      9  C   UNL     1      20.998  45.444  44.293  1.00  0.00    -0.003 C 
ATOM     10  C   UNL     1      22.095  44.390  44.150  1.00  0.00     0.004 C 
ENDBRANCH   8   9
ENDBRANCH   7   8
ENDBRANCH   1   7
BRANCH   2  11
ATOM     11  C   UNL     1      18.402  50.135  43.015  1.00  0.00     0.040 C 
BRANCH  11  12
ATOM     12  C   UNL     1      16.998  49.540  43.168  1.00  0.00     0.005 C 
BRANCH  12  13
ATOM     13  C   UNL     1      16.203  49.666  41.864  1.00  0.00    -0.003 C 
ATOM     14  C   UNL     1      16.951  50.517  40.842  1.00  0.00     0.004 C 
ENDBRANCH  12  13
ENDBRANCH  11  12
ENDBRANCH   2  11
BRANCH   3  15
ATOM     15  O   UNL     1      18.405  52.032  45.146  1.00  0.00    -0.508 OA
ATOM     16  H   UNL     1      18.718  52.937  45.477  1.00  0.00     0.293 HD
ENDBRANCH   3  15
TORSDOF 7
ENDMDL
MODEL 9
REMARK VINA RESULT:    -4.439      2.533      2.958
REMARK INTER + INTRA:          -7.553
REMARK INTER:                  -6.301
REMARK INTRA:                  -1.252
REMARK UNBOUND:                -1.427
REMARK SMILES CCCCc1cccc(O)c1CCCC
REMARK SMILES IDX 5 1 11 2 9 3 8 4 7 5 6 6 4 7 3 8 2 9 1 10 12 11 13 12 14 13
REMARK SMILES IDX 15 14 10 15
REMARK H PARENT 10 16
REMARK Flexibility Score: inf
ROOT
ATOM      1  C   UNL     1      17.982  49.123  45.588  1.00  0.00    -0.041 A 
ATOM      2  C   UNL     1      17.910  47.705  45.685  1.00  0.00    -0.003 A 
ATOM      3  C   UNL     1      16.990  47.123  46.586  1.00  0.00     0.119 A 
ATOM      4  C   UNL     1      16.191  47.934  47.402  1.00  0.00     0.046 A 
ATOM      5  C   UNL     1      16.290  49.321  47.327  1.00  0.00     0.004 A 
ATOM      6  C   UNL     1      17.178  49.911  46.430  1.00  0.00     0.004 A 
ENDROOT
BRANCH   1   7
ATOM      7  C   UNL     1      18.933  49.831  44.648  1.00  0.00     0.036 C 
BRANCH   7   8
ATOM      8  C   UNL     1      20.270  50.120  45.346  1.00  0.00     0.004 C 
BRANCH   8   9
ATOM      9  C   UNL     1      21.480  49.743  44.479  1.00  0.00    -0.003 C 
ATOM     10  C   UNL     1      22.767  49.607  45.293  1.00  0.00     0.004 C 
ENDBRANCH   8   9
ENDBRANCH   7   8
ENDBRANCH   1   7
BRANCH   2  11
ATOM     11  C   UNL     1      18.750  46.797  44.807  1.00  0.00     0.040 C 
BRANCH  11  12
ATOM     12  C   UNL     1      20.062  46.425  45.508  1.00  0.00     0.005 C 
BRANCH  12  13
ATOM     13  C   UNL     1      21.129  46.006  44.491  1.00  0.00    -0.003 C 
ATOM     14  C   UNL     1      20.720  46.392  43.073  1.00  0.00     0.004 C 
ENDBRANCH  12  13
ENDBRANCH  11  12
ENDBRANCH   2  11
BRANCH   3  15
ATOM     15  O   UNL     1      16.869  45.735  46.670  1.00  0.00    -0.508 OA
ATOM     16  H   UNL     1      16.367  45.288  47.427  1.00  0.00     0.293 HD
ENDBRANCH   3  15
TORSDOF 7
ENDMDL
