MODEL 1
REMARK VINA RESULT:    -4.364      0.000      0.000
REMARK INTER + INTRA:          -5.995
REMARK INTER:                  -5.384
REMARK INTRA:                  -0.611
REMARK UNBOUND:                -0.611
REMARK SMILES COc1ccc(-c2cc3cc(O)c(OC)cc3o2)c(O)c1
REMARK SMILES IDX 7 1 8 2 9 3 10 4 11 5 13 6 16 7 17 8 18 9 6 10 3 11 21 12
REMARK SMILES IDX 4 13 19 14 5 15 2 16 1 17 20 18 12 20 14 22 15 23
REMARK H PARENT 20 19 12 21
REMARK Flexibility Score: inf
ROOT
ATOM      1  C   UNL     1      -3.513   5.106  -1.935  1.00  0.00     0.139 A 
ATOM      2  C   UNL     1      -3.825   4.223  -2.972  1.00  0.00     0.060 A 
ATOM      3  C   UNL     1      -2.791   4.364  -3.865  1.00  0.00     0.025 A 
ATOM      4  C   UNL     1      -2.556   3.750  -5.092  1.00  0.00     0.062 A 
ATOM      5  C   UNL     1      -1.390   4.110  -5.798  1.00  0.00     0.158 A 
ATOM      6  C   UNL     1      -0.495   5.074  -5.266  1.00  0.00     0.164 A 
ATOM      7  C   UNL     1      -0.775   5.677  -4.015  1.00  0.00     0.098 A 
ATOM      8  C   UNL     1      -1.936   5.295  -3.349  1.00  0.00     0.138 A 
ATOM      9  O   UNL     1      -2.379   5.734  -2.197  1.00  0.00    -0.456 OA
ENDROOT
BRANCH   1  10
ATOM     10  C   UNL     1      -4.314   5.366  -0.714  1.00  0.00     0.059 A 
ATOM     11  C   UNL     1      -5.856   5.749   1.621  1.00  0.00     0.122 A 
ATOM     12  C   UNL     1      -5.191   6.834   1.024  1.00  0.00     0.093 A 
ATOM     13  C   UNL     1      -5.754   4.484   1.039  1.00  0.00     0.047 A 
ATOM     14  C   UNL     1      -4.431   6.653  -0.143  1.00  0.00     0.130 A 
ATOM     15  C   UNL     1      -4.996   4.292  -0.118  1.00  0.00     0.020 A 
BRANCH  11  16
ATOM     16  O   UNL     1      -6.626   5.885   2.787  1.00  0.00    -0.497 OA
ATOM     17  C   UNL     1      -6.341   5.232   4.019  1.00  0.00     0.278 C 
ENDBRANCH  11  16
BRANCH  14  18
ATOM     18  O   UNL     1      -3.821   7.755  -0.738  1.00  0.00    -0.507 OA
ATOM     19  H   UNL     1      -4.337   8.397  -1.330  1.00  0.00     0.293 HD
ENDBRANCH  14  18
ENDBRANCH   1  10
BRANCH   5  20
ATOM     20  O   UNL     1      -1.110   3.520  -7.029  1.00  0.00    -0.504 OA
ATOM     21  H   UNL     1      -1.707   2.802  -7.421  1.00  0.00     0.293 HD
ENDBRANCH   5  20
BRANCH   6  22
ATOM     22  O   UNL     1       0.652   5.398  -6.007  1.00  0.00    -0.493 OA
ATOM     23  C   UNL     1       1.944   4.852  -5.766  1.00  0.00     0.278 C 
ENDBRANCH   6  22
TORSDOF 5
ENDMDL
MODEL 2
REMARK VINA RESULT:    -4.346      1.308      7.673
REMARK INTER + INTRA:          -5.973
REMARK INTER:                  -5.361
REMARK INTRA:                  -0.613
REMARK UNBOUND:                -0.611
REMARK SMILES COc1ccc(-c2cc3cc(O)c(OC)cc3o2)c(O)c1
REMARK SMILES IDX 7 1 8 2 9 3 10 4 11 5 13 6 16 7 17 8 18 9 6 10 3 11 21 12
REMARK SMILES IDX 4 13 19 14 5 15 2 16 1 17 20 18 12 20 14 22 15 23
REMARK H PARENT 20 19 12 21
REMARK Flexibility Score: inf
ROOT
ATOM      1  C   UNL     1      -3.979   5.180  -1.584  1.00  0.00     0.139 A 
ATOM      2  C   UNL     1      -4.811   4.403  -0.773  1.00  0.00     0.060 A 
ATOM      3  C   UNL     1      -5.159   5.239   0.261  1.00  0.00     0.025 A 
ATOM      4  C   UNL     1      -5.961   5.021   1.378  1.00  0.00     0.062 A 
ATOM      5  C   UNL     1      -6.129   6.086   2.287  1.00  0.00     0.158 A 
ATOM      6  C   UNL     1      -5.492   7.333   2.061  1.00  0.00     0.164 A 
ATOM      7  C   UNL     1      -4.681   7.510   0.913  1.00  0.00     0.098 A 
ATOM      8  C   UNL     1      -4.539   6.435   0.039  1.00  0.00     0.138 A 
ATOM      9  O   UNL     1      -3.835   6.387  -1.063  1.00  0.00    -0.456 OA
ENDROOT
BRANCH   1  10
ATOM     10  C   UNL     1      -3.303   4.755  -2.834  1.00  0.00     0.059 A 
ATOM     11  C   UNL     1      -2.112   3.889  -5.243  1.00  0.00     0.122 A 
ATOM     12  C   UNL     1      -1.452   4.816  -4.418  1.00  0.00     0.093 A 
ATOM     13  C   UNL     1      -3.357   3.394  -4.850  1.00  0.00     0.047 A 
ATOM     14  C   UNL     1      -2.034   5.243  -3.214  1.00  0.00     0.130 A 
ATOM     15  C   UNL     1      -3.947   3.817  -3.658  1.00  0.00     0.020 A 
BRANCH  11  16
ATOM     16  O   UNL     1      -1.567   3.435  -6.454  1.00  0.00    -0.497 OA
ATOM     17  C   UNL     1      -0.177   3.222  -6.681  1.00  0.00     0.278 C 
ENDBRANCH  11  16
BRANCH  14  18
ATOM     18  O   UNL     1      -1.335   6.127  -2.394  1.00  0.00    -0.507 OA
ATOM     19  H   UNL     1      -0.421   6.485  -2.650  1.00  0.00     0.293 HD
ENDBRANCH  14  18
ENDBRANCH   1  10
BRANCH   5  20
ATOM     20  O   UNL     1      -6.925   5.919   3.418  1.00  0.00    -0.504 OA
ATOM     21  H   UNL     1      -7.625   6.603   3.680  1.00  0.00     0.293 HD
ENDBRANCH   5  20
BRANCH   6  22
ATOM     22  O   UNL     1      -5.692   8.362   2.995  1.00  0.00    -0.493 OA
ATOM     23  C   UNL     1      -4.751   8.728   3.999  1.00  0.00     0.278 C 
ENDBRANCH   6  22
TORSDOF 5
ENDMDL
MODEL 3
REMARK VINA RESULT:    -4.284      1.678      7.594
REMARK INTER + INTRA:          -5.897
REMARK INTER:                  -5.285
REMARK INTRA:                  -0.612
REMARK UNBOUND:                -0.611
REMARK SMILES COc1ccc(-c2cc3cc(O)c(OC)cc3o2)c(O)c1
REMARK SMILES IDX 7 1 8 2 9 3 10 4 11 5 13 6 16 7 17 8 18 9 6 10 3 11 21 12
REMARK SMILES IDX 4 13 19 14 5 15 2 16 1 17 20 18 12 20 14 22 15 23
REMARK H PARENT 20 19 12 21
REMARK Flexibility Score: inf
ROOT
ATOM      1  C   UNL     1      -2.153   5.084  -3.469  1.00  0.00     0.139 A 
ATOM      2  C   UNL     1      -3.394   4.651  -3.945  1.00  0.00     0.060 A 
ATOM      3  C   UNL     1      -4.185   4.577  -2.824  1.00  0.00     0.025 A 
ATOM      4  C   UNL     1      -5.515   4.198  -2.671  1.00  0.00     0.062 A 
ATOM      5  C   UNL     1      -6.061   4.215  -1.371  1.00  0.00     0.158 A 
ATOM      6  C   UNL     1      -5.267   4.604  -0.262  1.00  0.00     0.164 A 
ATOM      7  C   UNL     1      -3.915   4.978  -0.463  1.00  0.00     0.098 A 
ATOM      8  C   UNL     1      -3.413   4.949  -1.761  1.00  0.00     0.138 A 
ATOM      9  O   UNL     1      -2.201   5.246  -2.157  1.00  0.00    -0.456 OA
ENDROOT
BRANCH   1  10
ATOM     10  C   UNL     1      -0.923   5.311  -4.264  1.00  0.00     0.059 A 
ATOM     11  C   UNL     1       1.383   5.666  -5.856  1.00  0.00     0.122 A 
ATOM     12  C   UNL     1       1.156   6.492  -4.741  1.00  0.00     0.093 A 
ATOM     13  C   UNL     1       0.462   4.662  -6.158  1.00  0.00     0.047 A 
ATOM     14  C   UNL     1       0.017   6.314  -3.940  1.00  0.00     0.130 A 
ATOM     15  C   UNL     1      -0.677   4.481  -5.371  1.00  0.00     0.020 A 
BRANCH  11  16
ATOM     16  O   UNL     1       2.508   5.810  -6.683  1.00  0.00    -0.497 OA
ATOM     17  C   UNL     1       3.712   5.064  -6.538  1.00  0.00     0.278 C 
ENDBRANCH  11  16
BRANCH  14  18
ATOM     18  O   UNL     1      -0.159   7.118  -2.814  1.00  0.00    -0.507 OA
ATOM     19  H   UNL     1      -1.056   7.532  -2.587  1.00  0.00     0.293 HD
ENDBRANCH  14  18
ENDBRANCH   1  10
BRANCH   5  20
ATOM     20  O   UNL     1      -7.389   3.847  -1.167  1.00  0.00    -0.504 OA
ATOM     21  H   UNL     1      -8.099   4.012  -1.872  1.00  0.00     0.293 HD
ENDBRANCH   5  20
BRANCH   6  22
ATOM     22  O   UNL     1      -5.857   4.605   1.012  1.00  0.00    -0.493 OA
ATOM     23  C   UNL     1      -6.167   5.781   1.752  1.00  0.00     0.278 C 
ENDBRANCH   6  22
TORSDOF 5
ENDMDL
MODEL 4
REMARK VINA RESULT:    -4.281     12.793     15.323
REMARK INTER + INTRA:          -5.893
REMARK INTER:                  -5.284
REMARK INTRA:                  -0.610
REMARK UNBOUND:                -0.611
REMARK SMILES COc1ccc(-c2cc3cc(O)c(OC)cc3o2)c(O)c1
REMARK SMILES IDX 7 1 8 2 9 3 10 4 11 5 13 6 16 7 17 8 18 9 6 10 3 11 21 12
REMARK SMILES IDX 4 13 19 14 5 15 2 16 1 17 20 18 12 20 14 22 15 23
REMARK H PARENT 20 19 12 21
REMARK Flexibility Score: inf
ROOT
ATOM      1  C   UNL     1       1.082  -7.288   1.039  1.00  0.00     0.139 A 
ATOM      2  C   UNL     1       1.410  -7.702   2.333  1.00  0.00     0.060 A 
ATOM      3  C   UNL     1       0.481  -7.084   3.136  1.00  0.00     0.025 A 
ATOM      4  C   UNL     1       0.309  -7.111   4.517  1.00  0.00     0.062 A 
ATOM      5  C   UNL     1      -0.748  -6.355   5.065  1.00  0.00     0.158 A 
ATOM      6  C   UNL     1      -1.599  -5.593   4.225  1.00  0.00     0.164 A 
ATOM      7  C   UNL     1      -1.384  -5.591   2.824  1.00  0.00     0.098 A 
ATOM      8  C   UNL     1      -0.332  -6.349   2.321  1.00  0.00     0.138 A 
ATOM      9  O   UNL     1       0.039  -6.476   1.072  1.00  0.00    -0.456 OA
ENDROOT
BRANCH   1  10
ATOM     10  C   UNL     1       1.784  -7.648  -0.216  1.00  0.00     0.059 A 
ATOM     11  C   UNL     1       3.133  -8.440  -2.568  1.00  0.00     0.122 A 
ATOM     12  C   UNL     1       2.560  -7.159  -2.475  1.00  0.00     0.093 A 
ATOM     13  C   UNL     1       3.037  -9.309  -1.479  1.00  0.00     0.047 A 
ATOM     14  C   UNL     1       1.897  -6.755  -1.305  1.00  0.00     0.130 A 
ATOM     15  C   UNL     1       2.375  -8.919  -0.314  1.00  0.00     0.020 A 
BRANCH  11  16
ATOM     16  O   UNL     1       3.805  -8.884  -3.717  1.00  0.00    -0.497 OA
ATOM     17  C   UNL     1       3.476  -8.486  -5.044  1.00  0.00     0.278 C 
ENDBRANCH  11  16
BRANCH  14  18
ATOM     18  O   UNL     1       1.380  -5.464  -1.225  1.00  0.00    -0.507 OA
ATOM     19  H   UNL     1       1.252  -4.887  -2.049  1.00  0.00     0.293 HD
ENDBRANCH  14  18
ENDBRANCH   1  10
BRANCH   5  20
ATOM     20  O   UNL     1      -0.963  -6.353   6.442  1.00  0.00    -0.504 OA
ATOM     21  H   UNL     1      -0.224  -6.589   7.094  1.00  0.00     0.293 HD
ENDBRANCH   5  20
BRANCH   6  22
ATOM     22  O   UNL     1      -2.637  -4.858   4.819  1.00  0.00    -0.493 OA
ATOM     23  C   UNL     1      -4.008  -5.240   4.791  1.00  0.00     0.278 C 
ENDBRANCH   6  22
TORSDOF 5
ENDMDL
MODEL 5
REMARK VINA RESULT:    -4.260     12.594     13.157
REMARK INTER + INTRA:          -5.867
REMARK INTER:                  -5.323
REMARK INTRA:                  -0.544
REMARK UNBOUND:                -0.611
REMARK SMILES COc1ccc(-c2cc3cc(O)c(OC)cc3o2)c(O)c1
REMARK SMILES IDX 7 1 8 2 9 3 10 4 11 5 13 6 16 7 17 8 18 9 6 10 3 11 21 12
REMARK SMILES IDX 4 13 19 14 5 15 2 16 1 17 20 18 12 20 14 22 15 23
REMARK H PARENT 20 19 12 21
REMARK Flexibility Score: inf
ROOT
ATOM      1  C   UNL     1       0.155  -7.013   1.974  1.00  0.00     0.139 A 
ATOM      2  C   UNL     1       1.453  -7.476   2.208  1.00  0.00     0.060 A 
ATOM      3  C   UNL     1       2.053  -7.454   0.972  1.00  0.00     0.025 A 
ATOM      4  C   UNL     1       3.339  -7.812   0.578  1.00  0.00     0.062 A 
ATOM      5  C   UNL     1       3.669  -7.686  -0.787  1.00  0.00     0.158 A 
ATOM      6  C   UNL     1       2.711  -7.211  -1.719  1.00  0.00     0.164 A 
ATOM      7  C   UNL     1       1.412  -6.861  -1.274  1.00  0.00     0.098 A 
ATOM      8  C   UNL     1       1.124  -6.999   0.081  1.00  0.00     0.138 A 
ATOM      9  O   UNL     1      -0.006  -6.743   0.690  1.00  0.00    -0.456 OA
ENDROOT
BRANCH   1  10
ATOM     10  C   UNL     1      -0.930  -6.858   2.973  1.00  0.00     0.059 A 
ATOM     11  C   UNL     1      -2.983  -6.673   4.904  1.00  0.00     0.122 A 
ATOM     12  C   UNL     1      -2.534  -5.522   4.232  1.00  0.00     0.093 A 
ATOM     13  C   UNL     1      -2.409  -7.908   4.595  1.00  0.00     0.047 A 
ATOM     14  C   UNL     1      -1.521  -5.609   3.263  1.00  0.00     0.130 A 
ATOM     15  C   UNL     1      -1.397  -8.004   3.638  1.00  0.00     0.020 A 
BRANCH  11  16
ATOM     16  O   UNL     1      -3.992  -6.633   5.877  1.00  0.00    -0.497 OA
ATOM     17  C   UNL     1      -4.965  -5.598   5.984  1.00  0.00     0.278 C 
ENDBRANCH  11  16
BRANCH  14  18
ATOM     18  O   UNL     1      -1.130  -4.458   2.581  1.00  0.00    -0.507 OA
ATOM     19  H   UNL     1      -1.194  -3.538   3.003  1.00  0.00     0.293 HD
ENDBRANCH  14  18
ENDBRANCH   1  10
BRANCH   5  20
ATOM     20  O   UNL     1       4.945  -8.029  -1.231  1.00  0.00    -0.504 OA
ATOM     21  H   UNL     1       5.306  -8.970  -1.128  1.00  0.00     0.293 HD
ENDBRANCH   5  20
BRANCH   6  22
ATOM     22  O   UNL     1       3.089  -7.102  -3.067  1.00  0.00    -0.493 OA
ATOM     23  C   UNL     1       3.653  -5.932  -3.650  1.00  0.00     0.278 C 
ENDBRANCH   6  22
TORSDOF 5
ENDMDL
MODEL 6
REMARK VINA RESULT:    -4.231     11.670     12.659
REMARK INTER + INTRA:          -5.831
REMARK INTER:                  -5.255
REMARK INTRA:                  -0.576
REMARK UNBOUND:                -0.611
REMARK SMILES COc1ccc(-c2cc3cc(O)c(OC)cc3o2)c(O)c1
REMARK SMILES IDX 7 1 8 2 9 3 10 4 11 5 13 6 16 7 17 8 18 9 6 10 3 11 21 12
REMARK SMILES IDX 4 13 19 14 5 15 2 16 1 17 20 18 12 20 14 22 15 23
REMARK H PARENT 20 19 12 21
REMARK Flexibility Score: inf
ROOT
ATOM      1  C   UNL     1      -2.768  -5.271   4.780  1.00  0.00     0.139 A 
ATOM      2  C   UNL     1      -1.751  -5.993   5.410  1.00  0.00     0.060 A 
ATOM      3  C   UNL     1      -0.941  -6.413   4.382  1.00  0.00     0.025 A 
ATOM      4  C   UNL     1       0.222  -7.177   4.393  1.00  0.00     0.062 A 
ATOM      5  C   UNL     1       0.839  -7.458   3.156  1.00  0.00     0.158 A 
ATOM      6  C   UNL     1       0.279  -6.973   1.946  1.00  0.00     0.164 A 
ATOM      7  C   UNL     1      -0.910  -6.202   1.982  1.00  0.00     0.098 A 
ATOM      8  C   UNL     1      -1.488  -5.946   3.222  1.00  0.00     0.138 A 
ATOM      9  O   UNL     1      -2.581  -5.269   3.471  1.00  0.00    -0.456 OA
ENDROOT
BRANCH   1  10
ATOM     10  C   UNL     1      -3.927  -4.612   5.430  1.00  0.00     0.059 A 
ATOM     11  C   UNL     1      -6.080  -3.365   6.767  1.00  0.00     0.122 A 
ATOM     12  C   UNL     1      -6.074  -3.459   5.363  1.00  0.00     0.093 A 
ATOM     13  C   UNL     1      -5.015  -3.907   7.489  1.00  0.00     0.047 A 
ATOM     14  C   UNL     1      -5.012  -4.087   4.693  1.00  0.00     0.130 A 
ATOM     15  C   UNL     1      -3.951  -4.528   6.832  1.00  0.00     0.020 A 
BRANCH  11  16
ATOM     16  O   UNL     1      -7.121  -2.747   7.476  1.00  0.00    -0.497 OA
ATOM     17  C   UNL     1      -7.054  -2.392   8.853  1.00  0.00     0.278 C 
ENDBRANCH  11  16
BRANCH  14  18
ATOM     18  O   UNL     1      -5.055  -4.205   3.305  1.00  0.00    -0.507 OA
ATOM     19  H   UNL     1      -5.837  -4.644   2.830  1.00  0.00     0.293 HD
ENDBRANCH  14  18
ENDBRANCH   1  10
BRANCH   5  20
ATOM     20  O   UNL     1       2.007  -8.216   3.115  1.00  0.00    -0.504 OA
ATOM     21  H   UNL     1       1.988  -9.206   2.896  1.00  0.00     0.293 HD
ENDBRANCH   5  20
BRANCH   6  22
ATOM     22  O   UNL     1       0.930  -7.279   0.741  1.00  0.00    -0.493 OA
ATOM     23  C   UNL     1       0.566  -6.743  -0.526  1.00  0.00     0.278 C 
ENDBRANCH   6  22
TORSDOF 5
ENDMDL
MODEL 7
REMARK VINA RESULT:    -4.198      1.980      8.013
REMARK INTER + INTRA:          -5.790
REMARK INTER:                  -5.177
REMARK INTRA:                  -0.613
REMARK UNBOUND:                -0.611
REMARK SMILES COc1ccc(-c2cc3cc(O)c(OC)cc3o2)c(O)c1
REMARK SMILES IDX 7 1 8 2 9 3 10 4 11 5 13 6 16 7 17 8 18 9 6 10 3 11 21 12
REMARK SMILES IDX 4 13 19 14 5 15 2 16 1 17 20 18 12 20 14 22 15 23
REMARK H PARENT 20 19 12 21
REMARK Flexibility Score: inf
ROOT
ATOM      1  C   UNL     1      -2.234   4.632  -3.714  1.00  0.00     0.139 A 
ATOM      2  C   UNL     1      -2.132   4.878  -2.342  1.00  0.00     0.060 A 
ATOM      3  C   UNL     1      -3.413   4.724  -1.869  1.00  0.00     0.025 A 
ATOM      4  C   UNL     1      -3.931   4.852  -0.584  1.00  0.00     0.062 A 
ATOM      5  C   UNL     1      -5.314   4.637  -0.406  1.00  0.00     0.158 A 
ATOM      6  C   UNL     1      -6.139   4.305  -1.510  1.00  0.00     0.164 A 
ATOM      7  C   UNL     1      -5.569   4.189  -2.803  1.00  0.00     0.098 A 
ATOM      8  C   UNL     1      -4.202   4.409  -2.938  1.00  0.00     0.138 A 
ATOM      9  O   UNL     1      -3.488   4.360  -4.035  1.00  0.00    -0.456 OA
ENDROOT
BRANCH   1  10
ATOM     10  C   UNL     1      -1.140   4.686  -4.713  1.00  0.00     0.059 A 
ATOM     11  C   UNL     1       0.993   4.873  -6.554  1.00  0.00     0.122 A 
ATOM     12  C   UNL     1       0.028   3.860  -6.687  1.00  0.00     0.093 A 
ATOM     13  C   UNL     1       0.877   5.792  -5.509  1.00  0.00     0.047 A 
ATOM     14  C   UNL     1      -1.041   3.768  -5.781  1.00  0.00     0.130 A 
ATOM     15  C   UNL     1      -0.179   5.705  -4.600  1.00  0.00     0.020 A 
BRANCH  11  16
ATOM     16  O   UNL     1       2.077   5.002  -7.437  1.00  0.00    -0.497 OA
ATOM     17  C   UNL     1       3.423   4.669  -7.112  1.00  0.00     0.278 C 
ENDBRANCH  11  16
BRANCH  14  18
ATOM     18  O   UNL     1      -2.008   2.781  -5.965  1.00  0.00    -0.507 OA
ATOM     19  H   UNL     1      -2.749   2.626  -5.290  1.00  0.00     0.293 HD
ENDBRANCH  14  18
ENDBRANCH   1  10
BRANCH   5  20
ATOM     20  O   UNL     1      -5.879   4.751   0.863  1.00  0.00    -0.504 OA
ATOM     21  H   UNL     1      -6.209   5.641   1.218  1.00  0.00     0.293 HD
ENDBRANCH   5  20
BRANCH   6  22
ATOM     22  O   UNL     1      -7.509   4.100  -1.281  1.00  0.00    -0.493 OA
ATOM     23  C   UNL     1      -8.134   2.822  -1.245  1.00  0.00     0.278 C 
ENDBRANCH   6  22
TORSDOF 5
ENDMDL
MODEL 8
REMARK VINA RESULT:    -4.187      1.607      2.084
REMARK INTER + INTRA:          -5.777
REMARK INTER:                  -5.168
REMARK INTRA:                  -0.609
REMARK UNBOUND:                -0.611
REMARK SMILES COc1ccc(-c2cc3cc(O)c(OC)cc3o2)c(O)c1
REMARK SMILES IDX 7 1 8 2 9 3 10 4 11 5 13 6 16 7 17 8 18 9 6 10 3 11 21 12
REMARK SMILES IDX 4 13 19 14 5 15 2 16 1 17 20 18 12 20 14 22 15 23
REMARK H PARENT 20 19 12 21
REMARK Flexibility Score: inf
ROOT
ATOM      1  C   UNL     1      -3.417   4.138  -3.526  1.00  0.00     0.139 A 
ATOM      2  C   UNL     1      -3.684   3.246  -4.567  1.00  0.00     0.060 A 
ATOM      3  C   UNL     1      -2.619   3.390  -5.424  1.00  0.00     0.025 A 
ATOM      4  C   UNL     1      -2.335   2.770  -6.637  1.00  0.00     0.062 A 
ATOM      5  C   UNL     1      -1.148   3.135  -7.303  1.00  0.00     0.158 A 
ATOM      6  C   UNL     1      -0.280   4.110  -6.746  1.00  0.00     0.164 A 
ATOM      7  C   UNL     1      -0.611   4.719  -5.510  1.00  0.00     0.098 A 
ATOM      8  C   UNL     1      -1.791   4.331  -4.883  1.00  0.00     0.138 A 
ATOM      9  O   UNL     1      -2.280   4.774  -3.751  1.00  0.00    -0.456 OA
ENDROOT
BRANCH   1  10
ATOM     10  C   UNL     1      -4.264   4.399  -2.337  1.00  0.00     0.059 A 
ATOM     11  C   UNL     1      -5.968   4.863  -0.133  1.00  0.00     0.122 A 
ATOM     12  C   UNL     1      -4.573   4.969   0.013  1.00  0.00     0.093 A 
ATOM     13  C   UNL     1      -6.499   4.538  -1.383  1.00  0.00     0.047 A 
ATOM     14  C   UNL     1      -3.721   4.750  -1.081  1.00  0.00     0.130 A 
ATOM     15  C   UNL     1      -5.659   4.313  -2.475  1.00  0.00     0.020 A 
BRANCH  11  16
ATOM     16  O   UNL     1      -6.856   5.074   0.934  1.00  0.00    -0.497 OA
ATOM     17  C   UNL     1      -6.456   5.400   2.261  1.00  0.00     0.278 C 
ENDBRANCH  11  16
BRANCH  14  18
ATOM     18  O   UNL     1      -2.346   4.907  -0.917  1.00  0.00    -0.507 OA
ATOM     19  H   UNL     1      -1.680   4.483  -1.553  1.00  0.00     0.293 HD
ENDBRANCH  14  18
ENDBRANCH   1  10
BRANCH   5  20
ATOM     20  O   UNL     1      -0.818   2.540  -8.519  1.00  0.00    -0.504 OA
ATOM     21  H   UNL     1      -1.166   2.904  -9.399  1.00  0.00     0.293 HD
ENDBRANCH   5  20
BRANCH   6  22
ATOM     22  O   UNL     1       0.890   4.439  -7.447  1.00  0.00    -0.493 OA
ATOM     23  C   UNL     1       1.047   5.609  -8.242  1.00  0.00     0.278 C 
ENDBRANCH   6  22
TORSDOF 5
ENDMDL
MODEL 9
REMARK VINA RESULT:    -4.183     11.764     14.688
REMARK INTER + INTRA:          -5.773
REMARK INTER:                  -5.201
REMARK INTRA:                  -0.571
REMARK UNBOUND:                -0.611
REMARK SMILES COc1ccc(-c2cc3cc(O)c(OC)cc3o2)c(O)c1
REMARK SMILES IDX 7 1 8 2 9 3 10 4 11 5 13 6 16 7 17 8 18 9 6 10 3 11 21 12
REMARK SMILES IDX 4 13 19 14 5 15 2 16 1 17 20 18 12 20 14 22 15 23
REMARK H PARENT 20 19 12 21
REMARK Flexibility Score: inf
ROOT
ATOM      1  C   UNL     1      -2.778  -5.773   4.592  1.00  0.00     0.139 A 
ATOM      2  C   UNL     1      -2.743  -5.635   5.982  1.00  0.00     0.060 A 
ATOM      3  C   UNL     1      -3.823  -4.836   6.274  1.00  0.00     0.025 A 
ATOM      4  C   UNL     1      -4.293  -4.350   7.490  1.00  0.00     0.062 A 
ATOM      5  C   UNL     1      -5.442  -3.532   7.473  1.00  0.00     0.158 A 
ATOM      6  C   UNL     1      -6.085  -3.218   6.248  1.00  0.00     0.164 A 
ATOM      7  C   UNL     1      -5.569  -3.732   5.033  1.00  0.00     0.098 A 
ATOM      8  C   UNL     1      -4.434  -4.536   5.091  1.00  0.00     0.138 A 
ATOM      9  O   UNL     1      -3.799  -5.098   4.093  1.00  0.00    -0.456 OA
ENDROOT
BRANCH   1  10
ATOM     10  C   UNL     1      -1.819  -6.525   3.747  1.00  0.00     0.059 A 
ATOM     11  C   UNL     1      -0.029  -8.054   2.186  1.00  0.00     0.122 A 
ATOM     12  C   UNL     1      -0.174  -6.675   1.953  1.00  0.00     0.093 A 
ATOM     13  C   UNL     1      -0.771  -8.654   3.205  1.00  0.00     0.047 A 
ATOM     14  C   UNL     1      -1.055  -5.907   2.732  1.00  0.00     0.130 A 
ATOM     15  C   UNL     1      -1.653  -7.900   3.982  1.00  0.00     0.020 A 
BRANCH  11  16
ATOM     16  O   UNL     1       0.839  -8.858   1.432  1.00  0.00    -0.497 OA
ATOM     17  C   UNL     1       1.727  -8.366   0.433  1.00  0.00     0.278 C 
ENDBRANCH  11  16
BRANCH  14  18
ATOM     18  O   UNL     1      -1.143  -4.534   2.509  1.00  0.00    -0.507 OA
ATOM     19  H   UNL     1      -1.492  -3.898   3.218  1.00  0.00     0.293 HD
ENDBRANCH  14  18
ENDBRANCH   1  10
BRANCH   5  20
ATOM     20  O   UNL     1      -5.953  -3.023   8.665  1.00  0.00    -0.504 OA
ATOM     21  H   UNL     1      -6.148  -3.624   9.458  1.00  0.00     0.293 HD
ENDBRANCH   5  20
BRANCH   6  22
ATOM     22  O   UNL     1      -7.225  -2.401   6.285  1.00  0.00    -0.493 OA
ATOM     23  C   UNL     1      -8.563  -2.888   6.269  1.00  0.00     0.278 C 
ENDBRANCH   6  22
TORSDOF 5
ENDMDL
