MODEL 1
REMARK VINA RESULT:    51.117      0.000      0.000
REMARK INTER + INTRA:          70.378
REMARK INTER:                  69.047
REMARK INTRA:                   1.331
REMARK UNBOUND:                 1.331
REMARK SMILES CC[C@H](CC[C@H](C)[C@@H]1CC[C@H]2[C@H]3CC(=O)C4=CC(=O)CC[C@]4(C)[C@H]3CC[C@]21C)C(C)C
REMARK SMILES IDX 4 1 3 2 2 3 1 4 29 5 30 6 31 7 5 8 6 9 7 10 8 11 9 12 27 13
REMARK SMILES IDX 10 14 11 15 26 16 28 17 12 18 25 19 24 20 13 21 22 22 14 23
REMARK SMILES IDX 16 24 21 25 23 26 15 27 17 28 20 29 18 30 19 31
REMARK H PARENT
REMARK Flexibility Score: inf
ROOT
ATOM      1  C   UNL     1      34.899  13.919  41.558  1.00  0.00     0.004 C 
ENDROOT
BRANCH   1   2
ATOM      2  C   UNL     1      35.238  14.305  43.028  1.00  0.00    -0.009 C 
BRANCH   2   3
ATOM      3  C   UNL     1      36.760  14.145  43.343  1.00  0.00     0.000 C 
ATOM      4  C   UNL     1      37.012  13.960  44.842  1.00  0.00     0.004 C 
ENDBRANCH   2   3
BRANCH   2   5
ATOM      5  C   UNL     1      34.759  15.749  43.402  1.00  0.00    -0.014 C 
ATOM      6  C   UNL     1      35.866  16.627  44.019  1.00  0.00     0.007 C 
ATOM      7  C   UNL     1      34.106  16.475  42.212  1.00  0.00     0.007 C 
ENDBRANCH   2   5
ENDBRANCH   1   2
BRANCH   1   8
ATOM      8  C   UNL     1      35.664  12.679  41.023  1.00  0.00     0.004 C 
BRANCH   8   9
ATOM      9  C   UNL     1      34.886  11.328  41.025  1.00  0.00    -0.011 C 
ATOM     10  C   UNL     1      35.622  10.273  40.168  1.00  0.00     0.008 C 
BRANCH   9  11
ATOM     11  C   UNL     1      33.379  11.426  40.563  1.00  0.00    -0.002 C 
ATOM     12  C   UNL     1      32.382  11.645  41.721  1.00  0.00     0.005 C 
ATOM     13  C   UNL     1      32.771  10.248  39.724  1.00  0.00    -0.026 C 
ATOM     14  C   UNL     1      31.451  10.430  41.759  1.00  0.00     0.005 C 
ATOM     15  C   UNL     1      32.027   9.406  40.763  1.00  0.00    -0.001 C 
ATOM     16  C   UNL     1      31.731  10.857  38.745  1.00  0.00     0.007 C 
ATOM     17  C   UNL     1      33.814   9.426  38.929  1.00  0.00     0.012 C 
ATOM     18  C   UNL     1      31.040   8.332  40.197  1.00  0.00     0.004 C 
ATOM     19  C   UNL     1      30.892   9.843  37.976  1.00  0.00     0.005 C 
ATOM     20  C   UNL     1      30.428   8.566  38.745  1.00  0.00     0.003 C 
ATOM     21  C   UNL     1      30.045   7.857  41.298  1.00  0.00     0.085 C 
ATOM     22  C   UNL     1      28.879   8.279  38.628  1.00  0.00    -0.000 C 
ATOM     23  C   UNL     1      29.038   6.883  40.783  1.00  0.00     0.159 C 
ATOM     24  C   UNL     1      28.594   6.967  39.383  1.00  0.00     0.005 C 
ATOM     25  C   UNL     1      28.393   8.176  37.131  1.00  0.00     0.020 C 
ATOM     26  C   UNL     1      28.065   9.431  39.279  1.00  0.00     0.017 C 
ATOM     27  O   UNL     1      28.572   6.001  41.557  1.00  0.00    -0.295 OA
ATOM     28  C   UNL     1      28.150   5.849  38.781  1.00  0.00     0.055 C 
ATOM     29  C   UNL     1      28.658   6.817  36.482  1.00  0.00     0.081 C 
ATOM     30  C   UNL     1      28.039   5.760  37.324  1.00  0.00     0.156 C 
ATOM     31  O   UNL     1      27.483   4.761  36.787  1.00  0.00    -0.295 OA
ENDBRANCH   9  11
ENDBRANCH   8   9
ENDBRANCH   1   8
TORSDOF 6
ENDMDL
MODEL 2
REMARK VINA RESULT:    51.659      3.900      9.223
REMARK INTER + INTRA:          71.110
REMARK INTER:                  69.474
REMARK INTRA:                   1.637
REMARK UNBOUND:                 1.331
REMARK SMILES CC[C@H](CC[C@H](C)[C@@H]1CC[C@H]2[C@H]3CC(=O)C4=CC(=O)CC[C@]4(C)[C@H]3CC[C@]21C)C(C)C
REMARK SMILES IDX 4 1 3 2 2 3 1 4 29 5 30 6 31 7 5 8 6 9 7 10 8 11 9 12 27 13
REMARK SMILES IDX 10 14 11 15 26 16 28 17 12 18 25 19 24 20 13 21 22 22 14 23
REMARK SMILES IDX 16 24 21 25 23 26 15 27 17 28 20 29 18 30 19 31
REMARK H PARENT
REMARK Flexibility Score: inf
ROOT
ATOM      1  C   UNL     1      29.654   7.714  40.836  1.00  0.00     0.004 C 
ENDROOT
BRANCH   1   2
ATOM      2  C   UNL     1      29.569   6.189  41.140  1.00  0.00    -0.009 C 
BRANCH   2   3
ATOM      3  C   UNL     1      30.872   5.651  41.814  1.00  0.00     0.000 C 
ATOM      4  C   UNL     1      31.462   4.468  41.041  1.00  0.00     0.004 C 
ENDBRANCH   2   3
BRANCH   2   5
ATOM      5  C   UNL     1      28.318   5.812  42.004  1.00  0.00    -0.014 C 
ATOM      6  C   UNL     1      27.447   4.704  41.378  1.00  0.00     0.007 C 
ATOM      7  C   UNL     1      28.696   5.438  43.448  1.00  0.00     0.007 C 
ENDBRANCH   2   5
ENDBRANCH   1   2
BRANCH   1   8
ATOM      8  C   UNL     1      31.026   8.362  41.159  1.00  0.00     0.004 C 
BRANCH   8   9
ATOM      9  C   UNL     1      32.198   8.034  40.185  1.00  0.00    -0.011 C 
ATOM     10  C   UNL     1      33.171   7.016  40.822  1.00  0.00     0.008 C 
BRANCH   9  11
ATOM     11  C   UNL     1      33.009   9.289  39.671  1.00  0.00    -0.002 C 
ATOM     12  C   UNL     1      34.530   9.050  39.566  1.00  0.00     0.005 C 
ATOM     13  C   UNL     1      32.864  10.646  40.444  1.00  0.00    -0.026 C 
ATOM     14  C   UNL     1      35.212  10.018  40.537  1.00  0.00     0.005 C 
ATOM     15  C   UNL     1      34.089  10.676  41.360  1.00  0.00    -0.001 C 
ATOM     16  C   UNL     1      32.996  11.793  39.405  1.00  0.00     0.007 C 
ATOM     17  C   UNL     1      31.535  10.800  41.222  1.00  0.00     0.012 C 
ATOM     18  C   UNL     1      34.412  12.053  42.030  1.00  0.00     0.004 C 
ATOM     19  C   UNL     1      33.074  13.197  39.995  1.00  0.00     0.005 C 
ATOM     20  C   UNL     1      33.898  13.377  41.309  1.00  0.00     0.003 C 
ATOM     21  C   UNL     1      35.875  12.081  42.566  1.00  0.00     0.085 C 
ATOM     22  C   UNL     1      34.960  14.545  41.240  1.00  0.00    -0.000 C 
ATOM     23  C   UNL     1      36.248  13.403  43.151  1.00  0.00     0.159 C 
ATOM     24  C   UNL     1      35.641  14.632  42.618  1.00  0.00     0.005 C 
ATOM     25  C   UNL     1      34.314  15.930  40.850  1.00  0.00     0.020 C 
ATOM     26  C   UNL     1      36.032  14.238  40.158  1.00  0.00     0.017 C 
ATOM     27  O   UNL     1      37.089  13.452  44.092  1.00  0.00    -0.295 OA
ATOM     28  C   UNL     1      35.536  15.701  43.429  1.00  0.00     0.055 C 
ATOM     29  C   UNL     1      33.645  16.655  42.017  1.00  0.00     0.081 C 
ATOM     30  C   UNL     1      34.639  16.813  43.111  1.00  0.00     0.156 C 
ATOM     31  O   UNL     1      34.664  17.869  43.804  1.00  0.00    -0.295 OA
ENDBRANCH   9  11
ENDBRANCH   8   9
ENDBRANCH   1   8
TORSDOF 6
ENDMDL
MODEL 3
REMARK VINA RESULT:    52.690      3.588      9.557
REMARK INTER + INTRA:          72.502
REMARK INTER:                  73.408
REMARK INTRA:                  -0.906
REMARK UNBOUND:                 1.331
REMARK SMILES CC[C@H](CC[C@H](C)[C@@H]1CC[C@H]2[C@H]3CC(=O)C4=CC(=O)CC[C@]4(C)[C@H]3CC[C@]21C)C(C)C
REMARK SMILES IDX 4 1 3 2 2 3 1 4 29 5 30 6 31 7 5 8 6 9 7 10 8 11 9 12 27 13
REMARK SMILES IDX 10 14 11 15 26 16 28 17 12 18 25 19 24 20 13 21 22 22 14 23
REMARK SMILES IDX 16 24 21 25 23 26 15 27 17 28 20 29 18 30 19 31
REMARK H PARENT
REMARK Flexibility Score: inf
ROOT
ATOM      1  C   UNL     1      30.628   9.358  38.434  1.00  0.00     0.004 C 
ENDROOT
BRANCH   1   2
ATOM      2  C   UNL     1      29.491   8.331  38.714  1.00  0.00    -0.009 C 
BRANCH   2   3
ATOM      3  C   UNL     1      29.049   8.337  40.213  1.00  0.00     0.000 C 
ATOM      4  C   UNL     1      29.586   7.116  40.966  1.00  0.00     0.004 C 
ENDBRANCH   2   3
BRANCH   2   5
ATOM      5  C   UNL     1      28.248   8.534  37.783  1.00  0.00    -0.014 C 
ATOM      6  C   UNL     1      28.103   9.974  37.250  1.00  0.00     0.007 C 
ATOM      7  C   UNL     1      28.222   7.531  36.616  1.00  0.00     0.007 C 
ENDBRANCH   2   5
ENDBRANCH   1   2
BRANCH   1   8
ATOM      8  C   UNL     1      31.655   9.516  39.587  1.00  0.00     0.004 C 
BRANCH   8   9
ATOM      9  C   UNL     1      33.120   9.849  39.173  1.00  0.00    -0.011 C 
ATOM     10  C   UNL     1      33.756   8.665  38.410  1.00  0.00     0.008 C 
BRANCH   9  11
ATOM     11  C   UNL     1      34.067  10.281  40.362  1.00  0.00    -0.002 C 
ATOM     12  C   UNL     1      33.584   9.809  41.750  1.00  0.00     0.005 C 
ATOM     13  C   UNL     1      34.399  11.803  40.544  1.00  0.00    -0.026 C 
ATOM     14  C   UNL     1      33.303  11.062  42.585  1.00  0.00     0.005 C 
ATOM     15  C   UNL     1      33.421  12.262  41.628  1.00  0.00    -0.001 C 
ATOM     16  C   UNL     1      35.842  11.904  41.106  1.00  0.00     0.007 C 
ATOM     17  C   UNL     1      34.286  12.641  39.247  1.00  0.00     0.012 C 
ATOM     18  C   UNL     1      33.714  13.658  42.271  1.00  0.00     0.004 C 
ATOM     19  C   UNL     1      36.276  13.302  41.533  1.00  0.00     0.005 C 
ATOM     20  C   UNL     1      35.212  14.199  42.240  1.00  0.00     0.003 C 
ATOM     21  C   UNL     1      32.947  13.822  43.617  1.00  0.00     0.085 C 
ATOM     22  C   UNL     1      35.712  14.832  43.597  1.00  0.00    -0.000 C 
ATOM     23  C   UNL     1      33.254  15.113  44.301  1.00  0.00     0.159 C 
ATOM     24  C   UNL     1      34.580  15.727  44.135  1.00  0.00     0.005 C 
ATOM     25  C   UNL     1      37.043  15.662  43.426  1.00  0.00     0.020 C 
ATOM     26  C   UNL     1      36.018  13.716  44.635  1.00  0.00     0.017 C 
ATOM     27  O   UNL     1      32.373  15.660  45.022  1.00  0.00    -0.295 OA
ATOM     28  C   UNL     1      34.692  17.062  44.267  1.00  0.00     0.055 C 
ATOM     29  C   UNL     1      36.830  17.076  42.886  1.00  0.00     0.081 C 
ATOM     30  C   UNL     1      35.865  17.781  43.770  1.00  0.00     0.156 C 
ATOM     31  O   UNL     1      36.019  19.007  44.033  1.00  0.00    -0.295 OA
ENDBRANCH   9  11
ENDBRANCH   8   9
ENDBRANCH   1   8
TORSDOF 6
ENDMDL
MODEL 4
REMARK VINA RESULT:    53.063      3.234      6.079
REMARK INTER + INTRA:          73.006
REMARK INTER:                  72.629
REMARK INTRA:                   0.377
REMARK UNBOUND:                 1.331
REMARK SMILES CC[C@H](CC[C@H](C)[C@@H]1CC[C@H]2[C@H]3CC(=O)C4=CC(=O)CC[C@]4(C)[C@H]3CC[C@]21C)C(C)C
REMARK SMILES IDX 4 1 3 2 2 3 1 4 29 5 30 6 31 7 5 8 6 9 7 10 8 11 9 12 27 13
REMARK SMILES IDX 10 14 11 15 26 16 28 17 12 18 25 19 24 20 13 21 22 22 14 23
REMARK SMILES IDX 16 24 21 25 23 26 15 27 17 28 20 29 18 30 19 31
REMARK H PARENT
REMARK Flexibility Score: inf
ROOT
ATOM      1  C   UNL     1      32.772  17.773  40.706  1.00  0.00     0.004 C 
ENDROOT
BRANCH   1   2
ATOM      2  C   UNL     1      32.948  18.506  39.343  1.00  0.00    -0.009 C 
BRANCH   2   3
ATOM      3  C   UNL     1      34.114  17.902  38.497  1.00  0.00     0.000 C 
ATOM      4  C   UNL     1      35.473  18.469  38.920  1.00  0.00     0.004 C 
ENDBRANCH   2   3
BRANCH   2   5
ATOM      5  C   UNL     1      31.629  18.541  38.498  1.00  0.00    -0.014 C 
ATOM      6  C   UNL     1      31.125  19.968  38.199  1.00  0.00     0.007 C 
ATOM      7  C   UNL     1      31.750  17.736  37.192  1.00  0.00     0.007 C 
ENDBRANCH   2   5
ENDBRANCH   1   2
BRANCH   1   8
ATOM      8  C   UNL     1      34.092  17.529  41.483  1.00  0.00     0.004 C 
BRANCH   8   9
ATOM      9  C   UNL     1      34.283  16.111  42.102  1.00  0.00    -0.011 C 
ATOM     10  C   UNL     1      35.172  16.180  43.364  1.00  0.00     0.008 C 
BRANCH   9  11
ATOM     11  C   UNL     1      34.858  15.023  41.111  1.00  0.00    -0.002 C 
ATOM     12  C   UNL     1      34.117  14.954  39.758  1.00  0.00     0.005 C 
ATOM     13  C   UNL     1      34.948  13.534  41.599  1.00  0.00    -0.026 C 
ATOM     14  C   UNL     1      33.494  13.559  39.650  1.00  0.00     0.005 C 
ATOM     15  C   UNL     1      33.691  12.884  41.019  1.00  0.00    -0.001 C 
ATOM     16  C   UNL     1      36.192  12.895  40.924  1.00  0.00     0.007 C 
ATOM     17  C   UNL     1      35.050  13.371  43.135  1.00  0.00     0.012 C 
ATOM     18  C   UNL     1      33.649  11.320  41.053  1.00  0.00     0.004 C 
ATOM     19  C   UNL     1      36.338  11.391  41.125  1.00  0.00     0.005 C 
ATOM     20  C   UNL     1      35.033  10.533  41.090  1.00  0.00     0.003 C 
ATOM     21  C   UNL     1      32.568  10.771  40.074  1.00  0.00     0.085 C 
ATOM     22  C   UNL     1      35.113   9.292  40.115  1.00  0.00    -0.000 C 
ATOM     23  C   UNL     1      32.543   9.280  40.022  1.00  0.00     0.159 C 
ATOM     24  C   UNL     1      33.785   8.523  40.238  1.00  0.00     0.005 C 
ATOM     25  C   UNL     1      36.336   8.347  40.434  1.00  0.00     0.020 C 
ATOM     26  C   UNL     1      35.294   9.768  38.647  1.00  0.00     0.017 C 
ATOM     27  O   UNL     1      31.455   8.684  39.784  1.00  0.00    -0.295 OA
ATOM     28  C   UNL     1      33.698   7.268  40.718  1.00  0.00     0.055 C 
ATOM     29  C   UNL     1      36.088   7.379  41.590  1.00  0.00     0.081 C 
ATOM     30  C   UNL     1      34.860   6.592  41.297  1.00  0.00     0.156 C 
ATOM     31  O   UNL     1      34.797   5.369  41.606  1.00  0.00    -0.295 OA
ENDBRANCH   9  11
ENDBRANCH   8   9
ENDBRANCH   1   8
TORSDOF 6
ENDMDL
MODEL 5
REMARK VINA RESULT:    53.087      4.443      9.516
REMARK INTER + INTRA:          73.039
REMARK INTER:                  72.602
REMARK INTRA:                   0.437
REMARK UNBOUND:                 1.331
REMARK SMILES CC[C@H](CC[C@H](C)[C@@H]1CC[C@H]2[C@H]3CC(=O)C4=CC(=O)CC[C@]4(C)[C@H]3CC[C@]21C)C(C)C
REMARK SMILES IDX 4 1 3 2 2 3 1 4 29 5 30 6 31 7 5 8 6 9 7 10 8 11 9 12 27 13
REMARK SMILES IDX 10 14 11 15 26 16 28 17 12 18 25 19 24 20 13 21 22 22 14 23
REMARK SMILES IDX 16 24 21 25 23 26 15 27 17 28 20 29 18 30 19 31
REMARK H PARENT
REMARK Flexibility Score: inf
ROOT
ATOM      1  C   UNL     1      33.604   7.547  40.395  1.00  0.00     0.004 C 
ENDROOT
BRANCH   1   2
ATOM      2  C   UNL     1      33.741   6.005  40.574  1.00  0.00    -0.009 C 
BRANCH   2   3
ATOM      3  C   UNL     1      35.095   5.609  41.244  1.00  0.00     0.000 C 
ATOM      4  C   UNL     1      35.706   6.779  42.021  1.00  0.00     0.004 C 
ENDBRANCH   2   3
BRANCH   2   5
ATOM      5  C   UNL     1      32.543   5.377  41.363  1.00  0.00    -0.014 C 
ATOM      6  C   UNL     1      31.312   6.302  41.457  1.00  0.00     0.007 C 
ATOM      7  C   UNL     1      32.133   4.002  40.807  1.00  0.00     0.007 C 
ENDBRANCH   2   5
ENDBRANCH   1   2
BRANCH   1   8
ATOM      8  C   UNL     1      34.328   8.120  39.149  1.00  0.00     0.004 C 
BRANCH   8   9
ATOM      9  C   UNL     1      34.876   9.574  39.269  1.00  0.00    -0.011 C 
ATOM     10  C   UNL     1      36.414   9.567  39.426  1.00  0.00     0.008 C 
BRANCH   9  11
ATOM     11  C   UNL     1      34.231  10.436  40.424  1.00  0.00    -0.002 C 
ATOM     12  C   UNL     1      32.800  10.925  40.116  1.00  0.00     0.005 C 
ATOM     13  C   UNL     1      34.995  11.711  40.928  1.00  0.00    -0.026 C 
ATOM     14  C   UNL     1      32.836  12.456  40.090  1.00  0.00     0.005 C 
ATOM     15  C   UNL     1      34.319  12.860  40.177  1.00  0.00    -0.001 C 
ATOM     16  C   UNL     1      34.696  11.868  42.443  1.00  0.00     0.007 C 
ATOM     17  C   UNL     1      36.525  11.670  40.701  1.00  0.00     0.012 C 
ATOM     18  C   UNL     1      34.634  14.301  40.700  1.00  0.00     0.004 C 
ATOM     19  C   UNL     1      35.197  13.164  43.072  1.00  0.00     0.005 C 
ATOM     20  C   UNL     1      35.076  14.468  42.221  1.00  0.00     0.003 C 
ATOM     21  C   UNL     1      33.588  15.326  40.168  1.00  0.00     0.085 C 
ATOM     22  C   UNL     1      34.381  15.664  42.983  1.00  0.00    -0.000 C 
ATOM     23  C   UNL     1      33.808  16.703  40.701  1.00  0.00     0.159 C 
ATOM     24  C   UNL     1      34.391  16.881  42.040  1.00  0.00     0.005 C 
ATOM     25  C   UNL     1      35.094  16.010  44.347  1.00  0.00     0.020 C 
ATOM     26  C   UNL     1      32.911  15.301  43.333  1.00  0.00     0.017 C 
ATOM     27  O   UNL     1      33.485  17.702  39.999  1.00  0.00    -0.295 OA
ATOM     28  C   UNL     1      35.071  18.013  42.300  1.00  0.00     0.055 C 
ATOM     29  C   UNL     1      36.342  16.880  44.193  1.00  0.00     0.081 C 
ATOM     30  C   UNL     1      35.973  18.113  43.448  1.00  0.00     0.156 C 
ATOM     31  O   UNL     1      36.486  19.224  43.760  1.00  0.00    -0.295 OA
ENDBRANCH   9  11
ENDBRANCH   8   9
ENDBRANCH   1   8
TORSDOF 6
ENDMDL
MODEL 6
REMARK VINA RESULT:    53.273      3.612      9.614
REMARK INTER + INTRA:          73.291
REMARK INTER:                  73.517
REMARK INTRA:                  -0.227
REMARK UNBOUND:                 1.331
REMARK SMILES CC[C@H](CC[C@H](C)[C@@H]1CC[C@H]2[C@H]3CC(=O)C4=CC(=O)CC[C@]4(C)[C@H]3CC[C@]21C)C(C)C
REMARK SMILES IDX 4 1 3 2 2 3 1 4 29 5 30 6 31 7 5 8 6 9 7 10 8 11 9 12 27 13
REMARK SMILES IDX 10 14 11 15 26 16 28 17 12 18 25 19 24 20 13 21 22 22 14 23
REMARK SMILES IDX 16 24 21 25 23 26 15 27 17 28 20 29 18 30 19 31
REMARK H PARENT
REMARK Flexibility Score: inf
ROOT
ATOM      1  C   UNL     1      31.264   8.010  40.389  1.00  0.00     0.004 C 
ENDROOT
BRANCH   1   2
ATOM      2  C   UNL     1      29.808   7.648  40.808  1.00  0.00    -0.009 C 
BRANCH   2   3
ATOM      3  C   UNL     1      28.899   7.345  39.573  1.00  0.00     0.000 C 
ATOM      4  C   UNL     1      28.903   8.502  38.570  1.00  0.00     0.004 C 
ENDBRANCH   2   3
BRANCH   2   5
ATOM      5  C   UNL     1      29.747   6.462  41.828  1.00  0.00    -0.014 C 
ATOM      6  C   UNL     1      28.349   5.821  41.948  1.00  0.00     0.007 C 
ATOM      7  C   UNL     1      30.802   5.381  41.532  1.00  0.00     0.007 C 
ENDBRANCH   2   5
ENDBRANCH   1   2
BRANCH   1   8
ATOM      8  C   UNL     1      31.434   9.442  39.815  1.00  0.00     0.004 C 
BRANCH   8   9
ATOM      9  C   UNL     1      32.864   9.834  39.336  1.00  0.00    -0.011 C 
ATOM     10  C   UNL     1      33.498   8.691  38.511  1.00  0.00     0.008 C 
BRANCH   9  11
ATOM     11  C   UNL     1      33.857  10.268  40.485  1.00  0.00    -0.002 C 
ATOM     12  C   UNL     1      33.414   9.825  41.896  1.00  0.00     0.005 C 
ATOM     13  C   UNL     1      34.220  11.787  40.632  1.00  0.00    -0.026 C 
ATOM     14  C   UNL     1      33.181  11.095  42.720  1.00  0.00     0.005 C 
ATOM     15  C   UNL     1      33.286  12.278  41.741  1.00  0.00    -0.001 C 
ATOM     16  C   UNL     1      35.683  11.872  41.145  1.00  0.00     0.007 C 
ATOM     17  C   UNL     1      34.078  12.606  39.327  1.00  0.00     0.012 C 
ATOM     18  C   UNL     1      33.624  13.679  42.351  1.00  0.00     0.004 C 
ATOM     19  C   UNL     1      36.154  13.269  41.534  1.00  0.00     0.005 C 
ATOM     20  C   UNL     1      35.128  14.195  42.262  1.00  0.00     0.003 C 
ATOM     21  C   UNL     1      32.905  13.876  43.720  1.00  0.00     0.085 C 
ATOM     22  C   UNL     1      35.684  14.840  43.592  1.00  0.00    -0.000 C 
ATOM     23  C   UNL     1      33.256  15.172  44.372  1.00  0.00     0.159 C 
ATOM     24  C   UNL     1      34.585  15.762  44.153  1.00  0.00     0.005 C 
ATOM     25  C   UNL     1      37.022  15.644  43.363  1.00  0.00     0.020 C 
ATOM     26  C   UNL     1      36.006  13.735  44.636  1.00  0.00     0.017 C 
ATOM     27  O   UNL     1      32.408  15.745  45.113  1.00  0.00    -0.295 OA
ATOM     28  C   UNL     1      34.723  17.096  44.260  1.00  0.00     0.055 C 
ATOM     29  C   UNL     1      36.814  17.053  42.808  1.00  0.00     0.081 C 
ATOM     30  C   UNL     1      35.891  17.788  43.712  1.00  0.00     0.156 C 
ATOM     31  O   UNL     1      36.073  19.015  43.951  1.00  0.00    -0.295 OA
ENDBRANCH   9  11
ENDBRANCH   8   9
ENDBRANCH   1   8
TORSDOF 6
ENDMDL
MODEL 7
REMARK VINA RESULT:    53.408      3.482      9.597
REMARK INTER + INTRA:          73.473
REMARK INTER:                  73.321
REMARK INTRA:                   0.152
REMARK UNBOUND:                 1.331
REMARK SMILES CC[C@H](CC[C@H](C)[C@@H]1CC[C@H]2[C@H]3CC(=O)C4=CC(=O)CC[C@]4(C)[C@H]3CC[C@]21C)C(C)C
REMARK SMILES IDX 4 1 3 2 2 3 1 4 29 5 30 6 31 7 5 8 6 9 7 10 8 11 9 12 27 13
REMARK SMILES IDX 10 14 11 15 26 16 28 17 12 18 25 19 24 20 13 21 22 22 14 23
REMARK SMILES IDX 16 24 21 25 23 26 15 27 17 28 20 29 18 30 19 31
REMARK H PARENT
REMARK Flexibility Score: inf
ROOT
ATOM      1  C   UNL     1      29.205   7.768  38.818  1.00  0.00     0.004 C 
ENDROOT
BRANCH   1   2
ATOM      2  C   UNL     1      28.189   7.979  37.657  1.00  0.00    -0.009 C 
BRANCH   2   3
ATOM      3  C   UNL     1      28.397   9.350  36.935  1.00  0.00     0.000 C 
ATOM      4  C   UNL     1      27.333  10.372  37.346  1.00  0.00     0.004 C 
ENDBRANCH   2   3
BRANCH   2   5
ATOM      5  C   UNL     1      28.207   6.811  36.614  1.00  0.00    -0.014 C 
ATOM      6  C   UNL     1      27.696   5.470  37.179  1.00  0.00     0.007 C 
ATOM      7  C   UNL     1      27.449   7.167  35.323  1.00  0.00     0.007 C 
ENDBRANCH   2   5
ENDBRANCH   1   2
BRANCH   1   8
ATOM      8  C   UNL     1      30.170   8.959  39.056  1.00  0.00     0.004 C 
BRANCH   8   9
ATOM      9  C   UNL     1      31.407   8.682  39.963  1.00  0.00    -0.011 C 
ATOM     10  C   UNL     1      31.006   8.698  41.455  1.00  0.00     0.008 C 
BRANCH   9  11
ATOM     11  C   UNL     1      32.633   9.652  39.735  1.00  0.00    -0.002 C 
ATOM     12  C   UNL     1      34.006   8.999  40.001  1.00  0.00     0.005 C 
ATOM     13  C   UNL     1      32.672  11.011  40.517  1.00  0.00    -0.026 C 
ATOM     14  C   UNL     1      34.655   9.759  41.161  1.00  0.00     0.005 C 
ATOM     15  C   UNL     1      33.583  10.718  41.711  1.00  0.00    -0.001 C 
ATOM     16  C   UNL     1      33.371  12.056  39.607  1.00  0.00     0.007 C 
ATOM     17  C   UNL     1      31.282  11.542  40.945  1.00  0.00     0.012 C 
ATOM     18  C   UNL     1      34.088  11.964  42.512  1.00  0.00     0.004 C 
ATOM     19  C   UNL     1      33.676  13.394  40.271  1.00  0.00     0.005 C 
ATOM     20  C   UNL     1      34.156  13.365  41.757  1.00  0.00     0.003 C 
ATOM     21  C   UNL     1      35.315  11.596  43.398  1.00  0.00     0.085 C 
ATOM     22  C   UNL     1      35.477  14.191  42.017  1.00  0.00    -0.000 C 
ATOM     23  C   UNL     1      35.874  12.773  44.126  1.00  0.00     0.159 C 
ATOM     24  C   UNL     1      35.782  14.112  43.524  1.00  0.00     0.005 C 
ATOM     25  C   UNL     1      35.354  15.693  41.551  1.00  0.00     0.020 C 
ATOM     26  C   UNL     1      36.664  13.578  41.222  1.00  0.00     0.017 C 
ATOM     27  O   UNL     1      36.427  12.605  45.249  1.00  0.00    -0.295 OA
ATOM     28  C   UNL     1      35.769  15.184  44.338  1.00  0.00     0.055 C 
ATOM     29  C   UNL     1      34.634  16.597  42.551  1.00  0.00     0.081 C 
ATOM     30  C   UNL     1      35.321  16.494  43.866  1.00  0.00     0.156 C 
ATOM     31  O   UNL     1      35.455  17.515  44.597  1.00  0.00    -0.295 OA
ENDBRANCH   9  11
ENDBRANCH   8   9
ENDBRANCH   1   8
TORSDOF 6
ENDMDL
