MODEL 1
REMARK VINA RESULT:    -5.707      0.000      0.000
REMARK INTER + INTRA:          -8.503
REMARK INTER:                  -7.709
REMARK INTRA:                  -0.793
REMARK UNBOUND:                -0.793
REMARK SMILES CC(=O)CCC=C(C)CCC=C(C)C
REMARK SMILES IDX 7 1 6 2 8 3 9 4 10 5 11 6 13 7 12 8 14 9 5 10 4 11 2 12 3 13
REMARK SMILES IDX 1 14
REMARK H PARENT
REMARK Flexibility Score: inf
ROOT
ATOM      1  C   UNL     1     -14.331 -32.743  30.873  1.00  0.00    -0.077 C 
ATOM      2  C   UNL     1     -13.472 -33.103  29.891  1.00  0.00    -0.028 C 
ATOM      3  C   UNL     1     -15.354 -31.649  30.676  1.00  0.00     0.039 C 
ENDROOT
BRANCH   1   4
ATOM      4  C   UNL     1     -14.251 -33.442  32.213  1.00  0.00     0.034 C 
BRANCH   4   5
ATOM      5  C   UNL     1     -12.996 -34.319  32.295  1.00  0.00     0.032 C 
BRANCH   5   6
ATOM      6  C   UNL     1     -13.330 -35.759  31.997  1.00  0.00    -0.028 C 
ATOM      7  C   UNL     1     -12.947 -38.051  31.199  1.00  0.00     0.039 C 
ATOM      8  C   UNL     1     -12.489 -36.629  31.397  1.00  0.00    -0.080 C 
ATOM      9  C   UNL     1     -11.121 -36.213  30.909  1.00  0.00     0.039 C 
ENDBRANCH   5   6
ENDBRANCH   4   5
ENDBRANCH   1   4
BRANCH   2  10
ATOM     10  C   UNL     1     -13.466 -32.513  28.503  1.00  0.00     0.035 C 
BRANCH  10  11
ATOM     11  C   UNL     1     -13.741 -33.594  27.452  1.00  0.00     0.079 C 
BRANCH  11  12
ATOM     12  C   UNL     1     -12.895 -34.813  27.709  1.00  0.00     0.130 C 
ATOM     13  O   UNL     1     -13.418 -35.822  28.158  1.00  0.00    -0.300 OA
ATOM     14  C   UNL     1     -11.421 -34.815  27.436  1.00  0.00     0.087 C 
ENDBRANCH  11  12
ENDBRANCH  10  11
ENDBRANCH   2  10
TORSDOF 6
ENDMDL
MODEL 2
REMARK VINA RESULT:    -5.705      1.678      3.699
REMARK INTER + INTRA:          -8.499
REMARK INTER:                  -7.690
REMARK INTRA:                  -0.810
REMARK UNBOUND:                -0.793
REMARK SMILES CC(=O)CCC=C(C)CCC=C(C)C
REMARK SMILES IDX 7 1 6 2 8 3 9 4 10 5 11 6 13 7 12 8 14 9 5 10 4 11 2 12 3 13
REMARK SMILES IDX 1 14
REMARK H PARENT
REMARK Flexibility Score: inf
ROOT
ATOM      1  C   UNL     1     -13.288 -37.121  29.492  1.00  0.00    -0.077 C 
ATOM      2  C   UNL     1     -12.466 -36.124  29.090  1.00  0.00    -0.028 C 
ATOM      3  C   UNL     1     -14.352 -37.692  28.584  1.00  0.00     0.039 C 
ENDROOT
BRANCH   1   4
ATOM      4  C   UNL     1     -13.150 -37.667  30.896  1.00  0.00     0.034 C 
BRANCH   4   5
ATOM      5  C   UNL     1     -12.641 -36.584  31.854  1.00  0.00     0.032 C 
BRANCH   5   6
ATOM      6  C   UNL     1     -13.643 -35.462  31.974  1.00  0.00    -0.028 C 
ATOM      7  C   UNL     1     -14.431 -33.163  32.333  1.00  0.00     0.039 C 
ATOM      8  C   UNL     1     -13.326 -34.187  32.290  1.00  0.00    -0.080 C 
ATOM      9  C   UNL     1     -11.911 -33.769  32.614  1.00  0.00     0.039 C 
ENDBRANCH   5   6
ENDBRANCH   4   5
ENDBRANCH   1   4
BRANCH   2  10
ATOM     10  C   UNL     1     -12.472 -35.515  27.710  1.00  0.00     0.035 C 
BRANCH  10  11
ATOM     11  C   UNL     1     -11.520 -34.317  27.640  1.00  0.00     0.079 C 
BRANCH  11  12
ATOM     12  C   UNL     1     -11.890 -33.282  28.669  1.00  0.00     0.130 C 
ATOM     13  O   UNL     1     -11.036 -32.873  29.442  1.00  0.00    -0.300 OA
ATOM     14  C   UNL     1     -13.287 -32.747  28.775  1.00  0.00     0.087 C 
ENDBRANCH  11  12
ENDBRANCH  10  11
ENDBRANCH   2  10
TORSDOF 6
ENDMDL
MODEL 3
REMARK VINA RESULT:    -5.701      1.718      4.567
REMARK INTER + INTRA:          -8.493
REMARK INTER:                  -7.352
REMARK INTRA:                  -1.142
REMARK UNBOUND:                -0.793
REMARK SMILES CC(=O)CCC=C(C)CCC=C(C)C
REMARK SMILES IDX 7 1 6 2 8 3 9 4 10 5 11 6 13 7 12 8 14 9 5 10 4 11 2 12 3 13
REMARK SMILES IDX 1 14
REMARK H PARENT
REMARK Flexibility Score: inf
ROOT
ATOM      1  C   UNL     1     -12.907 -34.872  28.201  1.00  0.00    -0.077 C 
ATOM      2  C   UNL     1     -13.676 -35.910  28.606  1.00  0.00    -0.028 C 
ATOM      3  C   UNL     1     -11.398 -34.942  28.222  1.00  0.00     0.039 C 
ENDROOT
BRANCH   1   4
ATOM      4  C   UNL     1     -13.577 -33.599  27.734  1.00  0.00     0.034 C 
BRANCH   4   5
ATOM      5  C   UNL     1     -13.272 -32.440  28.689  1.00  0.00     0.032 C 
BRANCH   5   6
ATOM      6  C   UNL     1     -14.341 -32.322  29.746  1.00  0.00    -0.028 C 
ATOM      7  C   UNL     1     -15.364 -32.570  31.966  1.00  0.00     0.039 C 
ATOM      8  C   UNL     1     -14.225 -32.798  31.005  1.00  0.00    -0.080 C 
ATOM      9  C   UNL     1     -13.004 -33.559  31.465  1.00  0.00     0.039 C 
ENDBRANCH   5   6
ENDBRANCH   4   5
ENDBRANCH   1   4
BRANCH   2  10
ATOM     10  C   UNL     1     -13.140 -37.244  29.062  1.00  0.00     0.035 C 
BRANCH  10  11
ATOM     11  C   UNL     1     -13.646 -37.582  30.467  1.00  0.00     0.079 C 
BRANCH  11  12
ATOM     12  C   UNL     1     -12.495 -37.747  31.423  1.00  0.00     0.130 C 
ATOM     13  O   UNL     1     -12.456 -38.727  32.152  1.00  0.00    -0.300 OA
ATOM     14  C   UNL     1     -11.396 -36.730  31.509  1.00  0.00     0.087 C 
ENDBRANCH  11  12
ENDBRANCH  10  11
ENDBRANCH   2  10
TORSDOF 6
ENDMDL
MODEL 4
REMARK VINA RESULT:    -5.641      1.837      2.428
REMARK INTER + INTRA:          -8.413
REMARK INTER:                  -7.321
REMARK INTRA:                  -1.091
REMARK UNBOUND:                -0.793
REMARK SMILES CC(=O)CCC=C(C)CCC=C(C)C
REMARK SMILES IDX 7 1 6 2 8 3 9 4 10 5 11 6 13 7 12 8 14 9 5 10 4 11 2 12 3 13
REMARK SMILES IDX 1 14
REMARK H PARENT
REMARK Flexibility Score: inf
ROOT
ATOM      1  C   UNL     1     -11.899 -33.630  31.220  1.00  0.00    -0.077 C 
ATOM      2  C   UNL     1     -12.255 -33.498  29.920  1.00  0.00    -0.028 C 
ATOM      3  C   UNL     1     -10.453 -33.725  31.644  1.00  0.00     0.039 C 
ENDROOT
BRANCH   1   4
ATOM      4  C   UNL     1     -12.982 -33.704  32.274  1.00  0.00     0.034 C 
BRANCH   4   5
ATOM      5  C   UNL     1     -14.004 -34.793  31.931  1.00  0.00     0.032 C 
BRANCH   5   6
ATOM      6  C   UNL     1     -13.425 -36.165  32.174  1.00  0.00    -0.028 C 
ATOM      7  C   UNL     1     -12.599 -38.406  31.597  1.00  0.00     0.039 C 
ATOM      8  C   UNL     1     -13.224 -37.090  31.210  1.00  0.00    -0.080 C 
ATOM      9  C   UNL     1     -13.620 -36.849  29.773  1.00  0.00     0.039 C 
ENDBRANCH   5   6
ENDBRANCH   4   5
ENDBRANCH   1   4
BRANCH   2  10
ATOM     10  C   UNL     1     -11.281 -33.378  28.775  1.00  0.00     0.035 C 
BRANCH  10  11
ATOM     11  C   UNL     1     -11.225 -34.680  27.970  1.00  0.00     0.079 C 
BRANCH  11  12
ATOM     12  C   UNL     1     -11.947 -34.524  26.657  1.00  0.00     0.130 C 
ATOM     13  O   UNL     1     -11.353 -34.757  25.615  1.00  0.00    -0.300 OA
ATOM     14  C   UNL     1     -13.378 -34.079  26.598  1.00  0.00     0.087 C 
ENDBRANCH  11  12
ENDBRANCH  10  11
ENDBRANCH   2  10
TORSDOF 6
ENDMDL
MODEL 5
REMARK VINA RESULT:    -5.512      1.392      3.578
REMARK INTER + INTRA:          -8.238
REMARK INTER:                  -7.161
REMARK INTRA:                  -1.077
REMARK UNBOUND:                -0.793
REMARK SMILES CC(=O)CCC=C(C)CCC=C(C)C
REMARK SMILES IDX 7 1 6 2 8 3 9 4 10 5 11 6 13 7 12 8 14 9 5 10 4 11 2 12 3 13
REMARK SMILES IDX 1 14
REMARK H PARENT
REMARK Flexibility Score: inf
ROOT
ATOM      1  C   UNL     1     -12.280 -35.953  31.153  1.00  0.00    -0.077 C 
ATOM      2  C   UNL     1     -12.022 -35.480  29.911  1.00  0.00    -0.028 C 
ATOM      3  C   UNL     1     -13.182 -37.143  31.381  1.00  0.00     0.039 C 
ENDROOT
BRANCH   1   4
ATOM      4  C   UNL     1     -11.664 -35.257  32.347  1.00  0.00     0.034 C 
BRANCH   4   5
ATOM      5  C   UNL     1     -11.958 -33.753  32.313  1.00  0.00     0.032 C 
BRANCH   5   6
ATOM      6  C   UNL     1     -13.335 -33.465  32.857  1.00  0.00    -0.028 C 
ATOM      7  C   UNL     1     -15.704 -32.817  32.788  1.00  0.00     0.039 C 
ATOM      8  C   UNL     1     -14.372 -33.022  32.113  1.00  0.00    -0.080 C 
ATOM      9  C   UNL     1     -14.229 -32.716  30.641  1.00  0.00     0.039 C 
ENDBRANCH   5   6
ENDBRANCH   4   5
ENDBRANCH   1   4
BRANCH   2  10
ATOM     10  C   UNL     1     -12.542 -36.097  28.636  1.00  0.00     0.035 C 
BRANCH  10  11
ATOM     11  C   UNL     1     -13.669 -35.249  28.042  1.00  0.00     0.079 C 
BRANCH  11  12
ATOM     12  C   UNL     1     -13.160 -34.414  26.896  1.00  0.00     0.130 C 
ATOM     13  O   UNL     1     -13.883 -33.556  26.411  1.00  0.00    -0.300 OA
ATOM     14  C   UNL     1     -11.788 -34.620  26.327  1.00  0.00     0.087 C 
ENDBRANCH  11  12
ENDBRANCH  10  11
ENDBRANCH   2  10
TORSDOF 6
ENDMDL
MODEL 6
REMARK VINA RESULT:    -5.474      1.847      3.494
REMARK INTER + INTRA:          -8.188
REMARK INTER:                  -6.805
REMARK INTRA:                  -1.383
REMARK UNBOUND:                -0.793
REMARK SMILES CC(=O)CCC=C(C)CCC=C(C)C
REMARK SMILES IDX 7 1 6 2 8 3 9 4 10 5 11 6 13 7 12 8 14 9 5 10 4 11 2 12 3 13
REMARK SMILES IDX 1 14
REMARK H PARENT
REMARK Flexibility Score: inf
ROOT
ATOM      1  C   UNL     1     -10.177 -33.676  30.440  1.00  0.00    -0.077 C 
ATOM      2  C   UNL     1     -10.689 -34.807  29.902  1.00  0.00    -0.028 C 
ATOM      3  C   UNL     1      -9.875 -32.458  29.599  1.00  0.00     0.039 C 
ENDROOT
BRANCH   1   4
ATOM      4  C   UNL     1      -9.878 -33.637  31.923  1.00  0.00     0.034 C 
BRANCH   4   5
ATOM      5  C   UNL     1     -10.988 -34.329  32.721  1.00  0.00     0.032 C 
BRANCH   5   6
ATOM      6  C   UNL     1     -12.255 -33.511  32.695  1.00  0.00    -0.028 C 
ATOM      7  C   UNL     1     -14.657 -33.069  32.420  1.00  0.00     0.039 C 
ATOM      8  C   UNL     1     -13.471 -33.998  32.362  1.00  0.00    -0.080 C 
ATOM      9  C   UNL     1     -13.669 -35.430  31.923  1.00  0.00     0.039 C 
ENDBRANCH   5   6
ENDBRANCH   4   5
ENDBRANCH   1   4
BRANCH   2  10
ATOM     10  C   UNL     1     -11.064 -34.969  28.450  1.00  0.00     0.035 C 
BRANCH  10  11
ATOM     11  C   UNL     1     -12.576 -35.157  28.297  1.00  0.00     0.079 C 
BRANCH  11  12
ATOM     12  C   UNL     1     -13.216 -33.904  27.760  1.00  0.00     0.130 C 
ATOM     13  O   UNL     1     -13.512 -33.842  26.575  1.00  0.00    -0.300 OA
ATOM     14  C   UNL     1     -13.490 -32.723  28.643  1.00  0.00     0.087 C 
ENDBRANCH  11  12
ENDBRANCH  10  11
ENDBRANCH   2  10
TORSDOF 6
ENDMDL
MODEL 7
REMARK VINA RESULT:    -5.404      1.815      5.107
REMARK INTER + INTRA:          -8.093
REMARK INTER:                  -7.097
REMARK INTRA:                  -0.996
REMARK UNBOUND:                -0.793
REMARK SMILES CC(=O)CCC=C(C)CCC=C(C)C
REMARK SMILES IDX 7 1 6 2 8 3 9 4 10 5 11 6 13 7 12 8 14 9 5 10 4 11 2 12 3 13
REMARK SMILES IDX 1 14
REMARK H PARENT
REMARK Flexibility Score: inf
ROOT
ATOM      1  C   UNL     1     -12.225 -35.877  30.535  1.00  0.00    -0.077 C 
ATOM      2  C   UNL     1     -12.346 -34.831  31.386  1.00  0.00    -0.028 C 
ATOM      3  C   UNL     1     -13.231 -37.004  30.510  1.00  0.00     0.039 C 
ENDROOT
BRANCH   1   4
ATOM      4  C   UNL     1     -11.039 -35.929  29.598  1.00  0.00     0.034 C 
BRANCH   4   5
ATOM      5  C   UNL     1     -10.952 -34.651  28.757  1.00  0.00     0.032 C 
BRANCH   5   6
ATOM      6  C   UNL     1     -11.995 -34.656  27.667  1.00  0.00    -0.028 C 
ATOM      7  C   UNL     1     -13.972 -33.891  26.425  1.00  0.00     0.039 C 
ATOM      8  C   UNL     1     -13.030 -33.790  27.597  1.00  0.00    -0.080 C 
ATOM      9  C   UNL     1     -13.275 -32.746  28.661  1.00  0.00     0.039 C 
ENDBRANCH   5   6
ENDBRANCH   4   5
ENDBRANCH   1   4
BRANCH   2  10
ATOM     10  C   UNL     1     -13.494 -34.638  32.346  1.00  0.00     0.035 C 
BRANCH  10  11
ATOM     11  C   UNL     1     -13.709 -33.151  32.644  1.00  0.00     0.079 C 
BRANCH  11  12
ATOM     12  C   UNL     1     -15.114 -32.736  32.298  1.00  0.00     0.130 C 
ATOM     13  O   UNL     1     -15.303 -31.983  31.354  1.00  0.00    -0.300 OA
ATOM     14  C   UNL     1     -16.291 -33.218  33.093  1.00  0.00     0.087 C 
ENDBRANCH  11  12
ENDBRANCH  10  11
ENDBRANCH   2  10
TORSDOF 6
ENDMDL
MODEL 8
REMARK VINA RESULT:    -5.401      2.000      4.723
REMARK INTER + INTRA:          -8.089
REMARK INTER:                  -7.266
REMARK INTRA:                  -0.824
REMARK UNBOUND:                -0.793
REMARK SMILES CC(=O)CCC=C(C)CCC=C(C)C
REMARK SMILES IDX 7 1 6 2 8 3 9 4 10 5 11 6 13 7 12 8 14 9 5 10 4 11 2 12 3 13
REMARK SMILES IDX 1 14
REMARK H PARENT
REMARK Flexibility Score: inf
ROOT
ATOM      1  C   UNL     1     -12.633 -35.804  31.485  1.00  0.00    -0.077 C 
ATOM      2  C   UNL     1     -13.404 -34.743  31.816  1.00  0.00    -0.028 C 
ATOM      3  C   UNL     1     -11.136 -35.796  31.685  1.00  0.00     0.039 C 
ENDROOT
BRANCH   1   4
ATOM      4  C   UNL     1     -13.286 -37.027  30.878  1.00  0.00     0.034 C 
BRANCH   4   5
ATOM      5  C   UNL     1     -12.907 -37.169  29.399  1.00  0.00     0.032 C 
BRANCH   5   6
ATOM      6  C   UNL     1     -13.557 -36.088  28.574  1.00  0.00    -0.028 C 
ATOM      7  C   UNL     1     -13.668 -34.108  27.122  1.00  0.00     0.039 C 
ATOM      8  C   UNL     1     -12.885 -35.097  27.947  1.00  0.00    -0.080 C 
ATOM      9  C   UNL     1     -11.386 -34.948  28.064  1.00  0.00     0.039 C 
ENDBRANCH   5   6
ENDBRANCH   4   5
ENDBRANCH   1   4
BRANCH   2  10
ATOM     10  C   UNL     1     -12.889 -33.479  32.459  1.00  0.00     0.035 C 
BRANCH  10  11
ATOM     11  C   UNL     1     -13.999 -32.777  33.246  1.00  0.00     0.079 C 
BRANCH  11  12
ATOM     12  C   UNL     1     -15.216 -32.572  32.382  1.00  0.00     0.130 C 
ATOM     13  O   UNL     1     -16.305 -32.962  32.778  1.00  0.00    -0.300 OA
ATOM     14  C   UNL     1     -15.121 -31.911  31.040  1.00  0.00     0.087 C 
ENDBRANCH  11  12
ENDBRANCH  10  11
ENDBRANCH   2  10
TORSDOF 6
ENDMDL
MODEL 9
REMARK VINA RESULT:    -5.401      1.992      5.022
REMARK INTER + INTRA:          -8.089
REMARK INTER:                  -7.651
REMARK INTRA:                  -0.438
REMARK UNBOUND:                -0.793
REMARK SMILES CC(=O)CCC=C(C)CCC=C(C)C
REMARK SMILES IDX 7 1 6 2 8 3 9 4 10 5 11 6 13 7 12 8 14 9 5 10 4 11 2 12 3 13
REMARK SMILES IDX 1 14
REMARK H PARENT
REMARK Flexibility Score: inf
ROOT
ATOM      1  C   UNL     1     -13.170 -36.697  30.574  1.00  0.00    -0.077 C 
ATOM      2  C   UNL     1     -13.616 -35.468  30.924  1.00  0.00    -0.028 C 
ATOM      3  C   UNL     1     -12.700 -37.698  31.603  1.00  0.00     0.039 C 
ENDROOT
BRANCH   1   4
ATOM      4  C   UNL     1     -13.120 -37.071  29.109  1.00  0.00     0.034 C 
BRANCH   4   5
ATOM      5  C   UNL     1     -12.960 -35.823  28.233  1.00  0.00     0.032 C 
BRANCH   5   6
ATOM      6  C   UNL     1     -11.739 -35.037  28.640  1.00  0.00    -0.028 C 
ATOM      7  C   UNL     1     -10.432 -33.054  29.270  1.00  0.00     0.039 C 
ATOM      8  C   UNL     1     -11.719 -33.699  28.822  1.00  0.00    -0.080 C 
ATOM      9  C   UNL     1     -12.935 -32.838  28.574  1.00  0.00     0.039 C 
ENDBRANCH   5   6
ENDBRANCH   4   5
ENDBRANCH   1   4
BRANCH   2  10
ATOM     10  C   UNL     1     -13.749 -34.980  32.345  1.00  0.00     0.035 C 
BRANCH  10  11
ATOM     11  C   UNL     1     -13.594 -33.457  32.414  1.00  0.00     0.079 C 
BRANCH  11  12
ATOM     12  C   UNL     1     -14.913 -32.776  32.159  1.00  0.00     0.130 C 
ATOM     13  O   UNL     1     -15.005 -31.970  31.245  1.00  0.00    -0.300 OA
ATOM     14  C   UNL     1     -16.116 -33.056  33.010  1.00  0.00     0.087 C 
ENDBRANCH  11  12
ENDBRANCH  10  11
ENDBRANCH   2  10
TORSDOF 6
ENDMDL
