MODEL 1
REMARK VINA RESULT:    -7.848      0.000      0.000
REMARK INTER + INTRA:         -10.370
REMARK INTER:                  -9.913
REMARK INTRA:                  -0.457
REMARK UNBOUND:                -0.457
REMARK SMILES CC(C)[C@H](C)C=C[C@@H](C)[C@@H]1CC[C@@H]2C3=CC=C4C[C@@H](O)CC[C@]4(C)[C@H]3CC[C@]21C
REMARK SMILES IDX 8 1 9 2 7 3 6 4 4 5 5 6 2 7 1 8 3 9 10 10 11 11 28 12 12 13
REMARK SMILES IDX 13 14 27 15 29 16 14 17 26 18 25 19 15 20 23 21 16 22 17 23
REMARK SMILES IDX 22 24 24 25 18 26 21 27 19 28 20 29
REMARK H PARENT 20 30
REMARK Flexibility Score: inf
ROOT
ATOM      1  C   UNL     1     118.071 125.894 125.912  1.00  0.00     0.012 C 
ATOM      2  C   UNL     1     119.165 125.684 126.988  1.00  0.00     0.012 C 
ENDROOT
BRANCH   1   3
ATOM      3  C   UNL     1     117.975 127.348 125.487  1.00  0.00    -0.028 C 
ATOM      4  C   UNL     1     118.989 128.226 125.639  1.00  0.00    -0.028 C 
BRANCH   4   5
ATOM      5  C   UNL     1     118.830 129.703 125.304  1.00  0.00     0.011 C 
ATOM      6  C   UNL     1     117.734 130.289 126.221  1.00  0.00     0.012 C 
BRANCH   5   7
ATOM      7  C   UNL     1     120.176 130.479 125.438  1.00  0.00    -0.011 C 
ATOM      8  C   UNL     1     120.246 131.298 126.741  1.00  0.00     0.008 C 
ATOM      9  C   UNL     1     121.391 129.535 125.374  1.00  0.00     0.008 C 
ENDBRANCH   5   7
ENDBRANCH   4   5
ENDBRANCH   1   3
BRANCH   1  10
ATOM     10  C   UNL     1     116.665 125.377 126.361  1.00  0.00     0.002 C 
ATOM     11  C   UNL     1     116.339 125.525 127.869  1.00  0.00     0.005 C 
ATOM     12  C   UNL     1     116.371 123.871 126.075  1.00  0.00    -0.023 C 
ATOM     13  C   UNL     1     115.400 124.356 128.224  1.00  0.00     0.009 C 
ATOM     14  C   UNL     1     115.069 123.698 126.874  1.00  0.00     0.021 C 
ATOM     15  C   UNL     1     116.089 123.532 124.587  1.00  0.00     0.008 C 
ATOM     16  C   UNL     1     117.535 122.979 126.646  1.00  0.00     0.012 C 
ATOM     17  C   UNL     1     114.581 122.259 126.849  1.00  0.00    -0.063 C 
ATOM     18  C   UNL     1     115.098 122.347 124.370  1.00  0.00     0.009 C 
ATOM     19  C   UNL     1     114.895 121.422 125.613  1.00  0.00     0.025 C 
ATOM     20  C   UNL     1     113.899 121.735 127.876  1.00  0.00    -0.000 C 
ATOM     21  C   UNL     1     113.869 120.235 125.381  1.00  0.00    -0.005 C 
ATOM     22  C   UNL     1     113.436 120.344 127.848  1.00  0.00    -0.000 C 
ATOM     23  C   UNL     1     113.482 119.603 126.728  1.00  0.00    -0.061 C 
ATOM     24  C   UNL     1     114.543 119.152 124.473  1.00  0.00     0.014 C 
ATOM     25  C   UNL     1     112.563 120.731 124.697  1.00  0.00     0.017 C 
ATOM     26  C   UNL     1     112.908 118.200 126.775  1.00  0.00     0.063 C 
ATOM     27  C   UNL     1     113.794 117.813 124.453  1.00  0.00     0.033 C 
ATOM     28  C   UNL     1     113.694 117.246 125.874  1.00  0.00     0.118 C 
BRANCH  28  29
ATOM     29  O   UNL     1     113.053 116.001 125.838  1.00  0.00    -0.393 OA
ATOM     30  H   UNL     1     113.145 115.581 126.734  1.00  0.00     0.210 HD
ENDBRANCH  28  29
ENDBRANCH   1  10
TORSDOF 5
ENDMDL
MODEL 2
REMARK VINA RESULT:    -7.797      1.476      2.761
REMARK INTER + INTRA:         -10.306
REMARK INTER:                 -10.412
REMARK INTRA:                   0.106
REMARK UNBOUND:                -0.457
REMARK SMILES CC(C)[C@H](C)C=C[C@@H](C)[C@@H]1CC[C@@H]2C3=CC=C4C[C@@H](O)CC[C@]4(C)[C@H]3CC[C@]21C
REMARK SMILES IDX 8 1 9 2 7 3 6 4 4 5 5 6 2 7 1 8 3 9 10 10 11 11 28 12 12 13
REMARK SMILES IDX 13 14 27 15 29 16 14 17 26 18 25 19 15 20 23 21 16 22 17 23
REMARK SMILES IDX 22 24 24 25 18 26 21 27 19 28 20 29
REMARK H PARENT 20 30
REMARK Flexibility Score: inf
ROOT
ATOM      1  C   UNL     1     116.933 125.335 127.017  1.00  0.00     0.012 C 
ATOM      2  C   UNL     1     115.773 126.063 127.740  1.00  0.00     0.012 C 
ENDROOT
BRANCH   1   3
ATOM      3  C   UNL     1     117.782 126.299 126.209  1.00  0.00    -0.028 C 
ATOM      4  C   UNL     1     117.753 127.636 126.393  1.00  0.00    -0.028 C 
BRANCH   4   5
ATOM      5  C   UNL     1     118.534 128.588 125.498  1.00  0.00     0.011 C 
ATOM      6  C   UNL     1     117.608 129.766 125.123  1.00  0.00     0.012 C 
BRANCH   5   7
ATOM      7  C   UNL     1     119.851 129.077 126.175  1.00  0.00    -0.011 C 
ATOM      8  C   UNL     1     120.997 129.245 125.160  1.00  0.00     0.008 C 
ATOM      9  C   UNL     1     119.649 130.407 126.927  1.00  0.00     0.008 C 
ENDBRANCH   5   7
ENDBRANCH   4   5
ENDBRANCH   1   3
BRANCH   1  10
ATOM     10  C   UNL     1     116.442 124.164 126.102  1.00  0.00     0.002 C 
ATOM     11  C   UNL     1     115.446 124.552 124.980  1.00  0.00     0.005 C 
ATOM     12  C   UNL     1     115.722 122.988 126.832  1.00  0.00    -0.023 C 
ATOM     13  C   UNL     1     114.545 123.322 124.759  1.00  0.00     0.009 C 
ATOM     14  C   UNL     1     115.177 122.215 125.620  1.00  0.00     0.021 C 
ATOM     15  C   UNL     1     116.658 122.048 127.639  1.00  0.00     0.008 C 
ATOM     16  C   UNL     1     114.565 123.547 127.742  1.00  0.00     0.012 C 
ATOM     17  C   UNL     1     114.329 121.028 126.044  1.00  0.00    -0.063 C 
ATOM     18  C   UNL     1     116.183 120.564 127.707  1.00  0.00     0.009 C 
ATOM     19  C   UNL     1     114.677 120.337 127.359  1.00  0.00     0.025 C 
ATOM     20  C   UNL     1     113.306 120.598 125.294  1.00  0.00    -0.000 C 
ATOM     21  C   UNL     1     114.217 118.821 127.413  1.00  0.00    -0.005 C 
ATOM     22  C   UNL     1     112.488 119.454 125.711  1.00  0.00    -0.000 C 
ATOM     23  C   UNL     1     112.845 118.662 126.736  1.00  0.00    -0.061 C 
ATOM     24  C   UNL     1     114.112 118.375 128.910  1.00  0.00     0.014 C 
ATOM     25  C   UNL     1     115.221 117.890 126.674  1.00  0.00     0.017 C 
ATOM     26  C   UNL     1     111.977 117.457 127.045  1.00  0.00     0.063 C 
ATOM     27  C   UNL     1     113.359 117.053 129.108  1.00  0.00     0.033 C 
ATOM     28  C   UNL     1     111.937 117.171 128.547  1.00  0.00     0.118 C 
BRANCH  28  29
ATOM     29  O   UNL     1     111.242 115.976 128.777  1.00  0.00    -0.393 OA
ATOM     30  H   UNL     1     111.339 115.404 127.971  1.00  0.00     0.210 HD
ENDBRANCH  28  29
ENDBRANCH   1  10
TORSDOF 5
ENDMDL
MODEL 3
REMARK VINA RESULT:    -7.736      3.465      9.519
REMARK INTER + INTRA:         -10.229
REMARK INTER:                  -8.986
REMARK INTRA:                  -1.243
REMARK UNBOUND:                -0.457
REMARK SMILES CC(C)[C@H](C)C=C[C@@H](C)[C@@H]1CC[C@@H]2C3=CC=C4C[C@@H](O)CC[C@]4(C)[C@H]3CC[C@]21C
REMARK SMILES IDX 8 1 9 2 7 3 6 4 4 5 5 6 2 7 1 8 3 9 10 10 11 11 28 12 12 13
REMARK SMILES IDX 13 14 27 15 29 16 14 17 26 18 25 19 15 20 23 21 16 22 17 23
REMARK SMILES IDX 22 24 24 25 18 26 21 27 19 28 20 29
REMARK H PARENT 20 30
REMARK Flexibility Score: inf
ROOT
ATOM      1  C   UNL     1     113.467 116.523 126.166  1.00  0.00     0.012 C 
ATOM      2  C   UNL     1     112.383 115.624 125.521  1.00  0.00     0.012 C 
ENDROOT
BRANCH   1   3
ATOM      3  C   UNL     1     113.897 115.997 127.523  1.00  0.00    -0.028 C 
ATOM      4  C   UNL     1     113.133 116.110 128.631  1.00  0.00    -0.028 C 
BRANCH   4   5
ATOM      5  C   UNL     1     113.633 115.671 129.999  1.00  0.00     0.011 C 
ATOM      6  C   UNL     1     115.116 115.261 129.862  1.00  0.00     0.012 C 
BRANCH   5   7
ATOM      7  C   UNL     1     113.435 116.781 131.077  1.00  0.00    -0.011 C 
ATOM      8  C   UNL     1     114.519 117.873 130.990  1.00  0.00     0.008 C 
ATOM      9  C   UNL     1     112.048 117.443 130.969  1.00  0.00     0.008 C 
ENDBRANCH   5   7
ENDBRANCH   4   5
ENDBRANCH   1   3
BRANCH   1  10
ATOM     10  C   UNL     1     113.025 118.018 126.291  1.00  0.00     0.002 C 
ATOM     11  C   UNL     1     111.960 118.498 125.272  1.00  0.00     0.005 C 
ATOM     12  C   UNL     1     114.162 119.077 126.148  1.00  0.00    -0.023 C 
ATOM     13  C   UNL     1     112.238 119.994 125.029  1.00  0.00     0.009 C 
ATOM     14  C   UNL     1     113.321 120.361 126.057  1.00  0.00     0.021 C 
ATOM     15  C   UNL     1     115.108 119.189 127.375  1.00  0.00     0.008 C 
ATOM     16  C   UNL     1     114.980 118.814 124.829  1.00  0.00     0.012 C 
ATOM     17  C   UNL     1     114.188 121.586 125.818  1.00  0.00    -0.063 C 
ATOM     18  C   UNL     1     115.689 120.617 127.615  1.00  0.00     0.009 C 
ATOM     19  C   UNL     1     115.604 121.579 126.387  1.00  0.00     0.025 C 
ATOM     20  C   UNL     1     113.732 122.640 125.128  1.00  0.00    -0.000 C 
ATOM     21  C   UNL     1     116.179 123.032 126.657  1.00  0.00    -0.005 C 
ATOM     22  C   UNL     1     114.576 123.817 124.896  1.00  0.00    -0.000 C 
ATOM     23  C   UNL     1     115.748 123.986 125.531  1.00  0.00    -0.061 C 
ATOM     24  C   UNL     1     117.743 122.958 126.705  1.00  0.00     0.014 C 
ATOM     25  C   UNL     1     115.656 123.616 128.000  1.00  0.00     0.017 C 
ATOM     26  C   UNL     1     116.515 125.272 125.286  1.00  0.00     0.063 C 
ATOM     27  C   UNL     1     118.427 124.328 126.619  1.00  0.00     0.033 C 
ATOM     28  C   UNL     1     118.025 125.035 125.319  1.00  0.00     0.118 C 
BRANCH  28  29
ATOM     29  O   UNL     1     118.694 126.263 125.228  1.00  0.00    -0.393 OA
ATOM     30  H   UNL     1     119.322 126.214 124.459  1.00  0.00     0.210 HD
ENDBRANCH  28  29
ENDBRANCH   1  10
TORSDOF 5
ENDMDL
MODEL 4
REMARK VINA RESULT:    -7.622      3.495      9.490
REMARK INTER + INTRA:         -10.085
REMARK INTER:                  -8.839
REMARK INTRA:                  -1.246
REMARK UNBOUND:                -0.457
REMARK SMILES CC(C)[C@H](C)C=C[C@@H](C)[C@@H]1CC[C@@H]2C3=CC=C4C[C@@H](O)CC[C@]4(C)[C@H]3CC[C@]21C
REMARK SMILES IDX 8 1 9 2 7 3 6 4 4 5 5 6 2 7 1 8 3 9 10 10 11 11 28 12 12 13
REMARK SMILES IDX 13 14 27 15 29 16 14 17 26 18 25 19 15 20 23 21 16 22 17 23
REMARK SMILES IDX 22 24 24 25 18 26 21 27 19 28 20 29
REMARK H PARENT 20 30
REMARK Flexibility Score: inf
ROOT
ATOM      1  C   UNL     1     116.723 116.455 124.831  1.00  0.00     0.012 C 
ATOM      2  C   UNL     1     117.474 115.293 124.136  1.00  0.00     0.012 C 
ENDROOT
BRANCH   1   3
ATOM      3  C   UNL     1     115.297 116.071 125.181  1.00  0.00    -0.028 C 
ATOM      4  C   UNL     1     114.269 116.195 124.316  1.00  0.00    -0.028 C 
BRANCH   4   5
ATOM      5  C   UNL     1     112.832 115.903 124.728  1.00  0.00     0.011 C 
ATOM      6  C   UNL     1     112.736 116.034 126.264  1.00  0.00     0.012 C 
BRANCH   5   7
ATOM      7  C   UNL     1     111.816 116.837 124.000  1.00  0.00    -0.011 C 
ATOM      8  C   UNL     1     111.920 118.295 124.485  1.00  0.00     0.008 C 
ATOM      9  C   UNL     1     112.001 116.804 122.471  1.00  0.00     0.008 C 
ENDBRANCH   5   7
ENDBRANCH   4   5
ENDBRANCH   1   3
BRANCH   1  10
ATOM     10  C   UNL     1     116.726 117.774 123.990  1.00  0.00     0.002 C 
ATOM     11  C   UNL     1     117.903 117.940 122.995  1.00  0.00     0.005 C 
ATOM     12  C   UNL     1     116.757 119.102 124.808  1.00  0.00    -0.023 C 
ATOM     13  C   UNL     1     118.170 119.453 122.891  1.00  0.00     0.009 C 
ATOM     14  C   UNL     1     117.020 120.108 123.675  1.00  0.00     0.021 C 
ATOM     15  C   UNL     1     115.418 119.474 125.500  1.00  0.00     0.008 C 
ATOM     16  C   UNL     1     117.938 119.066 125.848  1.00  0.00     0.012 C 
ATOM     17  C   UNL     1     117.192 121.521 124.205  1.00  0.00    -0.063 C 
ATOM     18  C   UNL     1     115.163 121.007 125.634  1.00  0.00     0.009 C 
ATOM     19  C   UNL     1     116.433 121.904 125.472  1.00  0.00     0.025 C 
ATOM     20  C   UNL     1     117.983 122.407 123.588  1.00  0.00    -0.000 C 
ATOM     21  C   UNL     1     116.150 123.460 125.590  1.00  0.00    -0.005 C 
ATOM     22  C   UNL     1     118.148 123.769 124.108  1.00  0.00    -0.000 C 
ATOM     23  C   UNL     1     117.367 124.255 125.086  1.00  0.00    -0.061 C 
ATOM     24  C   UNL     1     115.884 123.815 127.092  1.00  0.00     0.014 C 
ATOM     25  C   UNL     1     114.919 123.886 124.741  1.00  0.00     0.017 C 
ATOM     26  C   UNL     1     117.560 125.700 125.505  1.00  0.00     0.063 C 
ATOM     27  C   UNL     1     115.935 125.320 127.387  1.00  0.00     0.033 C 
ATOM     28  C   UNL     1     117.307 125.883 127.002  1.00  0.00     0.118 C 
BRANCH  28  29
ATOM     29  O   UNL     1     117.360 127.247 127.322  1.00  0.00    -0.393 OA
ATOM     30  H   UNL     1     117.890 127.707 126.619  1.00  0.00     0.210 HD
ENDBRANCH  28  29
ENDBRANCH   1  10
TORSDOF 5
ENDMDL
MODEL 5
REMARK VINA RESULT:    -7.543      3.486      9.906
REMARK INTER + INTRA:          -9.985
REMARK INTER:                  -8.972
REMARK INTRA:                  -1.013
REMARK UNBOUND:                -0.457
REMARK SMILES CC(C)[C@H](C)C=C[C@@H](C)[C@@H]1CC[C@@H]2C3=CC=C4C[C@@H](O)CC[C@]4(C)[C@H]3CC[C@]21C
REMARK SMILES IDX 8 1 9 2 7 3 6 4 4 5 5 6 2 7 1 8 3 9 10 10 11 11 28 12 12 13
REMARK SMILES IDX 13 14 27 15 29 16 14 17 26 18 25 19 15 20 23 21 16 22 17 23
REMARK SMILES IDX 22 24 24 25 18 26 21 27 19 28 20 29
REMARK H PARENT 20 30
REMARK Flexibility Score: inf
ROOT
ATOM      1  C   UNL     1     113.116 117.018 123.605  1.00  0.00     0.012 C 
ATOM      2  C   UNL     1     111.627 117.043 123.179  1.00  0.00     0.012 C 
ENDROOT
BRANCH   1   3
ATOM      3  C   UNL     1     113.684 115.611 123.573  1.00  0.00    -0.028 C 
ATOM      4  C   UNL     1     114.997 115.344 123.742  1.00  0.00    -0.028 C 
BRANCH   4   5
ATOM      5  C   UNL     1     115.555 113.935 123.598  1.00  0.00     0.011 C 
ATOM      6  C   UNL     1     114.371 112.944 123.607  1.00  0.00     0.012 C 
BRANCH   5   7
ATOM      7  C   UNL     1     116.430 113.784 122.315  1.00  0.00    -0.011 C 
ATOM      8  C   UNL     1     115.712 112.979 121.216  1.00  0.00     0.008 C 
ATOM      9  C   UNL     1     116.849 115.151 121.742  1.00  0.00     0.008 C 
ENDBRANCH   5   7
ENDBRANCH   4   5
ENDBRANCH   1   3
BRANCH   1  10
ATOM     10  C   UNL     1     113.359 117.657 125.011  1.00  0.00     0.002 C 
ATOM     11  C   UNL     1     112.094 117.907 125.870  1.00  0.00     0.005 C 
ATOM     12  C   UNL     1     114.075 119.044 125.013  1.00  0.00    -0.023 C 
ATOM     13  C   UNL     1     112.398 119.144 126.737  1.00  0.00     0.009 C 
ATOM     14  C   UNL     1     113.886 119.440 126.486  1.00  0.00     0.021 C 
ATOM     15  C   UNL     1     115.595 118.995 124.703  1.00  0.00     0.008 C 
ATOM     16  C   UNL     1     113.333 120.033 124.038  1.00  0.00     0.012 C 
ATOM     17  C   UNL     1     114.425 120.833 126.768  1.00  0.00    -0.063 C 
ATOM     18  C   UNL     1     116.436 120.102 125.411  1.00  0.00     0.009 C 
ATOM     19  C   UNL     1     115.611 121.319 125.941  1.00  0.00     0.025 C 
ATOM     20  C   UNL     1     113.880 121.614 127.709  1.00  0.00    -0.000 C 
ATOM     21  C   UNL     1     116.479 122.424 126.676  1.00  0.00    -0.005 C 
ATOM     22  C   UNL     1     114.401 122.960 127.973  1.00  0.00    -0.000 C 
ATOM     23  C   UNL     1     115.561 123.388 127.446  1.00  0.00    -0.061 C 
ATOM     24  C   UNL     1     117.292 123.226 125.604  1.00  0.00     0.014 C 
ATOM     25  C   UNL     1     117.467 121.792 127.696  1.00  0.00     0.017 C 
ATOM     26  C   UNL     1     116.059 124.766 127.838  1.00  0.00     0.063 C 
ATOM     27  C   UNL     1     117.901 124.528 126.142  1.00  0.00     0.033 C 
ATOM     28  C   UNL     1     116.794 125.442 126.679  1.00  0.00     0.118 C 
BRANCH  28  29
ATOM     29  O   UNL     1     117.356 126.647 127.121  1.00  0.00    -0.393 OA
ATOM     30  H   UNL     1     116.744 127.386 126.859  1.00  0.00     0.210 HD
ENDBRANCH  28  29
ENDBRANCH   1  10
TORSDOF 5
ENDMDL
MODEL 6
REMARK VINA RESULT:    -7.483      3.741      9.704
REMARK INTER + INTRA:          -9.909
REMARK INTER:                  -8.800
REMARK INTRA:                  -1.108
REMARK UNBOUND:                -0.457
REMARK SMILES CC(C)[C@H](C)C=C[C@@H](C)[C@@H]1CC[C@@H]2C3=CC=C4C[C@@H](O)CC[C@]4(C)[C@H]3CC[C@]21C
REMARK SMILES IDX 8 1 9 2 7 3 6 4 4 5 5 6 2 7 1 8 3 9 10 10 11 11 28 12 12 13
REMARK SMILES IDX 13 14 27 15 29 16 14 17 26 18 25 19 15 20 23 21 16 22 17 23
REMARK SMILES IDX 22 24 24 25 18 26 21 27 19 28 20 29
REMARK H PARENT 20 30
REMARK Flexibility Score: inf
ROOT
ATOM      1  C   UNL     1     112.306 116.998 127.430  1.00  0.00     0.012 C 
ATOM      2  C   UNL     1     111.798 116.013 128.512  1.00  0.00     0.012 C 
ENDROOT
BRANCH   1   3
ATOM      3  C   UNL     1     112.042 116.476 126.029  1.00  0.00    -0.028 C 
ATOM      4  C   UNL     1     112.917 115.696 125.359  1.00  0.00    -0.028 C 
BRANCH   4   5
ATOM      5  C   UNL     1     112.676 115.276 123.915  1.00  0.00     0.011 C 
ATOM      6  C   UNL     1     112.196 116.514 123.127  1.00  0.00     0.012 C 
BRANCH   5   7
ATOM      7  C   UNL     1     113.946 114.635 123.275  1.00  0.00    -0.011 C 
ATOM      8  C   UNL     1     115.154 115.590 123.304  1.00  0.00     0.008 C 
ATOM      9  C   UNL     1     114.333 113.316 123.969  1.00  0.00     0.008 C 
ENDBRANCH   5   7
ENDBRANCH   4   5
ENDBRANCH   1   3
BRANCH   1  10
ATOM     10  C   UNL     1     113.821 117.351 127.589  1.00  0.00     0.002 C 
ATOM     11  C   UNL     1     114.361 117.382 129.042  1.00  0.00     0.005 C 
ATOM     12  C   UNL     1     114.261 118.733 127.012  1.00  0.00    -0.023 C 
ATOM     13  C   UNL     1     115.490 118.430 129.061  1.00  0.00     0.009 C 
ATOM     14  C   UNL     1     115.685 118.819 127.586  1.00  0.00     0.021 C 
ATOM     15  C   UNL     1     114.345 118.797 125.464  1.00  0.00     0.008 C 
ATOM     16  C   UNL     1     113.331 119.871 127.574  1.00  0.00     0.012 C 
ATOM     17  C   UNL     1     116.348 120.144 127.249  1.00  0.00    -0.063 C 
ATOM     18  C   UNL     1     115.436 119.768 124.915  1.00  0.00     0.009 C 
ATOM     19  C   UNL     1     115.954 120.825 125.941  1.00  0.00     0.025 C 
ATOM     20  C   UNL     1     117.247 120.704 128.068  1.00  0.00    -0.000 C 
ATOM     21  C   UNL     1     117.078 121.789 125.372  1.00  0.00    -0.005 C 
ATOM     22  C   UNL     1     117.879 121.986 127.739  1.00  0.00    -0.000 C 
ATOM     23  C   UNL     1     117.754 122.549 126.526  1.00  0.00    -0.061 C 
ATOM     24  C   UNL     1     116.416 122.816 124.392  1.00  0.00     0.014 C 
ATOM     25  C   UNL     1     118.181 121.000 124.612  1.00  0.00     0.017 C 
ATOM     26  C   UNL     1     118.507 123.836 126.253  1.00  0.00     0.063 C 
ATOM     27  C   UNL     1     117.322 124.004 124.041  1.00  0.00     0.033 C 
ATOM     28  C   UNL     1     117.720 124.754 125.318  1.00  0.00     0.118 C 
BRANCH  28  29
ATOM     29  O   UNL     1     118.505 125.865 124.981  1.00  0.00    -0.393 OA
ATOM     30  H   UNL     1     119.384 125.770 125.436  1.00  0.00     0.210 HD
ENDBRANCH  28  29
ENDBRANCH   1  10
TORSDOF 5
ENDMDL
MODEL 7
REMARK VINA RESULT:    -7.360      3.445      9.384
REMARK INTER + INTRA:          -9.753
REMARK INTER:                  -8.710
REMARK INTRA:                  -1.043
REMARK UNBOUND:                -0.457
REMARK SMILES CC(C)[C@H](C)C=C[C@@H](C)[C@@H]1CC[C@@H]2C3=CC=C4C[C@@H](O)CC[C@]4(C)[C@H]3CC[C@]21C
REMARK SMILES IDX 8 1 9 2 7 3 6 4 4 5 5 6 2 7 1 8 3 9 10 10 11 11 28 12 12 13
REMARK SMILES IDX 13 14 27 15 29 16 14 17 26 18 25 19 15 20 23 21 16 22 17 23
REMARK SMILES IDX 22 24 24 25 18 26 21 27 19 28 20 29
REMARK H PARENT 20 30
REMARK Flexibility Score: inf
ROOT
ATOM      1  C   UNL     1     115.872 116.347 125.529  1.00  0.00     0.012 C 
ATOM      2  C   UNL     1     116.441 115.007 125.002  1.00  0.00     0.012 C 
ENDROOT
BRANCH   1   3
ATOM      3  C   UNL     1     114.403 116.228 125.894  1.00  0.00    -0.028 C 
ATOM      4  C   UNL     1     113.887 116.728 127.037  1.00  0.00    -0.028 C 
BRANCH   4   5
ATOM      5  C   UNL     1     112.434 116.501 127.429  1.00  0.00     0.011 C 
ATOM      6  C   UNL     1     112.403 115.969 128.878  1.00  0.00     0.012 C 
BRANCH   5   7
ATOM      7  C   UNL     1     111.577 117.794 127.266  1.00  0.00    -0.011 C 
ATOM      8  C   UNL     1     112.103 118.950 128.138  1.00  0.00     0.008 C 
ATOM      9  C   UNL     1     111.517 118.261 125.799  1.00  0.00     0.008 C 
ENDBRANCH   5   7
ENDBRANCH   4   5
ENDBRANCH   1   3
BRANCH   1  10
ATOM     10  C   UNL     1     116.076 117.533 124.530  1.00  0.00     0.002 C 
ATOM     11  C   UNL     1     117.290 117.411 123.573  1.00  0.00     0.005 C 
ATOM     12  C   UNL     1     116.266 118.941 125.175  1.00  0.00    -0.023 C 
ATOM     13  C   UNL     1     117.763 118.850 123.292  1.00  0.00     0.009 C 
ATOM     14  C   UNL     1     116.693 119.746 123.937  1.00  0.00     0.021 C 
ATOM     15  C   UNL     1     114.972 119.573 125.756  1.00  0.00     0.008 C 
ATOM     16  C   UNL     1     117.403 118.886 126.261  1.00  0.00     0.012 C 
ATOM     17  C   UNL     1     117.041 121.182 124.292  1.00  0.00    -0.063 C 
ATOM     18  C   UNL     1     114.924 121.130 125.684  1.00  0.00     0.009 C 
ATOM     19  C   UNL     1     116.308 121.823 125.466  1.00  0.00     0.025 C 
ATOM     20  C   UNL     1     117.961 121.868 123.602  1.00  0.00    -0.000 C 
ATOM     21  C   UNL     1     116.236 123.405 125.375  1.00  0.00    -0.005 C 
ATOM     22  C   UNL     1     118.296 123.252 123.953  1.00  0.00    -0.000 C 
ATOM     23  C   UNL     1     117.562 123.960 124.828  1.00  0.00    -0.061 C 
ATOM     24  C   UNL     1     115.981 123.985 126.807  1.00  0.00     0.014 C 
ATOM     25  C   UNL     1     115.097 123.874 124.426  1.00  0.00     0.017 C 
ATOM     26  C   UNL     1     117.939 125.410 125.070  1.00  0.00     0.063 C 
ATOM     27  C   UNL     1     116.228 125.496 126.912  1.00  0.00     0.033 C 
ATOM     28  C   UNL     1     117.675 125.819 126.519  1.00  0.00     0.118 C 
BRANCH  28  29
ATOM     29  O   UNL     1     117.903 127.194 126.667  1.00  0.00    -0.393 OA
ATOM     30  H   UNL     1     118.423 127.331 127.503  1.00  0.00     0.210 HD
ENDBRANCH  28  29
ENDBRANCH   1  10
TORSDOF 5
ENDMDL
MODEL 8
REMARK VINA RESULT:    -7.239      3.763      9.393
REMARK INTER + INTRA:          -9.601
REMARK INTER:                  -8.502
REMARK INTRA:                  -1.099
REMARK UNBOUND:                -0.457
REMARK SMILES CC(C)[C@H](C)C=C[C@@H](C)[C@@H]1CC[C@@H]2C3=CC=C4C[C@@H](O)CC[C@]4(C)[C@H]3CC[C@]21C
REMARK SMILES IDX 8 1 9 2 7 3 6 4 4 5 5 6 2 7 1 8 3 9 10 10 11 11 28 12 12 13
REMARK SMILES IDX 13 14 27 15 29 16 14 17 26 18 25 19 15 20 23 21 16 22 17 23
REMARK SMILES IDX 22 24 24 25 18 26 21 27 19 28 20 29
REMARK H PARENT 20 30
REMARK Flexibility Score: inf
ROOT
ATOM      1  C   UNL     1     117.361 117.088 123.575  1.00  0.00     0.012 C 
ATOM      2  C   UNL     1     118.634 116.451 122.965  1.00  0.00     0.012 C 
ENDROOT
BRANCH   1   3
ATOM      3  C   UNL     1     116.107 116.341 123.158  1.00  0.00    -0.028 C 
ATOM      4  C   UNL     1     115.171 115.927 124.040  1.00  0.00    -0.028 C 
BRANCH   4   5
ATOM      5  C   UNL     1     113.977 115.087 123.608  1.00  0.00     0.011 C 
ATOM      6  C   UNL     1     114.256 113.619 123.998  1.00  0.00     0.012 C 
BRANCH   5   7
ATOM      7  C   UNL     1     112.643 115.609 124.226  1.00  0.00    -0.011 C 
ATOM      8  C   UNL     1     112.749 115.808 125.750  1.00  0.00     0.008 C 
ATOM      9  C   UNL     1     112.192 116.932 123.579  1.00  0.00     0.008 C 
ENDBRANCH   5   7
ENDBRANCH   4   5
ENDBRANCH   1   3
BRANCH   1  10
ATOM     10  C   UNL     1     117.213 118.607 123.230  1.00  0.00     0.002 C 
ATOM     11  C   UNL     1     118.474 119.295 122.649  1.00  0.00     0.005 C 
ATOM     12  C   UNL     1     116.811 119.537 124.417  1.00  0.00    -0.023 C 
ATOM     13  C   UNL     1     118.413 120.765 123.106  1.00  0.00     0.009 C 
ATOM     14  C   UNL     1     117.031 120.912 123.765  1.00  0.00     0.021 C 
ATOM     15  C   UNL     1     115.326 119.429 124.857  1.00  0.00     0.008 C 
ATOM     16  C   UNL     1     117.778 119.302 125.636  1.00  0.00     0.012 C 
ATOM     17  C   UNL     1     116.794 122.045 124.749  1.00  0.00    -0.063 C 
ATOM     18  C   UNL     1     114.719 120.753 125.415  1.00  0.00     0.009 C 
ATOM     19  C   UNL     1     115.767 121.825 125.855  1.00  0.00     0.025 C 
ATOM     20  C   UNL     1     117.462 123.202 124.655  1.00  0.00    -0.000 C 
ATOM     21  C   UNL     1     115.131 123.172 126.400  1.00  0.00    -0.005 C 
ATOM     22  C   UNL     1     117.231 124.291 125.611  1.00  0.00    -0.000 C 
ATOM     23  C   UNL     1     116.208 124.267 126.481  1.00  0.00    -0.061 C 
ATOM     24  C   UNL     1     114.543 122.914 127.828  1.00  0.00     0.014 C 
ATOM     25  C   UNL     1     113.997 123.689 125.469  1.00  0.00     0.017 C 
ATOM     26  C   UNL     1     116.003 125.473 127.377  1.00  0.00     0.063 C 
ATOM     27  C   UNL     1     114.209 124.200 128.597  1.00  0.00     0.033 C 
ATOM     28  C   UNL     1     115.468 125.062 128.750  1.00  0.00     0.118 C 
BRANCH  28  29
ATOM     29  O   UNL     1     115.162 126.208 129.496  1.00  0.00    -0.393 OA
ATOM     30  H   UNL     1     114.173 126.303 129.522  1.00  0.00     0.210 HD
ENDBRANCH  28  29
ENDBRANCH   1  10
TORSDOF 5
ENDMDL
MODEL 9
REMARK VINA RESULT:    -7.219      5.597      9.063
REMARK INTER + INTRA:          -9.575
REMARK INTER:                  -8.183
REMARK INTRA:                  -1.392
REMARK UNBOUND:                -0.457
REMARK SMILES CC(C)[C@H](C)C=C[C@@H](C)[C@@H]1CC[C@@H]2C3=CC=C4C[C@@H](O)CC[C@]4(C)[C@H]3CC[C@]21C
REMARK SMILES IDX 8 1 9 2 7 3 6 4 4 5 5 6 2 7 1 8 3 9 10 10 11 11 28 12 12 13
REMARK SMILES IDX 13 14 27 15 29 16 14 17 26 18 25 19 15 20 23 21 16 22 17 23
REMARK SMILES IDX 22 24 24 25 18 26 21 27 19 28 20 29
REMARK H PARENT 20 30
REMARK Flexibility Score: inf
ROOT
ATOM      1  C   UNL     1     112.687 118.712 127.899  1.00  0.00     0.012 C 
ATOM      2  C   UNL     1     111.517 119.702 128.118  1.00  0.00     0.012 C 
ENDROOT
BRANCH   1   3
ATOM      3  C   UNL     1     112.966 117.890 129.144  1.00  0.00    -0.028 C 
ATOM      4  C   UNL     1     114.116 117.985 129.845  1.00  0.00    -0.028 C 
BRANCH   4   5
ATOM      5  C   UNL     1     114.414 117.073 131.027  1.00  0.00     0.011 C 
ATOM      6  C   UNL     1     113.317 115.986 131.085  1.00  0.00     0.012 C 
BRANCH   5   7
ATOM      7  C   UNL     1     115.842 116.452 130.938  1.00  0.00    -0.011 C 
ATOM      8  C   UNL     1     115.815 115.007 130.406  1.00  0.00     0.008 C 
ATOM      9  C   UNL     1     116.779 117.294 130.052  1.00  0.00     0.008 C 
ENDBRANCH   5   7
ENDBRANCH   4   5
ENDBRANCH   1   3
BRANCH   1  10
ATOM     10  C   UNL     1     114.000 119.415 127.421  1.00  0.00     0.002 C 
ATOM     11  C   UNL     1     113.884 120.929 127.109  1.00  0.00     0.005 C 
ATOM     12  C   UNL     1     114.653 118.831 126.130  1.00  0.00    -0.023 C 
ATOM     13  C   UNL     1     114.910 121.221 125.998  1.00  0.00     0.009 C 
ATOM     14  C   UNL     1     115.708 119.914 125.850  1.00  0.00     0.021 C 
ATOM     15  C   UNL     1     115.377 117.471 126.322  1.00  0.00     0.008 C 
ATOM     16  C   UNL     1     113.582 118.742 124.980  1.00  0.00     0.012 C 
ATOM     17  C   UNL     1     116.462 119.646 124.559  1.00  0.00    -0.063 C 
ATOM     18  C   UNL     1     116.605 117.254 125.385  1.00  0.00     0.009 C 
ATOM     19  C   UNL     1     116.656 118.193 124.136  1.00  0.00     0.025 C 
ATOM     20  C   UNL     1     116.941 120.647 123.809  1.00  0.00    -0.000 C 
ATOM     21  C   UNL     1     117.923 117.972 123.208  1.00  0.00    -0.005 C 
ATOM     22  C   UNL     1     117.663 120.381 122.561  1.00  0.00    -0.000 C 
ATOM     23  C   UNL     1     118.061 119.144 122.220  1.00  0.00    -0.061 C 
ATOM     24  C   UNL     1     117.740 116.638 122.409  1.00  0.00     0.014 C 
ATOM     25  C   UNL     1     119.236 117.893 124.037  1.00  0.00     0.017 C 
ATOM     26  C   UNL     1     118.870 118.977 120.948  1.00  0.00     0.063 C 
ATOM     27  C   UNL     1     118.719 116.483 121.238  1.00  0.00     0.033 C 
ATOM     28  C   UNL     1     118.554 117.650 120.257  1.00  0.00     0.118 C 
BRANCH  28  29
ATOM     29  O   UNL     1     119.417 117.472 119.168  1.00  0.00    -0.393 OA
ATOM     30  H   UNL     1     120.348 117.620 119.485  1.00  0.00     0.210 HD
ENDBRANCH  28  29
ENDBRANCH   1  10
TORSDOF 5
ENDMDL
