MODEL 1
REMARK VINA RESULT:    -5.249      0.000      0.000
REMARK INTER + INTRA:          -7.068
REMARK INTER:                  -7.091
REMARK INTRA:                   0.022
REMARK UNBOUND:                 0.022
REMARK SMILES C=C1CCC=C(C)CC[C@H]2[C@H]1CC2(C)C
REMARK SMILES IDX 11 1 12 2 13 3 10 4 14 5 15 6 9 7 8 8 6 9 7 10 5 11 2 13
REMARK SMILES IDX 1 14 3 15 4 16
REMARK H PARENT
REMARK Flexibility Score: 70.00
ROOT
ATOM      1  C   UNL     1      -4.454 -16.072   8.950  1.00  0.00     0.018 C 
ATOM      2  C   UNL     1      -5.516 -15.837   7.869  1.00  0.00     0.015 C 
ATOM      3  C   UNL     1      -4.543 -14.911   7.116  1.00  0.00    -0.031 C 
ATOM      4  C   UNL     1      -3.428 -15.277   8.131  1.00  0.00     0.002 C 
ATOM      5  C   UNL     1      -4.237 -15.380   5.682  1.00  0.00     0.011 C 
ATOM      6  C   UNL     1      -5.021 -13.443   7.125  1.00  0.00     0.011 C 
ENDROOT
BRANCH   4   7
ATOM      7  C   UNL     1      -2.751 -14.127   8.906  1.00  0.00     0.009 C 
BRANCH   7   8
ATOM      8  C   UNL     1      -1.645 -14.638   9.849  1.00  0.00     0.030 C 
BRANCH   8   9
ATOM      9  C   UNL     1      -2.157 -14.857  11.265  1.00  0.00    -0.077 C 
ATOM     10  C   UNL     1      -2.352 -13.641  12.137  1.00  0.00     0.039 C 
ATOM     11  C   UNL     1      -2.475 -16.064  11.791  1.00  0.00    -0.028 CG0
ATOM     12  G   UNL     1      -2.400 -17.405  11.099  1.00  0.00     0.000 G0
ENDBRANCH   8   9
ENDBRANCH   7   8
ENDBRANCH   4   7
BRANCH   1  13
ATOM     13  C   UNL     1      -4.054 -17.514   9.225  1.00  0.00    -0.074 C 
ATOM     14  C   UNL     1      -3.849 -18.403   8.238  1.00  0.00     0.008 C 
BRANCH  13  15
ATOM     15  C   UNL     1      -3.771 -17.917  10.654  1.00  0.00     0.035 C 
BRANCH  15  16
ATOM     16  C   UNL     1      -2.394 -17.417  11.117  1.00  0.00     0.032 CG0
ATOM     17  G   UNL     1      -2.489 -16.070  11.796  1.00  0.00     0.000 G0
ENDBRANCH  15  16
ENDBRANCH  13  15
ENDBRANCH   1  13
TORSDOF 0
ENDMDL
MODEL 2
REMARK VINA RESULT:    -5.156      1.054      3.141
REMARK INTER + INTRA:          -6.942
REMARK INTER:                  -6.796
REMARK INTRA:                  -0.146
REMARK UNBOUND:                 0.022
REMARK SMILES C=C1CCC=C(C)CC[C@H]2[C@H]1CC2(C)C
REMARK SMILES IDX 11 1 12 2 13 3 10 4 14 5 15 6 9 7 8 8 6 9 7 10 5 11 2 13
REMARK SMILES IDX 1 14 3 15 4 16
REMARK H PARENT
REMARK Flexibility Score: 70.00
ROOT
ATOM      1  C   UNL     1      -2.949 -15.235   8.224  1.00  0.00     0.018 C 
ATOM      2  C   UNL     1      -3.082 -14.641   6.816  1.00  0.00     0.015 C 
ATOM      3  C   UNL     1      -4.615 -14.744   6.919  1.00  0.00    -0.031 C 
ATOM      4  C   UNL     1      -4.474 -15.198   8.396  1.00  0.00     0.002 C 
ATOM      5  C   UNL     1      -5.333 -13.391   6.765  1.00  0.00     0.011 C 
ATOM      6  C   UNL     1      -5.191 -15.787   5.937  1.00  0.00     0.011 C 
ENDROOT
BRANCH   4   7
ATOM      7  C   UNL     1      -5.099 -16.549   8.800  1.00  0.00     0.009 C 
BRANCH   7   8
ATOM      8  C   UNL     1      -5.064 -16.770  10.325  1.00  0.00     0.030 C 
BRANCH   8   9
ATOM      9  C   UNL     1      -3.869 -17.608  10.753  1.00  0.00    -0.077 C 
ATOM     10  C   UNL     1      -3.970 -19.105  10.602  1.00  0.00     0.039 C 
ATOM     11  C   UNL     1      -2.710 -17.103  11.239  1.00  0.00    -0.028 CG0
ATOM     12  G   UNL     1      -2.365 -15.646  11.440  1.00  0.00     0.000 G0
ENDBRANCH   8   9
ENDBRANCH   7   8
ENDBRANCH   4   7
BRANCH   1  13
ATOM     13  C   UNL     1      -2.183 -14.413   9.251  1.00  0.00    -0.074 C 
ATOM     14  C   UNL     1      -2.248 -13.071   9.290  1.00  0.00     0.008 C 
BRANCH  13  15
ATOM     15  C   UNL     1      -1.417 -15.148  10.326  1.00  0.00     0.035 C 
BRANCH  15  16
ATOM     16  C   UNL     1      -2.352 -15.655  11.436  1.00  0.00     0.032 CG0
ATOM     17  G   UNL     1      -2.711 -17.110  11.241  1.00  0.00     0.000 G0
ENDBRANCH  15  16
ENDBRANCH  13  15
ENDBRANCH   1  13
TORSDOF 0
ENDMDL
MODEL 3
REMARK VINA RESULT:    -4.979      2.140      4.257
REMARK INTER + INTRA:          -6.703
REMARK INTER:                  -6.780
REMARK INTRA:                   0.076
REMARK UNBOUND:                 0.022
REMARK SMILES C=C1CCC=C(C)CC[C@H]2[C@H]1CC2(C)C
REMARK SMILES IDX 11 1 12 2 13 3 10 4 14 5 15 6 9 7 8 8 6 9 7 10 5 11 2 13
REMARK SMILES IDX 1 14 3 15 4 16
REMARK H PARENT
REMARK Flexibility Score: 70.00
ROOT
ATOM      1  C   UNL     1      -2.650 -16.910   9.440  1.00  0.00     0.018 C 
ATOM      2  C   UNL     1      -2.756 -17.289  10.923  1.00  0.00     0.015 C 
ATOM      3  C   UNL     1      -3.505 -15.972  11.203  1.00  0.00    -0.031 C 
ATOM      4  C   UNL     1      -3.526 -15.674   9.680  1.00  0.00     0.002 C 
ATOM      5  C   UNL     1      -4.908 -16.180  11.802  1.00  0.00     0.011 C 
ATOM      6  C   UNL     1      -2.671 -15.010  12.076  1.00  0.00     0.011 C 
ENDROOT
BRANCH   4   7
ATOM      7  C   UNL     1      -2.902 -14.350   9.195  1.00  0.00     0.009 C 
BRANCH   7   8
ATOM      8  C   UNL     1      -2.970 -14.205   7.662  1.00  0.00     0.030 C 
BRANCH   8   9
ATOM      9  C   UNL     1      -4.400 -14.267   7.146  1.00  0.00    -0.077 C 
ATOM     10  C   UNL     1      -5.206 -12.992   7.159  1.00  0.00     0.039 C 
ATOM     11  C   UNL     1      -4.993 -15.380   6.653  1.00  0.00    -0.028 CG0
ATOM     12  G   UNL     1      -4.375 -16.751   6.505  1.00  0.00     0.000 G0
ENDBRANCH   8   9
ENDBRANCH   7   8
ENDBRANCH   4   7
BRANCH   1  13
ATOM     13  C   UNL     1      -3.222 -17.897   8.432  1.00  0.00    -0.074 C 
ATOM     14  C   UNL     1      -2.633 -19.077   8.168  1.00  0.00     0.008 C 
BRANCH  13  15
ATOM     15  C   UNL     1      -4.555 -17.578   7.797  1.00  0.00     0.035 C 
BRANCH  15  16
ATOM     16  C   UNL     1      -4.383 -16.750   6.514  1.00  0.00     0.032 CG0
ATOM     17  G   UNL     1      -4.996 -15.375   6.651  1.00  0.00     0.000 G0
ENDBRANCH  15  16
ENDBRANCH  13  15
ENDBRANCH   1  13
TORSDOF 0
ENDMDL
MODEL 4
REMARK VINA RESULT:    -4.927      2.101      4.980
REMARK INTER + INTRA:          -6.632
REMARK INTER:                  -6.702
REMARK INTRA:                   0.069
REMARK UNBOUND:                 0.022
REMARK SMILES C=C1CCC=C(C)CC[C@H]2[C@H]1CC2(C)C
REMARK SMILES IDX 11 1 12 2 13 3 10 4 14 5 15 6 9 7 8 8 6 9 7 10 5 11 2 13
REMARK SMILES IDX 1 14 3 15 4 16
REMARK H PARENT
REMARK Flexibility Score: 70.00
ROOT
ATOM      1  C   UNL     1      -2.743 -14.336  11.166  1.00  0.00     0.018 C 
ATOM      2  C   UNL     1      -2.438 -14.258  12.667  1.00  0.00     0.015 C 
ATOM      3  C   UNL     1      -2.790 -15.750  12.815  1.00  0.00    -0.031 C 
ATOM      4  C   UNL     1      -2.946 -15.853  11.274  1.00  0.00     0.002 C 
ATOM      5  C   UNL     1      -1.632 -16.601  13.367  1.00  0.00     0.011 C 
ATOM      6  C   UNL     1      -4.073 -15.961  13.647  1.00  0.00     0.011 C 
ENDROOT
BRANCH   4   7
ATOM      7  C   UNL     1      -4.294 -16.355  10.717  1.00  0.00     0.009 C 
BRANCH   7   8
ATOM      8  C   UNL     1      -4.311 -16.375   9.176  1.00  0.00     0.030 C 
BRANCH   8   9
ATOM      9  C   UNL     1      -3.210 -17.255   8.605  1.00  0.00    -0.077 C 
ATOM     10  C   UNL     1      -3.484 -18.733   8.481  1.00  0.00     0.039 C 
ATOM     11  C   UNL     1      -2.007 -16.803   8.175  1.00  0.00    -0.028 CG0
ATOM     12  G   UNL     1      -1.526 -15.370   8.163  1.00  0.00     0.000 G0
ENDBRANCH   8   9
ENDBRANCH   7   8
ENDBRANCH   4   7
BRANCH   1  13
ATOM     13  C   UNL     1      -1.633 -13.919  10.213  1.00  0.00    -0.074 C 
ATOM     14  C   UNL     1      -1.257 -12.636  10.064  1.00  0.00     0.008 C 
BRANCH  13  15
ATOM     15  C   UNL     1      -0.859 -15.003   9.500  1.00  0.00     0.035 C 
BRANCH  15  16
ATOM     16  C   UNL     1      -1.516 -15.376   8.162  1.00  0.00     0.032 CG0
ATOM     17  G   UNL     1      -2.023 -16.800   8.167  1.00  0.00     0.000 G0
ENDBRANCH  15  16
ENDBRANCH  13  15
ENDBRANCH   1  13
TORSDOF 0
ENDMDL
MODEL 5
REMARK VINA RESULT:    -4.792      1.691      4.023
REMARK INTER + INTRA:          -6.450
REMARK INTER:                  -6.530
REMARK INTRA:                   0.079
REMARK UNBOUND:                 0.022
REMARK SMILES C=C1CCC=C(C)CC[C@H]2[C@H]1CC2(C)C
REMARK SMILES IDX 11 1 12 2 13 3 10 4 14 5 15 6 9 7 8 8 6 9 7 10 5 11 2 13
REMARK SMILES IDX 1 14 3 15 4 16
REMARK H PARENT
REMARK Flexibility Score: 70.00
ROOT
ATOM      1  C   UNL     1      -3.692 -14.315   8.783  1.00  0.00     0.018 C 
ATOM      2  C   UNL     1      -2.541 -13.300   8.776  1.00  0.00     0.015 C 
ATOM      3  C   UNL     1      -1.785 -14.153   9.812  1.00  0.00    -0.031 C 
ATOM      4  C   UNL     1      -2.881 -15.245   9.695  1.00  0.00     0.002 C 
ATOM      5  C   UNL     1      -0.403 -14.625   9.326  1.00  0.00     0.011 C 
ATOM      6  C   UNL     1      -1.675 -13.440  11.176  1.00  0.00     0.011 C 
ENDROOT
BRANCH   4   7
ATOM      7  C   UNL     1      -3.618 -15.671  10.982  1.00  0.00     0.009 C 
BRANCH   7   8
ATOM      8  C   UNL     1      -4.659 -16.775  10.715  1.00  0.00     0.030 C 
BRANCH   8   9
ATOM      9  C   UNL     1      -4.038 -18.002  10.067  1.00  0.00    -0.077 C 
ATOM     10  C   UNL     1      -3.419 -19.037  10.973  1.00  0.00     0.039 C 
ATOM     11  C   UNL     1      -4.021 -18.244   8.734  1.00  0.00    -0.028 CG0
ATOM     12  G   UNL     1      -4.609 -17.378   7.645  1.00  0.00     0.000 G0
ENDBRANCH   8   9
ENDBRANCH   7   8
ENDBRANCH   4   7
BRANCH   1  13
ATOM     13  C   UNL     1      -4.079 -14.929   7.446  1.00  0.00    -0.074 C 
ATOM     14  C   UNL     1      -4.732 -14.235   6.497  1.00  0.00     0.008 C 
BRANCH  13  15
ATOM     15  C   UNL     1      -3.609 -16.333   7.142  1.00  0.00     0.035 C 
BRANCH  15  16
ATOM     16  C   UNL     1      -4.614 -17.383   7.640  1.00  0.00     0.032 CG0
ATOM     17  G   UNL     1      -4.024 -18.245   8.732  1.00  0.00     0.000 G0
ENDBRANCH  15  16
ENDBRANCH  13  15
ENDBRANCH   1  13
TORSDOF 0
ENDMDL
MODEL 6
REMARK VINA RESULT:    -4.731      1.838      4.339
REMARK INTER + INTRA:          -6.368
REMARK INTER:                  -6.331
REMARK INTRA:                  -0.037
REMARK UNBOUND:                 0.022
REMARK SMILES C=C1CCC=C(C)CC[C@H]2[C@H]1CC2(C)C
REMARK SMILES IDX 11 1 12 2 13 3 10 4 14 5 15 6 9 7 8 8 6 9 7 10 5 11 2 13
REMARK SMILES IDX 1 14 3 15 4 16
REMARK H PARENT
REMARK Flexibility Score: 70.00
ROOT
ATOM      1  C   UNL     1      -2.265 -16.304   9.428  1.00  0.00     0.018 C 
ATOM      2  C   UNL     1      -1.291 -15.799  10.500  1.00  0.00     0.015 C 
ATOM      3  C   UNL     1      -1.906 -14.392  10.393  1.00  0.00    -0.031 C 
ATOM      4  C   UNL     1      -2.984 -14.948   9.425  1.00  0.00     0.002 C 
ATOM      5  C   UNL     1      -2.489 -13.875  11.721  1.00  0.00     0.011 C 
ATOM      6  C   UNL     1      -0.913 -13.372   9.795  1.00  0.00     0.011 C 
ENDROOT
BRANCH   4   7
ATOM      7  C   UNL     1      -3.108 -14.299   8.032  1.00  0.00     0.009 C 
BRANCH   7   8
ATOM      8  C   UNL     1      -4.579 -14.110   7.611  1.00  0.00     0.030 C 
BRANCH   8   9
ATOM      9  C   UNL     1      -5.071 -15.247   6.729  1.00  0.00    -0.077 C 
ATOM     10  C   UNL     1      -5.193 -14.985   5.249  1.00  0.00     0.039 C 
ATOM     11  C   UNL     1      -5.385 -16.487   7.174  1.00  0.00    -0.028 CG0
ATOM     12  G   UNL     1      -5.303 -16.990   8.597  1.00  0.00     0.000 G0
ENDBRANCH   8   9
ENDBRANCH   7   8
ENDBRANCH   4   7
BRANCH   1  13
ATOM     13  C   UNL     1      -3.152 -17.483   9.800  1.00  0.00    -0.074 C 
ATOM     14  C   UNL     1      -3.153 -18.020  11.033  1.00  0.00     0.008 C 
BRANCH  13  15
ATOM     15  C   UNL     1      -4.142 -17.984   8.775  1.00  0.00     0.035 C 
BRANCH  15  16
ATOM     16  C   UNL     1      -5.308 -17.000   8.590  1.00  0.00     0.032 CG0
ATOM     17  G   UNL     1      -5.382 -16.484   7.172  1.00  0.00     0.000 G0
ENDBRANCH  15  16
ENDBRANCH  13  15
ENDBRANCH   1  13
TORSDOF 0
ENDMDL
MODEL 7
REMARK VINA RESULT:    -4.570      1.487      3.423
REMARK INTER + INTRA:          -6.150
REMARK INTER:                  -5.882
REMARK INTRA:                  -0.269
REMARK UNBOUND:                 0.022
REMARK SMILES C=C1CCC=C(C)CC[C@H]2[C@H]1CC2(C)C
REMARK SMILES IDX 11 1 12 2 13 3 10 4 14 5 15 6 9 7 8 8 6 9 7 10 5 11 2 13
REMARK SMILES IDX 1 14 3 15 4 16
REMARK H PARENT
REMARK Flexibility Score: 70.00
ROOT
ATOM      1  C   UNL     1      -2.387 -15.503   9.039  1.00  0.00     0.018 C 
ATOM      2  C   UNL     1      -2.610 -16.034   7.617  1.00  0.00     0.015 C 
ATOM      3  C   UNL     1      -3.816 -16.853   8.114  1.00  0.00    -0.031 C 
ATOM      4  C   UNL     1      -3.675 -16.192   9.510  1.00  0.00     0.002 C 
ATOM      5  C   UNL     1      -5.134 -16.497   7.403  1.00  0.00     0.011 C 
ATOM      6  C   UNL     1      -3.548 -18.372   8.046  1.00  0.00     0.011 C 
ENDROOT
BRANCH   4   7
ATOM      7  C   UNL     1      -3.489 -17.117  10.731  1.00  0.00     0.009 C 
BRANCH   7   8
ATOM      8  C   UNL     1      -3.737 -16.377  12.060  1.00  0.00     0.030 C 
BRANCH   8   9
ATOM      9  C   UNL     1      -2.439 -15.930  12.715  1.00  0.00    -0.077 C 
ATOM     10  C   UNL     1      -1.716 -16.923  13.591  1.00  0.00     0.039 C 
ATOM     11  C   UNL     1      -1.872 -14.710  12.550  1.00  0.00    -0.028 CG0
ATOM     12  G   UNL     1      -2.389 -13.576  11.695  1.00  0.00     0.000 G0
ENDBRANCH   8   9
ENDBRANCH   7   8
ENDBRANCH   4   7
BRANCH   1  13
ATOM     13  C   UNL     1      -2.383 -13.993   9.220  1.00  0.00    -0.074 C 
ATOM     14  C   UNL     1      -3.112 -13.173   8.442  1.00  0.00     0.008 C 
BRANCH  13  15
ATOM     15  C   UNL     1      -1.618 -13.415  10.388  1.00  0.00     0.035 C 
BRANCH  15  16
ATOM     16  C   UNL     1      -2.403 -13.562  11.702  1.00  0.00     0.032 CG0
ATOM     17  G   UNL     1      -1.875 -14.702  12.542  1.00  0.00     0.000 G0
ENDBRANCH  15  16
ENDBRANCH  13  15
ENDBRANCH   1  13
TORSDOF 0
ENDMDL
MODEL 8
REMARK VINA RESULT:    -4.305      1.302      3.017
REMARK INTER + INTRA:          -5.793
REMARK INTER:                  -6.094
REMARK INTRA:                   0.300
REMARK UNBOUND:                 0.022
REMARK SMILES C=C1CCC=C(C)CC[C@H]2[C@H]1CC2(C)C
REMARK SMILES IDX 11 1 12 2 13 3 10 4 14 5 15 6 9 7 8 8 6 9 7 10 5 11 2 13
REMARK SMILES IDX 1 14 3 15 4 16
REMARK H PARENT
REMARK Flexibility Score: 70.00
ROOT
ATOM      1  C   UNL     1      -3.476 -14.894   9.206  1.00  0.00     0.018 C 
ATOM      2  C   UNL     1      -2.463 -14.162   8.316  1.00  0.00     0.015 C 
ATOM      3  C   UNL     1      -1.420 -14.236   9.447  1.00  0.00    -0.031 C 
ATOM      4  C   UNL     1      -2.399 -15.108  10.277  1.00  0.00     0.002 C 
ATOM      5  C   UNL     1      -0.133 -14.980   9.046  1.00  0.00     0.011 C 
ATOM      6  C   UNL     1      -1.093 -12.841  10.020  1.00  0.00     0.011 C 
ENDROOT
BRANCH   4   7
ATOM      7  C   UNL     1      -2.794 -14.610  11.683  1.00  0.00     0.009 C 
BRANCH   7   8
ATOM      8  C   UNL     1      -3.230 -15.766  12.604  1.00  0.00     0.030 C 
BRANCH   8   9
ATOM      9  C   UNL     1      -2.421 -17.030  12.356  1.00  0.00    -0.077 C 
ATOM     10  C   UNL     1      -1.227 -17.285  13.241  1.00  0.00     0.039 C 
ATOM     11  C   UNL     1      -2.711 -17.957  11.411  1.00  0.00    -0.028 CG0
ATOM     12  G   UNL     1      -3.871 -17.937  10.443  1.00  0.00     0.000 G0
ENDBRANCH   8   9
ENDBRANCH   7   8
ENDBRANCH   4   7
BRANCH   1  13
ATOM     13  C   UNL     1      -4.077 -16.179   8.656  1.00  0.00    -0.074 C 
ATOM     14  C   UNL     1      -5.092 -16.179   7.774  1.00  0.00     0.008 C 
BRANCH  13  15
ATOM     15  C   UNL     1      -3.427 -17.490   9.035  1.00  0.00     0.035 C 
BRANCH  15  16
ATOM     16  C   UNL     1      -3.876 -17.958  10.428  1.00  0.00     0.032 CG0
ATOM     17  G   UNL     1      -2.728 -17.964  11.411  1.00  0.00     0.000 G0
ENDBRANCH  15  16
ENDBRANCH  13  15
ENDBRANCH   1  13
TORSDOF 0
ENDMDL
MODEL 9
REMARK VINA RESULT:    -4.194      1.706      4.039
REMARK INTER + INTRA:          -5.643
REMARK INTER:                  -6.749
REMARK INTRA:                   1.106
REMARK UNBOUND:                 0.022
REMARK SMILES C=C1CCC=C(C)CC[C@H]2[C@H]1CC2(C)C
REMARK SMILES IDX 11 1 12 2 13 3 10 4 14 5 15 6 9 7 8 8 6 9 7 10 5 11 2 13
REMARK SMILES IDX 1 14 3 15 4 16
REMARK H PARENT
REMARK Flexibility Score: 70.00
ROOT
ATOM      1  C   UNL     1      -2.009 -16.035  10.947  1.00  0.00     0.018 C 
ATOM      2  C   UNL     1      -1.250 -14.740  10.631  1.00  0.00     0.015 C 
ATOM      3  C   UNL     1      -1.708 -14.832   9.163  1.00  0.00    -0.031 C 
ATOM      4  C   UNL     1      -2.594 -16.052   9.528  1.00  0.00     0.002 C 
ATOM      5  C   UNL     1      -2.518 -13.609   8.695  1.00  0.00     0.011 C 
ATOM      6  C   UNL     1      -0.527 -15.107   8.207  1.00  0.00     0.011 C 
ENDROOT
BRANCH   4   7
ATOM      7  C   UNL     1      -2.361 -17.370   8.761  1.00  0.00     0.009 C 
BRANCH   7   8
ATOM      8  C   UNL     1      -3.657 -17.906   8.124  1.00  0.00     0.030 C 
BRANCH   8   9
ATOM      9  C   UNL     1      -4.802 -16.911   8.236  1.00  0.00    -0.077 C 
ATOM     10  C   UNL     1      -5.368 -16.345   6.957  1.00  0.00     0.039 C 
ATOM     11  C   UNL     1      -5.367 -16.514   9.401  1.00  0.00    -0.028 CG0
ATOM     12  G   UNL     1      -4.998 -16.972  10.793  1.00  0.00     0.000 G0
ENDBRANCH   8   9
ENDBRANCH   7   8
ENDBRANCH   4   7
BRANCH   1  13
ATOM     13  C   UNL     1      -3.052 -15.972  12.053  1.00  0.00    -0.074 C 
ATOM     14  C   UNL     1      -2.718 -15.971  13.356  1.00  0.00     0.008 C 
BRANCH  13  15
ATOM     15  C   UNL     1      -4.500 -15.791  11.661  1.00  0.00     0.035 C 
BRANCH  15  16
ATOM     16  C   UNL     1      -5.002 -16.965  10.806  1.00  0.00     0.032 CG0
ATOM     17  G   UNL     1      -5.374 -16.519   9.411  1.00  0.00     0.000 G0
ENDBRANCH  15  16
ENDBRANCH  13  15
ENDBRANCH   1  13
TORSDOF 0
ENDMDL
