MODEL 1
REMARK VINA RESULT:    -3.195      0.000      0.000
REMARK INTER + INTRA:          -4.888
REMARK INTER:                  -4.503
REMARK INTRA:                  -0.385
REMARK UNBOUND:                -0.385
REMARK SMILES CCCCCCCCC(=O)[O-]
REMARK SMILES IDX 6 1 7 2 8 3 9 4 10 5 11 6 5 7 4 8 3 9 2 10 1 11
REMARK H PARENT
REMARK Flexibility Score: inf
ROOT
ATOM      1  C   UNL     1      47.120  31.172  90.963  1.00  0.00     0.000 C 
ENDROOT
BRANCH   1   2
ATOM      2  C   UNL     1      45.593  31.293  91.101  1.00  0.00     0.006 C 
BRANCH   2   3
ATOM      3  C   UNL     1      44.964  30.082  91.802  1.00  0.00     0.053 C 
BRANCH   3   4
ATOM      4  C   UNL     1      43.834  30.518  92.680  1.00  0.00     0.041 C 
ATOM      5  O   UNL     1      43.981  31.487  93.469  1.00  0.00    -0.550 OA
ATOM      6  O   UNL     1      42.602  29.883  92.591  1.00  0.00    -0.550 OA
ENDBRANCH   3   4
ENDBRANCH   2   3
ENDBRANCH   1   2
BRANCH   1   7
ATOM      7  C   UNL     1      47.618  29.730  91.160  1.00  0.00     0.000 C 
BRANCH   7   8
ATOM      8  C   UNL     1      49.151  29.641  91.238  1.00  0.00    -0.000 C 
BRANCH   8   9
ATOM      9  C   UNL     1      49.833  31.013  91.121  1.00  0.00    -0.000 C 
BRANCH   9  10
ATOM     10  C   UNL     1      50.995  31.135  92.114  1.00  0.00    -0.003 C 
ATOM     11  C   UNL     1      50.651  32.094  93.250  1.00  0.00     0.004 C 
ENDBRANCH   9  10
ENDBRANCH   8   9
ENDBRANCH   7   8
ENDBRANCH   1   7
TORSDOF 7
ENDMDL
MODEL 2
REMARK VINA RESULT:    -3.170     13.375     14.622
REMARK INTER + INTRA:          -4.852
REMARK INTER:                  -4.492
REMARK INTRA:                  -0.360
REMARK UNBOUND:                -0.385
REMARK SMILES CCCCCCCCC(=O)[O-]
REMARK SMILES IDX 6 1 7 2 8 3 9 4 10 5 11 6 5 7 4 8 3 9 2 10 1 11
REMARK H PARENT
REMARK Flexibility Score: inf
ROOT
ATOM      1  C   UNL     1      51.980  19.729  86.164  1.00  0.00     0.000 C 
ENDROOT
BRANCH   1   2
ATOM      2  C   UNL     1      50.567  19.391  86.665  1.00  0.00     0.006 C 
BRANCH   2   3
ATOM      3  C   UNL     1      49.748  18.599  85.638  1.00  0.00     0.053 C 
BRANCH   3   4
ATOM      4  C   UNL     1      48.619  19.431  85.117  1.00  0.00     0.041 C 
ATOM      5  O   UNL     1      48.591  20.670  85.336  1.00  0.00    -0.550 OA
ATOM      6  O   UNL     1      47.622  18.845  84.349  1.00  0.00    -0.550 OA
ENDBRANCH   3   4
ENDBRANCH   2   3
ENDBRANCH   1   2
BRANCH   1   7
ATOM      7  C   UNL     1      52.487  18.731  85.108  1.00  0.00     0.000 C 
BRANCH   7   8
ATOM      8  C   UNL     1      53.999  18.477  85.213  1.00  0.00    -0.000 C 
BRANCH   8   9
ATOM      9  C   UNL     1      54.392  17.764  86.516  1.00  0.00    -0.000 C 
BRANCH   9  10
ATOM     10  C   UNL     1      55.569  16.809  86.284  1.00  0.00    -0.003 C 
ATOM     11  C   UNL     1      56.124  16.951  84.870  1.00  0.00     0.004 C 
ENDBRANCH   9  10
ENDBRANCH   8   9
ENDBRANCH   7   8
ENDBRANCH   1   7
TORSDOF 7
ENDMDL
MODEL 3
REMARK VINA RESULT:    -3.159     17.461     18.864
REMARK INTER + INTRA:          -4.836
REMARK INTER:                  -4.512
REMARK INTRA:                  -0.325
REMARK UNBOUND:                -0.385
REMARK SMILES CCCCCCCCC(=O)[O-]
REMARK SMILES IDX 6 1 7 2 8 3 9 4 10 5 11 6 5 7 4 8 3 9 2 10 1 11
REMARK H PARENT
REMARK Flexibility Score: inf
ROOT
ATOM      1  C   UNL     1      44.274  20.862  79.160  1.00  0.00     0.000 C 
ENDROOT
BRANCH   1   2
ATOM      2  C   UNL     1      44.552  20.050  77.884  1.00  0.00     0.006 C 
BRANCH   2   3
ATOM      3  C   UNL     1      45.744  19.097  78.037  1.00  0.00     0.053 C 
BRANCH   3   4
ATOM      4  C   UNL     1      45.791  18.134  76.893  1.00  0.00     0.041 C 
ATOM      5  O   UNL     1      45.598  16.905  77.091  1.00  0.00    -0.550 OA
ATOM      6  O   UNL     1      45.999  18.599  75.601  1.00  0.00    -0.550 OA
ENDBRANCH   3   4
ENDBRANCH   2   3
ENDBRANCH   1   2
BRANCH   1   7
ATOM      7  C   UNL     1      42.796  20.808  79.584  1.00  0.00     0.000 C 
BRANCH   7   8
ATOM      8  C   UNL     1      41.839  21.160  78.433  1.00  0.00    -0.000 C 
BRANCH   8   9
ATOM      9  C   UNL     1      40.446  20.534  78.605  1.00  0.00    -0.000 C 
BRANCH   9  10
ATOM     10  C   UNL     1      40.384  19.677  79.876  1.00  0.00    -0.003 C 
ATOM     11  C   UNL     1      38.968  19.637  80.444  1.00  0.00     0.004 C 
ENDBRANCH   9  10
ENDBRANCH   8   9
ENDBRANCH   7   8
ENDBRANCH   1   7
TORSDOF 7
ENDMDL
MODEL 4
REMARK VINA RESULT:    -3.155     17.345     18.766
REMARK INTER + INTRA:          -4.831
REMARK INTER:                  -4.327
REMARK INTRA:                  -0.503
REMARK UNBOUND:                -0.385
REMARK SMILES CCCCCCCCC(=O)[O-]
REMARK SMILES IDX 6 1 7 2 8 3 9 4 10 5 11 6 5 7 4 8 3 9 2 10 1 11
REMARK H PARENT
REMARK Flexibility Score: inf
ROOT
ATOM      1  C   UNL     1      44.016  20.988  79.324  1.00  0.00     0.000 C 
ENDROOT
BRANCH   1   2
ATOM      2  C   UNL     1      44.195  19.767  78.407  1.00  0.00     0.006 C 
BRANCH   2   3
ATOM      3  C   UNL     1      45.655  19.547  77.993  1.00  0.00     0.053 C 
BRANCH   3   4
ATOM      4  C   UNL     1      45.737  18.543  76.886  1.00  0.00     0.041 C 
ATOM      5  O   UNL     1      46.014  18.911  75.715  1.00  0.00    -0.550 OA
ATOM      6  O   UNL     1      45.556  17.193  77.159  1.00  0.00    -0.550 OA
ENDBRANCH   3   4
ENDBRANCH   2   3
ENDBRANCH   1   2
BRANCH   1   7
ATOM      7  C   UNL     1      42.617  21.048  79.961  1.00  0.00     0.000 C 
BRANCH   7   8
ATOM      8  C   UNL     1      41.677  19.958  79.424  1.00  0.00    -0.000 C 
BRANCH   8   9
ATOM      9  C   UNL     1      40.292  20.503  79.041  1.00  0.00    -0.000 C 
BRANCH   9  10
ATOM     10  C   UNL     1      40.419  21.728  78.128  1.00  0.00    -0.003 C 
ATOM     11  C   UNL     1      40.811  21.320  76.711  1.00  0.00     0.004 C 
ENDBRANCH   9  10
ENDBRANCH   8   9
ENDBRANCH   7   8
ENDBRANCH   1   7
TORSDOF 7
ENDMDL
MODEL 5
REMARK VINA RESULT:    -3.085     18.347     19.459
REMARK INTER + INTRA:          -4.732
REMARK INTER:                  -4.334
REMARK INTRA:                  -0.398
REMARK UNBOUND:                -0.385
REMARK SMILES CCCCCCCCC(=O)[O-]
REMARK SMILES IDX 6 1 7 2 8 3 9 4 10 5 11 6 5 7 4 8 3 9 2 10 1 11
REMARK H PARENT
REMARK Flexibility Score: inf
ROOT
ATOM      1  C   UNL     1      39.990  21.798  78.651  1.00  0.00     0.000 C 
ENDROOT
BRANCH   1   2
ATOM      2  C   UNL     1      40.359  22.371  77.273  1.00  0.00     0.006 C 
BRANCH   2   3
ATOM      3  C   UNL     1      41.074  21.349  76.380  1.00  0.00     0.053 C 
BRANCH   3   4
ATOM      4  C   UNL     1      40.528  21.402  74.988  1.00  0.00     0.041 C 
ATOM      5  O   UNL     1      40.598  22.467  74.319  1.00  0.00    -0.550 OA
ATOM      6  O   UNL     1      39.985  20.262  74.411  1.00  0.00    -0.550 OA
ENDBRANCH   3   4
ENDBRANCH   2   3
ENDBRANCH   1   2
BRANCH   1   7
ATOM      7  C   UNL     1      40.610  20.413  78.901  1.00  0.00     0.000 C 
BRANCH   7   8
ATOM      8  C   UNL     1      39.779  19.561  79.874  1.00  0.00    -0.000 C 
BRANCH   8   9
ATOM      9  C   UNL     1      38.607  20.339  80.494  1.00  0.00    -0.000 C 
BRANCH   9  10
ATOM     10  C   UNL     1      37.354  19.460  80.586  1.00  0.00    -0.003 C 
ATOM     11  C   UNL     1      37.657  18.023  80.174  1.00  0.00     0.004 C 
ENDBRANCH   9  10
ENDBRANCH   8   9
ENDBRANCH   7   8
ENDBRANCH   1   7
TORSDOF 7
ENDMDL
MODEL 6
REMARK VINA RESULT:    -3.082     17.740     19.035
REMARK INTER + INTRA:          -4.728
REMARK INTER:                  -4.475
REMARK INTRA:                  -0.253
REMARK UNBOUND:                -0.385
REMARK SMILES CCCCCCCCC(=O)[O-]
REMARK SMILES IDX 6 1 7 2 8 3 9 4 10 5 11 6 5 7 4 8 3 9 2 10 1 11
REMARK H PARENT
REMARK Flexibility Score: inf
ROOT
ATOM      1  C   UNL     1      41.010  20.369  79.110  1.00  0.00     0.000 C 
ENDROOT
BRANCH   1   2
ATOM      2  C   UNL     1      40.017  19.474  79.869  1.00  0.00     0.006 C 
BRANCH   2   3
ATOM      3  C   UNL     1      38.802  20.250  80.394  1.00  0.00     0.053 C 
BRANCH   3   4
ATOM      4  C   UNL     1      37.654  19.320  80.632  1.00  0.00     0.041 C 
ATOM      5  O   UNL     1      37.654  18.168  80.124  1.00  0.00    -0.550 OA
ATOM      6  O   UNL     1      36.606  19.709  81.456  1.00  0.00    -0.550 OA
ENDBRANCH   3   4
ENDBRANCH   2   3
ENDBRANCH   1   2
BRANCH   1   7
ATOM      7  C   UNL     1      40.370  21.064  77.896  1.00  0.00     0.000 C 
BRANCH   7   8
ATOM      8  C   UNL     1      41.412  21.530  76.866  1.00  0.00    -0.000 C 
BRANCH   8   9
ATOM      9  C   UNL     1      40.774  22.176  75.626  1.00  0.00    -0.000 C 
BRANCH   9  10
ATOM     10  C   UNL     1      41.019  21.321  74.376  1.00  0.00    -0.003 C 
ATOM     11  C   UNL     1      39.997  20.193  74.270  1.00  0.00     0.004 C 
ENDBRANCH   9  10
ENDBRANCH   8   9
ENDBRANCH   7   8
ENDBRANCH   1   7
TORSDOF 7
ENDMDL
MODEL 7
REMARK VINA RESULT:    -3.054     16.991     17.789
REMARK INTER + INTRA:          -4.688
REMARK INTER:                  -4.339
REMARK INTRA:                  -0.350
REMARK UNBOUND:                -0.385
REMARK SMILES CCCCCCCCC(=O)[O-]
REMARK SMILES IDX 6 1 7 2 8 3 9 4 10 5 11 6 5 7 4 8 3 9 2 10 1 11
REMARK H PARENT
REMARK Flexibility Score: inf
ROOT
ATOM      1  C   UNL     1      39.706  21.654  79.335  1.00  0.00     0.000 C 
ENDROOT
BRANCH   1   2
ATOM      2  C   UNL     1      39.131  20.838  80.505  1.00  0.00     0.006 C 
BRANCH   2   3
ATOM      3  C   UNL     1      39.285  19.325  80.304  1.00  0.00     0.053 C 
BRANCH   3   4
ATOM      4  C   UNL     1      37.978  18.634  80.533  1.00  0.00     0.041 C 
ATOM      5  O   UNL     1      37.785  17.475  80.079  1.00  0.00    -0.550 OA
ATOM      6  O   UNL     1      36.990  19.250  81.290  1.00  0.00    -0.550 OA
ENDBRANCH   3   4
ENDBRANCH   2   3
ENDBRANCH   1   2
BRANCH   1   7
ATOM      7  C   UNL     1      40.476  20.781  78.329  1.00  0.00     0.000 C 
BRANCH   7   8
ATOM      8  C   UNL     1      41.943  21.216  78.173  1.00  0.00    -0.000 C 
BRANCH   8   9
ATOM      9  C   UNL     1      42.919  20.287  78.911  1.00  0.00    -0.000 C 
BRANCH   9  10
ATOM     10  C   UNL     1      44.372  20.715  78.668  1.00  0.00    -0.003 C 
ATOM     11  C   UNL     1      45.227  19.533  78.221  1.00  0.00     0.004 C 
ENDBRANCH   9  10
ENDBRANCH   8   9
ENDBRANCH   7   8
ENDBRANCH   1   7
TORSDOF 7
ENDMDL
MODEL 8
REMARK VINA RESULT:    -3.035     13.707     14.966
REMARK INTER + INTRA:          -4.662
REMARK INTER:                  -4.425
REMARK INTRA:                  -0.236
REMARK UNBOUND:                -0.385
REMARK SMILES CCCCCCCCC(=O)[O-]
REMARK SMILES IDX 6 1 7 2 8 3 9 4 10 5 11 6 5 7 4 8 3 9 2 10 1 11
REMARK H PARENT
REMARK Flexibility Score: inf
ROOT
ATOM      1  C   UNL     1      52.226  19.271  85.711  1.00  0.00     0.000 C 
ENDROOT
BRANCH   1   2
ATOM      2  C   UNL     1      50.990  18.385  85.485  1.00  0.00     0.006 C 
BRANCH   2   3
ATOM      3  C   UNL     1      49.736  18.929  86.179  1.00  0.00     0.053 C 
BRANCH   3   4
ATOM      4  C   UNL     1      48.718  19.345  85.164  1.00  0.00     0.041 C 
ATOM      5  O   UNL     1      48.260  18.506  84.344  1.00  0.00    -0.550 OA
ATOM      6  O   UNL     1      48.238  20.648  85.156  1.00  0.00    -0.550 OA
ENDBRANCH   3   4
ENDBRANCH   2   3
ENDBRANCH   1   2
BRANCH   1   7
ATOM      7  C   UNL     1      53.386  18.919  84.764  1.00  0.00     0.000 C 
BRANCH   7   8
ATOM      8  C   UNL     1      54.699  18.645  85.516  1.00  0.00    -0.000 C 
BRANCH   8   9
ATOM      9  C   UNL     1      55.709  17.846  84.678  1.00  0.00    -0.000 C 
BRANCH   9  10
ATOM     10  C   UNL     1      56.125  16.560  85.402  1.00  0.00    -0.003 C 
ATOM     11  C   UNL     1      55.743  16.610  86.878  1.00  0.00     0.004 C 
ENDBRANCH   9  10
ENDBRANCH   8   9
ENDBRANCH   7   8
ENDBRANCH   1   7
TORSDOF 7
ENDMDL
MODEL 9
REMARK VINA RESULT:    -3.007      3.288      5.811
REMARK INTER + INTRA:          -4.622
REMARK INTER:                  -4.322
REMARK INTRA:                  -0.300
REMARK UNBOUND:                -0.385
REMARK SMILES CCCCCCCCC(=O)[O-]
REMARK SMILES IDX 6 1 7 2 8 3 9 4 10 5 11 6 5 7 4 8 3 9 2 10 1 11
REMARK H PARENT
REMARK Flexibility Score: inf
ROOT
ATOM      1  C   UNL     1      48.283  29.566  91.093  1.00  0.00     0.000 C 
ENDROOT
BRANCH   1   2
ATOM      2  C   UNL     1      49.094  30.856  91.292  1.00  0.00     0.006 C 
BRANCH   2   3
ATOM      3  C   UNL     1      50.539  30.586  91.731  1.00  0.00     0.053 C 
BRANCH   3   4
ATOM      4  C   UNL     1      51.113  31.792  92.404  1.00  0.00     0.041 C 
ATOM      5  O   UNL     1      52.140  32.351  91.936  1.00  0.00    -0.550 OA
ATOM      6  O   UNL     1      50.486  32.329  93.521  1.00  0.00    -0.550 OA
ENDBRANCH   3   4
ENDBRANCH   2   3
ENDBRANCH   1   2
BRANCH   1   7
ATOM      7  C   UNL     1      46.897  29.828  90.478  1.00  0.00     0.000 C 
BRANCH   7   8
ATOM      8  C   UNL     1      46.339  31.211  90.851  1.00  0.00    -0.000 C 
BRANCH   8   9
ATOM      9  C   UNL     1      44.816  31.200  91.061  1.00  0.00    -0.000 C 
BRANCH   9  10
ATOM     10  C   UNL     1      44.463  31.514  92.520  1.00  0.00    -0.003 C 
ATOM     11  C   UNL     1      43.761  30.332  93.183  1.00  0.00     0.004 C 
ENDBRANCH   9  10
ENDBRANCH   8   9
ENDBRANCH   7   8
ENDBRANCH   1   7
TORSDOF 7
ENDMDL
