MODEL 1
REMARK VINA RESULT:    -3.801      0.000      0.000
REMARK INTER + INTRA:          -6.372
REMARK INTER:                  -5.246
REMARK INTRA:                  -1.126
REMARK UNBOUND:                -1.126
REMARK SMILES C=C(CC[C@@H](C(=O)[O-])[C@H]1CC[C@@]2(C)C3=C(CC[C@]12C)[C@]1(C)CC[C@@H](O)C(C)(C)[C@H]1CC3)C(C)C
REMARK SMILES IDX 4 1 5 2 6 3 7 4 8 5 9 6 10 7 18 8 11 9 12 10 17 11 19 12
REMARK SMILES IDX 13 13 14 14 16 15 15 16 31 17 20 18 30 19 29 20 22 21 21 22
REMARK SMILES IDX 26 23 23 24 24 25 27 26 28 27 25 28 3 30 2 31 1 32 32 33
REMARK SMILES IDX 33 34 34 35
REMARK H PARENT 25 29
REMARK Flexibility Score: inf
ROOT
ATOM      1  C   UNL     1      33.053   8.423 107.691  1.00  0.00     0.014 C 
ENDROOT
BRANCH   1   2
ATOM      2  C   UNL     1      33.336   9.182 106.367  1.00  0.00     0.039 C 
BRANCH   2   3
ATOM      3  C   UNL     1      32.032   9.395 105.641  1.00  0.00     0.045 C 
ATOM      4  O   UNL     1      31.227   8.439 105.485  1.00  0.00    -0.550 OA
ATOM      5  O   UNL     1      31.696  10.654 105.159  1.00  0.00    -0.550 OA
ENDBRANCH   2   3
BRANCH   2   6
ATOM      6  C   UNL     1      34.064  10.542 106.626  1.00  0.00     0.004 C 
ATOM      7  C   UNL     1      34.375  10.769 108.131  1.00  0.00     0.006 C 
ATOM      8  C   UNL     1      35.449  10.761 105.939  1.00  0.00    -0.020 C 
ATOM      9  C   UNL     1      35.755  11.441 108.226  1.00  0.00     0.012 C 
ATOM     10  C   UNL     1      36.067  11.904 106.793  1.00  0.00    -0.006 C 
ATOM     11  C   UNL     1      35.411  11.239 104.474  1.00  0.00     0.012 C 
ATOM     12  C   UNL     1      36.294   9.439 106.010  1.00  0.00     0.012 C 
ATOM     13  C   UNL     1      35.397  13.305 106.606  1.00  0.00     0.017 C 
ATOM     14  C   UNL     1      37.526  12.095 106.411  1.00  0.00    -0.064 C 
ATOM     15  C   UNL     1      36.795  11.770 103.996  1.00  0.00     0.032 C 
ATOM     16  C   UNL     1      37.862  12.084 105.077  1.00  0.00    -0.064 C 
ATOM     17  C   UNL     1      38.558  12.224 107.522  1.00  0.00     0.032 C 
ATOM     18  C   UNL     1      39.262  12.558 104.623  1.00  0.00    -0.008 C 
ATOM     19  C   UNL     1      39.922  12.755 107.077  1.00  0.00     0.009 C 
ATOM     20  C   UNL     1      40.313  12.143 105.717  1.00  0.00     0.007 C 
ATOM     21  C   UNL     1      39.664  11.888 103.278  1.00  0.00     0.014 C 
ATOM     22  C   UNL     1      39.123  14.090 104.410  1.00  0.00     0.016 C 
ATOM     23  C   UNL     1      41.849  12.272 105.344  1.00  0.00    -0.006 C 
ATOM     24  C   UNL     1      41.114  12.168 102.875  1.00  0.00     0.033 C 
ATOM     25  C   UNL     1      42.093  11.644 103.935  1.00  0.00     0.120 C 
ATOM     26  C   UNL     1      42.688  11.444 106.359  1.00  0.00     0.014 C 
ATOM     27  C   UNL     1      42.389  13.727 105.403  1.00  0.00     0.014 C 
BRANCH  25  28
ATOM     28  O   UNL     1      43.412  11.878 103.513  1.00  0.00    -0.393 OA
ATOM     29  H   UNL     1      43.372  12.574 102.806  1.00  0.00     0.210 HD
ENDBRANCH  25  28
ENDBRANCH   2   6
ENDBRANCH   1   2
BRANCH   1  30
ATOM     30  C   UNL     1      33.479   6.940 107.650  1.00  0.00     0.031 C 
BRANCH  30  31
ATOM     31  C   UNL     1      32.350   5.967 107.970  1.00  0.00    -0.075 C 
ATOM     32  C   UNL     1      31.429   6.300 108.892  1.00  0.00     0.008 C 
BRANCH  31  33
ATOM     33  C   UNL     1      32.153   4.692 107.152  1.00  0.00     0.008 C 
ATOM     34  C   UNL     1      31.542   5.008 105.783  1.00  0.00     0.012 C 
ATOM     35  C   UNL     1      33.453   3.899 107.000  1.00  0.00     0.012 C 
ENDBRANCH  31  33
ENDBRANCH  30  31
ENDBRANCH   1  30
TORSDOF 7
ENDMDL
MODEL 2
REMARK VINA RESULT:    -2.329      2.052      9.213
REMARK INTER + INTRA:          -4.340
REMARK INTER:                  -3.280
REMARK INTRA:                  -1.060
REMARK UNBOUND:                -1.126
REMARK SMILES C=C(CC[C@@H](C(=O)[O-])[C@H]1CC[C@@]2(C)C3=C(CC[C@]12C)[C@]1(C)CC[C@@H](O)C(C)(C)[C@H]1CC3)C(C)C
REMARK SMILES IDX 4 1 5 2 6 3 7 4 8 5 9 6 10 7 18 8 11 9 12 10 17 11 19 12
REMARK SMILES IDX 13 13 14 14 16 15 15 16 31 17 20 18 30 19 29 20 22 21 21 22
REMARK SMILES IDX 26 23 23 24 24 25 27 26 28 27 25 28 3 30 2 31 1 32 32 33
REMARK SMILES IDX 33 34 34 35
REMARK H PARENT 25 29
REMARK Flexibility Score: inf
ROOT
ATOM      1  C   UNL     1      38.735  13.235 104.090  1.00  0.00     0.014 C 
ENDROOT
BRANCH   1   2
ATOM      2  C   UNL     1      38.342  12.190 105.169  1.00  0.00     0.039 C 
BRANCH   2   3
ATOM      3  C   UNL     1      39.216  12.390 106.380  1.00  0.00     0.045 C 
ATOM      4  O   UNL     1      38.955  13.300 107.210  1.00  0.00    -0.550 OA
ATOM      5  O   UNL     1      40.302  11.553 106.605  1.00  0.00    -0.550 OA
ENDBRANCH   2   3
BRANCH   2   6
ATOM      6  C   UNL     1      36.827  12.291 105.544  1.00  0.00     0.004 C 
ATOM      7  C   UNL     1      35.940  12.681 104.329  1.00  0.00     0.006 C 
ATOM      8  C   UNL     1      36.132  11.005 106.094  1.00  0.00    -0.020 C 
ATOM      9  C   UNL     1      34.631  11.882 104.433  1.00  0.00     0.012 C 
ATOM     10  C   UNL     1      34.627  11.316 105.862  1.00  0.00    -0.006 C 
ATOM     11  C   UNL     1      36.326  10.720 107.597  1.00  0.00     0.012 C 
ATOM     12  C   UNL     1      36.615   9.750 105.283  1.00  0.00     0.012 C 
ATOM     13  C   UNL     1      34.028  12.420 106.794  1.00  0.00     0.017 C 
ATOM     14  C   UNL     1      33.801  10.066 106.127  1.00  0.00    -0.064 C 
ATOM     15  C   UNL     1      35.325   9.649 108.122  1.00  0.00     0.032 C 
ATOM     16  C   UNL     1      34.102   9.305 107.233  1.00  0.00    -0.064 C 
ATOM     17  C   UNL     1      32.725   9.679 105.125  1.00  0.00     0.032 C 
ATOM     18  C   UNL     1      33.125   8.204 107.708  1.00  0.00    -0.008 C 
ATOM     19  C   UNL     1      31.723   8.636 105.623  1.00  0.00     0.009 C 
ATOM     20  C   UNL     1      32.449   7.552 106.446  1.00  0.00     0.007 C 
ATOM     21  C   UNL     1      33.882   7.091 108.487  1.00  0.00     0.014 C 
ATOM     22  C   UNL     1      32.140   8.922 108.670  1.00  0.00     0.016 C 
ATOM     23  C   UNL     1      31.623   6.216 106.664  1.00  0.00    -0.006 C 
ATOM     24  C   UNL     1      33.003   5.881 108.816  1.00  0.00     0.033 C 
ATOM     25  C   UNL     1      32.461   5.229 107.537  1.00  0.00     0.120 C 
ATOM     26  C   UNL     1      31.402   5.526 105.288  1.00  0.00     0.014 C 
ATOM     27  C   UNL     1      30.215   6.442 107.280  1.00  0.00     0.014 C 
BRANCH  25  28
ATOM     28  O   UNL     1      31.697   4.098 107.874  1.00  0.00    -0.393 OA
ATOM     29  H   UNL     1      31.105   3.907 107.100  1.00  0.00     0.210 HD
ENDBRANCH  25  28
ENDBRANCH   2   6
ENDBRANCH   1   2
BRANCH   1  30
ATOM     30  C   UNL     1      39.461  12.619 102.875  1.00  0.00     0.031 C 
BRANCH  30  31
ATOM     31  C   UNL     1      40.906  12.226 103.157  1.00  0.00    -0.075 C 
ATOM     32  C   UNL     1      41.231  10.924 103.260  1.00  0.00     0.008 C 
BRANCH  31  33
ATOM     33  C   UNL     1      42.019  13.271 103.167  1.00  0.00     0.008 C 
ATOM     34  C   UNL     1      42.019  14.060 104.481  1.00  0.00     0.012 C 
ATOM     35  C   UNL     1      43.393  12.651 102.902  1.00  0.00     0.012 C 
ENDBRANCH  31  33
ENDBRANCH  30  31
ENDBRANCH   1  30
TORSDOF 7
ENDMDL
MODEL 3
REMARK VINA RESULT:    -1.362      2.122      8.813
REMARK INTER + INTRA:          -3.005
REMARK INTER:                  -3.575
REMARK INTRA:                   0.570
REMARK UNBOUND:                -1.126
REMARK SMILES C=C(CC[C@@H](C(=O)[O-])[C@H]1CC[C@@]2(C)C3=C(CC[C@]12C)[C@]1(C)CC[C@@H](O)C(C)(C)[C@H]1CC3)C(C)C
REMARK SMILES IDX 4 1 5 2 6 3 7 4 8 5 9 6 10 7 18 8 11 9 12 10 17 11 19 12
REMARK SMILES IDX 13 13 14 14 16 15 15 16 31 17 20 18 30 19 29 20 22 21 21 22
REMARK SMILES IDX 26 23 23 24 24 25 27 26 28 27 25 28 3 30 2 31 1 32 32 33
REMARK SMILES IDX 33 34 34 35
REMARK H PARENT 25 29
REMARK Flexibility Score: inf
ROOT
ATOM      1  C   UNL     1      38.865  11.163 105.677  1.00  0.00     0.014 C 
ENDROOT
BRANCH   1   2
ATOM      2  C   UNL     1      38.153  12.392 105.050  1.00  0.00     0.039 C 
BRANCH   2   3
ATOM      3  C   UNL     1      38.323  12.341 103.554  1.00  0.00     0.045 C 
ATOM      4  O   UNL     1      38.346  13.404 102.879  1.00  0.00    -0.550 OA
ATOM      5  O   UNL     1      38.485  11.121 102.908  1.00  0.00    -0.550 OA
ENDBRANCH   2   3
BRANCH   2   6
ATOM      6  C   UNL     1      36.640  12.445 105.443  1.00  0.00     0.004 C 
ATOM      7  C   UNL     1      35.728  12.810 104.239  1.00  0.00     0.006 C 
ATOM      8  C   UNL     1      35.991  11.138 105.998  1.00  0.00    -0.020 C 
ATOM      9  C   UNL     1      34.445  11.971 104.356  1.00  0.00     0.012 C 
ATOM     10  C   UNL     1      34.475  11.402 105.784  1.00  0.00    -0.006 C 
ATOM     11  C   UNL     1      36.211  10.856 107.498  1.00  0.00     0.012 C 
ATOM     12  C   UNL     1      36.504   9.900 105.179  1.00  0.00     0.012 C 
ATOM     13  C   UNL     1      33.853  12.485 106.725  1.00  0.00     0.017 C 
ATOM     14  C   UNL     1      33.691  10.127 106.056  1.00  0.00    -0.064 C 
ATOM     15  C   UNL     1      35.250   9.753 108.032  1.00  0.00     0.032 C 
ATOM     16  C   UNL     1      34.027   9.373 107.156  1.00  0.00    -0.064 C 
ATOM     17  C   UNL     1      32.615   9.709 105.065  1.00  0.00     0.032 C 
ATOM     18  C   UNL     1      33.091   8.242 107.640  1.00  0.00    -0.008 C 
ATOM     19  C   UNL     1      31.652   8.635 105.572  1.00  0.00     0.009 C 
ATOM     20  C   UNL     1      32.420   7.572 106.385  1.00  0.00     0.007 C 
ATOM     21  C   UNL     1      33.890   7.151 108.408  1.00  0.00     0.014 C 
ATOM     22  C   UNL     1      32.095   8.927 108.615  1.00  0.00     0.016 C 
ATOM     23  C   UNL     1      31.638   6.211 106.609  1.00  0.00    -0.006 C 
ATOM     24  C   UNL     1      33.053   5.915 108.744  1.00  0.00     0.033 C 
ATOM     25  C   UNL     1      32.516   5.248 107.470  1.00  0.00     0.120 C 
ATOM     26  C   UNL     1      31.423   5.517 105.234  1.00  0.00     0.014 C 
ATOM     27  C   UNL     1      30.231   6.392 107.242  1.00  0.00     0.014 C 
BRANCH  25  28
ATOM     28  O   UNL     1      31.791   4.094 107.813  1.00  0.00    -0.393 OA
ATOM     29  H   UNL     1      31.130   3.940 107.088  1.00  0.00     0.210 HD
ENDBRANCH  25  28
ENDBRANCH   2   6
ENDBRANCH   1   2
BRANCH   1  30
ATOM     30  C   UNL     1      39.993  11.543 106.659  1.00  0.00     0.031 C 
BRANCH  30  31
ATOM     31  C   UNL     1      41.384  11.140 106.182  1.00  0.00    -0.075 C 
ATOM     32  C   UNL     1      41.848  11.618 105.013  1.00  0.00     0.008 C 
BRANCH  31  33
ATOM     33  C   UNL     1      42.321  10.334 107.078  1.00  0.00     0.008 C 
ATOM     34  C   UNL     1      43.770  10.433 106.586  1.00  0.00     0.012 C 
ATOM     35  C   UNL     1      42.214  10.751 108.547  1.00  0.00     0.012 C 
ENDBRANCH  31  33
ENDBRANCH  30  31
ENDBRANCH   1  30
TORSDOF 7
ENDMDL
