MODEL 1
REMARK VINA RESULT:    -4.521      0.000      0.000
REMARK INTER + INTRA:          -4.801
REMARK INTER:                  -4.785
REMARK INTRA:                  -0.016
REMARK UNBOUND:                -0.016
REMARK SMILES O=C([O-])c1cccnc1
REMARK SMILES IDX 4 1 5 2 9 3 6 4 8 5 7 6 2 7 1 8 3 9
REMARK H PARENT
REMARK Flexibility Score: inf
ROOT
ATOM      1  C   UNL     1      11.350  21.992  -8.462  1.00  0.00     0.016 A 
ATOM      2  C   UNL     1      10.801  22.445  -9.673  1.00  0.00     0.013 A 
ATOM      3  C   UNL     1      12.286  22.811  -7.805  1.00  0.00     0.120 A 
ATOM      4  C   UNL     1      11.185  23.680 -10.198  1.00  0.00     0.021 A 
ATOM      5  N   UNL     1      12.643  24.010  -8.340  1.00  0.00    -0.264 NA
ATOM      6  C   UNL     1      12.116  24.457  -9.510  1.00  0.00     0.111 A 
ENDROOT
BRANCH   1   7
ATOM      7  C   UNL     1      10.952  20.686  -7.895  1.00  0.00     0.073 C 
ATOM      8  O   UNL     1       9.956  20.597  -7.130  1.00  0.00    -0.545 OA
ATOM      9  O   UNL     1      11.674  19.537  -8.199  1.00  0.00    -0.545 OA
ENDBRANCH   1   7
TORSDOF 1
ENDMDL
MODEL 2
REMARK VINA RESULT:    -4.430      0.920      1.933
REMARK INTER + INTRA:          -4.705
REMARK INTER:                  -4.689
REMARK INTRA:                  -0.016
REMARK UNBOUND:                -0.016
REMARK SMILES O=C([O-])c1cccnc1
REMARK SMILES IDX 4 1 5 2 9 3 6 4 8 5 7 6 2 7 1 8 3 9
REMARK H PARENT
REMARK Flexibility Score: inf
ROOT
ATOM      1  C   UNL     1      11.412  21.844  -8.484  1.00  0.00     0.016 A 
ATOM      2  C   UNL     1      12.349  22.643  -7.809  1.00  0.00     0.013 A 
ATOM      3  C   UNL     1      10.800  22.361  -9.640  1.00  0.00     0.120 A 
ATOM      4  C   UNL     1      12.655  23.918  -8.288  1.00  0.00     0.021 A 
ATOM      5  N   UNL     1      11.117  23.607 -10.084  1.00  0.00    -0.264 NA
ATOM      6  C   UNL     1      12.023  24.388  -9.439  1.00  0.00     0.111 A 
ENDROOT
BRANCH   1   7
ATOM      7  C   UNL     1      11.079  20.491  -7.987  1.00  0.00     0.073 C 
ATOM      8  O   UNL     1      11.853  19.521  -8.202  1.00  0.00    -0.545 OA
ATOM      9  O   UNL     1       9.905  20.272  -7.275  1.00  0.00    -0.545 OA
ENDBRANCH   1   7
TORSDOF 1
ENDMDL
MODEL 3
REMARK VINA RESULT:    -4.411      3.652      4.143
REMARK INTER + INTRA:          -4.685
REMARK INTER:                  -4.669
REMARK INTRA:                  -0.016
REMARK UNBOUND:                -0.016
REMARK SMILES O=C([O-])c1cccnc1
REMARK SMILES IDX 4 1 5 2 9 3 6 4 8 5 7 6 2 7 1 8 3 9
REMARK H PARENT
REMARK Flexibility Score: inf
ROOT
ATOM      1  C   UNL     1       8.613  22.758  -9.460  1.00  0.00     0.016 A 
ATOM      2  C   UNL     1       7.640  22.151 -10.270  1.00  0.00     0.013 A 
ATOM      3  C   UNL     1       8.253  23.903  -8.727  1.00  0.00     0.120 A 
ATOM      4  C   UNL     1       6.351  22.684 -10.336  1.00  0.00     0.021 A 
ATOM      5  N   UNL     1       6.990  24.401  -8.809  1.00  0.00    -0.264 NA
ATOM      6  C   UNL     1       6.041  23.821  -9.590  1.00  0.00     0.111 A 
ENDROOT
BRANCH   1   7
ATOM      7  C   UNL     1       9.981  22.204  -9.382  1.00  0.00     0.073 C 
ATOM      8  O   UNL     1      10.245  21.257  -8.595  1.00  0.00    -0.545 OA
ATOM      9  O   UNL     1      10.997  22.722 -10.177  1.00  0.00    -0.545 OA
ENDBRANCH   1   7
TORSDOF 1
ENDMDL
MODEL 4
REMARK VINA RESULT:    -4.396      6.124      6.752
REMARK INTER + INTRA:          -4.669
REMARK INTER:                  -4.653
REMARK INTRA:                  -0.016
REMARK UNBOUND:                -0.016
REMARK SMILES O=C([O-])c1cccnc1
REMARK SMILES IDX 4 1 5 2 9 3 6 4 8 5 7 6 2 7 1 8 3 9
REMARK H PARENT
REMARK Flexibility Score: inf
ROOT
ATOM      1  C   UNL     1       5.911  23.556  -6.996  1.00  0.00     0.016 A 
ATOM      2  C   UNL     1       6.333  23.608  -8.334  1.00  0.00     0.013 A 
ATOM      3  C   UNL     1       4.640  23.022  -6.716  1.00  0.00     0.120 A 
ATOM      4  C   UNL     1       5.499  23.138  -9.350  1.00  0.00     0.021 A 
ATOM      5  N   UNL     1       3.848  22.571  -7.726  1.00  0.00    -0.264 NA
ATOM      6  C   UNL     1       4.247  22.617  -9.023  1.00  0.00     0.111 A 
ENDROOT
BRANCH   1   7
ATOM      7  C   UNL     1       6.784  24.050  -5.910  1.00  0.00     0.073 C 
ATOM      8  O   UNL     1       7.617  23.284  -5.358  1.00  0.00    -0.545 OA
ATOM      9  O   UNL     1       6.697  25.371  -5.482  1.00  0.00    -0.545 OA
ENDBRANCH   1   7
TORSDOF 1
ENDMDL
MODEL 5
REMARK VINA RESULT:    -4.336      2.324      2.842
REMARK INTER + INTRA:          -4.606
REMARK INTER:                  -4.589
REMARK INTRA:                  -0.017
REMARK UNBOUND:                -0.016
REMARK SMILES O=C([O-])c1cccnc1
REMARK SMILES IDX 4 1 5 2 9 3 6 4 8 5 7 6 2 7 1 8 3 9
REMARK H PARENT
REMARK Flexibility Score: inf
ROOT
ATOM      1  C   UNL     1      12.743  22.973  -7.940  1.00  0.00     0.016 A 
ATOM      2  C   UNL     1      12.814  24.236  -8.550  1.00  0.00     0.013 A 
ATOM      3  C   UNL     1      11.833  22.032  -8.454  1.00  0.00     0.120 A 
ATOM      4  C   UNL     1      11.993  24.535  -9.640  1.00  0.00     0.021 A 
ATOM      5  N   UNL     1      11.045  22.349  -9.517  1.00  0.00    -0.264 NA
ATOM      6  C   UNL     1      11.106  23.568 -10.114  1.00  0.00     0.111 A 
ENDROOT
BRANCH   1   7
ATOM      7  C   UNL     1      13.607  22.645  -6.786  1.00  0.00     0.073 C 
ATOM      8  O   UNL     1      13.109  22.469  -5.642  1.00  0.00    -0.545 OA
ATOM      9  O   UNL     1      14.983  22.524  -6.948  1.00  0.00    -0.545 OA
ENDBRANCH   1   7
TORSDOF 1
ENDMDL
MODEL 6
REMARK VINA RESULT:    -4.315      2.225      2.643
REMARK INTER + INTRA:          -4.583
REMARK INTER:                  -4.567
REMARK INTRA:                  -0.016
REMARK UNBOUND:                -0.016
REMARK SMILES O=C([O-])c1cccnc1
REMARK SMILES IDX 4 1 5 2 9 3 6 4 8 5 7 6 2 7 1 8 3 9
REMARK H PARENT
REMARK Flexibility Score: inf
ROOT
ATOM      1  C   UNL     1      10.523  21.659  -8.164  1.00  0.00     0.016 A 
ATOM      2  C   UNL     1      10.028  22.156  -9.380  1.00  0.00     0.013 A 
ATOM      3  C   UNL     1       9.841  21.989  -6.979  1.00  0.00     0.120 A 
ATOM      4  C   UNL     1       8.885  22.958  -9.396  1.00  0.00     0.021 A 
ATOM      5  N   UNL     1       8.730  22.773  -7.023  1.00  0.00    -0.264 NA
ATOM      6  C   UNL     1       8.243  23.259  -8.195  1.00  0.00     0.111 A 
ENDROOT
BRANCH   1   7
ATOM      7  C   UNL     1      11.732  20.808  -8.134  1.00  0.00     0.073 C 
ATOM      8  O   UNL     1      12.879  21.326  -8.082  1.00  0.00    -0.545 OA
ATOM      9  O   UNL     1      11.618  19.422  -8.161  1.00  0.00    -0.545 OA
ENDBRANCH   1   7
TORSDOF 1
ENDMDL
MODEL 7
REMARK VINA RESULT:    -4.287      3.602      3.886
REMARK INTER + INTRA:          -4.553
REMARK INTER:                  -4.537
REMARK INTRA:                  -0.016
REMARK UNBOUND:                -0.016
REMARK SMILES O=C([O-])c1cccnc1
REMARK SMILES IDX 4 1 5 2 9 3 6 4 8 5 7 6 2 7 1 8 3 9
REMARK H PARENT
REMARK Flexibility Score: inf
ROOT
ATOM      1  C   UNL     1       9.066  22.482  -6.951  1.00  0.00     0.016 A 
ATOM      2  C   UNL     1       8.605  23.133  -8.107  1.00  0.00     0.013 A 
ATOM      3  C   UNL     1       8.348  22.657  -5.754  1.00  0.00     0.120 A 
ATOM      4  C   UNL     1       7.461  23.931  -8.052  1.00  0.00     0.021 A 
ATOM      5  N   UNL     1       7.237  23.441  -5.729  1.00  0.00    -0.264 NA
ATOM      6  C   UNL     1       6.783  24.075  -6.841  1.00  0.00     0.111 A 
ENDROOT
BRANCH   1   7
ATOM      7  C   UNL     1      10.276  21.633  -6.995  1.00  0.00     0.073 C 
ATOM      8  O   UNL     1      11.391  22.088  -6.630  1.00  0.00    -0.545 OA
ATOM      9  O   UNL     1      10.197  20.319  -7.442  1.00  0.00    -0.545 OA
ENDBRANCH   1   7
TORSDOF 1
ENDMDL
MODEL 8
REMARK VINA RESULT:    -4.237      3.507      3.810
REMARK INTER + INTRA:          -4.500
REMARK INTER:                  -4.478
REMARK INTRA:                  -0.023
REMARK UNBOUND:                -0.016
REMARK SMILES O=C([O-])c1cccnc1
REMARK SMILES IDX 4 1 5 2 9 3 6 4 8 5 7 6 2 7 1 8 3 9
REMARK H PARENT
REMARK Flexibility Score: inf
ROOT
ATOM      1  C   UNL     1       9.231  22.760  -8.125  1.00  0.00     0.016 A 
ATOM      2  C   UNL     1       8.272  23.609  -8.701  1.00  0.00     0.013 A 
ATOM      3  C   UNL     1       9.099  22.427  -6.765  1.00  0.00     0.120 A 
ATOM      4  C   UNL     1       7.220  24.103  -7.928  1.00  0.00     0.021 A 
ATOM      5  N   UNL     1       8.063  22.922  -6.035  1.00  0.00    -0.264 NA
ATOM      6  C   UNL     1       7.131  23.744  -6.583  1.00  0.00     0.111 A 
ENDROOT
BRANCH   1   7
ATOM      7  C   UNL     1      10.351  22.230  -8.933  1.00  0.00     0.073 C 
ATOM      8  O   UNL     1      11.000  21.223  -8.545  1.00  0.00    -0.545 OA
ATOM      9  O   UNL     1      10.701  22.837 -10.134  1.00  0.00    -0.545 OA
ENDBRANCH   1   7
TORSDOF 1
ENDMDL
MODEL 9
REMARK VINA RESULT:    -4.199      2.928      3.709
REMARK INTER + INTRA:          -4.460
REMARK INTER:                  -4.442
REMARK INTRA:                  -0.019
REMARK UNBOUND:                -0.016
REMARK SMILES O=C([O-])c1cccnc1
REMARK SMILES IDX 4 1 5 2 9 3 6 4 8 5 7 6 2 7 1 8 3 9
REMARK H PARENT
REMARK Flexibility Score: inf
ROOT
ATOM      1  C   UNL     1      11.872  22.692  -8.457  1.00  0.00     0.016 A 
ATOM      2  C   UNL     1      10.471  22.625  -8.389  1.00  0.00     0.013 A 
ATOM      3  C   UNL     1      12.608  21.509  -8.263  1.00  0.00     0.120 A 
ATOM      4  C   UNL     1       9.839  21.407  -8.133  1.00  0.00     0.021 A 
ATOM      5  N   UNL     1      11.966  20.335  -8.015  1.00  0.00    -0.264 NA
ATOM      6  C   UNL     1      10.612  20.261  -7.947  1.00  0.00     0.111 A 
ENDROOT
BRANCH   1   7
ATOM      7  C   UNL     1      12.554  23.976  -8.727  1.00  0.00     0.073 C 
ATOM      8  O   UNL     1      13.473  24.385  -7.970  1.00  0.00    -0.545 OA
ATOM      9  O   UNL     1      12.188  24.750  -9.822  1.00  0.00    -0.545 OA
ENDBRANCH   1   7
TORSDOF 1
ENDMDL
