MODEL 1
REMARK VINA RESULT:    -4.366      0.000      0.000
REMARK INTER + INTRA:         -12.930
REMARK INTER:                  -9.470
REMARK INTRA:                  -3.460
REMARK UNBOUND:                -3.460
REMARK SMILES CCCCCCCCCCCCCCCCCCCCCC(=O)[O-]
REMARK SMILES IDX 12 1 11 2 10 3 9 4 8 5 7 6 6 7 5 8 4 9 3 10 2 11 1 12 13 13
REMARK SMILES IDX 14 14 15 15 16 16 17 17 18 18 19 19 20 20 21 21 22 22 23 23
REMARK SMILES IDX 24 24
REMARK H PARENT
REMARK Flexibility Score: inf
ROOT
ATOM      1  C   UNL     1      41.194  21.606 222.607  1.00  0.00     0.000 C 
ENDROOT
BRANCH   1   2
ATOM      2  C   UNL     1      40.455  22.750 223.325  1.00  0.00     0.000 C 
BRANCH   2   3
ATOM      3  C   UNL     1      41.354  23.898 223.815  1.00  0.00     0.000 C 
BRANCH   3   4
ATOM      4  C   UNL     1      41.743  23.768 225.299  1.00  0.00    -0.000 C 
BRANCH   4   5
ATOM      5  C   UNL     1      40.714  24.450 226.228  1.00  0.00    -0.000 C 
BRANCH   5   6
ATOM      6  C   UNL     1      40.695  25.982 226.093  1.00  0.00    -0.000 C 
BRANCH   6   7
ATOM      7  C   UNL     1      39.270  26.551 225.982  1.00  0.00    -0.000 C 
BRANCH   7   8
ATOM      8  C   UNL     1      38.208  25.449 225.832  1.00  0.00    -0.000 C 
BRANCH   8   9
ATOM      9  C   UNL     1      37.496  25.488 224.468  1.00  0.00    -0.000 C 
BRANCH   9  10
ATOM     10  C   UNL     1      36.107  24.816 224.517  1.00  0.00    -0.000 C 
BRANCH  10  11
ATOM     11  C   UNL     1      35.759  24.018 223.250  1.00  0.00    -0.003 C 
ATOM     12  C   UNL     1      36.981  23.683 222.397  1.00  0.00     0.004 C 
ENDBRANCH  10  11
ENDBRANCH   9  10
ENDBRANCH   8   9
ENDBRANCH   7   8
ENDBRANCH   6   7
ENDBRANCH   5   6
ENDBRANCH   4   5
ENDBRANCH   3   4
ENDBRANCH   2   3
ENDBRANCH   1   2
BRANCH   1  13
ATOM     13  C   UNL     1      42.447  21.135 223.366  1.00  0.00     0.000 C 
BRANCH  13  14
ATOM     14  C   UNL     1      42.177  19.881 224.215  1.00  0.00     0.000 C 
BRANCH  14  15
ATOM     15  C   UNL     1      40.807  19.249 223.908  1.00  0.00     0.000 C 
BRANCH  15  16
ATOM     16  C   UNL     1      39.863  19.275 225.123  1.00  0.00     0.000 C 
BRANCH  16  17
ATOM     17  C   UNL     1      40.250  20.369 226.133  1.00  0.00     0.000 C 
BRANCH  17  18
ATOM     18  C   UNL     1      39.028  21.093 226.721  1.00  0.00     0.000 C 
BRANCH  18  19
ATOM     19  C   UNL     1      38.168  21.777 225.649  1.00  0.00     0.000 C 
BRANCH  19  20
ATOM     20  C   UNL     1      36.787  21.115 225.550  1.00  0.00     0.006 C 
BRANCH  20  21
ATOM     21  C   UNL     1      36.418  20.409 226.859  1.00  0.00     0.053 C 
BRANCH  21  22
ATOM     22  C   UNL     1      35.906  19.030 226.584  1.00  0.00     0.041 C 
ATOM     23  O   UNL     1      35.378  18.760 225.474  1.00  0.00    -0.550 OA
ATOM     24  O   UNL     1      35.971  18.054 227.571  1.00  0.00    -0.550 OA
ENDBRANCH  21  22
ENDBRANCH  20  21
ENDBRANCH  19  20
ENDBRANCH  18  19
ENDBRANCH  17  18
ENDBRANCH  16  17
ENDBRANCH  15  16
ENDBRANCH  14  15
ENDBRANCH  13  14
ENDBRANCH   1  13
TORSDOF 20
ENDMDL
MODEL 2
REMARK VINA RESULT:    -4.319      2.244      5.538
REMARK INTER + INTRA:         -12.828
REMARK INTER:                  -9.214
REMARK INTRA:                  -3.614
REMARK UNBOUND:                -3.460
REMARK SMILES CCCCCCCCCCCCCCCCCCCCCC(=O)[O-]
REMARK SMILES IDX 12 1 11 2 10 3 9 4 8 5 7 6 6 7 5 8 4 9 3 10 2 11 1 12 13 13
REMARK SMILES IDX 14 14 15 15 16 16 17 17 18 18 19 19 20 20 21 21 22 22 23 23
REMARK SMILES IDX 24 24
REMARK H PARENT
REMARK Flexibility Score: inf
ROOT
ATOM      1  C   UNL     1      41.734  20.912 223.417  1.00  0.00     0.000 C 
ENDROOT
BRANCH   1   2
ATOM      2  C   UNL     1      40.908  19.616 223.505  1.00  0.00     0.000 C 
BRANCH   2   3
ATOM      3  C   UNL     1      40.517  19.190 224.931  1.00  0.00     0.000 C 
BRANCH   3   4
ATOM      4  C   UNL     1      40.189  20.382 225.848  1.00  0.00    -0.000 C 
BRANCH   4   5
ATOM      5  C   UNL     1      38.831  21.028 225.491  1.00  0.00    -0.000 C 
BRANCH   5   6
ATOM      6  C   UNL     1      38.022  21.464 226.724  1.00  0.00    -0.000 C 
BRANCH   6   7
ATOM      7  C   UNL     1      36.543  21.049 226.643  1.00  0.00    -0.000 C 
BRANCH   7   8
ATOM      8  C   UNL     1      36.350  19.710 225.913  1.00  0.00    -0.000 C 
BRANCH   8   9
ATOM      9  C   UNL     1      36.232  18.516 226.877  1.00  0.00    -0.000 C 
BRANCH   9  10
ATOM     10  C   UNL     1      37.596  17.841 227.138  1.00  0.00    -0.000 C 
BRANCH  10  11
ATOM     11  C   UNL     1      38.204  18.182 228.508  1.00  0.00    -0.003 C 
ATOM     12  C   UNL     1      39.454  17.366 228.831  1.00  0.00     0.004 C 
ENDBRANCH  10  11
ENDBRANCH   9  10
ENDBRANCH   8   9
ENDBRANCH   7   8
ENDBRANCH   6   7
ENDBRANCH   5   6
ENDBRANCH   4   5
ENDBRANCH   3   4
ENDBRANCH   2   3
ENDBRANCH   1   2
BRANCH   1  13
ATOM     13  C   UNL     1      41.023  22.023 222.624  1.00  0.00     0.000 C 
BRANCH  13  14
ATOM     14  C   UNL     1      41.066  23.377 223.354  1.00  0.00     0.000 C 
BRANCH  14  15
ATOM     15  C   UNL     1      41.914  23.325 224.637  1.00  0.00     0.000 C 
BRANCH  15  16
ATOM     16  C   UNL     1      41.730  24.577 225.513  1.00  0.00     0.000 C 
BRANCH  16  17
ATOM     17  C   UNL     1      40.785  24.319 226.700  1.00  0.00     0.000 C 
BRANCH  17  18
ATOM     18  C   UNL     1      39.373  24.876 226.465  1.00  0.00     0.000 C 
BRANCH  18  19
ATOM     19  C   UNL     1      39.360  26.095 225.532  1.00  0.00     0.000 C 
BRANCH  19  20
ATOM     20  C   UNL     1      38.195  26.012 224.537  1.00  0.00     0.006 C 
BRANCH  20  21
ATOM     21  C   UNL     1      37.563  24.616 224.542  1.00  0.00     0.053 C 
BRANCH  21  22
ATOM     22  C   UNL     1      36.070  24.716 224.532  1.00  0.00     0.041 C 
ATOM     23  O   UNL     1      35.398  24.066 223.689  1.00  0.00    -0.550 OA
ATOM     24  O   UNL     1      35.423  25.562 225.425  1.00  0.00    -0.550 OA
ENDBRANCH  21  22
ENDBRANCH  20  21
ENDBRANCH  19  20
ENDBRANCH  18  19
ENDBRANCH  17  18
ENDBRANCH  16  17
ENDBRANCH  15  16
ENDBRANCH  14  15
ENDBRANCH  13  14
ENDBRANCH   1  13
TORSDOF 20
ENDMDL
MODEL 3
REMARK VINA RESULT:    -4.236      1.188      2.841
REMARK INTER + INTRA:         -12.650
REMARK INTER:                  -9.190
REMARK INTRA:                  -3.459
REMARK UNBOUND:                -3.460
REMARK SMILES CCCCCCCCCCCCCCCCCCCCCC(=O)[O-]
REMARK SMILES IDX 12 1 11 2 10 3 9 4 8 5 7 6 6 7 5 8 4 9 3 10 2 11 1 12 13 13
REMARK SMILES IDX 14 14 15 15 16 16 17 17 18 18 19 19 20 20 21 21 22 22 23 23
REMARK SMILES IDX 24 24
REMARK H PARENT
REMARK Flexibility Score: inf
ROOT
ATOM      1  C   UNL     1      41.696  23.800 226.073  1.00  0.00     0.000 C 
ENDROOT
BRANCH   1   2
ATOM      2  C   UNL     1      42.391  24.941 226.839  1.00  0.00     0.000 C 
BRANCH   2   3
ATOM      3  C   UNL     1      41.906  26.356 226.477  1.00  0.00     0.000 C 
BRANCH   3   4
ATOM      4  C   UNL     1      40.755  26.846 227.372  1.00  0.00    -0.000 C 
BRANCH   4   5
ATOM      5  C   UNL     1      39.401  26.844 226.626  1.00  0.00    -0.000 C 
BRANCH   5   6
ATOM      6  C   UNL     1      38.465  25.707 227.066  1.00  0.00    -0.000 C 
BRANCH   6   7
ATOM      7  C   UNL     1      37.925  24.889 225.881  1.00  0.00    -0.000 C 
BRANCH   7   8
ATOM      8  C   UNL     1      38.263  25.528 224.524  1.00  0.00    -0.000 C 
BRANCH   8   9
ATOM      9  C   UNL     1      37.044  25.627 223.591  1.00  0.00    -0.000 C 
BRANCH   9  10
ATOM     10  C   UNL     1      36.036  24.481 223.824  1.00  0.00    -0.000 C 
BRANCH  10  11
ATOM     11  C   UNL     1      36.149  23.338 222.802  1.00  0.00    -0.003 C 
ATOM     12  C   UNL     1      36.431  23.827 221.383  1.00  0.00     0.004 C 
ENDBRANCH  10  11
ENDBRANCH   9  10
ENDBRANCH   8   9
ENDBRANCH   7   8
ENDBRANCH   6   7
ENDBRANCH   5   6
ENDBRANCH   4   5
ENDBRANCH   3   4
ENDBRANCH   2   3
ENDBRANCH   1   2
BRANCH   1  13
ATOM     13  C   UNL     1      42.136  23.713 224.601  1.00  0.00     0.000 C 
BRANCH  13  14
ATOM     14  C   UNL     1      40.937  23.688 223.637  1.00  0.00     0.000 C 
BRANCH  14  15
ATOM     15  C   UNL     1      40.825  22.355 222.874  1.00  0.00     0.000 C 
BRANCH  15  16
ATOM     16  C   UNL     1      42.085  21.485 223.024  1.00  0.00     0.000 C 
BRANCH  16  17
ATOM     17  C   UNL     1      41.907  20.388 224.088  1.00  0.00     0.000 C 
BRANCH  17  18
ATOM     18  C   UNL     1      40.430  20.070 224.370  1.00  0.00     0.000 C 
BRANCH  18  19
ATOM     19  C   UNL     1      40.108  20.018 225.870  1.00  0.00     0.000 C 
BRANCH  19  20
ATOM     20  C   UNL     1      39.143  21.146 226.262  1.00  0.00     0.006 C 
BRANCH  20  21
ATOM     21  C   UNL     1      38.088  21.372 225.174  1.00  0.00     0.053 C 
BRANCH  21  22
ATOM     22  C   UNL     1      36.743  20.912 225.643  1.00  0.00     0.041 C 
ATOM     23  O   UNL     1      36.043  20.160 224.917  1.00  0.00    -0.550 OA
ATOM     24  O   UNL     1      36.246  21.349 226.865  1.00  0.00    -0.550 OA
ENDBRANCH  21  22
ENDBRANCH  20  21
ENDBRANCH  19  20
ENDBRANCH  18  19
ENDBRANCH  17  18
ENDBRANCH  16  17
ENDBRANCH  15  16
ENDBRANCH  14  15
ENDBRANCH  13  14
ENDBRANCH   1  13
TORSDOF 20
ENDMDL
MODEL 4
REMARK VINA RESULT:    -4.227      1.288      3.683
REMARK INTER + INTRA:         -12.629
REMARK INTER:                  -8.892
REMARK INTRA:                  -3.736
REMARK UNBOUND:                -3.460
REMARK SMILES CCCCCCCCCCCCCCCCCCCCCC(=O)[O-]
REMARK SMILES IDX 12 1 11 2 10 3 9 4 8 5 7 6 6 7 5 8 4 9 3 10 2 11 1 12 13 13
REMARK SMILES IDX 14 14 15 15 16 16 17 17 18 18 19 19 20 20 21 21 22 22 23 23
REMARK SMILES IDX 24 24
REMARK H PARENT
REMARK Flexibility Score: inf
ROOT
ATOM      1  C   UNL     1      38.942  23.362 222.486  1.00  0.00     0.000 C 
ENDROOT
BRANCH   1   2
ATOM      2  C   UNL     1      37.621  24.059 222.859  1.00  0.00     0.000 C 
BRANCH   2   3
ATOM      3  C   UNL     1      36.660  23.215 223.714  1.00  0.00     0.000 C 
BRANCH   3   4
ATOM      4  C   UNL     1      37.381  22.159 224.569  1.00  0.00    -0.000 C 
BRANCH   4   5
ATOM      5  C   UNL     1      37.499  22.594 226.047  1.00  0.00    -0.000 C 
BRANCH   5   6
ATOM      6  C   UNL     1      38.844  23.260 226.381  1.00  0.00    -0.000 C 
BRANCH   6   7
ATOM      7  C   UNL     1      38.679  24.672 226.970  1.00  0.00    -0.000 C 
BRANCH   7   8
ATOM      8  C   UNL     1      38.516  25.746 225.882  1.00  0.00    -0.000 C 
BRANCH   8   9
ATOM      9  C   UNL     1      39.583  26.852 225.972  1.00  0.00    -0.000 C 
BRANCH   9  10
ATOM     10  C   UNL     1      40.758  26.455 226.892  1.00  0.00    -0.000 C 
BRANCH  10  11
ATOM     11  C   UNL     1      42.009  25.985 226.132  1.00  0.00    -0.003 C 
ATOM     12  C   UNL     1      42.551  24.648 226.636  1.00  0.00     0.004 C 
ENDBRANCH  10  11
ENDBRANCH   9  10
ENDBRANCH   8   9
ENDBRANCH   7   8
ENDBRANCH   6   7
ENDBRANCH   5   6
ENDBRANCH   4   5
ENDBRANCH   3   4
ENDBRANCH   2   3
ENDBRANCH   1   2
BRANCH   1  13
ATOM     13  C   UNL     1      40.184  24.140 222.955  1.00  0.00     0.000 C 
BRANCH  13  14
ATOM     14  C   UNL     1      41.225  23.226 223.625  1.00  0.00     0.000 C 
BRANCH  14  15
ATOM     15  C   UNL     1      41.358  21.868 222.911  1.00  0.00     0.000 C 
BRANCH  15  16
ATOM     16  C   UNL     1      40.830  20.702 223.764  1.00  0.00     0.000 C 
BRANCH  16  17
ATOM     17  C   UNL     1      41.411  20.718 225.189  1.00  0.00     0.000 C 
BRANCH  17  18
ATOM     18  C   UNL     1      40.555  19.922 226.187  1.00  0.00     0.000 C 
BRANCH  18  19
ATOM     19  C   UNL     1      40.321  18.470 225.747  1.00  0.00     0.000 C 
BRANCH  19  20
ATOM     20  C   UNL     1      39.001  17.932 226.314  1.00  0.00     0.006 C 
BRANCH  20  21
ATOM     21  C   UNL     1      37.907  19.005 226.282  1.00  0.00     0.053 C 
BRANCH  21  22
ATOM     22  C   UNL     1      36.557  18.383 226.455  1.00  0.00     0.041 C 
ATOM     23  O   UNL     1      36.201  17.948 227.581  1.00  0.00    -0.550 OA
ATOM     24  O   UNL     1      35.708  18.246 225.363  1.00  0.00    -0.550 OA
ENDBRANCH  21  22
ENDBRANCH  20  21
ENDBRANCH  19  20
ENDBRANCH  18  19
ENDBRANCH  17  18
ENDBRANCH  16  17
ENDBRANCH  15  16
ENDBRANCH  14  15
ENDBRANCH  13  14
ENDBRANCH   1  13
TORSDOF 20
ENDMDL
MODEL 5
REMARK VINA RESULT:    -4.213      2.496      5.743
REMARK INTER + INTRA:         -12.598
REMARK INTER:                  -9.079
REMARK INTRA:                  -3.519
REMARK UNBOUND:                -3.460
REMARK SMILES CCCCCCCCCCCCCCCCCCCCCC(=O)[O-]
REMARK SMILES IDX 12 1 11 2 10 3 9 4 8 5 7 6 6 7 5 8 4 9 3 10 2 11 1 12 13 13
REMARK SMILES IDX 14 14 15 15 16 16 17 17 18 18 19 19 20 20 21 21 22 22 23 23
REMARK SMILES IDX 24 24
REMARK H PARENT
REMARK Flexibility Score: inf
ROOT
ATOM      1  C   UNL     1      42.020  18.629 225.155  1.00  0.00     0.000 C 
ENDROOT
BRANCH   1   2
ATOM      2  C   UNL     1      40.641  19.040 225.702  1.00  0.00     0.000 C 
BRANCH   2   3
ATOM      3  C   UNL     1      40.640  20.306 226.576  1.00  0.00     0.000 C 
BRANCH   3   4
ATOM      4  C   UNL     1      39.389  21.178 226.374  1.00  0.00    -0.000 C 
BRANCH   4   5
ATOM      5  C   UNL     1      38.250  20.403 225.674  1.00  0.00    -0.000 C 
BRANCH   5   6
ATOM      6  C   UNL     1      36.865  20.673 226.283  1.00  0.00    -0.000 C 
BRANCH   6   7
ATOM      7  C   UNL     1      36.157  19.387 226.744  1.00  0.00    -0.000 C 
BRANCH   7   8
ATOM      8  C   UNL     1      37.023  18.134 226.536  1.00  0.00    -0.000 C 
BRANCH   8   9
ATOM      9  C   UNL     1      37.281  17.364 227.843  1.00  0.00    -0.000 C 
BRANCH   9  10
ATOM     10  C   UNL     1      38.593  17.805 228.530  1.00  0.00    -0.000 C 
BRANCH  10  11
ATOM     11  C   UNL     1      38.377  18.563 229.850  1.00  0.00    -0.003 C 
ATOM     12  C   UNL     1      38.619  20.066 229.726  1.00  0.00     0.004 C 
ENDBRANCH  10  11
ENDBRANCH   9  10
ENDBRANCH   8   9
ENDBRANCH   7   8
ENDBRANCH   6   7
ENDBRANCH   5   6
ENDBRANCH   4   5
ENDBRANCH   3   4
ENDBRANCH   2   3
ENDBRANCH   1   2
BRANCH   1  13
ATOM     13  C   UNL     1      42.496  19.524 223.997  1.00  0.00     0.000 C 
BRANCH  13  14
ATOM     14  C   UNL     1      41.376  19.800 222.978  1.00  0.00     0.000 C 
BRANCH  14  15
ATOM     15  C   UNL     1      41.535  21.167 222.287  1.00  0.00     0.000 C 
BRANCH  15  16
ATOM     16  C   UNL     1      41.429  22.340 223.275  1.00  0.00     0.000 C 
BRANCH  16  17
ATOM     17  C   UNL     1      40.384  23.379 222.830  1.00  0.00     0.000 C 
BRANCH  17  18
ATOM     18  C   UNL     1      39.039  23.213 223.553  1.00  0.00     0.000 C 
BRANCH  18  19
ATOM     19  C   UNL     1      37.834  23.433 222.628  1.00  0.00     0.000 C 
BRANCH  19  20
ATOM     20  C   UNL     1      36.523  23.072 223.340  1.00  0.00     0.006 C 
BRANCH  20  21
ATOM     21  C   UNL     1      35.752  24.331 223.751  1.00  0.00     0.053 C 
BRANCH  21  22
ATOM     22  C   UNL     1      36.326  24.911 225.005  1.00  0.00     0.041 C 
ATOM     23  O   UNL     1      36.690  26.116 225.036  1.00  0.00    -0.550 OA
ATOM     24  O   UNL     1      36.500  24.110 226.127  1.00  0.00    -0.550 OA
ENDBRANCH  21  22
ENDBRANCH  20  21
ENDBRANCH  19  20
ENDBRANCH  18  19
ENDBRANCH  17  18
ENDBRANCH  16  17
ENDBRANCH  15  16
ENDBRANCH  14  15
ENDBRANCH  13  14
ENDBRANCH   1  13
TORSDOF 20
ENDMDL
MODEL 6
REMARK VINA RESULT:    -4.203      2.002      5.407
REMARK INTER + INTRA:         -12.578
REMARK INTER:                  -8.914
REMARK INTRA:                  -3.664
REMARK UNBOUND:                -3.460
REMARK SMILES CCCCCCCCCCCCCCCCCCCCCC(=O)[O-]
REMARK SMILES IDX 12 1 11 2 10 3 9 4 8 5 7 6 6 7 5 8 4 9 3 10 2 11 1 12 13 13
REMARK SMILES IDX 14 14 15 15 16 16 17 17 18 18 19 19 20 20 21 21 22 22 23 23
REMARK SMILES IDX 24 24
REMARK H PARENT
REMARK Flexibility Score: inf
ROOT
ATOM      1  C   UNL     1      41.363  23.920 224.147  1.00  0.00     0.000 C 
ENDROOT
BRANCH   1   2
ATOM      2  C   UNL     1      41.109  22.911 223.013  1.00  0.00     0.000 C 
BRANCH   2   3
ATOM      3  C   UNL     1      42.042  21.687 223.012  1.00  0.00     0.000 C 
BRANCH   3   4
ATOM      4  C   UNL     1      41.418  20.453 222.338  1.00  0.00    -0.000 C 
BRANCH   4   5
ATOM      5  C   UNL     1      41.029  19.367 223.366  1.00  0.00    -0.000 C 
BRANCH   5   6
ATOM      6  C   UNL     1      41.643  19.597 224.757  1.00  0.00    -0.000 C 
BRANCH   6   7
ATOM      7  C   UNL     1      40.582  19.704 225.866  1.00  0.00    -0.000 C 
BRANCH   7   8
ATOM      8  C   UNL     1      39.166  19.912 225.305  1.00  0.00    -0.000 C 
BRANCH   8   9
ATOM      9  C   UNL     1      38.700  21.377 225.390  1.00  0.00    -0.000 C 
BRANCH   9  10
ATOM     10  C   UNL     1      37.439  21.537 226.267  1.00  0.00    -0.000 C 
BRANCH  10  11
ATOM     11  C   UNL     1      37.446  20.657 227.528  1.00  0.00    -0.003 C 
ATOM     12  C   UNL     1      38.356  21.195 228.630  1.00  0.00     0.004 C 
ENDBRANCH  10  11
ENDBRANCH   9  10
ENDBRANCH   8   9
ENDBRANCH   7   8
ENDBRANCH   6   7
ENDBRANCH   5   6
ENDBRANCH   4   5
ENDBRANCH   3   4
ENDBRANCH   2   3
ENDBRANCH   1   2
BRANCH   1  13
ATOM     13  C   UNL     1      41.827  23.250 225.452  1.00  0.00     0.000 C 
BRANCH  13  14
ATOM     14  C   UNL     1      42.317  24.276 226.490  1.00  0.00     0.000 C 
BRANCH  14  15
ATOM     15  C   UNL     1      42.342  25.710 225.931  1.00  0.00     0.000 C 
BRANCH  15  16
ATOM     16  C   UNL     1      41.639  26.715 226.860  1.00  0.00     0.000 C 
BRANCH  16  17
ATOM     17  C   UNL     1      40.301  27.203 226.278  1.00  0.00     0.000 C 
BRANCH  17  18
ATOM     18  C   UNL     1      39.089  26.498 226.905  1.00  0.00     0.000 C 
BRANCH  18  19
ATOM     19  C   UNL     1      38.592  25.310 226.069  1.00  0.00     0.000 C 
BRANCH  19  20
ATOM     20  C   UNL     1      37.896  25.794 224.790  1.00  0.00     0.006 C 
BRANCH  20  21
ATOM     21  C   UNL     1      37.650  24.632 223.821  1.00  0.00     0.053 C 
BRANCH  21  22
ATOM     22  C   UNL     1      36.245  24.132 223.947  1.00  0.00     0.041 C 
ATOM     23  O   UNL     1      35.851  23.168 223.240  1.00  0.00    -0.550 OA
ATOM     24  O   UNL     1      35.359  24.760 224.813  1.00  0.00    -0.550 OA
ENDBRANCH  21  22
ENDBRANCH  20  21
ENDBRANCH  19  20
ENDBRANCH  18  19
ENDBRANCH  17  18
ENDBRANCH  16  17
ENDBRANCH  15  16
ENDBRANCH  14  15
ENDBRANCH  13  14
ENDBRANCH   1  13
TORSDOF 20
ENDMDL
MODEL 7
REMARK VINA RESULT:    -4.181      1.366      3.060
REMARK INTER + INTRA:         -12.529
REMARK INTER:                  -8.662
REMARK INTRA:                  -3.868
REMARK UNBOUND:                -3.460
REMARK SMILES CCCCCCCCCCCCCCCCCCCCCC(=O)[O-]
REMARK SMILES IDX 12 1 11 2 10 3 9 4 8 5 7 6 6 7 5 8 4 9 3 10 2 11 1 12 13 13
REMARK SMILES IDX 14 14 15 15 16 16 17 17 18 18 19 19 20 20 21 21 22 22 23 23
REMARK SMILES IDX 24 24
REMARK H PARENT
REMARK Flexibility Score: inf
ROOT
ATOM      1  C   UNL     1      41.396  19.638 223.062  1.00  0.00     0.000 C 
ENDROOT
BRANCH   1   2
ATOM      2  C   UNL     1      41.362  21.069 222.494  1.00  0.00     0.000 C 
BRANCH   2   3
ATOM      3  C   UNL     1      41.955  22.148 223.416  1.00  0.00     0.000 C 
BRANCH   3   4
ATOM      4  C   UNL     1      41.103  23.428 223.473  1.00  0.00    -0.000 C 
BRANCH   4   5
ATOM      5  C   UNL     1      39.753  23.257 222.741  1.00  0.00    -0.000 C 
BRANCH   5   6
ATOM      6  C   UNL     1      38.568  23.883 223.494  1.00  0.00    -0.000 C 
BRANCH   6   7
ATOM      7  C   UNL     1      38.873  25.300 224.010  1.00  0.00    -0.000 C 
BRANCH   7   8
ATOM      8  C   UNL     1      38.605  25.446 225.516  1.00  0.00    -0.000 C 
BRANCH   8   9
ATOM      9  C   UNL     1      39.313  26.665 226.133  1.00  0.00    -0.000 C 
BRANCH   9  10
ATOM     10  C   UNL     1      40.840  26.459 226.243  1.00  0.00    -0.000 C 
BRANCH  10  11
ATOM     11  C   UNL     1      41.241  25.242 227.093  1.00  0.00    -0.003 C 
ATOM     12  C   UNL     1      42.545  24.593 226.635  1.00  0.00     0.004 C 
ENDBRANCH  10  11
ENDBRANCH   9  10
ENDBRANCH   8   9
ENDBRANCH   7   8
ENDBRANCH   6   7
ENDBRANCH   5   6
ENDBRANCH   4   5
ENDBRANCH   3   4
ENDBRANCH   2   3
ENDBRANCH   1   2
BRANCH   1  13
ATOM     13  C   UNL     1      40.455  19.450 224.265  1.00  0.00     0.000 C 
BRANCH  13  14
ATOM     14  C   UNL     1      41.059  18.524 225.336  1.00  0.00     0.000 C 
BRANCH  14  15
ATOM     15  C   UNL     1      40.985  19.134 226.748  1.00  0.00     0.000 C 
BRANCH  15  16
ATOM     16  C   UNL     1      41.435  20.605 226.777  1.00  0.00     0.000 C 
BRANCH  16  17
ATOM     17  C   UNL     1      40.421  21.505 227.506  1.00  0.00     0.000 C 
BRANCH  17  18
ATOM     18  C   UNL     1      39.421  22.169 226.547  1.00  0.00     0.000 C 
BRANCH  18  19
ATOM     19  C   UNL     1      37.962  21.989 226.990  1.00  0.00     0.000 C 
BRANCH  19  20
ATOM     20  C   UNL     1      37.129  21.335 225.880  1.00  0.00     0.006 C 
BRANCH  20  21
ATOM     21  C   UNL     1      37.304  19.812 225.882  1.00  0.00     0.053 C 
BRANCH  21  22
ATOM     22  C   UNL     1      35.981  19.132 226.038  1.00  0.00     0.041 C 
ATOM     23  O   UNL     1      34.962  19.796 226.364  1.00  0.00    -0.550 OA
ATOM     24  O   UNL     1      35.880  17.757 225.865  1.00  0.00    -0.550 OA
ENDBRANCH  21  22
ENDBRANCH  20  21
ENDBRANCH  19  20
ENDBRANCH  18  19
ENDBRANCH  17  18
ENDBRANCH  16  17
ENDBRANCH  15  16
ENDBRANCH  14  15
ENDBRANCH  13  14
ENDBRANCH   1  13
TORSDOF 20
ENDMDL
MODEL 8
REMARK VINA RESULT:    -4.108      2.001      4.551
REMARK INTER + INTRA:         -12.372
REMARK INTER:                  -9.126
REMARK INTRA:                  -3.246
REMARK UNBOUND:                -3.460
REMARK SMILES CCCCCCCCCCCCCCCCCCCCCC(=O)[O-]
REMARK SMILES IDX 12 1 11 2 10 3 9 4 8 5 7 6 6 7 5 8 4 9 3 10 2 11 1 12 13 13
REMARK SMILES IDX 14 14 15 15 16 16 17 17 18 18 19 19 20 20 21 21 22 22 23 23
REMARK SMILES IDX 24 24
REMARK H PARENT
REMARK Flexibility Score: inf
ROOT
ATOM      1  C   UNL     1      38.758  25.279 224.137  1.00  0.00     0.000 C 
ENDROOT
BRANCH   1   2
ATOM      2  C   UNL     1      38.416  24.083 223.229  1.00  0.00     0.000 C 
BRANCH   2   3
ATOM      3  C   UNL     1      39.629  23.390 222.584  1.00  0.00     0.000 C 
BRANCH   3   4
ATOM      4  C   UNL     1      40.209  22.259 223.451  1.00  0.00    -0.000 C 
BRANCH   4   5
ATOM      5  C   UNL     1      41.612  22.609 223.996  1.00  0.00    -0.000 C 
BRANCH   5   6
ATOM      6  C   UNL     1      41.740  22.418 225.516  1.00  0.00    -0.000 C 
BRANCH   6   7
ATOM      7  C   UNL     1      41.522  23.723 226.300  1.00  0.00    -0.000 C 
BRANCH   7   8
ATOM      8  C   UNL     1      42.113  24.946 225.580  1.00  0.00    -0.000 C 
BRANCH   8   9
ATOM      9  C   UNL     1      42.172  26.196 226.476  1.00  0.00    -0.000 C 
BRANCH   9  10
ATOM     10  C   UNL     1      40.778  26.600 227.004  1.00  0.00    -0.000 C 
BRANCH  10  11
ATOM     11  C   UNL     1      40.229  27.893 226.378  1.00  0.00    -0.003 C 
ATOM     12  C   UNL     1      41.219  29.055 226.434  1.00  0.00     0.004 C 
ENDBRANCH  10  11
ENDBRANCH   9  10
ENDBRANCH   8   9
ENDBRANCH   7   8
ENDBRANCH   6   7
ENDBRANCH   5   6
ENDBRANCH   4   5
ENDBRANCH   3   4
ENDBRANCH   2   3
ENDBRANCH   1   2
BRANCH   1  13
ATOM     13  C   UNL     1      37.630  25.621 225.126  1.00  0.00     0.000 C 
BRANCH  13  14
ATOM     14  C   UNL     1      37.061  24.369 225.815  1.00  0.00     0.000 C 
BRANCH  14  15
ATOM     15  C   UNL     1      38.053  23.749 226.817  1.00  0.00     0.000 C 
BRANCH  15  16
ATOM     16  C   UNL     1      38.087  22.213 226.736  1.00  0.00     0.000 C 
BRANCH  16  17
ATOM     17  C   UNL     1      37.056  21.663 225.734  1.00  0.00     0.000 C 
BRANCH  17  18
ATOM     18  C   UNL     1      37.000  20.128 225.724  1.00  0.00     0.000 C 
BRANCH  18  19
ATOM     19  C   UNL     1      35.816  19.569 226.524  1.00  0.00     0.000 C 
BRANCH  19  20
ATOM     20  C   UNL     1      36.148  18.185 227.099  1.00  0.00     0.006 C 
BRANCH  20  21
ATOM     21  C   UNL     1      37.656  17.915 227.054  1.00  0.00     0.053 C 
BRANCH  21  22
ATOM     22  C   UNL     1      38.176  17.616 228.424  1.00  0.00     0.041 C 
ATOM     23  O   UNL     1      38.919  16.618 228.615  1.00  0.00    -0.550 OA
ATOM     24  O   UNL     1      37.807  18.416 229.499  1.00  0.00    -0.550 OA
ENDBRANCH  21  22
ENDBRANCH  20  21
ENDBRANCH  19  20
ENDBRANCH  18  19
ENDBRANCH  17  18
ENDBRANCH  16  17
ENDBRANCH  15  16
ENDBRANCH  14  15
ENDBRANCH  13  14
ENDBRANCH   1  13
TORSDOF 20
ENDMDL
MODEL 9
REMARK VINA RESULT:    -4.069      1.627      4.042
REMARK INTER + INTRA:         -12.285
REMARK INTER:                  -8.878
REMARK INTRA:                  -3.408
REMARK UNBOUND:                -3.460
REMARK SMILES CCCCCCCCCCCCCCCCCCCCCC(=O)[O-]
REMARK SMILES IDX 12 1 11 2 10 3 9 4 8 5 7 6 6 7 5 8 4 9 3 10 2 11 1 12 13 13
REMARK SMILES IDX 14 14 15 15 16 16 17 17 18 18 19 19 20 20 21 21 22 22 23 23
REMARK SMILES IDX 24 24
REMARK H PARENT
REMARK Flexibility Score: inf
ROOT
ATOM      1  C   UNL     1      38.440  24.535 223.716  1.00  0.00     0.000 C 
ENDROOT
BRANCH   1   2
ATOM      2  C   UNL     1      39.823  24.299 223.082  1.00  0.00     0.000 C 
BRANCH   2   3
ATOM      3  C   UNL     1      40.089  22.854 222.626  1.00  0.00     0.000 C 
BRANCH   3   4
ATOM      4  C   UNL     1      41.044  22.091 223.561  1.00  0.00    -0.000 C 
BRANCH   4   5
ATOM      5  C   UNL     1      41.865  23.049 224.454  1.00  0.00    -0.000 C 
BRANCH   5   6
ATOM      6  C   UNL     1      42.249  22.437 225.811  1.00  0.00    -0.000 C 
BRANCH   6   7
ATOM      7  C   UNL     1      42.151  23.446 226.968  1.00  0.00    -0.000 C 
BRANCH   7   8
ATOM      8  C   UNL     1      42.895  24.757 226.667  1.00  0.00    -0.000 C 
BRANCH   8   9
ATOM      9  C   UNL     1      42.071  26.007 227.026  1.00  0.00    -0.000 C 
BRANCH   9  10
ATOM     10  C   UNL     1      40.784  26.120 226.179  1.00  0.00    -0.000 C 
BRANCH  10  11
ATOM     11  C   UNL     1      39.942  27.366 226.495  1.00  0.00    -0.003 C 
ATOM     12  C   UNL     1      40.703  28.674 226.289  1.00  0.00     0.004 C 
ENDBRANCH  10  11
ENDBRANCH   9  10
ENDBRANCH   8   9
ENDBRANCH   7   8
ENDBRANCH   6   7
ENDBRANCH   5   6
ENDBRANCH   4   5
ENDBRANCH   3   4
ENDBRANCH   2   3
ENDBRANCH   1   2
BRANCH   1  13
ATOM     13  C   UNL     1      37.450  23.391 223.437  1.00  0.00     0.000 C 
BRANCH  13  14
ATOM     14  C   UNL     1      37.022  22.665 224.725  1.00  0.00     0.000 C 
BRANCH  14  15
ATOM     15  C   UNL     1      37.516  23.382 225.994  1.00  0.00     0.000 C 
BRANCH  15  16
ATOM     16  C   UNL     1      38.594  22.577 226.742  1.00  0.00     0.000 C 
BRANCH  16  17
ATOM     17  C   UNL     1      38.699  21.132 226.225  1.00  0.00     0.000 C 
BRANCH  17  18
ATOM     18  C   UNL     1      39.621  20.259 227.090  1.00  0.00     0.000 C 
BRANCH  18  19
ATOM     19  C   UNL     1      39.041  18.863 227.358  1.00  0.00     0.000 C 
BRANCH  19  20
ATOM     20  C   UNL     1      37.575  18.955 227.801  1.00  0.00     0.006 C 
BRANCH  20  21
ATOM     21  C   UNL     1      36.665  18.143 226.874  1.00  0.00     0.053 C 
BRANCH  21  22
ATOM     22  C   UNL     1      35.769  19.051 226.091  1.00  0.00     0.041 C 
ATOM     23  O   UNL     1      35.428  18.746 224.918  1.00  0.00    -0.550 OA
ATOM     24  O   UNL     1      35.347  20.255 226.641  1.00  0.00    -0.550 OA
ENDBRANCH  21  22
ENDBRANCH  20  21
ENDBRANCH  19  20
ENDBRANCH  18  19
ENDBRANCH  17  18
ENDBRANCH  16  17
ENDBRANCH  15  16
ENDBRANCH  14  15
ENDBRANCH  13  14
ENDBRANCH   1  13
TORSDOF 20
ENDMDL
