MODEL 1
REMARK VINA RESULT:    -3.536      0.000      0.000
REMARK INTER + INTRA:          -9.029
REMARK INTER:                  -6.430
REMARK INTRA:                  -2.599
REMARK UNBOUND:                -2.599
REMARK SMILES CCCCCCCCCCCCCCCC(=O)[O-]
REMARK SMILES IDX 9 1 10 2 11 3 12 4 13 5 14 6 15 7 16 8 17 9 18 10 8 11 7 12
REMARK SMILES IDX 6 13 5 14 4 15 3 16 2 17 1 18
REMARK H PARENT
REMARK Flexibility Score: inf
ROOT
ATOM      1  C   UNL     1     -13.895 -11.867  25.359  1.00  0.00     0.000 C 
ENDROOT
BRANCH   1   2
ATOM      2  C   UNL     1     -12.573 -11.783  26.147  1.00  0.00     0.000 C 
BRANCH   2   3
ATOM      3  C   UNL     1     -11.574 -10.726  25.639  1.00  0.00     0.000 C 
BRANCH   3   4
ATOM      4  C   UNL     1     -10.805 -10.036  26.777  1.00  0.00     0.000 C 
BRANCH   4   5
ATOM      5  C   UNL     1     -11.229  -8.572  26.973  1.00  0.00     0.000 C 
BRANCH   5   6
ATOM      6  C   UNL     1     -11.710  -8.279  28.406  1.00  0.00     0.006 C 
BRANCH   6   7
ATOM      7  C   UNL     1     -11.998  -9.564  29.193  1.00  0.00     0.053 C 
BRANCH   7   8
ATOM      8  C   UNL     1     -11.370  -9.535  30.552  1.00  0.00     0.041 C 
ATOM      9  O   UNL     1     -11.411  -8.485  31.247  1.00  0.00    -0.550 OA
ATOM     10  O   UNL     1     -10.772 -10.678  31.068  1.00  0.00    -0.550 OA
ENDBRANCH   7   8
ENDBRANCH   6   7
ENDBRANCH   5   6
ENDBRANCH   4   5
ENDBRANCH   3   4
ENDBRANCH   2   3
ENDBRANCH   1   2
BRANCH   1  11
ATOM     11  C   UNL     1     -14.768 -10.597  25.404  1.00  0.00     0.000 C 
BRANCH  11  12
ATOM     12  C   UNL     1     -14.832  -9.897  26.775  1.00  0.00    -0.000 C 
BRANCH  12  13
ATOM     13  C   UNL     1     -14.997  -8.372  26.657  1.00  0.00    -0.000 C 
BRANCH  13  14
ATOM     14  C   UNL     1     -15.021  -7.894  25.195  1.00  0.00    -0.000 C 
BRANCH  14  15
ATOM     15  C   UNL     1     -13.891  -6.899  24.884  1.00  0.00    -0.000 C 
BRANCH  15  16
ATOM     16  C   UNL     1     -12.813  -7.491  23.957  1.00  0.00    -0.000 C 
BRANCH  16  17
ATOM     17  C   UNL     1     -13.343  -8.072  22.633  1.00  0.00    -0.003 C 
ATOM     18  C   UNL     1     -12.916  -9.521  22.402  1.00  0.00     0.004 C 
ENDBRANCH  16  17
ENDBRANCH  15  16
ENDBRANCH  14  15
ENDBRANCH  13  14
ENDBRANCH  12  13
ENDBRANCH  11  12
ENDBRANCH   1  11
TORSDOF 14
ENDMDL
MODEL 2
REMARK VINA RESULT:    -3.383      2.560      5.188
REMARK INTER + INTRA:          -8.751
REMARK INTER:                  -6.907
REMARK INTRA:                  -1.843
REMARK UNBOUND:                -2.599
REMARK SMILES CCCCCCCCCCCCCCCC(=O)[O-]
REMARK SMILES IDX 9 1 10 2 11 3 12 4 13 5 14 6 15 7 16 8 17 9 18 10 8 11 7 12
REMARK SMILES IDX 6 13 5 14 4 15 3 16 2 17 1 18
REMARK H PARENT
REMARK Flexibility Score: inf
ROOT
ATOM      1  C   UNL     1     -13.995 -11.932  26.569  1.00  0.00     0.000 C 
ENDROOT
BRANCH   1   2
ATOM      2  C   UNL     1     -14.546 -10.509  26.784  1.00  0.00     0.000 C 
BRANCH   2   3
ATOM      3  C   UNL     1     -14.323  -9.537  25.611  1.00  0.00     0.000 C 
BRANCH   3   4
ATOM      4  C   UNL     1     -13.559  -8.268  26.024  1.00  0.00     0.000 C 
BRANCH   4   5
ATOM      5  C   UNL     1     -12.063  -8.341  25.675  1.00  0.00     0.000 C 
BRANCH   5   6
ATOM      6  C   UNL     1     -11.203  -8.841  26.850  1.00  0.00     0.006 C 
BRANCH   6   7
ATOM      7  C   UNL     1     -11.700  -8.305  28.199  1.00  0.00     0.053 C 
BRANCH   7   8
ATOM      8  C   UNL     1     -11.639  -9.353  29.269  1.00  0.00     0.041 C 
ATOM      9  O   UNL     1     -11.677 -10.574  28.962  1.00  0.00    -0.550 OA
ATOM     10  O   UNL     1     -11.504  -8.982  30.601  1.00  0.00    -0.550 OA
ENDBRANCH   7   8
ENDBRANCH   6   7
ENDBRANCH   5   6
ENDBRANCH   4   5
ENDBRANCH   3   4
ENDBRANCH   2   3
ENDBRANCH   1   2
BRANCH   1  11
ATOM     11  C   UNL     1     -13.109 -12.112  25.320  1.00  0.00     0.000 C 
BRANCH  11  12
ATOM     12  C   UNL     1     -11.753 -12.796  25.574  1.00  0.00    -0.000 C 
BRANCH  12  13
ATOM     13  C   UNL     1     -11.315 -13.699  24.409  1.00  0.00    -0.000 C 
BRANCH  13  14
ATOM     14  C   UNL     1     -12.103 -15.019  24.359  1.00  0.00    -0.000 C 
BRANCH  14  15
ATOM     15  C   UNL     1     -11.970 -15.832  25.658  1.00  0.00    -0.000 C 
BRANCH  15  16
ATOM     16  C   UNL     1     -13.332 -16.169  26.294  1.00  0.00    -0.000 C 
BRANCH  16  17
ATOM     17  C   UNL     1     -14.558 -15.711  25.483  1.00  0.00    -0.003 C 
ATOM     18  C   UNL     1     -15.721 -16.700  25.546  1.00  0.00     0.004 C 
ENDBRANCH  16  17
ENDBRANCH  15  16
ENDBRANCH  14  15
ENDBRANCH  13  14
ENDBRANCH  12  13
ENDBRANCH  11  12
ENDBRANCH   1  11
TORSDOF 14
ENDMDL
MODEL 3
REMARK VINA RESULT:    -3.365      3.013      5.478
REMARK INTER + INTRA:          -8.718
REMARK INTER:                  -6.046
REMARK INTRA:                  -2.673
REMARK UNBOUND:                -2.599
REMARK SMILES CCCCCCCCCCCCCCCC(=O)[O-]
REMARK SMILES IDX 9 1 10 2 11 3 12 4 13 5 14 6 15 7 16 8 17 9 18 10 8 11 7 12
REMARK SMILES IDX 6 13 5 14 4 15 3 16 2 17 1 18
REMARK H PARENT
REMARK Flexibility Score: inf
ROOT
ATOM      1  C   UNL     1     -13.784  -8.192  26.538  1.00  0.00     0.000 C 
ENDROOT
BRANCH   1   2
ATOM      2  C   UNL     1     -12.402  -8.520  25.938  1.00  0.00     0.000 C 
BRANCH   2   3
ATOM      3  C   UNL     1     -11.250  -8.598  26.955  1.00  0.00     0.000 C 
BRANCH   3   4
ATOM      4  C   UNL     1     -10.741 -10.033  27.172  1.00  0.00     0.000 C 
BRANCH   4   5
ATOM      5  C   UNL     1     -10.660 -10.833  25.862  1.00  0.00     0.000 C 
BRANCH   5   6
ATOM      6  C   UNL     1     -10.182 -12.280  26.079  1.00  0.00     0.006 C 
BRANCH   6   7
ATOM      7  C   UNL     1     -11.025 -13.292  25.292  1.00  0.00     0.053 C 
BRANCH   7   8
ATOM      8  C   UNL     1     -11.180 -14.583  26.037  1.00  0.00     0.041 C 
ATOM      9  O   UNL     1     -12.325 -15.069  26.230  1.00  0.00    -0.550 OA
ATOM     10  O   UNL     1     -10.057 -15.268  26.485  1.00  0.00    -0.550 OA
ENDBRANCH   7   8
ENDBRANCH   6   7
ENDBRANCH   5   6
ENDBRANCH   4   5
ENDBRANCH   3   4
ENDBRANCH   2   3
ENDBRANCH   1   2
BRANCH   1  11
ATOM     11  C   UNL     1     -14.702  -9.408  26.774  1.00  0.00     0.000 C 
BRANCH  11  12
ATOM     12  C   UNL     1     -14.428 -10.619  25.863  1.00  0.00    -0.000 C 
BRANCH  12  13
ATOM     13  C   UNL     1     -14.138 -11.906  26.655  1.00  0.00    -0.000 C 
BRANCH  13  14
ATOM     14  C   UNL     1     -13.913 -11.636  28.153  1.00  0.00    -0.000 C 
BRANCH  14  15
ATOM     15  C   UNL     1     -12.915 -12.621  28.784  1.00  0.00    -0.000 C 
BRANCH  15  16
ATOM     16  C   UNL     1     -12.070 -11.981  29.902  1.00  0.00    -0.000 C 
BRANCH  16  17
ATOM     17  C   UNL     1     -12.558 -10.599  30.374  1.00  0.00    -0.003 C 
ATOM     18  C   UNL     1     -11.443  -9.745  30.975  1.00  0.00     0.004 C 
ENDBRANCH  16  17
ENDBRANCH  15  16
ENDBRANCH  14  15
ENDBRANCH  13  14
ENDBRANCH  12  13
ENDBRANCH  11  12
ENDBRANCH   1  11
TORSDOF 14
ENDMDL
MODEL 4
REMARK VINA RESULT:    -3.357      3.528      5.468
REMARK INTER + INTRA:          -8.704
REMARK INTER:                  -6.160
REMARK INTRA:                  -2.544
REMARK UNBOUND:                -2.599
REMARK SMILES CCCCCCCCCCCCCCCC(=O)[O-]
REMARK SMILES IDX 9 1 10 2 11 3 12 4 13 5 14 6 15 7 16 8 17 9 18 10 8 11 7 12
REMARK SMILES IDX 6 13 5 14 4 15 3 16 2 17 1 18
REMARK H PARENT
REMARK Flexibility Score: inf
ROOT
ATOM      1  C   UNL     1     -10.807 -12.190  27.359  1.00  0.00     0.000 C 
ENDROOT
BRANCH   1   2
ATOM      2  C   UNL     1     -10.109 -12.259  25.986  1.00  0.00     0.000 C 
BRANCH   2   3
ATOM      3  C   UNL     1     -10.913 -11.668  24.814  1.00  0.00     0.000 C 
BRANCH   3   4
ATOM      4  C   UNL     1     -11.166 -12.686  23.690  1.00  0.00     0.000 C 
BRANCH   4   5
ATOM      5  C   UNL     1     -12.629 -13.155  23.638  1.00  0.00     0.000 C 
BRANCH   5   6
ATOM      6  C   UNL     1     -12.816 -14.581  24.188  1.00  0.00     0.006 C 
BRANCH   6   7
ATOM      7  C   UNL     1     -14.182 -14.767  24.862  1.00  0.00     0.053 C 
BRANCH   7   8
ATOM      8  C   UNL     1     -14.240 -16.035  25.658  1.00  0.00     0.041 C 
ATOM      9  O   UNL     1     -15.311 -16.694  25.722  1.00  0.00    -0.550 OA
ATOM     10  O   UNL     1     -13.102 -16.508  26.299  1.00  0.00    -0.550 OA
ENDBRANCH   7   8
ENDBRANCH   6   7
ENDBRANCH   5   6
ENDBRANCH   4   5
ENDBRANCH   3   4
ENDBRANCH   2   3
ENDBRANCH   1   2
BRANCH   1  11
ATOM     11  C   UNL     1     -12.212 -12.824  27.414  1.00  0.00     0.000 C 
BRANCH  11  12
ATOM     12  C   UNL     1     -13.351 -11.856  27.785  1.00  0.00    -0.000 C 
BRANCH  12  13
ATOM     13  C   UNL     1     -14.249 -11.506  26.586  1.00  0.00    -0.000 C 
BRANCH  13  14
ATOM     14  C   UNL     1     -14.488  -9.993  26.452  1.00  0.00    -0.000 C 
BRANCH  14  15
ATOM     15  C   UNL     1     -13.602  -9.351  25.371  1.00  0.00    -0.000 C 
BRANCH  15  16
ATOM     16  C   UNL     1     -12.755  -8.183  25.909  1.00  0.00    -0.000 C 
BRANCH  16  17
ATOM     17  C   UNL     1     -11.491  -8.599  26.683  1.00  0.00    -0.003 C 
ATOM     18  C   UNL     1     -11.613  -8.380  28.190  1.00  0.00     0.004 C 
ENDBRANCH  16  17
ENDBRANCH  15  16
ENDBRANCH  14  15
ENDBRANCH  13  14
ENDBRANCH  12  13
ENDBRANCH  11  12
ENDBRANCH   1  11
TORSDOF 14
ENDMDL
MODEL 5
REMARK VINA RESULT:    -3.346      2.765      5.227
REMARK INTER + INTRA:          -8.684
REMARK INTER:                  -6.378
REMARK INTRA:                  -2.306
REMARK UNBOUND:                -2.599
REMARK SMILES CCCCCCCCCCCCCCCC(=O)[O-]
REMARK SMILES IDX 9 1 10 2 11 3 12 4 13 5 14 6 15 7 16 8 17 9 18 10 8 11 7 12
REMARK SMILES IDX 6 13 5 14 4 15 3 16 2 17 1 18
REMARK H PARENT
REMARK Flexibility Score: inf
ROOT
ATOM      1  C   UNL     1     -16.046  -7.280  25.348  1.00  0.00     0.000 C 
ENDROOT
BRANCH   1   2
ATOM      2  C   UNL     1     -15.653  -7.972  26.668  1.00  0.00     0.000 C 
BRANCH   2   3
ATOM      3  C   UNL     1     -15.330  -9.472  26.549  1.00  0.00     0.000 C 
BRANCH   3   4
ATOM      4  C   UNL     1     -15.629 -10.037  25.150  1.00  0.00     0.000 C 
BRANCH   4   5
ATOM      5  C   UNL     1     -14.843 -11.326  24.855  1.00  0.00     0.000 C 
BRANCH   5   6
ATOM      6  C   UNL     1     -14.138 -11.890  26.102  1.00  0.00     0.006 C 
BRANCH   6   7
ATOM      7  C   UNL     1     -12.849 -12.641  25.746  1.00  0.00     0.053 C 
BRANCH   7   8
ATOM      8  C   UNL     1     -13.084 -14.115  25.611  1.00  0.00     0.041 C 
ATOM      9  O   UNL     1     -13.067 -14.856  26.629  1.00  0.00    -0.550 OA
ATOM     10  O   UNL     1     -13.358 -14.665  24.365  1.00  0.00    -0.550 OA
ENDBRANCH   7   8
ENDBRANCH   6   7
ENDBRANCH   5   6
ENDBRANCH   4   5
ENDBRANCH   3   4
ENDBRANCH   2   3
ENDBRANCH   1   2
BRANCH   1  11
ATOM     11  C   UNL     1     -15.522  -5.840  25.180  1.00  0.00     0.000 C 
BRANCH  11  12
ATOM     12  C   UNL     1     -14.650  -5.603  23.933  1.00  0.00    -0.000 C 
BRANCH  12  13
ATOM     13  C   UNL     1     -13.828  -6.842  23.538  1.00  0.00    -0.000 C 
BRANCH  13  14
ATOM     14  C   UNL     1     -12.501  -6.937  24.310  1.00  0.00    -0.000 C 
BRANCH  14  15
ATOM     15  C   UNL     1     -12.325  -8.295  25.011  1.00  0.00    -0.000 C 
BRANCH  15  16
ATOM     16  C   UNL     1     -11.653  -8.171  26.391  1.00  0.00    -0.000 C 
BRANCH  16  17
ATOM     17  C   UNL     1     -11.427  -9.505  27.125  1.00  0.00    -0.003 C 
ATOM     18  C   UNL     1     -12.058  -9.537  28.516  1.00  0.00     0.004 C 
ENDBRANCH  16  17
ENDBRANCH  15  16
ENDBRANCH  14  15
ENDBRANCH  13  14
ENDBRANCH  12  13
ENDBRANCH  11  12
ENDBRANCH   1  11
TORSDOF 14
ENDMDL
MODEL 6
REMARK VINA RESULT:    -3.327     13.155     15.472
REMARK INTER + INTRA:          -8.650
REMARK INTER:                  -6.562
REMARK INTRA:                  -2.087
REMARK UNBOUND:                -2.599
REMARK SMILES CCCCCCCCCCCCCCCC(=O)[O-]
REMARK SMILES IDX 9 1 10 2 11 3 12 4 13 5 14 6 15 7 16 8 17 9 18 10 8 11 7 12
REMARK SMILES IDX 6 13 5 14 4 15 3 16 2 17 1 18
REMARK H PARENT
REMARK Flexibility Score: inf
ROOT
ATOM      1  C   UNL     1      -1.895 -20.984  29.597  1.00  0.00     0.000 C 
ENDROOT
BRANCH   1   2
ATOM      2  C   UNL     1      -2.554 -20.294  28.385  1.00  0.00     0.000 C 
BRANCH   2   3
ATOM      3  C   UNL     1      -3.773 -19.414  28.717  1.00  0.00     0.000 C 
BRANCH   3   4
ATOM      4  C   UNL     1      -4.175 -19.486  30.199  1.00  0.00     0.000 C 
BRANCH   4   5
ATOM      5  C   UNL     1      -5.410 -20.372  30.433  1.00  0.00     0.000 C 
BRANCH   5   6
ATOM      6  C   UNL     1      -6.077 -20.819  29.120  1.00  0.00     0.006 C 
BRANCH   6   7
ATOM      7  C   UNL     1      -6.285 -22.338  29.064  1.00  0.00     0.053 C 
BRANCH   7   8
ATOM      8  C   UNL     1      -5.173 -23.024  28.331  1.00  0.00     0.041 C 
ATOM      9  O   UNL     1      -4.901 -22.700  27.145  1.00  0.00    -0.550 OA
ATOM     10  O   UNL     1      -4.414 -23.996  28.970  1.00  0.00    -0.550 OA
ENDBRANCH   7   8
ENDBRANCH   6   7
ENDBRANCH   5   6
ENDBRANCH   4   5
ENDBRANCH   3   4
ENDBRANCH   2   3
ENDBRANCH   1   2
BRANCH   1  11
ATOM     11  C   UNL     1      -0.359 -21.095  29.534  1.00  0.00     0.000 C 
BRANCH  11  12
ATOM     12  C   UNL     1       0.406 -20.026  30.334  1.00  0.00    -0.000 C 
BRANCH  12  13
ATOM     13  C   UNL     1       0.622 -18.727  29.538  1.00  0.00    -0.000 C 
BRANCH  13  14
ATOM     14  C   UNL     1      -0.185 -17.548  30.107  1.00  0.00    -0.000 C 
BRANCH  14  15
ATOM     15  C   UNL     1      -0.964 -16.789  29.019  1.00  0.00    -0.000 C 
BRANCH  15  16
ATOM     16  C   UNL     1      -0.551 -17.200  27.593  1.00  0.00    -0.000 C 
BRANCH  16  17
ATOM     17  C   UNL     1      -1.463 -16.666  26.474  1.00  0.00    -0.003 C 
ATOM     18  C   UNL     1      -2.443 -15.598  26.959  1.00  0.00     0.004 C 
ENDBRANCH  16  17
ENDBRANCH  15  16
ENDBRANCH  14  15
ENDBRANCH  13  14
ENDBRANCH  12  13
ENDBRANCH  11  12
ENDBRANCH   1  11
TORSDOF 14
ENDMDL
MODEL 7
REMARK VINA RESULT:    -3.275      3.320      5.848
REMARK INTER + INTRA:          -8.555
REMARK INTER:                  -6.071
REMARK INTRA:                  -2.484
REMARK UNBOUND:                -2.599
REMARK SMILES CCCCCCCCCCCCCCCC(=O)[O-]
REMARK SMILES IDX 9 1 10 2 11 3 12 4 13 5 14 6 15 7 16 8 17 9 18 10 8 11 7 12
REMARK SMILES IDX 6 13 5 14 4 15 3 16 2 17 1 18
REMARK H PARENT
REMARK Flexibility Score: inf
ROOT
ATOM      1  C   UNL     1     -14.279  -8.143  26.787  1.00  0.00     0.000 C 
ENDROOT
BRANCH   1   2
ATOM      2  C   UNL     1     -15.124  -9.422  26.627  1.00  0.00     0.000 C 
BRANCH   2   3
ATOM      3  C   UNL     1     -15.475  -9.796  25.175  1.00  0.00     0.000 C 
BRANCH   3   4
ATOM      4  C   UNL     1     -15.130 -11.255  24.835  1.00  0.00     0.000 C 
BRANCH   4   5
ATOM      5  C   UNL     1     -13.807 -11.712  25.472  1.00  0.00     0.000 C 
BRANCH   5   6
ATOM      6  C   UNL     1     -13.912 -13.099  26.130  1.00  0.00     0.006 C 
BRANCH   6   7
ATOM      7  C   UNL     1     -12.591 -13.876  26.057  1.00  0.00     0.053 C 
BRANCH   7   8
ATOM      8  C   UNL     1     -12.775 -15.227  25.438  1.00  0.00     0.041 C 
ATOM      9  O   UNL     1     -11.777 -15.877  25.027  1.00  0.00    -0.550 OA
ATOM     10  O   UNL     1     -14.044 -15.786  25.349  1.00  0.00    -0.550 OA
ENDBRANCH   7   8
ENDBRANCH   6   7
ENDBRANCH   5   6
ENDBRANCH   4   5
ENDBRANCH   3   4
ENDBRANCH   2   3
ENDBRANCH   1   2
BRANCH   1  11
ATOM     11  C   UNL     1     -13.434  -7.756  25.557  1.00  0.00     0.000 C 
BRANCH  11  12
ATOM     12  C   UNL     1     -12.015  -8.352  25.526  1.00  0.00    -0.000 C 
BRANCH  12  13
ATOM     13  C   UNL     1     -11.487  -8.704  26.928  1.00  0.00    -0.000 C 
BRANCH  13  14
ATOM     14  C   UNL     1     -10.799 -10.079  26.968  1.00  0.00    -0.000 C 
BRANCH  14  15
ATOM     15  C   UNL     1     -11.306 -10.955  28.127  1.00  0.00    -0.000 C 
BRANCH  15  16
ATOM     16  C   UNL     1     -12.189 -10.178  29.121  1.00  0.00    -0.000 C 
BRANCH  16  17
ATOM     17  C   UNL     1     -13.557 -10.819  29.412  1.00  0.00    -0.003 C 
ATOM     18  C   UNL     1     -13.470 -12.321  29.680  1.00  0.00     0.004 C 
ENDBRANCH  16  17
ENDBRANCH  15  16
ENDBRANCH  14  15
ENDBRANCH  13  14
ENDBRANCH  12  13
ENDBRANCH  11  12
ENDBRANCH   1  11
TORSDOF 14
ENDMDL
MODEL 8
REMARK VINA RESULT:    -3.252      1.483      3.346
REMARK INTER + INTRA:          -8.512
REMARK INTER:                  -6.021
REMARK INTRA:                  -2.492
REMARK UNBOUND:                -2.599
REMARK SMILES CCCCCCCCCCCCCCCC(=O)[O-]
REMARK SMILES IDX 9 1 10 2 11 3 12 4 13 5 14 6 15 7 16 8 17 9 18 10 8 11 7 12
REMARK SMILES IDX 6 13 5 14 4 15 3 16 2 17 1 18
REMARK H PARENT
REMARK Flexibility Score: inf
ROOT
ATOM      1  C   UNL     1     -12.903  -9.103  24.129  1.00  0.00     0.000 C 
ENDROOT
BRANCH   1   2
ATOM      2  C   UNL     1     -12.461  -7.903  24.991  1.00  0.00     0.000 C 
BRANCH   2   3
ATOM      3  C   UNL     1     -11.603  -8.261  26.218  1.00  0.00     0.000 C 
BRANCH   3   4
ATOM      4  C   UNL     1     -12.441  -8.473  27.490  1.00  0.00     0.000 C 
BRANCH   4   5
ATOM      5  C   UNL     1     -11.571  -8.686  28.740  1.00  0.00     0.000 C 
BRANCH   5   6
ATOM      6  C   UNL     1     -12.013  -9.903  29.571  1.00  0.00     0.006 C 
BRANCH   6   7
ATOM      7  C   UNL     1     -10.864 -10.893  29.804  1.00  0.00     0.053 C 
BRANCH   7   8
ATOM      8  C   UNL     1     -10.469 -10.955  31.248  1.00  0.00     0.041 C 
ATOM      9  O   UNL     1     -10.568  -9.933  31.976  1.00  0.00    -0.550 OA
ATOM     10  O   UNL     1     -10.024 -12.151  31.797  1.00  0.00    -0.550 OA
ENDBRANCH   7   8
ENDBRANCH   6   7
ENDBRANCH   5   6
ENDBRANCH   4   5
ENDBRANCH   3   4
ENDBRANCH   2   3
ENDBRANCH   1   2
BRANCH   1  11
ATOM     11  C   UNL     1     -14.392  -9.485  24.252  1.00  0.00     0.000 C 
BRANCH  11  12
ATOM     12  C   UNL     1     -14.660 -10.882  24.842  1.00  0.00    -0.000 C 
BRANCH  12  13
ATOM     13  C   UNL     1     -14.629 -10.895  26.380  1.00  0.00    -0.000 C 
BRANCH  13  14
ATOM     14  C   UNL     1     -13.688 -11.976  26.940  1.00  0.00    -0.000 C 
BRANCH  14  15
ATOM     15  C   UNL     1     -12.613 -12.402  25.925  1.00  0.00    -0.000 C 
BRANCH  15  16
ATOM     16  C   UNL     1     -11.181 -12.130  26.422  1.00  0.00    -0.000 C 
BRANCH  16  17
ATOM     17  C   UNL     1     -10.232 -11.529  25.370  1.00  0.00    -0.003 C 
ATOM     18  C   UNL     1     -10.520 -12.022  23.953  1.00  0.00     0.004 C 
ENDBRANCH  16  17
ENDBRANCH  15  16
ENDBRANCH  14  15
ENDBRANCH  13  14
ENDBRANCH  12  13
ENDBRANCH  11  12
ENDBRANCH   1  11
TORSDOF 14
ENDMDL
MODEL 9
REMARK VINA RESULT:    -3.251      2.514      4.340
REMARK INTER + INTRA:          -8.512
REMARK INTER:                  -6.269
REMARK INTRA:                  -2.242
REMARK UNBOUND:                -2.599
REMARK SMILES CCCCCCCCCCCCCCCC(=O)[O-]
REMARK SMILES IDX 9 1 10 2 11 3 12 4 13 5 14 6 15 7 16 8 17 9 18 10 8 11 7 12
REMARK SMILES IDX 6 13 5 14 4 15 3 16 2 17 1 18
REMARK H PARENT
REMARK Flexibility Score: inf
ROOT
ATOM      1  C   UNL     1     -11.828  -8.648  28.268  1.00  0.00     0.000 C 
ENDROOT
BRANCH   1   2
ATOM      2  C   UNL     1     -11.749  -9.999  29.008  1.00  0.00     0.000 C 
BRANCH   2   3
ATOM      3  C   UNL     1     -13.107 -10.631  29.362  1.00  0.00     0.000 C 
BRANCH   3   4
ATOM      4  C   UNL     1     -13.735 -11.394  28.184  1.00  0.00     0.000 C 
BRANCH   4   5
ATOM      5  C   UNL     1     -12.968 -12.682  27.840  1.00  0.00     0.000 C 
BRANCH   5   6
ATOM      6  C   UNL     1     -12.541 -12.742  26.363  1.00  0.00     0.006 C 
BRANCH   6   7
ATOM      7  C   UNL     1     -11.085 -12.304  26.163  1.00  0.00     0.053 C 
BRANCH   7   8
ATOM      8  C   UNL     1     -10.133 -13.451  26.313  1.00  0.00     0.041 C 
ATOM      9  O   UNL     1      -9.352 -13.502  27.300  1.00  0.00    -0.550 OA
ATOM     10  O   UNL     1     -10.135 -14.484  25.384  1.00  0.00    -0.550 OA
ENDBRANCH   7   8
ENDBRANCH   6   7
ENDBRANCH   5   6
ENDBRANCH   4   5
ENDBRANCH   3   4
ENDBRANCH   2   3
ENDBRANCH   1   2
BRANCH   1  11
ATOM     11  C   UNL     1     -11.266  -8.652  26.832  1.00  0.00     0.000 C 
BRANCH  11  12
ATOM     12  C   UNL     1     -12.249  -8.177  25.746  1.00  0.00    -0.000 C 
BRANCH  12  13
ATOM     13  C   UNL     1     -13.093  -9.324  25.164  1.00  0.00    -0.000 C 
BRANCH  13  14
ATOM     14  C   UNL     1     -14.599  -9.130  25.412  1.00  0.00    -0.000 C 
BRANCH  14  15
ATOM     15  C   UNL     1     -14.898  -7.888  26.269  1.00  0.00    -0.000 C 
BRANCH  15  16
ATOM     16  C   UNL     1     -15.870  -6.910  25.583  1.00  0.00    -0.000 C 
BRANCH  16  17
ATOM     17  C   UNL     1     -15.205  -5.690  24.922  1.00  0.00    -0.003 C 
ATOM     18  C   UNL     1     -14.770  -5.953  23.481  1.00  0.00     0.004 C 
ENDBRANCH  16  17
ENDBRANCH  15  16
ENDBRANCH  14  15
ENDBRANCH  13  14
ENDBRANCH  12  13
ENDBRANCH  11  12
ENDBRANCH   1  11
TORSDOF 14
ENDMDL
