MODEL 1
REMARK VINA RESULT:    -4.370      0.000      0.000
REMARK INTER + INTRA:          -4.370
REMARK INTER:                  -4.370
REMARK INTRA:                   0.000
REMARK UNBOUND:                 0.000
REMARK SMILES CC(C)=C1CC[C@@H](C)CC1=O
REMARK SMILES IDX 8 1 7 2 6 3 5 4 4 5 2 6 1 7 3 8 10 9 11 10 9 11
REMARK H PARENT
REMARK Flexibility Score: inf
ROOT
ATOM      1  C   UNL     1      -6.512  35.636  -0.041  1.00  0.00     0.008 C 
ATOM      2  C   UNL     1      -7.528  36.477  -0.823  1.00  0.00    -0.006 C 
ATOM      3  C   UNL     1      -8.861  35.724  -0.962  1.00  0.00     0.008 C 
ATOM      4  C   UNL     1      -9.922  36.590  -1.652  1.00  0.00     0.039 C 
ATOM      5  C   UNL     1      -9.436  37.167  -2.974  1.00  0.00    -0.006 C 
ATOM      6  C   UNL     1     -10.296  37.392  -4.010  1.00  0.00    -0.070 C 
ATOM      7  C   UNL     1     -11.773  37.094  -3.881  1.00  0.00     0.039 C 
ATOM      8  C   UNL     1      -9.817  37.911  -5.345  1.00  0.00     0.039 C 
ATOM      9  C   UNL     1      -8.000  37.576  -3.022  1.00  0.00     0.159 C 
ATOM     10  O   UNL     1      -7.619  38.546  -3.732  1.00  0.00    -0.295 OA
ATOM     11  C   UNL     1      -6.978  36.832  -2.212  1.00  0.00     0.084 C 
ENDROOT
TORSDOF 0
ENDMDL
MODEL 2
REMARK VINA RESULT:    -4.350      2.266      3.160
REMARK INTER + INTRA:          -4.350
REMARK INTER:                  -4.350
REMARK INTRA:                   0.000
REMARK UNBOUND:                 0.000
REMARK SMILES CC(C)=C1CC[C@@H](C)CC1=O
REMARK SMILES IDX 8 1 7 2 6 3 5 4 4 5 2 6 1 7 3 8 10 9 11 10 9 11
REMARK H PARENT
REMARK Flexibility Score: inf
ROOT
ATOM      1  C   UNL     1      -9.102  35.721   2.529  1.00  0.00     0.008 C 
ATOM      2  C   UNL     1      -9.190  35.635   1.001  1.00  0.00    -0.006 C 
ATOM      3  C   UNL     1      -8.105  36.506   0.347  1.00  0.00     0.008 C 
ATOM      4  C   UNL     1      -8.112  36.353  -1.179  1.00  0.00     0.039 C 
ATOM      5  C   UNL     1      -9.491  36.584  -1.784  1.00  0.00    -0.006 C 
ATOM      6  C   UNL     1      -9.638  37.119  -3.031  1.00  0.00    -0.070 C 
ATOM      7  C   UNL     1      -8.438  37.488  -3.873  1.00  0.00     0.039 C 
ATOM      8  C   UNL     1     -11.001  37.405  -3.618  1.00  0.00     0.039 C 
ATOM      9  C   UNL     1     -10.649  36.084  -0.983  1.00  0.00     0.159 C 
ATOM     10  O   UNL     1     -11.696  35.660  -1.542  1.00  0.00    -0.295 OA
ATOM     11  C   UNL     1     -10.579  36.074   0.516  1.00  0.00     0.084 C 
ENDROOT
TORSDOF 0
ENDMDL
MODEL 3
REMARK VINA RESULT:    -4.329      1.515      4.582
REMARK INTER + INTRA:          -4.329
REMARK INTER:                  -4.329
REMARK INTRA:                   0.000
REMARK UNBOUND:                 0.000
REMARK SMILES CC(C)=C1CC[C@@H](C)CC1=O
REMARK SMILES IDX 8 1 7 2 6 3 5 4 4 5 2 6 1 7 3 8 10 9 11 10 9 11
REMARK H PARENT
REMARK Flexibility Score: inf
ROOT
ATOM      1  C   UNL     1     -11.399  37.465  -4.775  1.00  0.00     0.008 C 
ATOM      2  C   UNL     1     -10.195  37.732  -3.865  1.00  0.00    -0.006 C 
ATOM      3  C   UNL     1      -8.881  37.566  -4.645  1.00  0.00     0.008 C 
ATOM      4  C   UNL     1      -7.668  37.930  -3.778  1.00  0.00     0.039 C 
ATOM      5  C   UNL     1      -7.657  37.188  -2.449  1.00  0.00    -0.006 C 
ATOM      6  C   UNL     1      -6.485  36.841  -1.840  1.00  0.00    -0.070 C 
ATOM      7  C   UNL     1      -5.149  37.196  -2.450  1.00  0.00     0.039 C 
ATOM      8  C   UNL     1      -6.461  36.055  -0.549  1.00  0.00     0.039 C 
ATOM      9  C   UNL     1      -8.988  36.972  -1.807  1.00  0.00     0.159 C 
ATOM     10  O   UNL     1      -9.115  36.948  -0.554  1.00  0.00    -0.295 OA
ATOM     11  C   UNL     1     -10.212  36.784  -2.657  1.00  0.00     0.084 C 
ENDROOT
TORSDOF 0
ENDMDL
MODEL 4
REMARK VINA RESULT:    -4.325      1.818      2.628
REMARK INTER + INTRA:          -4.325
REMARK INTER:                  -4.325
REMARK INTRA:                   0.000
REMARK UNBOUND:                 0.000
REMARK SMILES CC(C)=C1CC[C@@H](C)CC1=O
REMARK SMILES IDX 8 1 7 2 6 3 5 4 4 5 2 6 1 7 3 8 10 9 11 10 9 11
REMARK H PARENT
REMARK Flexibility Score: inf
ROOT
ATOM      1  C   UNL     1      -6.119  35.675   0.689  1.00  0.00     0.008 C 
ATOM      2  C   UNL     1      -7.083  35.760  -0.501  1.00  0.00    -0.006 C 
ATOM      3  C   UNL     1      -6.910  37.094  -1.243  1.00  0.00     0.008 C 
ATOM      4  C   UNL     1      -7.792  37.154  -2.496  1.00  0.00     0.039 C 
ATOM      5  C   UNL     1      -9.251  36.836  -2.198  1.00  0.00    -0.006 C 
ATOM      6  C   UNL     1     -10.263  37.411  -2.912  1.00  0.00    -0.070 C 
ATOM      7  C   UNL     1      -9.977  38.374  -4.042  1.00  0.00     0.039 C 
ATOM      8  C   UNL     1     -11.716  37.146  -2.589  1.00  0.00     0.039 C 
ATOM      9  C   UNL     1      -9.495  35.780  -1.170  1.00  0.00     0.159 C 
ATOM     10  O   UNL     1     -10.497  35.018  -1.239  1.00  0.00    -0.295 OA
ATOM     11  C   UNL     1      -8.536  35.606  -0.028  1.00  0.00     0.084 C 
ENDROOT
TORSDOF 0
ENDMDL
MODEL 5
REMARK VINA RESULT:    -4.291      1.607      2.485
REMARK INTER + INTRA:          -4.291
REMARK INTER:                  -4.291
REMARK INTRA:                   0.000
REMARK UNBOUND:                 0.000
REMARK SMILES CC(C)=C1CC[C@@H](C)CC1=O
REMARK SMILES IDX 8 1 7 2 6 3 5 4 4 5 2 6 1 7 3 8 10 9 11 10 9 11
REMARK H PARENT
REMARK Flexibility Score: inf
ROOT
ATOM      1  C   UNL     1      -5.734  37.164  -1.024  1.00  0.00     0.008 C 
ATOM      2  C   UNL     1      -6.902  36.841  -1.963  1.00  0.00    -0.006 C 
ATOM      3  C   UNL     1      -7.042  37.925  -3.044  1.00  0.00     0.008 C 
ATOM      4  C   UNL     1      -8.140  37.566  -4.054  1.00  0.00     0.039 C 
ATOM      5  C   UNL     1      -9.466  37.236  -3.383  1.00  0.00    -0.006 C 
ATOM      6  C   UNL     1     -10.657  37.511  -3.990  1.00  0.00    -0.070 C 
ATOM      7  C   UNL     1     -10.710  38.140  -5.364  1.00  0.00     0.039 C 
ATOM      8  C   UNL     1     -11.979  37.240  -3.310  1.00  0.00     0.039 C 
ATOM      9  C   UNL     1      -9.379  36.494  -2.089  1.00  0.00     0.159 C 
ATOM     10  O   UNL     1     -10.268  35.670  -1.746  1.00  0.00    -0.295 OA
ATOM     11  C   UNL     1      -8.212  36.717  -1.171  1.00  0.00     0.084 C 
ENDROOT
TORSDOF 0
ENDMDL
MODEL 6
REMARK VINA RESULT:    -4.257      1.740      4.601
REMARK INTER + INTRA:          -4.257
REMARK INTER:                  -4.257
REMARK INTRA:                   0.000
REMARK UNBOUND:                 0.000
REMARK SMILES CC(C)=C1CC[C@@H](C)CC1=O
REMARK SMILES IDX 8 1 7 2 6 3 5 4 4 5 2 6 1 7 3 8 10 9 11 10 9 11
REMARK H PARENT
REMARK Flexibility Score: inf
ROOT
ATOM      1  C   UNL     1     -10.371  38.342  -5.362  1.00  0.00     0.008 C 
ATOM      2  C   UNL     1      -9.947  38.071  -3.914  1.00  0.00    -0.006 C 
ATOM      3  C   UNL     1      -8.529  37.480  -3.868  1.00  0.00     0.008 C 
ATOM      4  C   UNL     1      -8.047  37.299  -2.423  1.00  0.00     0.039 C 
ATOM      5  C   UNL     1      -9.035  36.513  -1.572  1.00  0.00    -0.006 C 
ATOM      6  C   UNL     1      -8.612  35.709  -0.553  1.00  0.00    -0.070 C 
ATOM      7  C   UNL     1      -7.145  35.579  -0.214  1.00  0.00     0.039 C 
ATOM      8  C   UNL     1      -9.579  34.881   0.261  1.00  0.00     0.039 C 
ATOM      9  C   UNL     1     -10.482  36.768  -1.845  1.00  0.00     0.159 C 
ATOM     10  O   UNL     1     -11.342  36.703  -0.926  1.00  0.00    -0.295 OA
ATOM     11  C   UNL     1     -10.936  37.115  -3.233  1.00  0.00     0.084 C 
ENDROOT
TORSDOF 0
ENDMDL
MODEL 7
REMARK VINA RESULT:    -4.246      1.808      2.905
REMARK INTER + INTRA:          -4.246
REMARK INTER:                  -4.246
REMARK INTRA:                   0.000
REMARK UNBOUND:                 0.000
REMARK SMILES CC(C)=C1CC[C@@H](C)CC1=O
REMARK SMILES IDX 8 1 7 2 6 3 5 4 4 5 2 6 1 7 3 8 10 9 11 10 9 11
REMARK H PARENT
REMARK Flexibility Score: inf
ROOT
ATOM      1  C   UNL     1      -6.468  35.954   2.011  1.00  0.00     0.008 C 
ATOM      2  C   UNL     1      -6.910  35.855   0.546  1.00  0.00    -0.006 C 
ATOM      3  C   UNL     1      -6.287  36.987  -0.286  1.00  0.00     0.008 C 
ATOM      4  C   UNL     1      -6.635  36.844  -1.773  1.00  0.00     0.039 C 
ATOM      5  C   UNL     1      -8.132  36.700  -2.010  1.00  0.00    -0.006 C 
ATOM      6  C   UNL     1      -8.720  37.182  -3.144  1.00  0.00    -0.070 C 
ATOM      7  C   UNL     1      -7.907  37.862  -4.221  1.00  0.00     0.039 C 
ATOM      8  C   UNL     1     -10.213  37.096  -3.365  1.00  0.00     0.039 C 
ATOM      9  C   UNL     1      -8.884  35.906  -0.993  1.00  0.00     0.159 C 
ATOM     10  O   UNL     1      -9.892  35.219  -1.312  1.00  0.00    -0.295 OA
ATOM     11  C   UNL     1      -8.441  35.908   0.442  1.00  0.00     0.084 C 
ENDROOT
TORSDOF 0
ENDMDL
MODEL 8
REMARK VINA RESULT:    -4.194      1.331      4.233
REMARK INTER + INTRA:          -4.194
REMARK INTER:                  -4.194
REMARK INTRA:                   0.000
REMARK UNBOUND:                 0.000
REMARK SMILES CC(C)=C1CC[C@@H](C)CC1=O
REMARK SMILES IDX 8 1 7 2 6 3 5 4 4 5 2 6 1 7 3 8 10 9 11 10 9 11
REMARK H PARENT
REMARK Flexibility Score: inf
ROOT
ATOM      1  C   UNL     1      -9.896  37.893  -4.996  1.00  0.00     0.008 C 
ATOM      2  C   UNL     1      -9.011  37.162  -3.980  1.00  0.00    -0.006 C 
ATOM      3  C   UNL     1      -9.680  37.139  -2.596  1.00  0.00     0.008 C 
ATOM      4  C   UNL     1      -8.857  36.324  -1.591  1.00  0.00     0.039 C 
ATOM      5  C   UNL     1      -7.402  36.769  -1.529  1.00  0.00    -0.006 C 
ATOM      6  C   UNL     1      -6.684  36.687  -0.372  1.00  0.00    -0.070 C 
ATOM      7  C   UNL     1      -7.296  36.132   0.894  1.00  0.00     0.039 C 
ATOM      8  C   UNL     1      -5.257  37.179  -0.284  1.00  0.00     0.039 C 
ATOM      9  C   UNL     1      -6.789  37.185  -2.826  1.00  0.00     0.159 C 
ATOM     10  O   UNL     1      -5.564  36.998  -3.060  1.00  0.00    -0.295 OA
ATOM     11  C   UNL     1      -7.633  37.833  -3.885  1.00  0.00     0.084 C 
ENDROOT
TORSDOF 0
ENDMDL
MODEL 9
REMARK VINA RESULT:    -4.182      9.939     11.854
REMARK INTER + INTRA:          -4.182
REMARK INTER:                  -4.182
REMARK INTRA:                   0.000
REMARK UNBOUND:                 0.000
REMARK SMILES CC(C)=C1CC[C@@H](C)CC1=O
REMARK SMILES IDX 8 1 7 2 6 3 5 4 4 5 2 6 1 7 3 8 10 9 11 10 9 11
REMARK H PARENT
REMARK Flexibility Score: inf
ROOT
ATOM      1  C   UNL     1      -0.996  35.794  10.345  1.00  0.00     0.008 C 
ATOM      2  C   UNL     1      -1.865  35.793   9.082  1.00  0.00    -0.006 C 
ATOM      3  C   UNL     1      -3.300  35.354   9.414  1.00  0.00     0.008 C 
ATOM      4  C   UNL     1      -4.210  35.445   8.182  1.00  0.00     0.039 C 
ATOM      5  C   UNL     1      -3.637  34.712   6.977  1.00  0.00    -0.006 C 
ATOM      6  C   UNL     1      -4.451  34.120   6.054  1.00  0.00    -0.070 C 
ATOM      7  C   UNL     1      -5.956  34.183   6.180  1.00  0.00     0.039 C 
ATOM      8  C   UNL     1      -3.894  33.341   4.885  1.00  0.00     0.039 C 
ATOM      9  C   UNL     1      -2.155  34.783   6.810  1.00  0.00     0.159 C 
ATOM     10  O   UNL     1      -1.624  34.781   5.667  1.00  0.00    -0.295 OA
ATOM     11  C   UNL     1      -1.264  34.866   8.016  1.00  0.00     0.084 C 
ENDROOT
TORSDOF 0
ENDMDL
