MODEL 1
REMARK VINA RESULT:    -4.743      0.000      0.000
REMARK INTER + INTRA:          -9.963
REMARK INTER:                  -8.347
REMARK INTRA:                  -1.616
REMARK UNBOUND:                -1.616
REMARK SMILES CCCCCCC=CCCCCCCCC(=O)[O-]
REMARK SMILES IDX 10 1 11 2 12 3 13 4 14 5 15 6 16 7 17 8 18 9 9 10 8 11 7 12
REMARK SMILES IDX 6 13 5 14 4 15 3 16 2 17 1 18
REMARK H PARENT
REMARK Flexibility Score: inf
ROOT
ATOM      1  C   UNL     1      -6.086  67.532  34.009  1.00  0.00     0.004 C 
ENDROOT
BRANCH   1   2
ATOM      2  C   UNL     1      -6.989  66.301  33.860  1.00  0.00     0.000 C 
BRANCH   2   3
ATOM      3  C   UNL     1      -7.648  66.266  32.475  1.00  0.00     0.000 C 
BRANCH   3   4
ATOM      4  C   UNL     1      -8.376  67.585  32.181  1.00  0.00     0.000 C 
BRANCH   4   5
ATOM      5  C   UNL     1      -9.295  67.499  30.948  1.00  0.00     0.006 C 
BRANCH   5   6
ATOM      6  C   UNL     1     -10.793  67.647  31.264  1.00  0.00     0.053 C 
BRANCH   6   7
ATOM      7  C   UNL     1     -11.527  66.350  31.127  1.00  0.00     0.041 C 
ATOM      8  O   UNL     1     -12.159  65.873  32.107  1.00  0.00    -0.550 OA
ATOM      9  O   UNL     1     -11.485  65.649  29.929  1.00  0.00    -0.550 OA
ENDBRANCH   6   7
ENDBRANCH   5   6
ENDBRANCH   4   5
ENDBRANCH   3   4
ENDBRANCH   2   3
ENDBRANCH   1   2
BRANCH   1  10
ATOM     10  C   UNL     1      -4.612  67.156  33.816  1.00  0.00     0.027 C 
BRANCH  10  11
ATOM     11  C   UNL     1      -4.148  67.475  32.421  1.00  0.00    -0.031 C 
ATOM     12  C   UNL     1      -2.849  67.646  32.136  1.00  0.00    -0.031 C 
BRANCH  12  13
ATOM     13  C   UNL     1      -2.378  67.989  30.749  1.00  0.00     0.027 C 
BRANCH  13  14
ATOM     14  C   UNL     1      -2.090  66.708  29.954  1.00  0.00     0.004 C 
BRANCH  14  15
ATOM     15  C   UNL     1      -3.239  66.328  29.007  1.00  0.00     0.000 C 
BRANCH  15  16
ATOM     16  C   UNL     1      -3.904  64.994  29.391  1.00  0.00    -0.000 C 
BRANCH  16  17
ATOM     17  C   UNL     1      -5.395  65.155  29.725  1.00  0.00    -0.003 C 
ATOM     18  C   UNL     1      -6.015  66.391  29.074  1.00  0.00     0.004 C 
ENDBRANCH  16  17
ENDBRANCH  15  16
ENDBRANCH  14  15
ENDBRANCH  13  14
ENDBRANCH  12  13
ENDBRANCH  10  11
ENDBRANCH   1  10
TORSDOF 13
ENDMDL
MODEL 2
REMARK VINA RESULT:    -4.727      1.190      2.327
REMARK INTER + INTRA:          -9.936
REMARK INTER:                  -7.735
REMARK INTRA:                  -2.201
REMARK UNBOUND:                -1.616
REMARK SMILES CCCCCCC=CCCCCCCCC(=O)[O-]
REMARK SMILES IDX 10 1 11 2 12 3 13 4 14 5 15 6 16 7 17 8 18 9 9 10 8 11 7 12
REMARK SMILES IDX 6 13 5 14 4 15 3 16 2 17 1 18
REMARK H PARENT
REMARK Flexibility Score: inf
ROOT
ATOM      1  C   UNL     1      -4.411  68.843  32.565  1.00  0.00     0.004 C 
ENDROOT
BRANCH   1   2
ATOM      2  C   UNL     1      -4.893  67.410  32.822  1.00  0.00     0.000 C 
BRANCH   2   3
ATOM      3  C   UNL     1      -5.923  67.370  33.958  1.00  0.00     0.000 C 
BRANCH   3   4
ATOM      4  C   UNL     1      -7.175  66.588  33.537  1.00  0.00     0.000 C 
BRANCH   4   5
ATOM      5  C   UNL     1      -8.041  67.350  32.516  1.00  0.00     0.006 C 
BRANCH   5   6
ATOM      6  C   UNL     1      -8.869  66.446  31.588  1.00  0.00     0.053 C 
BRANCH   6   7
ATOM      7  C   UNL     1      -9.802  67.233  30.722  1.00  0.00     0.041 C 
ATOM      8  O   UNL     1      -9.659  67.231  29.471  1.00  0.00    -0.550 OA
ATOM      9  O   UNL     1     -10.808  67.998  31.298  1.00  0.00    -0.550 OA
ENDBRANCH   6   7
ENDBRANCH   5   6
ENDBRANCH   4   5
ENDBRANCH   3   4
ENDBRANCH   2   3
ENDBRANCH   1   2
BRANCH   1  10
ATOM     10  C   UNL     1      -2.930  68.859  32.165  1.00  0.00     0.027 C 
BRANCH  10  11
ATOM     11  C   UNL     1      -2.543  67.587  31.463  1.00  0.00    -0.031 C 
ATOM     12  C   UNL     1      -2.306  67.560  30.143  1.00  0.00    -0.031 C 
BRANCH  12  13
ATOM     13  C   UNL     1      -1.942  66.287  29.427  1.00  0.00     0.027 C 
BRANCH  13  14
ATOM     14  C   UNL     1      -3.124  65.799  28.579  1.00  0.00     0.004 C 
BRANCH  14  15
ATOM     15  C   UNL     1      -4.102  64.921  29.376  1.00  0.00     0.000 C 
BRANCH  15  16
ATOM     16  C   UNL     1      -5.465  65.601  29.593  1.00  0.00    -0.000 C 
BRANCH  16  17
ATOM     17  C   UNL     1      -5.694  66.780  28.635  1.00  0.00    -0.003 C 
ATOM     18  C   UNL     1      -6.123  68.055  29.361  1.00  0.00     0.004 C 
ENDBRANCH  16  17
ENDBRANCH  15  16
ENDBRANCH  14  15
ENDBRANCH  13  14
ENDBRANCH  12  13
ENDBRANCH  10  11
ENDBRANCH   1  10
TORSDOF 13
ENDMDL
MODEL 3
REMARK VINA RESULT:    -4.700      1.709      3.044
REMARK INTER + INTRA:          -9.889
REMARK INTER:                  -7.298
REMARK INTRA:                  -2.591
REMARK UNBOUND:                -1.616
REMARK SMILES CCCCCCC=CCCCCCCCC(=O)[O-]
REMARK SMILES IDX 10 1 11 2 12 3 13 4 14 5 15 6 16 7 17 8 18 9 9 10 8 11 7 12
REMARK SMILES IDX 6 13 5 14 4 15 3 16 2 17 1 18
REMARK H PARENT
REMARK Flexibility Score: inf
ROOT
ATOM      1  C   UNL     1      -4.258  68.837  32.639  1.00  0.00     0.004 C 
ENDROOT
BRANCH   1   2
ATOM      2  C   UNL     1      -4.758  67.432  32.993  1.00  0.00     0.000 C 
BRANCH   2   3
ATOM      3  C   UNL     1      -6.108  67.494  33.720  1.00  0.00     0.000 C 
BRANCH   3   4
ATOM      4  C   UNL     1      -7.146  66.600  33.027  1.00  0.00     0.000 C 
BRANCH   4   5
ATOM      5  C   UNL     1      -8.375  67.385  32.532  1.00  0.00     0.006 C 
BRANCH   5   6
ATOM      6  C   UNL     1      -9.238  66.628  31.508  1.00  0.00     0.053 C 
BRANCH   6   7
ATOM      7  C   UNL     1      -9.982  67.560  30.603  1.00  0.00     0.041 C 
ATOM      8  O   UNL     1     -10.072  67.310  29.372  1.00  0.00    -0.550 OA
ATOM      9  O   UNL     1     -10.546  68.723  31.111  1.00  0.00    -0.550 OA
ENDBRANCH   6   7
ENDBRANCH   5   6
ENDBRANCH   4   5
ENDBRANCH   3   4
ENDBRANCH   2   3
ENDBRANCH   1   2
BRANCH   1  10
ATOM     10  C   UNL     1      -5.339  69.633  31.897  1.00  0.00     0.027 C 
BRANCH  10  11
ATOM     11  C   UNL     1      -5.421  69.222  30.453  1.00  0.00    -0.031 C 
ATOM     12  C   UNL     1      -6.596  68.939  29.871  1.00  0.00    -0.031 C 
BRANCH  12  13
ATOM     13  C   UNL     1      -6.686  68.504  28.433  1.00  0.00     0.027 C 
BRANCH  13  14
ATOM     14  C   UNL     1      -5.973  67.160  28.240  1.00  0.00     0.004 C 
BRANCH  14  15
ATOM     15  C   UNL     1      -6.502  66.067  29.183  1.00  0.00     0.000 C 
BRANCH  15  16
ATOM     16  C   UNL     1      -5.387  65.422  30.025  1.00  0.00    -0.000 C 
BRANCH  16  17
ATOM     17  C   UNL     1      -4.039  65.386  29.288  1.00  0.00    -0.003 C 
ATOM     18  C   UNL     1      -3.000  66.314  29.914  1.00  0.00     0.004 C 
ENDBRANCH  16  17
ENDBRANCH  15  16
ENDBRANCH  14  15
ENDBRANCH  13  14
ENDBRANCH  12  13
ENDBRANCH  10  11
ENDBRANCH   1  10
TORSDOF 13
ENDMDL
MODEL 4
REMARK VINA RESULT:    -4.658      2.508      4.783
REMARK INTER + INTRA:          -9.814
REMARK INTER:                  -8.086
REMARK INTRA:                  -1.728
REMARK UNBOUND:                -1.616
REMARK SMILES CCCCCCC=CCCCCCCCC(=O)[O-]
REMARK SMILES IDX 10 1 11 2 12 3 13 4 14 5 15 6 16 7 17 8 18 9 9 10 8 11 7 12
REMARK SMILES IDX 6 13 5 14 4 15 3 16 2 17 1 18
REMARK H PARENT
REMARK Flexibility Score: inf
ROOT
ATOM      1  C   UNL     1      -9.303  68.830  28.312  1.00  0.00     0.004 C 
ENDROOT
BRANCH   1   2
ATOM      2  C   UNL     1      -9.438  69.889  29.413  1.00  0.00     0.000 C 
BRANCH   2   3
ATOM      3  C   UNL     1      -9.235  69.268  30.801  1.00  0.00     0.000 C 
BRANCH   3   4
ATOM      4  C   UNL     1     -10.568  68.770  31.379  1.00  0.00     0.000 C 
BRANCH   4   5
ATOM      5  C   UNL     1     -10.671  67.234  31.408  1.00  0.00     0.006 C 
BRANCH   5   6
ATOM      6  C   UNL     1     -11.750  66.655  30.478  1.00  0.00     0.053 C 
BRANCH   6   7
ATOM      7  C   UNL     1     -12.576  65.609  31.159  1.00  0.00     0.041 C 
ATOM      8  O   UNL     1     -13.004  64.617  30.511  1.00  0.00    -0.550 OA
ATOM      9  O   UNL     1     -12.906  65.747  32.501  1.00  0.00    -0.550 OA
ENDBRANCH   6   7
ENDBRANCH   5   6
ENDBRANCH   4   5
ENDBRANCH   3   4
ENDBRANCH   2   3
ENDBRANCH   1   2
BRANCH   1  10
ATOM     10  C   UNL     1      -7.831  68.596  27.954  1.00  0.00     0.027 C 
BRANCH  10  11
ATOM     11  C   UNL     1      -7.302  67.353  28.615  1.00  0.00    -0.031 C 
ATOM     12  C   UNL     1      -8.121  66.369  29.013  1.00  0.00    -0.031 C 
BRANCH  12  13
ATOM     13  C   UNL     1      -7.604  65.133  29.698  1.00  0.00     0.027 C 
BRANCH  13  14
ATOM     14  C   UNL     1      -6.631  65.516  30.821  1.00  0.00     0.004 C 
BRANCH  14  15
ATOM     15  C   UNL     1      -7.348  66.072  32.062  1.00  0.00     0.000 C 
BRANCH  15  16
ATOM     16  C   UNL     1      -6.393  66.820  33.010  1.00  0.00    -0.000 C 
BRANCH  16  17
ATOM     17  C   UNL     1      -7.050  67.160  34.357  1.00  0.00    -0.003 C 
ATOM     18  C   UNL     1      -6.156  68.024  35.246  1.00  0.00     0.004 C 
ENDBRANCH  16  17
ENDBRANCH  15  16
ENDBRANCH  14  15
ENDBRANCH  13  14
ENDBRANCH  12  13
ENDBRANCH  10  11
ENDBRANCH   1  10
TORSDOF 13
ENDMDL
MODEL 5
REMARK VINA RESULT:    -4.649      1.982      3.954
REMARK INTER + INTRA:          -9.798
REMARK INTER:                  -7.606
REMARK INTRA:                  -2.192
REMARK UNBOUND:                -1.616
REMARK SMILES CCCCCCC=CCCCCCCCC(=O)[O-]
REMARK SMILES IDX 10 1 11 2 12 3 13 4 14 5 15 6 16 7 17 8 18 9 9 10 8 11 7 12
REMARK SMILES IDX 6 13 5 14 4 15 3 16 2 17 1 18
REMARK H PARENT
REMARK Flexibility Score: inf
ROOT
ATOM      1  C   UNL     1      -8.435  68.838  28.379  1.00  0.00     0.004 C 
ENDROOT
BRANCH   1   2
ATOM      2  C   UNL     1      -9.583  67.852  28.132  1.00  0.00     0.000 C 
BRANCH   2   3
ATOM      3  C   UNL     1      -9.227  66.452  28.650  1.00  0.00     0.000 C 
BRANCH   3   4
ATOM      4  C   UNL     1     -10.129  66.058  29.828  1.00  0.00     0.000 C 
BRANCH   4   5
ATOM      5  C   UNL     1     -11.157  67.147  30.186  1.00  0.00     0.006 C 
BRANCH   5   6
ATOM      6  C   UNL     1     -12.621  66.680  30.125  1.00  0.00     0.053 C 
BRANCH   6   7
ATOM      7  C   UNL     1     -12.893  65.557  31.077  1.00  0.00     0.041 C 
ATOM      8  O   UNL     1     -12.841  65.754  32.320  1.00  0.00    -0.550 OA
ATOM      9  O   UNL     1     -13.168  64.285  30.593  1.00  0.00    -0.550 OA
ENDBRANCH   6   7
ENDBRANCH   5   6
ENDBRANCH   4   5
ENDBRANCH   3   4
ENDBRANCH   2   3
ENDBRANCH   1   2
BRANCH   1  10
ATOM     10  C   UNL     1      -7.337  68.675  27.321  1.00  0.00     0.027 C 
BRANCH  10  11
ATOM     11  C   UNL     1      -6.017  68.334  27.955  1.00  0.00    -0.031 C 
ATOM     12  C   UNL     1      -5.613  67.062  28.090  1.00  0.00    -0.031 C 
BRANCH  12  13
ATOM     13  C   UNL     1      -4.305  66.709  28.746  1.00  0.00     0.027 C 
BRANCH  13  14
ATOM     14  C   UNL     1      -4.537  65.711  29.888  1.00  0.00     0.004 C 
BRANCH  14  15
ATOM     15  C   UNL     1      -5.939  65.083  29.850  1.00  0.00     0.000 C 
BRANCH  15  16
ATOM     16  C   UNL     1      -6.693  65.239  31.183  1.00  0.00    -0.000 C 
BRANCH  16  17
ATOM     17  C   UNL     1      -6.302  66.523  31.933  1.00  0.00    -0.003 C 
ATOM     18  C   UNL     1      -7.229  67.696  31.615  1.00  0.00     0.004 C 
ENDBRANCH  16  17
ENDBRANCH  15  16
ENDBRANCH  14  15
ENDBRANCH  13  14
ENDBRANCH  12  13
ENDBRANCH  10  11
ENDBRANCH   1  10
TORSDOF 13
ENDMDL
MODEL 6
REMARK VINA RESULT:    -4.614      2.736      6.395
REMARK INTER + INTRA:          -9.737
REMARK INTER:                  -7.566
REMARK INTRA:                  -2.171
REMARK UNBOUND:                -1.616
REMARK SMILES CCCCCCC=CCCCCCCCC(=O)[O-]
REMARK SMILES IDX 10 1 11 2 12 3 13 4 14 5 15 6 16 7 17 8 18 9 9 10 8 11 7 12
REMARK SMILES IDX 6 13 5 14 4 15 3 16 2 17 1 18
REMARK H PARENT
REMARK Flexibility Score: inf
ROOT
ATOM      1  C   UNL     1      -6.354  68.459  28.654  1.00  0.00     0.004 C 
ENDROOT
BRANCH   1   2
ATOM      2  C   UNL     1      -5.822  67.106  28.164  1.00  0.00     0.000 C 
BRANCH   2   3
ATOM      3  C   UNL     1      -5.045  66.385  29.273  1.00  0.00     0.000 C 
BRANCH   3   4
ATOM      4  C   UNL     1      -5.868  65.225  29.853  1.00  0.00     0.000 C 
BRANCH   4   5
ATOM      5  C   UNL     1      -6.513  65.568  31.208  1.00  0.00     0.006 C 
BRANCH   5   6
ATOM      6  C   UNL     1      -5.810  66.699  31.977  1.00  0.00     0.053 C 
BRANCH   6   7
ATOM      7  C   UNL     1      -6.088  66.637  33.447  1.00  0.00     0.041 C 
ATOM      8  O   UNL     1      -7.235  66.323  33.861  1.00  0.00    -0.550 OA
ATOM      9  O   UNL     1      -5.092  66.961  34.358  1.00  0.00    -0.550 OA
ENDBRANCH   6   7
ENDBRANCH   5   6
ENDBRANCH   4   5
ENDBRANCH   3   4
ENDBRANCH   2   3
ENDBRANCH   1   2
BRANCH   1  10
ATOM     10  C   UNL     1      -7.837  68.624  28.299  1.00  0.00     0.027 C 
BRANCH  10  11
ATOM     11  C   UNL     1      -8.719  68.004  29.347  1.00  0.00    -0.031 C 
ATOM     12  C   UNL     1      -8.792  68.506  30.589  1.00  0.00    -0.031 C 
BRANCH  12  13
ATOM     13  C   UNL     1      -9.653  67.877  31.651  1.00  0.00     0.027 C 
BRANCH  13  14
ATOM     14  C   UNL     1     -10.122  66.487  31.200  1.00  0.00     0.004 C 
BRANCH  14  15
ATOM     15  C   UNL     1     -11.619  66.256  31.454  1.00  0.00     0.000 C 
BRANCH  15  16
ATOM     16  C   UNL     1     -12.500  66.761  30.297  1.00  0.00    -0.000 C 
BRANCH  16  17
ATOM     17  C   UNL     1     -11.953  66.354  28.920  1.00  0.00    -0.003 C 
ATOM     18  C   UNL     1     -12.468  67.249  27.794  1.00  0.00     0.004 C 
ENDBRANCH  16  17
ENDBRANCH  15  16
ENDBRANCH  14  15
ENDBRANCH  13  14
ENDBRANCH  12  13
ENDBRANCH  10  11
ENDBRANCH   1  10
TORSDOF 13
ENDMDL
MODEL 7
REMARK VINA RESULT:    -4.607      2.033      4.365
REMARK INTER + INTRA:          -9.725
REMARK INTER:                  -7.707
REMARK INTRA:                  -2.018
REMARK UNBOUND:                -1.616
REMARK SMILES CCCCCCC=CCCCCCCCC(=O)[O-]
REMARK SMILES IDX 10 1 11 2 12 3 13 4 14 5 15 6 16 7 17 8 18 9 9 10 8 11 7 12
REMARK SMILES IDX 6 13 5 14 4 15 3 16 2 17 1 18
REMARK H PARENT
REMARK Flexibility Score: inf
ROOT
ATOM      1  C   UNL     1      -9.509  69.963  30.364  1.00  0.00     0.004 C 
ENDROOT
BRANCH   1   2
ATOM      2  C   UNL     1      -9.368  69.395  28.946  1.00  0.00     0.000 C 
BRANCH   2   3
ATOM      3  C   UNL     1     -10.607  68.578  28.555  1.00  0.00     0.000 C 
BRANCH   3   4
ATOM      4  C   UNL     1     -10.207  67.181  28.058  1.00  0.00     0.000 C 
BRANCH   4   5
ATOM      5  C   UNL     1     -10.927  66.049  28.813  1.00  0.00     0.006 C 
BRANCH   5   6
ATOM      6  C   UNL     1     -12.217  66.484  29.528  1.00  0.00     0.053 C 
BRANCH   6   7
ATOM      7  C   UNL     1     -12.551  65.589  30.680  1.00  0.00     0.041 C 
ATOM      8  O   UNL     1     -13.091  64.469  30.477  1.00  0.00    -0.550 OA
ATOM      9  O   UNL     1     -12.300  66.004  31.981  1.00  0.00    -0.550 OA
ENDBRANCH   6   7
ENDBRANCH   5   6
ENDBRANCH   4   5
ENDBRANCH   3   4
ENDBRANCH   2   3
ENDBRANCH   1   2
BRANCH   1  10
ATOM     10  C   UNL     1     -10.165  68.942  31.301  1.00  0.00     0.027 C 
BRANCH  10  11
ATOM     11  C   UNL     1      -9.132  68.097  31.994  1.00  0.00    -0.031 C 
ATOM     12  C   UNL     1      -8.800  66.881  31.536  1.00  0.00    -0.031 C 
BRANCH  12  13
ATOM     13  C   UNL     1      -7.786  66.019  32.237  1.00  0.00     0.027 C 
BRANCH  13  14
ATOM     14  C   UNL     1      -6.888  65.315  31.210  1.00  0.00     0.004 C 
BRANCH  14  15
ATOM     15  C   UNL     1      -7.155  65.783  29.771  1.00  0.00     0.000 C 
BRANCH  15  16
ATOM     16  C   UNL     1      -5.876  66.259  29.058  1.00  0.00    -0.000 C 
BRANCH  16  17
ATOM     17  C   UNL     1      -4.609  65.999  29.887  1.00  0.00    -0.003 C 
ATOM     18  C   UNL     1      -3.654  65.015  29.211  1.00  0.00     0.004 C 
ENDBRANCH  16  17
ENDBRANCH  15  16
ENDBRANCH  14  15
ENDBRANCH  13  14
ENDBRANCH  12  13
ENDBRANCH  10  11
ENDBRANCH   1  10
TORSDOF 13
ENDMDL
MODEL 8
REMARK VINA RESULT:    -4.597      2.581      5.325
REMARK INTER + INTRA:          -9.706
REMARK INTER:                  -7.419
REMARK INTRA:                  -2.287
REMARK UNBOUND:                -1.616
REMARK SMILES CCCCCCC=CCCCCCCCC(=O)[O-]
REMARK SMILES IDX 10 1 11 2 12 3 13 4 14 5 15 6 16 7 17 8 18 9 9 10 8 11 7 12
REMARK SMILES IDX 6 13 5 14 4 15 3 16 2 17 1 18
REMARK H PARENT
REMARK Flexibility Score: inf
ROOT
ATOM      1  C   UNL     1      -3.480  66.560  29.158  1.00  0.00     0.004 C 
ENDROOT
BRANCH   1   2
ATOM      2  C   UNL     1      -2.411  67.005  30.163  1.00  0.00     0.000 C 
BRANCH   2   3
ATOM      3  C   UNL     1      -3.053  67.523  31.457  1.00  0.00     0.000 C 
BRANCH   3   4
ATOM      4  C   UNL     1      -4.208  68.487  31.149  1.00  0.00     0.000 C 
BRANCH   4   5
ATOM      5  C   UNL     1      -5.468  68.198  31.986  1.00  0.00     0.006 C 
BRANCH   5   6
ATOM      6  C   UNL     1      -5.263  67.159  33.101  1.00  0.00     0.053 C 
BRANCH   6   7
ATOM      7  C   UNL     1      -6.428  67.105  34.040  1.00  0.00     0.041 C 
ATOM      8  O   UNL     1      -7.431  66.395  33.764  1.00  0.00    -0.550 OA
ATOM      9  O   UNL     1      -6.422  67.865  35.201  1.00  0.00    -0.550 OA
ENDBRANCH   6   7
ENDBRANCH   5   6
ENDBRANCH   4   5
ENDBRANCH   3   4
ENDBRANCH   2   3
ENDBRANCH   1   2
BRANCH   1  10
ATOM     10  C   UNL     1      -3.803  65.070  29.325  1.00  0.00     0.027 C 
BRANCH  10  11
ATOM     11  C   UNL     1      -5.220  64.870  29.788  1.00  0.00    -0.031 C 
ATOM     12  C   UNL     1      -6.183  65.758  29.502  1.00  0.00    -0.031 C 
BRANCH  12  13
ATOM     13  C   UNL     1      -7.598  65.579  29.981  1.00  0.00     0.027 C 
BRANCH  13  14
ATOM     14  C   UNL     1      -8.571  66.309  29.047  1.00  0.00     0.004 C 
BRANCH  14  15
ATOM     15  C   UNL     1      -8.651  67.817  29.337  1.00  0.00     0.000 C 
BRANCH  15  16
ATOM     16  C   UNL     1      -8.226  68.673  28.130  1.00  0.00    -0.000 C 
BRANCH  16  17
ATOM     17  C   UNL     1      -6.751  69.097  28.199  1.00  0.00    -0.003 C 
ATOM     18  C   UNL     1      -5.910  68.489  27.078  1.00  0.00     0.004 C 
ENDBRANCH  16  17
ENDBRANCH  15  16
ENDBRANCH  14  15
ENDBRANCH  13  14
ENDBRANCH  12  13
ENDBRANCH  10  11
ENDBRANCH   1  10
TORSDOF 13
ENDMDL
MODEL 9
REMARK VINA RESULT:    -4.585      2.228      4.580
REMARK INTER + INTRA:          -9.686
REMARK INTER:                  -7.793
REMARK INTRA:                  -1.893
REMARK UNBOUND:                -1.616
REMARK SMILES CCCCCCC=CCCCCCCCC(=O)[O-]
REMARK SMILES IDX 10 1 11 2 12 3 13 4 14 5 15 6 16 7 17 8 18 9 9 10 8 11 7 12
REMARK SMILES IDX 6 13 5 14 4 15 3 16 2 17 1 18
REMARK H PARENT
REMARK Flexibility Score: inf
ROOT
ATOM      1  C   UNL     1      -9.800  68.922  28.718  1.00  0.00     0.004 C 
ENDROOT
BRANCH   1   2
ATOM      2  C   UNL     1     -10.952  68.049  28.203  1.00  0.00     0.000 C 
BRANCH   2   3
ATOM      3  C   UNL     1     -10.724  66.573  28.553  1.00  0.00     0.000 C 
BRANCH   3   4
ATOM      4  C   UNL     1     -12.025  65.918  29.037  1.00  0.00     0.000 C 
BRANCH   4   5
ATOM      5  C   UNL     1     -12.605  66.594  30.292  1.00  0.00     0.006 C 
BRANCH   5   6
ATOM      6  C   UNL     1     -12.167  65.950  31.618  1.00  0.00     0.053 C 
BRANCH   6   7
ATOM      7  C   UNL     1     -13.233  65.072  32.196  1.00  0.00     0.041 C 
ATOM      8  O   UNL     1     -14.104  64.557  31.446  1.00  0.00    -0.550 OA
ATOM      9  O   UNL     1     -13.286  64.851  33.565  1.00  0.00    -0.550 OA
ENDBRANCH   6   7
ENDBRANCH   5   6
ENDBRANCH   4   5
ENDBRANCH   3   4
ENDBRANCH   2   3
ENDBRANCH   1   2
BRANCH   1  10
ATOM     10  C   UNL     1      -9.941  69.182  30.222  1.00  0.00     0.027 C 
BRANCH  10  11
ATOM     11  C   UNL     1      -8.757  68.646  30.980  1.00  0.00    -0.031 C 
ATOM     12  C   UNL     1      -8.901  67.719  31.939  1.00  0.00    -0.031 C 
BRANCH  12  13
ATOM     13  C   UNL     1      -7.726  67.194  32.719  1.00  0.00     0.027 C 
BRANCH  13  14
ATOM     14  C   UNL     1      -6.418  67.504  31.980  1.00  0.00     0.004 C 
BRANCH  14  15
ATOM     15  C   UNL     1      -5.673  66.235  31.538  1.00  0.00     0.000 C 
BRANCH  15  16
ATOM     16  C   UNL     1      -6.089  65.766  30.131  1.00  0.00    -0.000 C 
BRANCH  16  17
ATOM     17  C   UNL     1      -5.481  66.633  29.018  1.00  0.00    -0.003 C 
ATOM     18  C   UNL     1      -6.540  67.383  28.211  1.00  0.00     0.004 C 
ENDBRANCH  16  17
ENDBRANCH  15  16
ENDBRANCH  14  15
ENDBRANCH  13  14
ENDBRANCH  12  13
ENDBRANCH  10  11
ENDBRANCH   1  10
TORSDOF 13
ENDMDL
