MODEL 1
REMARK VINA RESULT:    -5.976      0.000      0.000
REMARK INTER + INTRA:         -13.655
REMARK INTER:                 -11.566
REMARK INTRA:                  -2.089
REMARK UNBOUND:                -2.089
REMARK SMILES CCCCCCCCCCCCCCCCCC(=O)[O-]
REMARK SMILES IDX 10 1 11 2 12 3 13 4 14 5 15 6 16 7 17 8 18 9 19 10 20 11
REMARK SMILES IDX 9 12 8 13 7 14 6 15 5 16 4 17 3 18 2 19 1 20
REMARK H PARENT
REMARK Flexibility Score: inf
ROOT
ATOM      1  C   UNL     1      -5.092  36.448 101.489  1.00  0.00     0.000 C 
ENDROOT
BRANCH   1   2
ATOM      2  C   UNL     1      -3.587  36.751 101.604  1.00  0.00     0.000 C 
BRANCH   2   3
ATOM      3  C   UNL     1      -3.289  38.245 101.794  1.00  0.00     0.000 C 
BRANCH   3   4
ATOM      4  C   UNL     1      -1.789  38.532 101.645  1.00  0.00     0.000 C 
BRANCH   4   5
ATOM      5  C   UNL     1      -1.411  39.853 102.327  1.00  0.00     0.000 C 
BRANCH   5   6
ATOM      6  C   UNL     1      -2.573  40.469 103.128  1.00  0.00     0.000 C 
BRANCH   6   7
ATOM      7  C   UNL     1      -3.170  41.757 102.525  1.00  0.00     0.006 C 
BRANCH   7   8
ATOM      8  C   UNL     1      -3.176  42.964 103.475  1.00  0.00     0.053 C 
BRANCH   8   9
ATOM      9  C   UNL     1      -3.805  44.169 102.846  1.00  0.00     0.041 C 
ATOM     10  O   UNL     1      -4.757  44.035 102.032  1.00  0.00    -0.550 OA
ATOM     11  O   UNL     1      -3.320  45.438 103.135  1.00  0.00    -0.550 OA
ENDBRANCH   8   9
ENDBRANCH   7   8
ENDBRANCH   6   7
ENDBRANCH   5   6
ENDBRANCH   4   5
ENDBRANCH   3   4
ENDBRANCH   2   3
ENDBRANCH   1   2
BRANCH   1  12
ATOM     12  C   UNL     1      -5.453  35.332 100.491  1.00  0.00     0.000 C 
BRANCH  12  13
ATOM     13  C   UNL     1      -4.253  34.439 100.134  1.00  0.00    -0.000 C 
BRANCH  13  14
ATOM     14  C   UNL     1      -3.963  34.420  98.625  1.00  0.00    -0.000 C 
BRANCH  14  15
ATOM     15  C   UNL     1      -2.794  35.342  98.238  1.00  0.00    -0.000 C 
BRANCH  15  16
ATOM     16  C   UNL     1      -3.246  36.566  97.423  1.00  0.00    -0.000 C 
BRANCH  16  17
ATOM     17  C   UNL     1      -3.245  37.898  98.200  1.00  0.00    -0.000 C 
BRANCH  17  18
ATOM     18  C   UNL     1      -4.618  38.588  98.319  1.00  0.00    -0.000 C 
BRANCH  18  19
ATOM     19  C   UNL     1      -5.825  37.687  98.006  1.00  0.00    -0.003 C 
ATOM     20  C   UNL     1      -6.738  38.267  96.927  1.00  0.00     0.004 C 
ENDBRANCH  18  19
ENDBRANCH  17  18
ENDBRANCH  16  17
ENDBRANCH  15  16
ENDBRANCH  14  15
ENDBRANCH  13  14
ENDBRANCH  12  13
ENDBRANCH   1  12
TORSDOF 16
ENDMDL
MODEL 2
REMARK VINA RESULT:    -5.880      1.396      2.033
REMARK INTER + INTRA:         -13.469
REMARK INTER:                 -11.969
REMARK INTRA:                  -1.500
REMARK UNBOUND:                -2.089
REMARK SMILES CCCCCCCCCCCCCCCCCC(=O)[O-]
REMARK SMILES IDX 10 1 11 2 12 3 13 4 14 5 15 6 16 7 17 8 18 9 19 10 20 11
REMARK SMILES IDX 9 12 8 13 7 14 6 15 5 16 4 17 3 18 2 19 1 20
REMARK H PARENT
REMARK Flexibility Score: inf
ROOT
ATOM      1  C   UNL     1      -3.245  36.996 102.261  1.00  0.00     0.000 C 
ENDROOT
BRANCH   1   2
ATOM      2  C   UNL     1      -2.389  37.693 101.188  1.00  0.00     0.000 C 
BRANCH   2   3
ATOM      3  C   UNL     1      -1.767  39.009 101.677  1.00  0.00     0.000 C 
BRANCH   3   4
ATOM      4  C   UNL     1      -2.839  40.091 101.860  1.00  0.00     0.000 C 
BRANCH   4   5
ATOM      5  C   UNL     1      -2.809  40.659 103.286  1.00  0.00     0.000 C 
BRANCH   5   6
ATOM      6  C   UNL     1      -2.721  42.196 103.317  1.00  0.00     0.000 C 
BRANCH   6   7
ATOM      7  C   UNL     1      -4.078  42.928 103.256  1.00  0.00     0.006 C 
BRANCH   7   8
ATOM      8  C   UNL     1      -4.785  43.075 104.611  1.00  0.00     0.053 C 
BRANCH   8   9
ATOM      9  C   UNL     1      -4.591  44.439 105.199  1.00  0.00     0.041 C 
ATOM     10  O   UNL     1      -5.453  45.339 105.015  1.00  0.00    -0.550 OA
ATOM     11  O   UNL     1      -3.441  44.727 105.923  1.00  0.00    -0.550 OA
ENDBRANCH   8   9
ENDBRANCH   7   8
ENDBRANCH   6   7
ENDBRANCH   5   6
ENDBRANCH   4   5
ENDBRANCH   3   4
ENDBRANCH   2   3
ENDBRANCH   1   2
BRANCH   1  12
ATOM     12  C   UNL     1      -4.722  36.788 101.878  1.00  0.00     0.000 C 
BRANCH  12  13
ATOM     13  C   UNL     1      -4.929  36.644 100.361  1.00  0.00    -0.000 C 
BRANCH  13  14
ATOM     14  C   UNL     1      -5.339  35.220  99.955  1.00  0.00    -0.000 C 
BRANCH  14  15
ATOM     15  C   UNL     1      -4.679  34.769  98.641  1.00  0.00    -0.000 C 
BRANCH  15  16
ATOM     16  C   UNL     1      -3.274  35.365  98.445  1.00  0.00    -0.000 C 
BRANCH  16  17
ATOM     17  C   UNL     1      -3.200  36.529  97.435  1.00  0.00    -0.000 C 
BRANCH  17  18
ATOM     18  C   UNL     1      -4.512  36.832  96.686  1.00  0.00    -0.000 C 
BRANCH  18  19
ATOM     19  C   UNL     1      -5.184  38.162  97.069  1.00  0.00    -0.003 C 
ATOM     20  C   UNL     1      -6.710  38.087  97.046  1.00  0.00     0.004 C 
ENDBRANCH  18  19
ENDBRANCH  17  18
ENDBRANCH  16  17
ENDBRANCH  15  16
ENDBRANCH  14  15
ENDBRANCH  13  14
ENDBRANCH  12  13
ENDBRANCH   1  12
TORSDOF 16
ENDMDL
MODEL 3
REMARK VINA RESULT:    -5.859      1.695      2.915
REMARK INTER + INTRA:         -13.428
REMARK INTER:                 -11.894
REMARK INTRA:                  -1.534
REMARK UNBOUND:                -2.089
REMARK SMILES CCCCCCCCCCCCCCCCCC(=O)[O-]
REMARK SMILES IDX 10 1 11 2 12 3 13 4 14 5 15 6 16 7 17 8 18 9 19 10 20 11
REMARK SMILES IDX 9 12 8 13 7 14 6 15 5 16 4 17 3 18 2 19 1 20
REMARK H PARENT
REMARK Flexibility Score: inf
ROOT
ATOM      1  C   UNL     1      -3.135  38.302 101.507  1.00  0.00     0.000 C 
ENDROOT
BRANCH   1   2
ATOM      2  C   UNL     1      -2.540  38.775 102.846  1.00  0.00     0.000 C 
BRANCH   2   3
ATOM      3  C   UNL     1      -1.886  40.161 102.755  1.00  0.00     0.000 C 
BRANCH   3   4
ATOM      4  C   UNL     1      -2.922  41.238 102.410  1.00  0.00     0.000 C 
BRANCH   4   5
ATOM      5  C   UNL     1      -3.027  42.280 103.532  1.00  0.00     0.000 C 
BRANCH   5   6
ATOM      6  C   UNL     1      -4.286  43.159 103.418  1.00  0.00     0.000 C 
BRANCH   6   7
ATOM      7  C   UNL     1      -5.134  43.254 104.704  1.00  0.00     0.006 C 
BRANCH   7   8
ATOM      8  C   UNL     1      -6.650  43.333 104.464  1.00  0.00     0.053 C 
BRANCH   8   9
ATOM      9  C   UNL     1      -7.045  44.620 103.808  1.00  0.00     0.041 C 
ATOM     10  O   UNL     1      -6.945  45.709 104.434  1.00  0.00    -0.550 OA
ATOM     11  O   UNL     1      -7.555  44.614 102.516  1.00  0.00    -0.550 OA
ENDBRANCH   8   9
ENDBRANCH   7   8
ENDBRANCH   6   7
ENDBRANCH   5   6
ENDBRANCH   4   5
ENDBRANCH   3   4
ENDBRANCH   2   3
ENDBRANCH   1   2
BRANCH   1  12
ATOM     12  C   UNL     1      -3.614  36.839 101.491  1.00  0.00     0.000 C 
BRANCH  12  13
ATOM     13  C   UNL     1      -5.083  36.696 101.061  1.00  0.00    -0.000 C 
BRANCH  13  14
ATOM     14  C   UNL     1      -5.423  35.273 100.589  1.00  0.00    -0.000 C 
BRANCH  14  15
ATOM     15  C   UNL     1      -4.179  34.491 100.134  1.00  0.00    -0.000 C 
BRANCH  15  16
ATOM     16  C   UNL     1      -3.950  34.569  98.615  1.00  0.00    -0.000 C 
BRANCH  16  17
ATOM     17  C   UNL     1      -2.794  35.494  98.181  1.00  0.00    -0.000 C 
BRANCH  17  18
ATOM     18  C   UNL     1      -3.200  36.662  97.261  1.00  0.00    -0.000 C 
BRANCH  18  19
ATOM     19  C   UNL     1      -4.660  37.124  97.408  1.00  0.00    -0.003 C 
ATOM     20  C   UNL     1      -4.783  38.551  97.941  1.00  0.00     0.004 C 
ENDBRANCH  18  19
ENDBRANCH  17  18
ENDBRANCH  16  17
ENDBRANCH  15  16
ENDBRANCH  14  15
ENDBRANCH  13  14
ENDBRANCH  12  13
ENDBRANCH   1  12
TORSDOF 16
ENDMDL
MODEL 4
REMARK VINA RESULT:    -5.659      2.773      7.227
REMARK INTER + INTRA:         -13.042
REMARK INTER:                 -11.605
REMARK INTRA:                  -1.437
REMARK UNBOUND:                -2.089
REMARK SMILES CCCCCCCCCCCCCCCCCC(=O)[O-]
REMARK SMILES IDX 10 1 11 2 12 3 13 4 14 5 15 6 16 7 17 8 18 9 19 10 20 11
REMARK SMILES IDX 9 12 8 13 7 14 6 15 5 16 4 17 3 18 2 19 1 20
REMARK H PARENT
REMARK Flexibility Score: inf
ROOT
ATOM      1  C   UNL     1      -3.078  38.430 101.544  1.00  0.00     0.000 C 
ENDROOT
BRANCH   1   2
ATOM      2  C   UNL     1      -3.372  36.926 101.698  1.00  0.00     0.000 C 
BRANCH   2   3
ATOM      3  C   UNL     1      -4.838  36.569 101.409  1.00  0.00     0.000 C 
BRANCH   3   4
ATOM      4  C   UNL     1      -4.938  35.504 100.309  1.00  0.00     0.000 C 
BRANCH   4   5
ATOM      5  C   UNL     1      -3.546  35.015  99.889  1.00  0.00     0.000 C 
BRANCH   5   6
ATOM      6  C   UNL     1      -3.330  35.059  98.365  1.00  0.00     0.000 C 
BRANCH   6   7
ATOM      7  C   UNL     1      -3.197  36.474  97.765  1.00  0.00     0.006 C 
BRANCH   7   8
ATOM      8  C   UNL     1      -4.318  36.860  96.788  1.00  0.00     0.053 C 
BRANCH   8   9
ATOM      9  C   UNL     1      -5.311  37.790  97.416  1.00  0.00     0.041 C 
ATOM     10  O   UNL     1      -6.475  37.887  96.945  1.00  0.00    -0.550 OA
ATOM     11  O   UNL     1      -4.942  38.572  98.502  1.00  0.00    -0.550 OA
ENDBRANCH   8   9
ENDBRANCH   7   8
ENDBRANCH   6   7
ENDBRANCH   5   6
ENDBRANCH   4   5
ENDBRANCH   3   4
ENDBRANCH   2   3
ENDBRANCH   1   2
BRANCH   1  12
ATOM     12  C   UNL     1      -2.177  39.029 102.639  1.00  0.00     0.000 C 
BRANCH  12  13
ATOM     13  C   UNL     1      -2.660  40.408 103.119  1.00  0.00    -0.000 C 
BRANCH  13  14
ATOM     14  C   UNL     1      -2.984  41.357 101.954  1.00  0.00    -0.000 C 
BRANCH  14  15
ATOM     15  C   UNL     1      -3.626  42.672 102.427  1.00  0.00    -0.000 C 
BRANCH  15  16
ATOM     16  C   UNL     1      -3.912  42.686 103.938  1.00  0.00    -0.000 C 
BRANCH  16  17
ATOM     17  C   UNL     1      -4.828  43.833 104.414  1.00  0.00    -0.000 C 
BRANCH  17  18
ATOM     18  C   UNL     1      -6.267  43.415 104.776  1.00  0.00    -0.000 C 
BRANCH  18  19
ATOM     19  C   UNL     1      -7.357  43.969 103.842  1.00  0.00    -0.003 C 
ATOM     20  C   UNL     1      -6.790  44.564 102.554  1.00  0.00     0.004 C 
ENDBRANCH  18  19
ENDBRANCH  17  18
ENDBRANCH  16  17
ENDBRANCH  15  16
ENDBRANCH  14  15
ENDBRANCH  13  14
ENDBRANCH  12  13
ENDBRANCH   1  12
TORSDOF 16
ENDMDL
MODEL 5
REMARK VINA RESULT:    -5.647      1.592      3.314
REMARK INTER + INTRA:         -13.019
REMARK INTER:                 -11.447
REMARK INTRA:                  -1.572
REMARK UNBOUND:                -2.089
REMARK SMILES CCCCCCCCCCCCCCCCCC(=O)[O-]
REMARK SMILES IDX 10 1 11 2 12 3 13 4 14 5 15 6 16 7 17 8 18 9 19 10 20 11
REMARK SMILES IDX 9 12 8 13 7 14 6 15 5 16 4 17 3 18 2 19 1 20
REMARK H PARENT
REMARK Flexibility Score: inf
ROOT
ATOM      1  C   UNL     1      -2.433  37.715 101.260  1.00  0.00     0.000 C 
ENDROOT
BRANCH   1   2
ATOM      2  C   UNL     1      -1.568  38.958 101.540  1.00  0.00     0.000 C 
BRANCH   2   3
ATOM      3  C   UNL     1      -2.002  39.720 102.801  1.00  0.00     0.000 C 
BRANCH   3   4
ATOM      4  C   UNL     1      -2.903  40.909 102.444  1.00  0.00     0.000 C 
BRANCH   4   5
ATOM      5  C   UNL     1      -2.765  42.033 103.479  1.00  0.00     0.000 C 
BRANCH   5   6
ATOM      6  C   UNL     1      -1.371  42.687 103.472  1.00  0.00     0.000 C 
BRANCH   6   7
ATOM      7  C   UNL     1      -1.374  44.229 103.413  1.00  0.00     0.006 C 
BRANCH   7   8
ATOM      8  C   UNL     1      -2.670  44.884 103.913  1.00  0.00     0.053 C 
BRANCH   8   9
ATOM      9  C   UNL     1      -2.619  45.175 105.382  1.00  0.00     0.041 C 
ATOM     10  O   UNL     1      -1.582  45.671 105.895  1.00  0.00    -0.550 OA
ATOM     11  O   UNL     1      -3.707  44.868 106.190  1.00  0.00    -0.550 OA
ENDBRANCH   8   9
ENDBRANCH   7   8
ENDBRANCH   6   7
ENDBRANCH   5   6
ENDBRANCH   4   5
ENDBRANCH   3   4
ENDBRANCH   2   3
ENDBRANCH   1   2
BRANCH   1  12
ATOM     12  C   UNL     1      -3.809  38.010 100.635  1.00  0.00     0.000 C 
BRANCH  12  13
ATOM     13  C   UNL     1      -3.707  38.576  99.209  1.00  0.00    -0.000 C 
BRANCH  13  14
ATOM     14  C   UNL     1      -4.921  38.207  98.342  1.00  0.00    -0.000 C 
BRANCH  14  15
ATOM     15  C   UNL     1      -4.631  37.033  97.390  1.00  0.00    -0.000 C 
BRANCH  15  16
ATOM     16  C   UNL     1      -3.146  36.631  97.377  1.00  0.00    -0.000 C 
BRANCH  16  17
ATOM     17  C   UNL     1      -2.804  35.388  98.224  1.00  0.00    -0.000 C 
BRANCH  17  18
ATOM     18  C   UNL     1      -4.002  34.481  98.570  1.00  0.00    -0.000 C 
BRANCH  18  19
ATOM     19  C   UNL     1      -4.350  34.412 100.067  1.00  0.00    -0.003 C 
ATOM     20  C   UNL     1      -5.650  35.137 100.411  1.00  0.00     0.004 C 
ENDBRANCH  18  19
ENDBRANCH  17  18
ENDBRANCH  16  17
ENDBRANCH  15  16
ENDBRANCH  14  15
ENDBRANCH  13  14
ENDBRANCH  12  13
ENDBRANCH   1  12
TORSDOF 16
ENDMDL
MODEL 6
REMARK VINA RESULT:    -5.568      1.883      3.791
REMARK INTER + INTRA:         -12.866
REMARK INTER:                 -11.480
REMARK INTRA:                  -1.386
REMARK UNBOUND:                -2.089
REMARK SMILES CCCCCCCCCCCCCCCCCC(=O)[O-]
REMARK SMILES IDX 10 1 11 2 12 3 13 4 14 5 15 6 16 7 17 8 18 9 19 10 20 11
REMARK SMILES IDX 9 12 8 13 7 14 6 15 5 16 4 17 3 18 2 19 1 20
REMARK H PARENT
REMARK Flexibility Score: inf
ROOT
ATOM      1  C   UNL     1      -2.641  38.682 102.393  1.00  0.00     0.000 C 
ENDROOT
BRANCH   1   2
ATOM      2  C   UNL     1      -2.870  40.205 102.378  1.00  0.00     0.000 C 
BRANCH   2   3
ATOM      3  C   UNL     1      -1.736  40.988 103.056  1.00  0.00     0.000 C 
BRANCH   3   4
ATOM      4  C   UNL     1      -2.169  42.427 103.364  1.00  0.00     0.000 C 
BRANCH   4   5
ATOM      5  C   UNL     1      -3.686  42.593 103.197  1.00  0.00     0.000 C 
BRANCH   5   6
ATOM      6  C   UNL     1      -4.429  42.706 104.541  1.00  0.00     0.000 C 
BRANCH   6   7
ATOM      7  C   UNL     1      -5.745  43.510 104.493  1.00  0.00     0.006 C 
BRANCH   7   8
ATOM      8  C   UNL     1      -5.935  44.348 103.220  1.00  0.00     0.053 C 
BRANCH   8   9
ATOM      9  C   UNL     1      -7.382  44.521 102.876  1.00  0.00     0.041 C 
ATOM     10  O   UNL     1      -7.732  44.710 101.680  1.00  0.00    -0.550 OA
ATOM     11  O   UNL     1      -8.343  44.506 103.879  1.00  0.00    -0.550 OA
ENDBRANCH   8   9
ENDBRANCH   7   8
ENDBRANCH   6   7
ENDBRANCH   5   6
ENDBRANCH   4   5
ENDBRANCH   3   4
ENDBRANCH   2   3
ENDBRANCH   1   2
BRANCH   1  12
ATOM     12  C   UNL     1      -2.632  38.014 101.006  1.00  0.00     0.000 C 
BRANCH  12  13
ATOM     13  C   UNL     1      -3.354  38.851  99.936  1.00  0.00    -0.000 C 
BRANCH  13  14
ATOM     14  C   UNL     1      -3.593  38.065  98.637  1.00  0.00    -0.000 C 
BRANCH  14  15
ATOM     15  C   UNL     1      -4.951  38.392  97.993  1.00  0.00    -0.000 C 
BRANCH  15  16
ATOM     16  C   UNL     1      -5.601  37.171  97.320  1.00  0.00    -0.000 C 
BRANCH  16  17
ATOM     17  C   UNL     1      -5.052  35.806  97.787  1.00  0.00    -0.000 C 
BRANCH  17  18
ATOM     18  C   UNL     1      -5.833  35.145  98.940  1.00  0.00    -0.000 C 
BRANCH  18  19
ATOM     19  C   UNL     1      -5.112  35.155 100.299  1.00  0.00    -0.003 C 
ATOM     20  C   UNL     1      -3.709  34.555 100.234  1.00  0.00     0.004 C 
ENDBRANCH  18  19
ENDBRANCH  17  18
ENDBRANCH  16  17
ENDBRANCH  15  16
ENDBRANCH  14  15
ENDBRANCH  13  14
ENDBRANCH  12  13
ENDBRANCH   1  12
TORSDOF 16
ENDMDL
MODEL 7
REMARK VINA RESULT:    -5.547      1.830      3.194
REMARK INTER + INTRA:         -12.824
REMARK INTER:                 -11.235
REMARK INTRA:                  -1.589
REMARK UNBOUND:                -2.089
REMARK SMILES CCCCCCCCCCCCCCCCCC(=O)[O-]
REMARK SMILES IDX 10 1 11 2 12 3 13 4 14 5 15 6 16 7 17 8 18 9 19 10 20 11
REMARK SMILES IDX 9 12 8 13 7 14 6 15 5 16 4 17 3 18 2 19 1 20
REMARK H PARENT
REMARK Flexibility Score: inf
ROOT
ATOM      1  C   UNL     1      -1.793  38.763 101.513  1.00  0.00     0.000 C 
ENDROOT
BRANCH   1   2
ATOM      2  C   UNL     1      -2.316  39.661 102.649  1.00  0.00     0.000 C 
BRANCH   2   3
ATOM      3  C   UNL     1      -3.172  40.831 102.143  1.00  0.00     0.000 C 
BRANCH   3   4
ATOM      4  C   UNL     1      -2.984  42.073 103.025  1.00  0.00     0.000 C 
BRANCH   4   5
ATOM      5  C   UNL     1      -1.497  42.330 103.302  1.00  0.00     0.000 C 
BRANCH   5   6
ATOM      6  C   UNL     1      -1.102  43.808 103.132  1.00  0.00     0.000 C 
BRANCH   6   7
ATOM      7  C   UNL     1      -2.116  44.824 103.696  1.00  0.00     0.006 C 
BRANCH   7   8
ATOM      8  C   UNL     1      -1.879  45.214 105.163  1.00  0.00     0.053 C 
BRANCH   8   9
ATOM      9  C   UNL     1      -3.113  45.039 105.995  1.00  0.00     0.041 C 
ATOM     10  O   UNL     1      -4.116  44.440 105.524  1.00  0.00    -0.550 OA
ATOM     11  O   UNL     1      -3.166  45.565 107.280  1.00  0.00    -0.550 OA
ENDBRANCH   8   9
ENDBRANCH   7   8
ENDBRANCH   6   7
ENDBRANCH   5   6
ENDBRANCH   4   5
ENDBRANCH   3   4
ENDBRANCH   2   3
ENDBRANCH   1   2
BRANCH   1  12
ATOM     12  C   UNL     1      -2.885  38.044 100.701  1.00  0.00     0.000 C 
BRANCH  12  13
ATOM     13  C   UNL     1      -3.774  37.136 101.568  1.00  0.00    -0.000 C 
BRANCH  13  14
ATOM     14  C   UNL     1      -5.053  36.696 100.840  1.00  0.00    -0.000 C 
BRANCH  14  15
ATOM     15  C   UNL     1      -5.003  35.222 100.400  1.00  0.00    -0.000 C 
BRANCH  15  16
ATOM     16  C   UNL     1      -4.883  35.061  98.874  1.00  0.00    -0.000 C 
BRANCH  16  17
ATOM     17  C   UNL     1      -3.472  35.313  98.305  1.00  0.00    -0.000 C 
BRANCH  17  18
ATOM     18  C   UNL     1      -3.334  36.574  97.431  1.00  0.00    -0.000 C 
BRANCH  18  19
ATOM     19  C   UNL     1      -4.664  37.165  96.932  1.00  0.00    -0.003 C 
ATOM     20  C   UNL     1      -5.011  38.497  97.596  1.00  0.00     0.004 C 
ENDBRANCH  18  19
ENDBRANCH  17  18
ENDBRANCH  16  17
ENDBRANCH  15  16
ENDBRANCH  14  15
ENDBRANCH  13  14
ENDBRANCH  12  13
ENDBRANCH   1  12
TORSDOF 16
ENDMDL
MODEL 8
REMARK VINA RESULT:    -5.515      2.297      3.898
REMARK INTER + INTRA:         -12.764
REMARK INTER:                 -11.371
REMARK INTRA:                  -1.392
REMARK UNBOUND:                -2.089
REMARK SMILES CCCCCCCCCCCCCCCCCC(=O)[O-]
REMARK SMILES IDX 10 1 11 2 12 3 13 4 14 5 15 6 16 7 17 8 18 9 19 10 20 11
REMARK SMILES IDX 9 12 8 13 7 14 6 15 5 16 4 17 3 18 2 19 1 20
REMARK H PARENT
REMARK Flexibility Score: inf
ROOT
ATOM      1  C   UNL     1      -1.947  39.420 102.051  1.00  0.00     0.000 C 
ENDROOT
BRANCH   1   2
ATOM      2  C   UNL     1      -2.868  40.191 103.014  1.00  0.00     0.000 C 
BRANCH   2   3
ATOM      3  C   UNL     1      -2.615  41.705 103.004  1.00  0.00     0.000 C 
BRANCH   3   4
ATOM      4  C   UNL     1      -3.934  42.485 103.048  1.00  0.00     0.000 C 
BRANCH   4   5
ATOM      5  C   UNL     1      -4.025  43.340 104.320  1.00  0.00     0.000 C 
BRANCH   5   6
ATOM      6  C   UNL     1      -5.403  43.255 105.002  1.00  0.00     0.000 C 
BRANCH   6   7
ATOM      7  C   UNL     1      -6.610  43.459 104.064  1.00  0.00     0.006 C 
BRANCH   7   8
ATOM      8  C   UNL     1      -6.748  44.883 103.503  1.00  0.00     0.053 C 
BRANCH   8   9
ATOM      9  C   UNL     1      -8.020  45.538 103.947  1.00  0.00     0.041 C 
ATOM     10  O   UNL     1      -7.986  46.629 104.575  1.00  0.00    -0.550 OA
ATOM     11  O   UNL     1      -9.242  44.928 103.694  1.00  0.00    -0.550 OA
ENDBRANCH   8   9
ENDBRANCH   7   8
ENDBRANCH   6   7
ENDBRANCH   5   6
ENDBRANCH   4   5
ENDBRANCH   3   4
ENDBRANCH   2   3
ENDBRANCH   1   2
BRANCH   1  12
ATOM     12  C   UNL     1      -2.678  38.525 101.032  1.00  0.00     0.000 C 
BRANCH  12  13
ATOM     13  C   UNL     1      -3.059  37.152 101.610  1.00  0.00    -0.000 C 
BRANCH  13  14
ATOM     14  C   UNL     1      -4.513  36.766 101.298  1.00  0.00    -0.000 C 
BRANCH  14  15
ATOM     15  C   UNL     1      -4.613  35.497 100.433  1.00  0.00    -0.000 C 
BRANCH  15  16
ATOM     16  C   UNL     1      -3.258  35.071  99.842  1.00  0.00    -0.000 C 
BRANCH  16  17
ATOM     17  C   UNL     1      -3.143  35.222  98.311  1.00  0.00    -0.000 C 
BRANCH  17  18
ATOM     18  C   UNL     1      -3.107  36.674  97.797  1.00  0.00    -0.000 C 
BRANCH  18  19
ATOM     19  C   UNL     1      -4.404  37.155  97.122  1.00  0.00    -0.003 C 
ATOM     20  C   UNL     1      -5.087  38.288  97.885  1.00  0.00     0.004 C 
ENDBRANCH  18  19
ENDBRANCH  17  18
ENDBRANCH  16  17
ENDBRANCH  15  16
ENDBRANCH  14  15
ENDBRANCH  13  14
ENDBRANCH  12  13
ENDBRANCH   1  12
TORSDOF 16
ENDMDL
MODEL 9
REMARK VINA RESULT:    -5.430      1.434      2.498
REMARK INTER + INTRA:         -12.599
REMARK INTER:                 -10.989
REMARK INTRA:                  -1.610
REMARK UNBOUND:                -2.089
REMARK SMILES CCCCCCCCCCCCCCCCCC(=O)[O-]
REMARK SMILES IDX 10 1 11 2 12 3 13 4 14 5 15 6 16 7 17 8 18 9 19 10 20 11
REMARK SMILES IDX 9 12 8 13 7 14 6 15 5 16 4 17 3 18 2 19 1 20
REMARK H PARENT
REMARK Flexibility Score: inf
ROOT
ATOM      1  C   UNL     1      -3.228  37.611 103.087  1.00  0.00     0.000 C 
ENDROOT
BRANCH   1   2
ATOM      2  C   UNL     1      -2.601  39.008 103.247  1.00  0.00     0.000 C 
BRANCH   2   3
ATOM      3  C   UNL     1      -2.503  39.777 101.921  1.00  0.00     0.000 C 
BRANCH   3   4
ATOM      4  C   UNL     1      -3.064  41.197 102.064  1.00  0.00     0.000 C 
BRANCH   4   5
ATOM      5  C   UNL     1      -3.015  41.663 103.526  1.00  0.00     0.000 C 
BRANCH   5   6
ATOM      6  C   UNL     1      -4.118  42.681 103.868  1.00  0.00     0.000 C 
BRANCH   6   7
ATOM      7  C   UNL     1      -3.646  43.905 104.680  1.00  0.00     0.006 C 
BRANCH   7   8
ATOM      8  C   UNL     1      -2.436  44.639 104.083  1.00  0.00     0.053 C 
BRANCH   8   9
ATOM      9  C   UNL     1      -2.795  45.389 102.837  1.00  0.00     0.041 C 
ATOM     10  O   UNL     1      -3.351  46.516 102.913  1.00  0.00    -0.550 OA
ATOM     11  O   UNL     1      -2.543  44.829 101.591  1.00  0.00    -0.550 OA
ENDBRANCH   8   9
ENDBRANCH   7   8
ENDBRANCH   6   7
ENDBRANCH   5   6
ENDBRANCH   4   5
ENDBRANCH   3   4
ENDBRANCH   2   3
ENDBRANCH   1   2
BRANCH   1  12
ATOM     12  C   UNL     1      -3.612  37.234 101.645  1.00  0.00     0.000 C 
BRANCH  12  13
ATOM     13  C   UNL     1      -2.588  36.298 100.980  1.00  0.00    -0.000 C 
BRANCH  13  14
ATOM     14  C   UNL     1      -3.212  34.967 100.532  1.00  0.00    -0.000 C 
BRANCH  14  15
ATOM     15  C   UNL     1      -3.271  34.830  99.001  1.00  0.00    -0.000 C 
BRANCH  15  16
ATOM     16  C   UNL     1      -4.671  34.445  98.492  1.00  0.00    -0.000 C 
BRANCH  16  17
ATOM     17  C   UNL     1      -5.385  35.538  97.671  1.00  0.00    -0.000 C 
BRANCH  17  18
ATOM     18  C   UNL     1      -5.627  36.865  98.417  1.00  0.00    -0.000 C 
BRANCH  18  19
ATOM     19  C   UNL     1      -5.080  38.116  97.708  1.00  0.00    -0.003 C 
ATOM     20  C   UNL     1      -4.168  38.956  98.600  1.00  0.00     0.004 C 
ENDBRANCH  18  19
ENDBRANCH  17  18
ENDBRANCH  16  17
ENDBRANCH  15  16
ENDBRANCH  14  15
ENDBRANCH  13  14
ENDBRANCH  12  13
ENDBRANCH   1  12
TORSDOF 16
ENDMDL
