MODEL 1
REMARK VINA RESULT:    -2.747      0.000      0.000
REMARK INTER + INTRA:          -2.747
REMARK INTER:                  -2.747
REMARK INTRA:                   0.000
REMARK UNBOUND:                 0.000
REMARK SMILES CC(=O)[O-]
REMARK SMILES IDX 1 1 2 2 3 3 4 4
REMARK H PARENT
REMARK Flexibility Score: inf
ROOT
ATOM      1  C   UNL     1      65.678  64.358  46.932  1.00  0.00     0.063 C 
ATOM      2  C   UNL     1      66.485  64.259  48.182  1.00  0.00     0.038 C 
ATOM      3  O   UNL     1      66.732  63.132  48.687  1.00  0.00    -0.550 OA
ATOM      4  O   UNL     1      66.921  65.411  48.823  1.00  0.00    -0.550 OA
ENDROOT
TORSDOF 0
ENDMDL
MODEL 2
REMARK VINA RESULT:    -2.577     13.646     13.796
REMARK INTER + INTRA:          -2.577
REMARK INTER:                  -2.577
REMARK INTRA:                   0.000
REMARK UNBOUND:                 0.000
REMARK SMILES CC(=O)[O-]
REMARK SMILES IDX 1 1 2 2 3 3 4 4
REMARK H PARENT
REMARK Flexibility Score: inf
ROOT
ATOM      1  C   UNL     1      55.511  65.517  57.893  1.00  0.00     0.063 C 
ATOM      2  C   UNL     1      56.117  64.511  56.973  1.00  0.00     0.038 C 
ATOM      3  O   UNL     1      56.830  64.887  56.006  1.00  0.00    -0.550 OA
ATOM      4  O   UNL     1      55.852  63.159  57.149  1.00  0.00    -0.550 OA
ENDROOT
TORSDOF 0
ENDMDL
MODEL 3
REMARK VINA RESULT:    -2.570     16.939     17.486
REMARK INTER + INTRA:          -2.570
REMARK INTER:                  -2.570
REMARK INTRA:                   0.000
REMARK UNBOUND:                 0.000
REMARK SMILES CC(=O)[O-]
REMARK SMILES IDX 1 1 2 2 3 3 4 4
REMARK H PARENT
REMARK Flexibility Score: inf
ROOT
ATOM      1  C   UNL     1      65.646  58.080  65.401  1.00  0.00     0.063 C 
ATOM      2  C   UNL     1      66.424  57.721  64.180  1.00  0.00     0.038 C 
ATOM      3  O   UNL     1      67.102  58.598  63.583  1.00  0.00    -0.550 OA
ATOM      4  O   UNL     1      66.358  56.432  63.667  1.00  0.00    -0.550 OA
ENDROOT
TORSDOF 0
ENDMDL
MODEL 4
REMARK VINA RESULT:    -2.569      1.883      1.997
REMARK INTER + INTRA:          -2.569
REMARK INTER:                  -2.569
REMARK INTRA:                   0.000
REMARK UNBOUND:                 0.000
REMARK SMILES CC(=O)[O-]
REMARK SMILES IDX 1 1 2 2 3 3 4 4
REMARK H PARENT
REMARK Flexibility Score: inf
ROOT
ATOM      1  C   UNL     1      65.979  66.294  48.486  1.00  0.00     0.063 C 
ATOM      2  C   UNL     1      66.058  64.963  47.817  1.00  0.00     0.038 C 
ATOM      3  O   UNL     1      66.872  64.096  48.230  1.00  0.00    -0.550 OA
ATOM      4  O   UNL     1      65.273  64.697  46.703  1.00  0.00    -0.550 OA
ENDROOT
TORSDOF 0
ENDMDL
MODEL 5
REMARK VINA RESULT:    -2.533     13.633     13.713
REMARK INTER + INTRA:          -2.533
REMARK INTER:                  -2.533
REMARK INTRA:                   0.000
REMARK UNBOUND:                 0.000
REMARK SMILES CC(=O)[O-]
REMARK SMILES IDX 1 1 2 2 3 3 4 4
REMARK H PARENT
REMARK Flexibility Score: inf
ROOT
ATOM      1  C   UNL     1      55.614  65.551  57.904  1.00  0.00     0.063 C 
ATOM      2  C   UNL     1      56.090  64.474  56.989  1.00  0.00     0.038 C 
ATOM      3  O   UNL     1      55.764  63.276  57.199  1.00  0.00    -0.550 OA
ATOM      4  O   UNL     1      56.938  64.782  55.933  1.00  0.00    -0.550 OA
ENDROOT
TORSDOF 0
ENDMDL
MODEL 6
REMARK VINA RESULT:    -2.522     17.281     17.699
REMARK INTER + INTRA:          -2.522
REMARK INTER:                  -2.522
REMARK INTRA:                   0.000
REMARK UNBOUND:                 0.000
REMARK SMILES CC(=O)[O-]
REMARK SMILES IDX 1 1 2 2 3 3 4 4
REMARK H PARENT
REMARK Flexibility Score: inf
ROOT
ATOM      1  C   UNL     1      65.886  56.002  63.826  1.00  0.00     0.063 C 
ATOM      2  C   UNL     1      66.097  57.359  64.408  1.00  0.00     0.038 C 
ATOM      3  O   UNL     1      65.430  57.727  65.411  1.00  0.00    -0.550 OA
ATOM      4  O   UNL     1      66.989  58.241  63.813  1.00  0.00    -0.550 OA
ENDROOT
TORSDOF 0
ENDMDL
MODEL 7
REMARK VINA RESULT:    -2.371     23.513     23.638
REMARK INTER + INTRA:          -2.371
REMARK INTER:                  -2.371
REMARK INTRA:                   0.000
REMARK UNBOUND:                 0.000
REMARK SMILES CC(=O)[O-]
REMARK SMILES IDX 1 1 2 2 3 3 4 4
REMARK H PARENT
REMARK Flexibility Score: inf
ROOT
ATOM      1  C   UNL     1      48.068  66.250  64.078  1.00  0.00     0.063 C 
ATOM      2  C   UNL     1      48.237  67.048  62.829  1.00  0.00     0.038 C 
ATOM      3  O   UNL     1      47.251  67.645  62.323  1.00  0.00    -0.550 OA
ATOM      4  O   UNL     1      49.470  67.092  62.193  1.00  0.00    -0.550 OA
ENDROOT
TORSDOF 0
ENDMDL
MODEL 8
REMARK VINA RESULT:    -2.368     13.592     13.713
REMARK INTER + INTRA:          -2.368
REMARK INTER:                  -2.368
REMARK INTRA:                   0.000
REMARK UNBOUND:                 0.000
REMARK SMILES CC(=O)[O-]
REMARK SMILES IDX 1 1 2 2 3 3 4 4
REMARK H PARENT
REMARK Flexibility Score: inf
ROOT
ATOM      1  C   UNL     1      56.220  63.751  56.782  1.00  0.00     0.063 C 
ATOM      2  C   UNL     1      56.157  65.228  56.982  1.00  0.00     0.038 C 
ATOM      3  O   UNL     1      56.657  66.003  56.126  1.00  0.00    -0.550 OA
ATOM      4  O   UNL     1      55.593  65.750  58.139  1.00  0.00    -0.550 OA
ENDROOT
TORSDOF 0
ENDMDL
MODEL 9
REMARK VINA RESULT:    -2.322     23.609     23.688
REMARK INTER + INTRA:          -2.322
REMARK INTER:                  -2.322
REMARK INTRA:                   0.000
REMARK UNBOUND:                 0.000
REMARK SMILES CC(=O)[O-]
REMARK SMILES IDX 1 1 2 2 3 3 4 4
REMARK H PARENT
REMARK Flexibility Score: inf
ROOT
ATOM      1  C   UNL     1      47.125  67.051  62.059  1.00  0.00     0.063 C 
ATOM      2  C   UNL     1      48.257  66.819  63.002  1.00  0.00     0.038 C 
ATOM      3  O   UNL     1      49.438  67.063  62.642  1.00  0.00    -0.550 OA
ATOM      4  O   UNL     1      48.016  66.282  64.260  1.00  0.00    -0.550 OA
ENDROOT
TORSDOF 0
ENDMDL
