MODEL 1
REMARK VINA RESULT:    -4.469      0.000      0.000
REMARK INTER + INTRA:          -6.209
REMARK INTER:                  -6.036
REMARK INTRA:                  -0.173
REMARK UNBOUND:                -0.173
REMARK SMILES CCCCCCCC(=O)[O-]
REMARK SMILES IDX 5 1 6 2 7 3 8 4 9 5 10 6 4 7 3 8 2 9 1 10
REMARK H PARENT
REMARK Flexibility Score: inf
ROOT
ATOM      1  C   UNL     1      17.360 117.764 293.455  1.00  0.00     0.000 C 
ENDROOT
BRANCH   1   2
ATOM      2  C   UNL     1      18.709 118.044 294.140  1.00  0.00     0.006 C 
BRANCH   2   3
ATOM      3  C   UNL     1      18.632 117.871 295.663  1.00  0.00     0.053 C 
BRANCH   3   4
ATOM      4  C   UNL     1      19.961 117.495 296.245  1.00  0.00     0.041 C 
ATOM      5  O   UNL     1      21.020 117.989 295.776  1.00  0.00    -0.550 OA
ATOM      6  O   UNL     1      20.030 116.573 297.282  1.00  0.00    -0.550 OA
ENDBRANCH   3   4
ENDBRANCH   2   3
ENDBRANCH   1   2
BRANCH   1   7
ATOM      7  C   UNL     1      17.322 116.400 292.743  1.00  0.00     0.000 C 
BRANCH   7   8
ATOM      8  C   UNL     1      18.385 116.210 291.642  1.00  0.00    -0.000 C 
BRANCH   8   9
ATOM      9  C   UNL     1      17.831 115.786 290.270  1.00  0.00    -0.003 C 
ATOM     10  C   UNL     1      17.178 114.405 290.292  1.00  0.00     0.004 C 
ENDBRANCH   8   9
ENDBRANCH   7   8
ENDBRANCH   1   7
TORSDOF 6
ENDMDL
MODEL 2
REMARK VINA RESULT:    -4.360      1.569      1.787
REMARK INTER + INTRA:          -6.061
REMARK INTER:                  -5.857
REMARK INTRA:                  -0.204
REMARK UNBOUND:                -0.173
REMARK SMILES CCCCCCCC(=O)[O-]
REMARK SMILES IDX 5 1 6 2 7 3 8 4 9 5 10 6 4 7 3 8 2 9 1 10
REMARK H PARENT
REMARK Flexibility Score: inf
ROOT
ATOM      1  C   UNL     1      17.383 117.550 293.720  1.00  0.00     0.000 C 
ENDROOT
BRANCH   1   2
ATOM      2  C   UNL     1      16.846 117.019 295.061  1.00  0.00     0.006 C 
BRANCH   2   3
ATOM      3  C   UNL     1      17.958 116.851 296.104  1.00  0.00     0.053 C 
BRANCH   3   4
ATOM      4  C   UNL     1      18.233 118.132 296.832  1.00  0.00     0.041 C 
ATOM      5  O   UNL     1      17.300 118.948 297.051  1.00  0.00    -0.550 OA
ATOM      6  O   UNL     1      19.526 118.439 297.236  1.00  0.00    -0.550 OA
ENDBRANCH   3   4
ENDBRANCH   2   3
ENDBRANCH   1   2
BRANCH   1   7
ATOM      7  C   UNL     1      17.267 116.522 292.580  1.00  0.00     0.000 C 
BRANCH   7   8
ATOM      8  C   UNL     1      18.517 116.398 291.685  1.00  0.00    -0.000 C 
BRANCH   8   9
ATOM      9  C   UNL     1      18.431 115.316 290.595  1.00  0.00    -0.003 C 
ATOM     10  C   UNL     1      17.119 114.533 290.635  1.00  0.00     0.004 C 
ENDBRANCH   8   9
ENDBRANCH   7   8
ENDBRANCH   1   7
TORSDOF 6
ENDMDL
MODEL 3
REMARK VINA RESULT:    -4.318      0.858      1.282
REMARK INTER + INTRA:          -6.005
REMARK INTER:                  -5.859
REMARK INTRA:                  -0.146
REMARK UNBOUND:                -0.173
REMARK SMILES CCCCCCCC(=O)[O-]
REMARK SMILES IDX 5 1 6 2 7 3 8 4 9 5 10 6 4 7 3 8 2 9 1 10
REMARK H PARENT
REMARK Flexibility Score: inf
ROOT
ATOM      1  C   UNL     1      18.733 117.869 293.881  1.00  0.00     0.000 C 
ENDROOT
BRANCH   1   2
ATOM      2  C   UNL     1      18.728 117.566 295.389  1.00  0.00     0.006 C 
BRANCH   2   3
ATOM      3  C   UNL     1      19.974 118.118 296.094  1.00  0.00     0.053 C 
BRANCH   3   4
ATOM      4  C   UNL     1      20.536 117.134 297.075  1.00  0.00     0.041 C 
ATOM      5  O   UNL     1      21.609 117.390 297.683  1.00  0.00    -0.550 OA
ATOM      6  O   UNL     1      19.893 115.922 297.291  1.00  0.00    -0.550 OA
ENDBRANCH   3   4
ENDBRANCH   2   3
ENDBRANCH   1   2
BRANCH   1   7
ATOM      7  C   UNL     1      17.413 117.486 293.189  1.00  0.00     0.000 C 
BRANCH   7   8
ATOM      8  C   UNL     1      17.375 116.061 292.601  1.00  0.00    -0.000 C 
BRANCH   8   9
ATOM      9  C   UNL     1      18.068 115.903 291.235  1.00  0.00    -0.003 C 
ATOM     10  C   UNL     1      17.490 114.759 290.403  1.00  0.00     0.004 C 
ENDBRANCH   8   9
ENDBRANCH   7   8
ENDBRANCH   1   7
TORSDOF 6
ENDMDL
MODEL 4
REMARK VINA RESULT:    -4.304      2.367      2.740
REMARK INTER + INTRA:          -5.986
REMARK INTER:                  -5.805
REMARK INTRA:                  -0.181
REMARK UNBOUND:                -0.173
REMARK SMILES CCCCCCCC(=O)[O-]
REMARK SMILES IDX 5 1 6 2 7 3 8 4 9 5 10 6 4 7 3 8 2 9 1 10
REMARK H PARENT
REMARK Flexibility Score: inf
ROOT
ATOM      1  C   UNL     1      17.899 117.566 293.581  1.00  0.00     0.000 C 
ENDROOT
BRANCH   1   2
ATOM      2  C   UNL     1      16.775 118.583 293.845  1.00  0.00     0.006 C 
BRANCH   2   3
ATOM      3  C   UNL     1      15.784 118.088 294.907  1.00  0.00     0.053 C 
BRANCH   3   4
ATOM      4  C   UNL     1      16.243 118.427 296.293  1.00  0.00     0.041 C 
ATOM      5  O   UNL     1      16.166 117.570 297.212  1.00  0.00    -0.550 OA
ATOM      6  O   UNL     1      16.722 119.700 296.575  1.00  0.00    -0.550 OA
ENDBRANCH   3   4
ENDBRANCH   2   3
ENDBRANCH   1   2
BRANCH   1   7
ATOM      7  C   UNL     1      17.479 116.448 292.610  1.00  0.00     0.000 C 
BRANCH   7   8
ATOM      8  C   UNL     1      18.450 116.204 291.437  1.00  0.00    -0.000 C 
BRANCH   8   9
ATOM      9  C   UNL     1      17.802 115.628 290.166  1.00  0.00    -0.003 C 
ATOM     10  C   UNL     1      17.006 114.351 290.430  1.00  0.00     0.004 C 
ENDBRANCH   8   9
ENDBRANCH   7   8
ENDBRANCH   1   7
TORSDOF 6
ENDMDL
MODEL 5
REMARK VINA RESULT:    -4.156      3.432      5.304
REMARK INTER + INTRA:          -5.787
REMARK INTER:                  -5.452
REMARK INTRA:                  -0.334
REMARK UNBOUND:                -0.173
REMARK SMILES CCCCCCCC(=O)[O-]
REMARK SMILES IDX 5 1 6 2 7 3 8 4 9 5 10 6 4 7 3 8 2 9 1 10
REMARK H PARENT
REMARK Flexibility Score: inf
ROOT
ATOM      1  C   UNL     1      17.433 116.998 294.304  1.00  0.00     0.000 C 
ENDROOT
BRANCH   1   2
ATOM      2  C   UNL     1      17.859 117.026 292.826  1.00  0.00     0.006 C 
BRANCH   2   3
ATOM      3  C   UNL     1      17.264 115.857 292.029  1.00  0.00     0.053 C 
BRANCH   3   4
ATOM      4  C   UNL     1      18.105 115.513 290.838  1.00  0.00     0.041 C 
ATOM      5  O   UNL     1      19.331 115.804 290.823  1.00  0.00    -0.550 OA
ATOM      6  O   UNL     1      17.528 114.905 289.731  1.00  0.00    -0.550 OA
ENDBRANCH   3   4
ENDBRANCH   2   3
ENDBRANCH   1   2
BRANCH   1   7
ATOM      7  C   UNL     1      16.450 118.125 294.665  1.00  0.00     0.000 C 
BRANCH   7   8
ATOM      8  C   UNL     1      16.148 119.117 293.523  1.00  0.00    -0.000 C 
BRANCH   8   9
ATOM      9  C   UNL     1      16.353 120.600 293.879  1.00  0.00    -0.003 C 
ATOM     10  C   UNL     1      17.730 120.884 294.477  1.00  0.00     0.004 C 
ENDBRANCH   8   9
ENDBRANCH   7   8
ENDBRANCH   1   7
TORSDOF 6
ENDMDL
MODEL 6
REMARK VINA RESULT:    -4.088      3.334      3.719
REMARK INTER + INTRA:          -5.694
REMARK INTER:                  -5.501
REMARK INTRA:                  -0.193
REMARK UNBOUND:                -0.173
REMARK SMILES CCCCCCCC(=O)[O-]
REMARK SMILES IDX 5 1 6 2 7 3 8 4 9 5 10 6 4 7 3 8 2 9 1 10
REMARK H PARENT
REMARK Flexibility Score: inf
ROOT
ATOM      1  C   UNL     1      17.994 117.416 293.855  1.00  0.00     0.000 C 
ENDROOT
BRANCH   1   2
ATOM      2  C   UNL     1      16.976 118.133 294.759  1.00  0.00     0.006 C 
BRANCH   2   3
ATOM      3  C   UNL     1      16.951 119.648 294.515  1.00  0.00     0.053 C 
BRANCH   3   4
ATOM      4  C   UNL     1      15.609 120.109 294.034  1.00  0.00     0.041 C 
ATOM      5  O   UNL     1      15.328 120.070 292.807  1.00  0.00    -0.550 OA
ATOM      6  O   UNL     1      14.683 120.616 294.937  1.00  0.00    -0.550 OA
ENDBRANCH   3   4
ENDBRANCH   2   3
ENDBRANCH   1   2
BRANCH   1   7
ATOM      7  C   UNL     1      17.367 116.879 292.556  1.00  0.00     0.000 C 
BRANCH   7   8
ATOM      8  C   UNL     1      18.348 116.163 291.606  1.00  0.00    -0.000 C 
BRANCH   8   9
ATOM      9  C   UNL     1      17.742 115.711 290.265  1.00  0.00    -0.003 C 
ATOM     10  C   UNL     1      17.163 114.298 290.319  1.00  0.00     0.004 C 
ENDBRANCH   8   9
ENDBRANCH   7   8
ENDBRANCH   1   7
TORSDOF 6
ENDMDL
MODEL 7
REMARK VINA RESULT:    -4.080      3.109      5.464
REMARK INTER + INTRA:          -5.684
REMARK INTER:                  -5.467
REMARK INTRA:                  -0.217
REMARK UNBOUND:                -0.173
REMARK SMILES CCCCCCCC(=O)[O-]
REMARK SMILES IDX 5 1 6 2 7 3 8 4 9 5 10 6 4 7 3 8 2 9 1 10
REMARK H PARENT
REMARK Flexibility Score: inf
ROOT
ATOM      1  C   UNL     1      17.551 116.981 294.323  1.00  0.00     0.000 C 
ENDROOT
BRANCH   1   2
ATOM      2  C   UNL     1      17.747 117.084 292.800  1.00  0.00     0.006 C 
BRANCH   2   3
ATOM      3  C   UNL     1      17.304 115.808 292.072  1.00  0.00     0.053 C 
BRANCH   3   4
ATOM      4  C   UNL     1      18.141 115.544 290.858  1.00  0.00     0.041 C 
ATOM      5  O   UNL     1      19.368 115.828 290.861  1.00  0.00    -0.550 OA
ATOM      6  O   UNL     1      17.558 115.017 289.712  1.00  0.00    -0.550 OA
ENDBRANCH   3   4
ENDBRANCH   2   3
ENDBRANCH   1   2
BRANCH   1   7
ATOM      7  C   UNL     1      17.800 118.314 295.050  1.00  0.00     0.000 C 
BRANCH   7   8
ATOM      8  C   UNL     1      18.560 118.196 296.387  1.00  0.00    -0.000 C 
BRANCH   8   9
ATOM      9  C   UNL     1      19.963 117.573 296.284  1.00  0.00    -0.003 C 
ATOM     10  C   UNL     1      20.172 116.412 297.256  1.00  0.00     0.004 C 
ENDBRANCH   8   9
ENDBRANCH   7   8
ENDBRANCH   1   7
TORSDOF 6
ENDMDL
MODEL 8
REMARK VINA RESULT:    -3.972      2.180      2.721
REMARK INTER + INTRA:          -5.538
REMARK INTER:                  -5.303
REMARK INTRA:                  -0.235
REMARK UNBOUND:                -0.173
REMARK SMILES CCCCCCCC(=O)[O-]
REMARK SMILES IDX 5 1 6 2 7 3 8 4 9 5 10 6 4 7 3 8 2 9 1 10
REMARK H PARENT
REMARK Flexibility Score: inf
ROOT
ATOM      1  C   UNL     1      18.488 117.513 295.139  1.00  0.00     0.000 C 
ENDROOT
BRANCH   1   2
ATOM      2  C   UNL     1      19.521 118.391 294.411  1.00  0.00     0.006 C 
BRANCH   2   3
ATOM      3  C   UNL     1      20.506 119.053 295.384  1.00  0.00     0.053 C 
BRANCH   3   4
ATOM      4  C   UNL     1      21.115 120.291 294.799  1.00  0.00     0.041 C 
ATOM      5  O   UNL     1      22.322 120.570 295.025  1.00  0.00    -0.550 OA
ATOM      6  O   UNL     1      20.339 121.153 294.034  1.00  0.00    -0.550 OA
ENDBRANCH   3   4
ENDBRANCH   2   3
ENDBRANCH   1   2
BRANCH   1   7
ATOM      7  C   UNL     1      17.336 117.062 294.224  1.00  0.00     0.000 C 
BRANCH   7   8
ATOM      8  C   UNL     1      17.620 117.179 292.712  1.00  0.00    -0.000 C 
BRANCH   8   9
ATOM      9  C   UNL     1      17.518 115.859 291.928  1.00  0.00    -0.003 C 
ATOM     10  C   UNL     1      18.611 115.708 290.871  1.00  0.00     0.004 C 
ENDBRANCH   8   9
ENDBRANCH   7   8
ENDBRANCH   1   7
TORSDOF 6
ENDMDL
MODEL 9
REMARK VINA RESULT:    -3.625      1.698      2.789
REMARK INTER + INTRA:          -5.070
REMARK INTER:                  -4.862
REMARK INTRA:                  -0.208
REMARK UNBOUND:                -0.173
REMARK SMILES CCCCCCCC(=O)[O-]
REMARK SMILES IDX 5 1 6 2 7 3 8 4 9 5 10 6 4 7 3 8 2 9 1 10
REMARK H PARENT
REMARK Flexibility Score: inf
ROOT
ATOM      1  C   UNL     1      18.506 117.978 296.214  1.00  0.00     0.000 C 
ENDROOT
BRANCH   1   2
ATOM      2  C   UNL     1      20.010 117.674 296.108  1.00  0.00     0.006 C 
BRANCH   2   3
ATOM      3  C   UNL     1      20.531 116.895 297.324  1.00  0.00     0.053 C 
BRANCH   3   4
ATOM      4  C   UNL     1      21.450 117.729 298.164  1.00  0.00     0.041 C 
ATOM      5  O   UNL     1      22.567 118.093 297.709  1.00  0.00    -0.550 OA
ATOM      6  O   UNL     1      21.088 118.073 299.459  1.00  0.00    -0.550 OA
ENDBRANCH   3   4
ENDBRANCH   2   3
ENDBRANCH   1   2
BRANCH   1   7
ATOM      7  C   UNL     1      17.626 116.840 295.668  1.00  0.00     0.000 C 
BRANCH   7   8
ATOM      8  C   UNL     1      16.947 117.133 294.315  1.00  0.00    -0.000 C 
BRANCH   8   9
ATOM      9  C   UNL     1      17.907 117.239 293.116  1.00  0.00    -0.003 C 
ATOM     10  C   UNL     1      17.589 116.236 292.008  1.00  0.00     0.004 C 
ENDBRANCH   8   9
ENDBRANCH   7   8
ENDBRANCH   1   7
TORSDOF 6
ENDMDL
