MODEL 1
REMARK VINA RESULT:    -5.479      0.000      0.000
REMARK INTER + INTRA:          -5.959
REMARK INTER:                  -5.959
REMARK INTRA:                   0.000
REMARK UNBOUND:                 0.000
REMARK SMILES Cc1cc(O)c2c(c1)C(=O)c1cc(O)cc(O)c1C2=O
REMARK SMILES IDX 1 1 2 2 8 3 7 4 6 5 4 6 3 7 19 8 20 9 18 10 11 11 9 12 10 13
REMARK SMILES IDX 12 14 13 15 15 16 16 17 5 18 17 20 14 22
REMARK H PARENT 5 19 17 21 14 23
REMARK Flexibility Score: inf
ROOT
ATOM      1  C   UNL     1      31.125  -6.174 -31.949  1.00  0.00     0.044 C 
ATOM      2  C   UNL     1      29.868  -5.392 -32.195  1.00  0.00    -0.047 A 
ATOM      3  C   UNL     1      29.566  -4.932 -33.481  1.00  0.00     0.016 A 
ATOM      4  C   UNL     1      28.414  -4.162 -33.715  1.00  0.00     0.038 A 
ATOM      5  C   UNL     1      27.564  -3.824 -32.638  1.00  0.00     0.076 A 
ATOM      6  C   UNL     1      27.851  -4.331 -31.345  1.00  0.00     0.127 A 
ATOM      7  C   UNL     1      29.013  -5.079 -31.133  1.00  0.00     0.050 A 
ATOM      8  C   UNL     1      26.440  -2.887 -32.899  1.00  0.00     0.201 C 
ATOM      9  O   UNL     1      26.032  -2.125 -31.981  1.00  0.00    -0.288 OA
ATOM     10  C   UNL     1      25.928  -2.716 -34.283  1.00  0.00     0.076 A 
ATOM     11  C   UNL     1      26.781  -3.055 -35.358  1.00  0.00     0.041 A 
ATOM     12  C   UNL     1      28.086  -3.706 -35.086  1.00  0.00     0.194 C 
ATOM     13  O   UNL     1      28.905  -3.893 -36.028  1.00  0.00    -0.289 OA
ATOM     14  C   UNL     1      26.387  -2.780 -36.678  1.00  0.00     0.059 A 
ATOM     15  C   UNL     1      25.149  -2.186 -36.938  1.00  0.00     0.120 A 
ATOM     16  C   UNL     1      24.287  -1.887 -35.884  1.00  0.00     0.093 A 
ATOM     17  C   UNL     1      24.648  -2.169 -34.563  1.00  0.00     0.131 A 
ENDROOT
BRANCH   6  18
ATOM     18  O   UNL     1      26.997  -4.146 -30.254  1.00  0.00    -0.507 OA
ATOM     19  H   UNL     1      26.789  -4.869 -29.579  1.00  0.00     0.293 HD
ENDBRANCH   6  18
BRANCH  17  20
ATOM     20  O   UNL     1      23.697  -1.926 -33.569  1.00  0.00    -0.507 OA
ATOM     21  H   UNL     1      23.794  -1.206 -32.866  1.00  0.00     0.293 HD
ENDBRANCH  17  20
BRANCH  15  22
ATOM     22  O   UNL     1      24.760  -1.900 -38.245  1.00  0.00    -0.508 OA
ATOM     23  H   UNL     1      25.441  -1.736 -38.978  1.00  0.00     0.293 HD
ENDBRANCH  15  22
TORSDOF 3
ENDMDL
MODEL 2
REMARK VINA RESULT:    -5.272      2.636      3.669
REMARK INTER + INTRA:          -5.734
REMARK INTER:                  -5.734
REMARK INTRA:                   0.000
REMARK UNBOUND:                 0.000
REMARK SMILES Cc1cc(O)c2c(c1)C(=O)c1cc(O)cc(O)c1C2=O
REMARK SMILES IDX 1 1 2 2 8 3 7 4 6 5 4 6 3 7 19 8 20 9 18 10 11 11 9 12 10 13
REMARK SMILES IDX 12 14 13 15 15 16 16 17 5 18 17 20 14 22
REMARK H PARENT 5 19 17 21 14 23
REMARK Flexibility Score: inf
ROOT
ATOM      1  C   UNL     1      29.731  -3.168 -35.028  1.00  0.00     0.044 C 
ATOM      2  C   UNL     1      28.253  -3.243 -34.774  1.00  0.00    -0.047 A 
ATOM      3  C   UNL     1      27.381  -3.626 -35.798  1.00  0.00     0.016 A 
ATOM      4  C   UNL     1      25.993  -3.658 -35.583  1.00  0.00     0.038 A 
ATOM      5  C   UNL     1      25.466  -3.274 -34.329  1.00  0.00     0.076 A 
ATOM      6  C   UNL     1      26.358  -2.931 -33.281  1.00  0.00     0.127 A 
ATOM      7  C   UNL     1      27.734  -2.888 -33.524  1.00  0.00     0.050 A 
ATOM      8  C   UNL     1      23.990  -3.179 -34.188  1.00  0.00     0.201 C 
ATOM      9  O   UNL     1      23.490  -2.349 -33.383  1.00  0.00    -0.288 OA
ATOM     10  C   UNL     1      23.110  -3.922 -35.126  1.00  0.00     0.076 A 
ATOM     11  C   UNL     1      23.640  -4.304 -36.379  1.00  0.00     0.041 A 
ATOM     12  C   UNL     1      25.079  -4.095 -36.665  1.00  0.00     0.194 C 
ATOM     13  O   UNL     1      25.530  -4.315 -37.824  1.00  0.00    -0.289 OA
ATOM     14  C   UNL     1      22.801  -4.885 -37.346  1.00  0.00     0.059 A 
ATOM     15  C   UNL     1      21.449  -5.103 -37.071  1.00  0.00     0.120 A 
ATOM     16  C   UNL     1      20.931  -4.765 -35.823  1.00  0.00     0.093 A 
ATOM     17  C   UNL     1      21.748  -4.203 -34.837  1.00  0.00     0.131 A 
ENDROOT
BRANCH   6  18
ATOM     18  O   UNL     1      25.926  -2.659 -31.980  1.00  0.00    -0.507 OA
ATOM     19  H   UNL     1      25.221  -3.203 -31.501  1.00  0.00     0.293 HD
ENDBRANCH   6  18
BRANCH  17  20
ATOM     20  O   UNL     1      21.181  -3.975 -33.581  1.00  0.00    -0.507 OA
ATOM     21  H   UNL     1      21.566  -4.336 -32.719  1.00  0.00     0.293 HD
ENDBRANCH  17  20
BRANCH  15  22
ATOM     22  O   UNL     1      20.611  -5.667 -38.032  1.00  0.00    -0.508 OA
ATOM     23  H   UNL     1      20.037  -5.093 -38.639  1.00  0.00     0.293 HD
ENDBRANCH  15  22
TORSDOF 3
ENDMDL
MODEL 3
REMARK VINA RESULT:    -4.945      2.402      6.574
REMARK INTER + INTRA:          -5.379
REMARK INTER:                  -5.379
REMARK INTRA:                   0.000
REMARK UNBOUND:                 0.000
REMARK SMILES Cc1cc(O)c2c(c1)C(=O)c1cc(O)cc(O)c1C2=O
REMARK SMILES IDX 1 1 2 2 8 3 7 4 6 5 4 6 3 7 19 8 20 9 18 10 11 11 9 12 10 13
REMARK SMILES IDX 12 14 13 15 15 16 16 17 5 18 17 20 14 22
REMARK H PARENT 5 19 17 21 14 23
REMARK Flexibility Score: inf
ROOT
ATOM      1  C   UNL     1      20.179  -4.913 -37.580  1.00  0.00     0.044 C 
ATOM      2  C   UNL     1      21.609  -4.604 -37.242  1.00  0.00    -0.047 A 
ATOM      3  C   UNL     1      21.928  -3.995 -36.024  1.00  0.00     0.016 A 
ATOM      4  C   UNL     1      23.258  -3.663 -35.715  1.00  0.00     0.038 A 
ATOM      5  C   UNL     1      24.283  -3.920 -36.653  1.00  0.00     0.076 A 
ATOM      6  C   UNL     1      23.959  -4.580 -37.867  1.00  0.00     0.127 A 
ATOM      7  C   UNL     1      22.627  -4.883 -38.160  1.00  0.00     0.050 A 
ATOM      8  C   UNL     1      25.650  -3.421 -36.353  1.00  0.00     0.201 C 
ATOM      9  O   UNL     1      26.421  -3.099 -37.296  1.00  0.00    -0.288 OA
ATOM     10  C   UNL     1      26.035  -3.125 -34.949  1.00  0.00     0.076 A 
ATOM     11  C   UNL     1      25.008  -2.868 -34.013  1.00  0.00     0.041 A 
ATOM     12  C   UNL     1      23.590  -3.046 -34.409  1.00  0.00     0.194 C 
ATOM     13  O   UNL     1      22.667  -2.695 -33.622  1.00  0.00    -0.289 OA
ATOM     14  C   UNL     1      25.334  -2.450 -32.713  1.00  0.00     0.059 A 
ATOM     15  C   UNL     1      26.670  -2.301 -32.331  1.00  0.00     0.120 A 
ATOM     16  C   UNL     1      27.688  -2.593 -33.237  1.00  0.00     0.093 A 
ATOM     17  C   UNL     1      27.390  -3.029 -34.532  1.00  0.00     0.131 A 
ENDROOT
BRANCH   6  18
ATOM     18  O   UNL     1      24.929  -4.980 -38.791  1.00  0.00    -0.507 OA
ATOM     19  H   UNL     1      24.738  -5.123 -39.773  1.00  0.00     0.293 HD
ENDBRANCH   6  18
BRANCH  17  20
ATOM     20  O   UNL     1      28.460  -3.389 -35.354  1.00  0.00    -0.507 OA
ATOM     21  H   UNL     1      28.481  -3.222 -36.350  1.00  0.00     0.293 HD
ENDBRANCH  17  20
BRANCH  15  22
ATOM     22  O   UNL     1      26.998  -1.875 -31.045  1.00  0.00    -0.508 OA
ATOM     23  H   UNL     1      27.182  -0.899 -30.840  1.00  0.00     0.293 HD
ENDBRANCH  15  22
TORSDOF 3
ENDMDL
MODEL 4
REMARK VINA RESULT:    -4.765      3.801      6.836
REMARK INTER + INTRA:          -5.182
REMARK INTER:                  -5.182
REMARK INTRA:                   0.000
REMARK UNBOUND:                 0.000
REMARK SMILES Cc1cc(O)c2c(c1)C(=O)c1cc(O)cc(O)c1C2=O
REMARK SMILES IDX 1 1 2 2 8 3 7 4 6 5 4 6 3 7 19 8 20 9 18 10 11 11 9 12 10 13
REMARK SMILES IDX 12 14 13 15 15 16 16 17 5 18 17 20 14 22
REMARK H PARENT 5 19 17 21 14 23
REMARK Flexibility Score: inf
ROOT
ATOM      1  C   UNL     1      18.768  -3.426 -32.037  1.00  0.00     0.044 C 
ATOM      2  C   UNL     1      19.753  -3.858 -33.084  1.00  0.00    -0.047 A 
ATOM      3  C   UNL     1      20.987  -3.209 -33.198  1.00  0.00     0.016 A 
ATOM      4  C   UNL     1      21.899  -3.576 -34.203  1.00  0.00     0.038 A 
ATOM      5  C   UNL     1      21.558  -4.592 -35.125  1.00  0.00     0.076 A 
ATOM      6  C   UNL     1      20.325  -5.276 -34.975  1.00  0.00     0.127 A 
ATOM      7  C   UNL     1      19.426  -4.881 -33.980  1.00  0.00     0.050 A 
ATOM      8  C   UNL     1      22.484  -4.848 -36.260  1.00  0.00     0.201 C 
ATOM      9  O   UNL     1      22.029  -5.266 -37.357  1.00  0.00    -0.288 OA
ATOM     10  C   UNL     1      23.907  -4.434 -36.158  1.00  0.00     0.076 A 
ATOM     11  C   UNL     1      24.244  -3.418 -35.235  1.00  0.00     0.041 A 
ATOM     12  C   UNL     1      23.217  -2.905 -34.297  1.00  0.00     0.194 C 
ATOM     13  O   UNL     1      23.475  -1.913 -33.561  1.00  0.00    -0.289 OA
ATOM     14  C   UNL     1      25.551  -2.904 -35.208  1.00  0.00     0.059 A 
ATOM     15  C   UNL     1      26.526  -3.400 -36.076  1.00  0.00     0.120 A 
ATOM     16  C   UNL     1      26.209  -4.430 -36.960  1.00  0.00     0.093 A 
ATOM     17  C   UNL     1      24.921  -4.973 -36.995  1.00  0.00     0.131 A 
ENDROOT
BRANCH   6  18
ATOM     18  O   UNL     1      19.968  -6.371 -35.767  1.00  0.00    -0.507 OA
ATOM     19  H   UNL     1      19.650  -7.253 -35.389  1.00  0.00     0.293 HD
ENDBRANCH   6  18
BRANCH  17  20
ATOM     20  O   UNL     1      24.702  -6.062 -37.841  1.00  0.00    -0.507 OA
ATOM     21  H   UNL     1      25.365  -6.813 -37.969  1.00  0.00     0.293 HD
ENDBRANCH  17  20
BRANCH  15  22
ATOM     22  O   UNL     1      27.820  -2.884 -36.060  1.00  0.00    -0.508 OA
ATOM     23  H   UNL     1      28.226  -2.442 -36.877  1.00  0.00     0.293 HD
ENDBRANCH  15  22
TORSDOF 3
ENDMDL
MODEL 5
REMARK VINA RESULT:    -4.737      7.714      9.991
REMARK INTER + INTRA:          -5.152
REMARK INTER:                  -5.152
REMARK INTRA:                   0.000
REMARK UNBOUND:                 0.000
REMARK SMILES Cc1cc(O)c2c(c1)C(=O)c1cc(O)cc(O)c1C2=O
REMARK SMILES IDX 1 1 2 2 8 3 7 4 6 5 4 6 3 7 19 8 20 9 18 10 11 11 9 12 10 13
REMARK SMILES IDX 12 14 13 15 15 16 16 17 5 18 17 20 14 22
REMARK H PARENT 5 19 17 21 14 23
REMARK Flexibility Score: inf
ROOT
ATOM      1  C   UNL     1      23.671  -5.639 -36.411  1.00  0.00     0.044 C 
ATOM      2  C   UNL     1      22.175  -5.697 -36.295  1.00  0.00    -0.047 A 
ATOM      3  C   UNL     1      21.578  -6.344 -35.209  1.00  0.00     0.016 A 
ATOM      4  C   UNL     1      20.179  -6.441 -35.113  1.00  0.00     0.038 A 
ATOM      5  C   UNL     1      19.365  -5.905 -36.136  1.00  0.00     0.076 A 
ATOM      6  C   UNL     1      19.976  -5.210 -37.212  1.00  0.00     0.127 A 
ATOM      7  C   UNL     1      21.369  -5.143 -37.295  1.00  0.00     0.050 A 
ATOM      8  C   UNL     1      17.902  -6.157 -36.073  1.00  0.00     0.201 C 
ATOM      9  O   UNL     1      17.233  -6.235 -37.138  1.00  0.00    -0.288 OA
ATOM     10  C   UNL     1      17.268  -6.502 -34.775  1.00  0.00     0.076 A 
ATOM     11  C   UNL     1      18.085  -7.039 -33.754  1.00  0.00     0.041 A 
ATOM     12  C   UNL     1      19.554  -7.101 -33.942  1.00  0.00     0.194 C 
ATOM     13  O   UNL     1      20.274  -7.694 -33.092  1.00  0.00    -0.289 OA
ATOM     14  C   UNL     1      17.502  -7.505 -32.564  1.00  0.00     0.059 A 
ATOM     15  C   UNL     1      16.120  -7.428 -32.375  1.00  0.00     0.120 A 
ATOM     16  C   UNL     1      15.314  -6.863 -33.362  1.00  0.00     0.093 A 
ATOM     17  C   UNL     1      15.872  -6.374 -34.548  1.00  0.00     0.131 A 
ENDROOT
BRANCH   6  18
ATOM     18  O   UNL     1      19.239  -4.546 -38.197  1.00  0.00    -0.507 OA
ATOM     19  H   UNL     1      18.246  -4.373 -38.130  1.00  0.00     0.293 HD
ENDBRANCH   6  18
BRANCH  17  20
ATOM     20  O   UNL     1      15.015  -5.739 -35.450  1.00  0.00    -0.507 OA
ATOM     21  H   UNL     1      14.118  -6.112 -35.725  1.00  0.00     0.293 HD
ENDBRANCH  17  20
BRANCH  15  22
ATOM     22  O   UNL     1      15.536  -7.901 -31.201  1.00  0.00    -0.508 OA
ATOM     23  H   UNL     1      14.965  -8.739 -31.192  1.00  0.00     0.293 HD
ENDBRANCH  15  22
TORSDOF 3
ENDMDL
MODEL 6
REMARK VINA RESULT:    -4.705     12.287     13.902
REMARK INTER + INTRA:          -5.118
REMARK INTER:                  -5.118
REMARK INTRA:                   0.000
REMARK UNBOUND:                 0.000
REMARK SMILES Cc1cc(O)c2c(c1)C(=O)c1cc(O)cc(O)c1C2=O
REMARK SMILES IDX 1 1 2 2 8 3 7 4 6 5 4 6 3 7 19 8 20 9 18 10 11 11 9 12 10 13
REMARK SMILES IDX 12 14 13 15 15 16 16 17 5 18 17 20 14 22
REMARK H PARENT 5 19 17 21 14 23
REMARK Flexibility Score: inf
ROOT
ATOM      1  C   UNL     1      16.122  -8.959 -28.109  1.00  0.00     0.044 C 
ATOM      2  C   UNL     1      15.378  -8.993 -29.412  1.00  0.00    -0.047 A 
ATOM      3  C   UNL     1      15.840  -8.253 -30.505  1.00  0.00     0.016 A 
ATOM      4  C   UNL     1      15.127  -8.243 -31.717  1.00  0.00     0.038 A 
ATOM      5  C   UNL     1      13.918  -8.966 -31.827  1.00  0.00     0.076 A 
ATOM      6  C   UNL     1      13.480  -9.751 -30.730  1.00  0.00     0.127 A 
ATOM      7  C   UNL     1      14.194  -9.729 -29.529  1.00  0.00     0.050 A 
ATOM      8  C   UNL     1      13.120  -8.812 -33.071  1.00  0.00     0.201 C 
ATOM      9  O   UNL     1      11.865  -8.922 -33.029  1.00  0.00    -0.288 OA
ATOM     10  C   UNL     1      13.779  -8.345 -34.318  1.00  0.00     0.076 A 
ATOM     11  C   UNL     1      14.989  -7.622 -34.204  1.00  0.00     0.041 A 
ATOM     12  C   UNL     1      15.641  -7.481 -32.879  1.00  0.00     0.194 C 
ATOM     13  O   UNL     1      16.648  -6.732 -32.750  1.00  0.00    -0.289 OA
ATOM     14  C   UNL     1      15.569  -7.046 -35.345  1.00  0.00     0.059 A 
ATOM     15  C   UNL     1      14.969  -7.195 -36.598  1.00  0.00     0.120 A 
ATOM     16  C   UNL     1      13.798  -7.941 -36.722  1.00  0.00     0.093 A 
ATOM     17  C   UNL     1      13.210  -8.541 -35.604  1.00  0.00     0.131 A 
ENDROOT
BRANCH   6  18
ATOM     18  O   UNL     1      12.363 -10.589 -30.799  1.00  0.00    -0.507 OA
ATOM     19  H   UNL     1      11.467 -10.296 -31.165  1.00  0.00     0.293 HD
ENDBRANCH   6  18
BRANCH  17  20
ATOM     20  O   UNL     1      12.090  -9.348 -35.818  1.00  0.00    -0.507 OA
ATOM     21  H   UNL     1      11.571  -9.794 -35.075  1.00  0.00     0.293 HD
ENDBRANCH  17  20
BRANCH  15  22
ATOM     22  O   UNL     1      15.535  -6.615 -37.731  1.00  0.00    -0.508 OA
ATOM     23  H   UNL     1      15.173  -6.800 -38.660  1.00  0.00     0.293 HD
ENDBRANCH  15  22
TORSDOF 3
ENDMDL
MODEL 7
REMARK VINA RESULT:    -4.580     14.266     15.663
REMARK INTER + INTRA:          -4.981
REMARK INTER:                  -4.981
REMARK INTRA:                   0.000
REMARK UNBOUND:                 0.000
REMARK SMILES Cc1cc(O)c2c(c1)C(=O)c1cc(O)cc(O)c1C2=O
REMARK SMILES IDX 1 1 2 2 8 3 7 4 6 5 4 6 3 7 19 8 20 9 18 10 11 11 9 12 10 13
REMARK SMILES IDX 12 14 13 15 15 16 16 17 5 18 17 20 14 22
REMARK H PARENT 5 19 17 21 14 23
REMARK Flexibility Score: inf
ROOT
ATOM      1  C   UNL     1      10.954  -6.502 -35.753  1.00  0.00     0.044 C 
ATOM      2  C   UNL     1      11.519  -6.407 -34.365  1.00  0.00    -0.047 A 
ATOM      3  C   UNL     1      12.106  -7.526 -33.766  1.00  0.00     0.016 A 
ATOM      4  C   UNL     1      12.599  -7.460 -32.451  1.00  0.00     0.038 A 
ATOM      5  C   UNL     1      12.479  -6.260 -31.715  1.00  0.00     0.076 A 
ATOM      6  C   UNL     1      11.925  -5.115 -32.345  1.00  0.00     0.127 A 
ATOM      7  C   UNL     1      11.424  -5.211 -33.646  1.00  0.00     0.050 A 
ATOM      8  C   UNL     1      12.876  -6.273 -30.283  1.00  0.00     0.201 C 
ATOM      9  O   UNL     1      12.301  -5.505 -29.466  1.00  0.00    -0.288 OA
ATOM     10  C   UNL     1      13.810  -7.315 -29.786  1.00  0.00     0.076 A 
ATOM     11  C   UNL     1      13.927  -8.515 -30.525  1.00  0.00     0.041 A 
ATOM     12  C   UNL     1      13.246  -8.642 -31.836  1.00  0.00     0.194 C 
ATOM     13  O   UNL     1      13.241  -9.752 -32.438  1.00  0.00    -0.289 OA
ATOM     14  C   UNL     1      14.692  -9.577 -30.017  1.00  0.00     0.059 A 
ATOM     15  C   UNL     1      15.353  -9.453 -28.791  1.00  0.00     0.120 A 
ATOM     16  C   UNL     1      15.273  -8.258 -28.079  1.00  0.00     0.093 A 
ATOM     17  C   UNL     1      14.534  -7.178 -28.572  1.00  0.00     0.131 A 
ENDROOT
BRANCH   6  18
ATOM     18  O   UNL     1      11.883  -3.861 -31.729  1.00  0.00    -0.507 OA
ATOM     19  H   UNL     1      12.618  -3.507 -31.133  1.00  0.00     0.293 HD
ENDBRANCH   6  18
BRANCH  17  20
ATOM     20  O   UNL     1      14.574  -5.983 -27.849  1.00  0.00    -0.507 OA
ATOM     21  H   UNL     1      15.431  -5.540 -27.549  1.00  0.00     0.293 HD
ENDBRANCH  17  20
BRANCH  15  22
ATOM     22  O   UNL     1      16.103 -10.509 -28.278  1.00  0.00    -0.508 OA
ATOM     23  H   UNL     1      15.666 -11.373 -27.977  1.00  0.00     0.293 HD
ENDBRANCH  15  22
TORSDOF 3
ENDMDL
MODEL 8
REMARK VINA RESULT:    -4.562      3.689      6.053
REMARK INTER + INTRA:          -4.962
REMARK INTER:                  -4.962
REMARK INTRA:                   0.000
REMARK UNBOUND:                 0.000
REMARK SMILES Cc1cc(O)c2c(c1)C(=O)c1cc(O)cc(O)c1C2=O
REMARK SMILES IDX 1 1 2 2 8 3 7 4 6 5 4 6 3 7 19 8 20 9 18 10 11 11 9 12 10 13
REMARK SMILES IDX 12 14 13 15 15 16 16 17 5 18 17 20 14 22
REMARK H PARENT 5 19 17 21 14 23
REMARK Flexibility Score: inf
ROOT
ATOM      1  C   UNL     1      27.859  -2.420 -36.297  1.00  0.00     0.044 C 
ATOM      2  C   UNL     1      26.525  -3.106 -36.232  1.00  0.00    -0.047 A 
ATOM      3  C   UNL     1      25.585  -2.726 -35.268  1.00  0.00     0.016 A 
ATOM      4  C   UNL     1      24.350  -3.390 -35.170  1.00  0.00     0.038 A 
ATOM      5  C   UNL     1      24.063  -4.470 -36.034  1.00  0.00     0.076 A 
ATOM      6  C   UNL     1      25.001  -4.821 -37.039  1.00  0.00     0.127 A 
ATOM      7  C   UNL     1      26.230  -4.158 -37.104  1.00  0.00     0.050 A 
ATOM      8  C   UNL     1      22.812  -5.240 -35.802  1.00  0.00     0.201 C 
ATOM      9  O   UNL     1      22.766  -6.464 -36.099  1.00  0.00    -0.288 OA
ATOM     10  C   UNL     1      21.692  -4.618 -35.052  1.00  0.00     0.076 A 
ATOM     11  C   UNL     1      21.983  -3.538 -34.189  1.00  0.00     0.041 A 
ATOM     12  C   UNL     1      23.349  -2.960 -34.166  1.00  0.00     0.194 C 
ATOM     13  O   UNL     1      23.648  -2.083 -33.309  1.00  0.00    -0.289 OA
ATOM     14  C   UNL     1      20.977  -3.013 -33.360  1.00  0.00     0.059 A 
ATOM     15  C   UNL     1      19.684  -3.541 -33.394  1.00  0.00     0.120 A 
ATOM     16  C   UNL     1      19.382  -4.580 -34.273  1.00  0.00     0.093 A 
ATOM     17  C   UNL     1      20.360  -5.107 -35.122  1.00  0.00     0.131 A 
ENDROOT
BRANCH   6  18
ATOM     18  O   UNL     1      24.741  -5.793 -38.008  1.00  0.00    -0.507 OA
ATOM     19  H   UNL     1      25.400  -6.516 -38.265  1.00  0.00     0.293 HD
ENDBRANCH   6  18
BRANCH  17  20
ATOM     20  O   UNL     1      19.961  -6.083 -36.039  1.00  0.00    -0.507 OA
ATOM     21  H   UNL     1      20.608  -6.639 -36.580  1.00  0.00     0.293 HD
ENDBRANCH  17  20
BRANCH  15  22
ATOM     22  O   UNL     1      18.687  -3.032 -32.565  1.00  0.00    -0.508 OA
ATOM     23  H   UNL     1      18.147  -2.214 -32.825  1.00  0.00     0.293 HD
ENDBRANCH  15  22
TORSDOF 3
ENDMDL
MODEL 9
REMARK VINA RESULT:    -4.356      7.365      9.754
REMARK INTER + INTRA:          -4.738
REMARK INTER:                  -4.738
REMARK INTRA:                   0.000
REMARK UNBOUND:                 0.000
REMARK SMILES Cc1cc(O)c2c(c1)C(=O)c1cc(O)cc(O)c1C2=O
REMARK SMILES IDX 1 1 2 2 8 3 7 4 6 5 4 6 3 7 19 8 20 9 18 10 11 11 9 12 10 13
REMARK SMILES IDX 12 14 13 15 15 16 16 17 5 18 17 20 14 22
REMARK H PARENT 5 19 17 21 14 23
REMARK Flexibility Score: inf
ROOT
ATOM      1  C   UNL     1      15.331  -8.223 -31.627  1.00  0.00     0.044 C 
ATOM      2  C   UNL     1      16.074  -7.342 -32.589  1.00  0.00    -0.047 A 
ATOM      3  C   UNL     1      17.453  -7.499 -32.765  1.00  0.00     0.016 A 
ATOM      4  C   UNL     1      18.166  -6.652 -33.630  1.00  0.00     0.038 A 
ATOM      5  C   UNL     1      17.492  -5.612 -34.310  1.00  0.00     0.076 A 
ATOM      6  C   UNL     1      16.086  -5.487 -34.162  1.00  0.00     0.127 A 
ATOM      7  C   UNL     1      15.402  -6.330 -33.281  1.00  0.00     0.050 A 
ATOM      8  C   UNL     1      18.303  -4.648 -35.098  1.00  0.00     0.201 C 
ATOM      9  O   UNL     1      17.909  -3.459 -35.230  1.00  0.00    -0.288 OA
ATOM     10  C   UNL     1      19.660  -5.034 -35.565  1.00  0.00     0.076 A 
ATOM     11  C   UNL     1      20.331  -6.074 -34.882  1.00  0.00     0.041 A 
ATOM     12  C   UNL     1      19.621  -6.846 -33.835  1.00  0.00     0.194 C 
ATOM     13  O   UNL     1      20.252  -7.687 -33.135  1.00  0.00    -0.289 OA
ATOM     14  C   UNL     1      21.665  -6.374 -35.204  1.00  0.00     0.059 A 
ATOM     15  C   UNL     1      22.330  -5.662 -36.205  1.00  0.00     0.120 A 
ATOM     16  C   UNL     1      21.660  -4.663 -36.909  1.00  0.00     0.093 A 
ATOM     17  C   UNL     1      20.326  -4.358 -36.622  1.00  0.00     0.131 A 
ENDROOT
BRANCH   6  18
ATOM     18  O   UNL     1      15.329  -4.567 -34.892  1.00  0.00    -0.507 OA
ATOM     19  H   UNL     1      15.551  -3.582 -34.949  1.00  0.00     0.293 HD
ENDBRANCH   6  18
BRANCH  17  20
ATOM     20  O   UNL     1      19.692  -3.409 -37.428  1.00  0.00    -0.507 OA
ATOM     21  H   UNL     1      19.465  -3.564 -38.400  1.00  0.00     0.293 HD
ENDBRANCH  17  20
BRANCH  15  22
ATOM     22  O   UNL     1      23.658  -5.949 -36.519  1.00  0.00    -0.508 OA
ATOM     23  H   UNL     1      24.283  -6.374 -35.843  1.00  0.00     0.293 HD
ENDBRANCH  15  22
TORSDOF 3
ENDMDL
