MODEL 1
REMARK VINA RESULT:    -3.708      0.000      0.000
REMARK INTER + INTRA:          -6.186
REMARK INTER:                  -5.658
REMARK INTRA:                  -0.528
REMARK UNBOUND:                -0.528
REMARK SMILES O=C([O-])CCCCCCCCC(=O)[O-]
REMARK SMILES IDX 7 1 6 2 5 3 4 4 2 5 1 6 3 7 8 8 9 9 10 10 11 11 12 12 13 13
REMARK SMILES IDX 14 14
REMARK H PARENT
REMARK Flexibility Score: inf
ROOT
ATOM      1  C   UNL     1     -45.745 -26.274   1.354  1.00  0.00     0.000 C 
ENDROOT
BRANCH   1   2
ATOM      2  C   UNL     1     -46.503 -27.188   0.379  1.00  0.00     0.000 C 
BRANCH   2   3
ATOM      3  C   UNL     1     -45.567 -27.933  -0.592  1.00  0.00     0.006 C 
BRANCH   3   4
ATOM      4  C   UNL     1     -44.207 -28.322   0.011  1.00  0.00     0.053 C 
BRANCH   4   5
ATOM      5  C   UNL     1     -43.074 -27.592  -0.641  1.00  0.00     0.041 C 
ATOM      6  O   UNL     1     -43.304 -26.629  -1.418  1.00  0.00    -0.550 OA
ATOM      7  O   UNL     1     -41.762 -27.955  -0.363  1.00  0.00    -0.550 OA
ENDBRANCH   4   5
ENDBRANCH   3   4
ENDBRANCH   2   3
ENDBRANCH   1   2
BRANCH   1   8
ATOM      8  C   UNL     1     -46.312 -26.399   2.776  1.00  0.00     0.000 C 
BRANCH   8   9
ATOM      9  C   UNL     1     -46.340 -27.852   3.278  1.00  0.00     0.000 C 
BRANCH   9  10
ATOM     10  C   UNL     1     -46.366 -27.949   4.810  1.00  0.00     0.006 C 
BRANCH  10  11
ATOM     11  C   UNL     1     -46.063 -26.590   5.450  1.00  0.00     0.053 C 
BRANCH  11  12
ATOM     12  C   UNL     1     -45.631 -26.764   6.871  1.00  0.00     0.041 C 
ATOM     13  O   UNL     1     -44.871 -27.716   7.190  1.00  0.00    -0.550 OA
ATOM     14  O   UNL     1     -46.109 -25.905   7.853  1.00  0.00    -0.550 OA
ENDBRANCH  11  12
ENDBRANCH  10  11
ENDBRANCH   9  10
ENDBRANCH   8   9
ENDBRANCH   1   8
TORSDOF 9
ENDMDL
MODEL 2
REMARK VINA RESULT:    -3.702      1.212      1.602
REMARK INTER + INTRA:          -6.178
REMARK INTER:                  -5.771
REMARK INTRA:                  -0.408
REMARK UNBOUND:                -0.528
REMARK SMILES O=C([O-])CCCCCCCCC(=O)[O-]
REMARK SMILES IDX 7 1 6 2 5 3 4 4 2 5 1 6 3 7 8 8 9 9 10 10 11 11 12 12 13 13
REMARK SMILES IDX 14 14
REMARK H PARENT
REMARK Flexibility Score: inf
ROOT
ATOM      1  C   UNL     1     -45.012 -26.166   1.283  1.00  0.00     0.000 C 
ENDROOT
BRANCH   1   2
ATOM      2  C   UNL     1     -44.979 -27.366   0.325  1.00  0.00     0.000 C 
BRANCH   2   3
ATOM      3  C   UNL     1     -43.629 -27.513  -0.402  1.00  0.00     0.006 C 
BRANCH   3   4
ATOM      4  C   UNL     1     -42.997 -28.910  -0.292  1.00  0.00     0.053 C 
BRANCH   4   5
ATOM      5  C   UNL     1     -41.510 -28.844  -0.127  1.00  0.00     0.041 C 
ATOM      6  O   UNL     1     -40.874 -27.832  -0.521  1.00  0.00    -0.550 OA
ATOM      7  O   UNL     1     -40.832 -29.887   0.491  1.00  0.00    -0.550 OA
ENDBRANCH   4   5
ENDBRANCH   3   4
ENDBRANCH   2   3
ENDBRANCH   1   2
BRANCH   1   8
ATOM      8  C   UNL     1     -46.085 -26.358   2.365  1.00  0.00     0.000 C 
BRANCH   8   9
ATOM      9  C   UNL     1     -46.266 -27.831   2.767  1.00  0.00     0.000 C 
BRANCH   9  10
ATOM     10  C   UNL     1     -46.596 -28.002   4.257  1.00  0.00     0.006 C 
BRANCH  10  11
ATOM     11  C   UNL     1     -46.390 -26.689   5.018  1.00  0.00     0.053 C 
BRANCH  11  12
ATOM     12  C   UNL     1     -45.972 -26.960   6.429  1.00  0.00     0.041 C 
ATOM     13  O   UNL     1     -45.159 -26.192   7.007  1.00  0.00    -0.550 OA
ATOM     14  O   UNL     1     -46.442 -28.088   7.088  1.00  0.00    -0.550 OA
ENDBRANCH  11  12
ENDBRANCH  10  11
ENDBRANCH   9  10
ENDBRANCH   8   9
ENDBRANCH   1   8
TORSDOF 9
ENDMDL
MODEL 3
REMARK VINA RESULT:    -3.653      0.971      6.494
REMARK INTER + INTRA:          -6.103
REMARK INTER:                  -5.591
REMARK INTRA:                  -0.512
REMARK UNBOUND:                -0.528
REMARK SMILES O=C([O-])CCCCCCCCC(=O)[O-]
REMARK SMILES IDX 7 1 6 2 5 3 4 4 2 5 1 6 3 7 8 8 9 9 10 10 11 11 12 12 13 13
REMARK SMILES IDX 14 14
REMARK H PARENT
REMARK Flexibility Score: inf
ROOT
ATOM      1  C   UNL     1     -46.011 -26.424   2.568  1.00  0.00     0.000 C 
ENDROOT
BRANCH   1   2
ATOM      2  C   UNL     1     -46.328 -27.871   2.976  1.00  0.00     0.000 C 
BRANCH   2   3
ATOM      3  C   UNL     1     -46.305 -28.080   4.502  1.00  0.00     0.006 C 
BRANCH   3   4
ATOM      4  C   UNL     1     -46.297 -26.779   5.321  1.00  0.00     0.053 C 
BRANCH   4   5
ATOM      5  C   UNL     1     -45.578 -26.940   6.625  1.00  0.00     0.041 C 
ATOM      6  O   UNL     1     -45.565 -26.000   7.461  1.00  0.00    -0.550 OA
ATOM      7  O   UNL     1     -44.952 -28.143   6.930  1.00  0.00    -0.550 OA
ENDBRANCH   4   5
ENDBRANCH   3   4
ENDBRANCH   2   3
ENDBRANCH   1   2
BRANCH   1   8
ATOM      8  C   UNL     1     -45.547 -26.356   1.106  1.00  0.00     0.000 C 
BRANCH   8   9
ATOM      9  C   UNL     1     -45.760 -27.680   0.353  1.00  0.00     0.000 C 
BRANCH   9  10
ATOM     10  C   UNL     1     -44.769 -27.869  -0.804  1.00  0.00     0.006 C 
BRANCH  10  11
ATOM     11  C   UNL     1     -43.402 -27.269  -0.459  1.00  0.00     0.053 C 
BRANCH  11  12
ATOM     12  C   UNL     1     -42.375 -28.347  -0.324  1.00  0.00     0.041 C 
ATOM     13  O   UNL     1     -42.730 -29.546  -0.175  1.00  0.00    -0.550 OA
ATOM     14  O   UNL     1     -41.024 -28.023  -0.311  1.00  0.00    -0.550 OA
ENDBRANCH  11  12
ENDBRANCH  10  11
ENDBRANCH   9  10
ENDBRANCH   8   9
ENDBRANCH   1   8
TORSDOF 9
ENDMDL
MODEL 4
REMARK VINA RESULT:    -3.634      1.312      7.084
REMARK INTER + INTRA:          -6.074
REMARK INTER:                  -5.546
REMARK INTRA:                  -0.528
REMARK UNBOUND:                -0.528
REMARK SMILES O=C([O-])CCCCCCCCC(=O)[O-]
REMARK SMILES IDX 7 1 6 2 5 3 4 4 2 5 1 6 3 7 8 8 9 9 10 10 11 11 12 12 13 13
REMARK SMILES IDX 14 14
REMARK H PARENT
REMARK Flexibility Score: inf
ROOT
ATOM      1  C   UNL     1     -46.272 -26.494   2.539  1.00  0.00     0.000 C 
ENDROOT
BRANCH   1   2
ATOM      2  C   UNL     1     -46.286 -27.941   3.056  1.00  0.00     0.000 C 
BRANCH   2   3
ATOM      3  C   UNL     1     -46.288 -28.027   4.593  1.00  0.00     0.006 C 
BRANCH   3   4
ATOM      4  C   UNL     1     -46.166 -26.669   5.305  1.00  0.00     0.053 C 
BRANCH   4   5
ATOM      5  C   UNL     1     -45.695 -26.815   6.719  1.00  0.00     0.041 C 
ATOM      6  O   UNL     1     -44.983 -27.798   7.050  1.00  0.00    -0.550 OA
ATOM      7  O   UNL     1     -46.015 -25.847   7.662  1.00  0.00    -0.550 OA
ENDBRANCH   4   5
ENDBRANCH   3   4
ENDBRANCH   2   3
ENDBRANCH   1   2
BRANCH   1   8
ATOM      8  C   UNL     1     -45.958 -26.451   1.037  1.00  0.00     0.000 C 
BRANCH   8   9
ATOM      9  C   UNL     1     -44.476 -26.723   0.733  1.00  0.00     0.000 C 
BRANCH   9  10
ATOM     10  C   UNL     1     -44.272 -27.939  -0.183  1.00  0.00     0.006 C 
BRANCH  10  11
ATOM     11  C   UNL     1     -45.531 -28.218  -1.011  1.00  0.00     0.053 C 
BRANCH  11  12
ATOM     12  C   UNL     1     -45.283 -27.927  -2.456  1.00  0.00     0.041 C 
ATOM     13  O   UNL     1     -45.656 -28.744  -3.339  1.00  0.00    -0.550 OA
ATOM     14  O   UNL     1     -44.595 -26.779  -2.827  1.00  0.00    -0.550 OA
ENDBRANCH  11  12
ENDBRANCH  10  11
ENDBRANCH   9  10
ENDBRANCH   8   9
ENDBRANCH   1   8
TORSDOF 9
ENDMDL
MODEL 5
REMARK VINA RESULT:    -3.520      1.427      1.981
REMARK INTER + INTRA:          -5.899
REMARK INTER:                  -5.387
REMARK INTRA:                  -0.512
REMARK UNBOUND:                -0.528
REMARK SMILES O=C([O-])CCCCCCCCC(=O)[O-]
REMARK SMILES IDX 7 1 6 2 5 3 4 4 2 5 1 6 3 7 8 8 9 9 10 10 11 11 12 12 13 13
REMARK SMILES IDX 14 14
REMARK H PARENT
REMARK Flexibility Score: inf
ROOT
ATOM      1  C   UNL     1     -46.197 -26.641   3.394  1.00  0.00     0.000 C 
ENDROOT
BRANCH   1   2
ATOM      2  C   UNL     1     -46.257 -26.289   1.900  1.00  0.00     0.000 C 
BRANCH   2   3
ATOM      3  C   UNL     1     -45.834 -27.459   0.992  1.00  0.00     0.006 C 
BRANCH   3   4
ATOM      4  C   UNL     1     -44.461 -27.280   0.324  1.00  0.00     0.053 C 
BRANCH   4   5
ATOM      5  C   UNL     1     -44.437 -27.833  -1.068  1.00  0.00     0.041 C 
ATOM      6  O   UNL     1     -44.342 -29.074  -1.254  1.00  0.00    -0.550 OA
ATOM      7  O   UNL     1     -44.554 -26.979  -2.157  1.00  0.00    -0.550 OA
ENDBRANCH   4   5
ENDBRANCH   3   4
ENDBRANCH   2   3
ENDBRANCH   1   2
BRANCH   1   8
ATOM      8  C   UNL     1     -46.834 -28.014   3.660  1.00  0.00     0.000 C 
BRANCH   8   9
ATOM      9  C   UNL     1     -45.851 -29.010   4.297  1.00  0.00     0.000 C 
BRANCH   9  10
ATOM     10  C   UNL     1     -46.174 -29.301   5.770  1.00  0.00     0.006 C 
BRANCH  10  11
ATOM     11  C   UNL     1     -45.203 -28.565   6.699  1.00  0.00     0.053 C 
BRANCH  11  12
ATOM     12  C   UNL     1     -45.815 -27.295   7.197  1.00  0.00     0.041 C 
ATOM     13  O   UNL     1     -46.844 -27.329   7.922  1.00  0.00    -0.550 OA
ATOM     14  O   UNL     1     -45.278 -26.070   6.820  1.00  0.00    -0.550 OA
ENDBRANCH  11  12
ENDBRANCH  10  11
ENDBRANCH   9  10
ENDBRANCH   8   9
ENDBRANCH   1   8
TORSDOF 9
ENDMDL
MODEL 6
REMARK VINA RESULT:    -3.353      4.993      6.976
REMARK INTER + INTRA:          -5.646
REMARK INTER:                  -5.211
REMARK INTRA:                  -0.435
REMARK UNBOUND:                -0.528
REMARK SMILES O=C([O-])CCCCCCCCC(=O)[O-]
REMARK SMILES IDX 7 1 6 2 5 3 4 4 2 5 1 6 3 7 8 8 9 9 10 10 11 11 12 12 13 13
REMARK SMILES IDX 14 14
REMARK H PARENT
REMARK Flexibility Score: inf
ROOT
ATOM      1  C   UNL     1     -46.243 -28.662  -4.282  1.00  0.00     0.000 C 
ENDROOT
BRANCH   1   2
ATOM      2  C   UNL     1     -45.478 -27.455  -4.846  1.00  0.00     0.000 C 
BRANCH   2   3
ATOM      3  C   UNL     1     -45.287 -27.528  -6.372  1.00  0.00     0.006 C 
BRANCH   3   4
ATOM      4  C   UNL     1     -44.418 -28.705  -6.847  1.00  0.00     0.053 C 
BRANCH   4   5
ATOM      5  C   UNL     1     -43.347 -28.265  -7.797  1.00  0.00     0.041 C 
ATOM      6  O   UNL     1     -43.653 -27.732  -8.895  1.00  0.00    -0.550 OA
ATOM      7  O   UNL     1     -42.009 -28.413  -7.452  1.00  0.00    -0.550 OA
ENDBRANCH   4   5
ENDBRANCH   3   4
ENDBRANCH   2   3
ENDBRANCH   1   2
BRANCH   1   8
ATOM      8  C   UNL     1     -45.893 -28.893  -2.805  1.00  0.00     0.000 C 
BRANCH   8   9
ATOM      9  C   UNL     1     -44.946 -27.818  -2.245  1.00  0.00     0.000 C 
BRANCH   9  10
ATOM     10  C   UNL     1     -44.749 -27.935  -0.727  1.00  0.00     0.006 C 
BRANCH  10  11
ATOM     11  C   UNL     1     -43.416 -27.313  -0.298  1.00  0.00     0.053 C 
BRANCH  11  12
ATOM     12  C   UNL     1     -42.323 -28.333  -0.338  1.00  0.00     0.041 C 
ATOM     13  O   UNL     1     -41.119 -27.969  -0.392  1.00  0.00    -0.550 OA
ATOM     14  O   UNL     1     -42.635 -29.686  -0.368  1.00  0.00    -0.550 OA
ENDBRANCH  11  12
ENDBRANCH  10  11
ENDBRANCH   9  10
ENDBRANCH   8   9
ENDBRANCH   1   8
TORSDOF 9
ENDMDL
MODEL 7
REMARK VINA RESULT:    -3.349      5.709      8.234
REMARK INTER + INTRA:          -5.639
REMARK INTER:                  -5.087
REMARK INTRA:                  -0.553
REMARK UNBOUND:                -0.528
REMARK SMILES O=C([O-])CCCCCCCCC(=O)[O-]
REMARK SMILES IDX 7 1 6 2 5 3 4 4 2 5 1 6 3 7 8 8 9 9 10 10 11 11 12 12 13 13
REMARK SMILES IDX 14 14
REMARK H PARENT
REMARK Flexibility Score: inf
ROOT
ATOM      1  C   UNL     1     -44.999 -27.194  -6.390  1.00  0.00     0.000 C 
ENDROOT
BRANCH   1   2
ATOM      2  C   UNL     1     -45.671 -27.580  -7.717  1.00  0.00     0.000 C 
BRANCH   2   3
ATOM      3  C   UNL     1     -44.674 -28.131  -8.753  1.00  0.00     0.006 C 
BRANCH   3   4
ATOM      4  C   UNL     1     -43.829 -29.315  -8.255  1.00  0.00     0.053 C 
BRANCH   4   5
ATOM      5  C   UNL     1     -42.360 -29.036  -8.347  1.00  0.00     0.041 C 
ATOM      6  O   UNL     1     -41.792 -28.338  -7.469  1.00  0.00    -0.550 OA
ATOM      7  O   UNL     1     -41.614 -29.577  -9.387  1.00  0.00    -0.550 OA
ENDBRANCH   4   5
ENDBRANCH   3   4
ENDBRANCH   2   3
ENDBRANCH   1   2
BRANCH   1   8
ATOM      8  C   UNL     1     -45.898 -27.547  -5.196  1.00  0.00     0.000 C 
BRANCH   8   9
ATOM      9  C   UNL     1     -45.605 -28.945  -4.627  1.00  0.00     0.000 C 
BRANCH   9  10
ATOM     10  C   UNL     1     -46.306 -29.197  -3.284  1.00  0.00     0.006 C 
BRANCH  10  11
ATOM     11  C   UNL     1     -45.299 -29.182  -2.129  1.00  0.00     0.053 C 
BRANCH  11  12
ATOM     12  C   UNL     1     -45.216 -27.818  -1.522  1.00  0.00     0.041 C 
ATOM     13  O   UNL     1     -46.213 -27.328  -0.928  1.00  0.00    -0.550 OA
ATOM     14  O   UNL     1     -44.056 -27.066  -1.656  1.00  0.00    -0.550 OA
ENDBRANCH  11  12
ENDBRANCH  10  11
ENDBRANCH   9  10
ENDBRANCH   8   9
ENDBRANCH   1   8
TORSDOF 9
ENDMDL
MODEL 8
REMARK VINA RESULT:    -3.343      6.049     10.697
REMARK INTER + INTRA:          -5.630
REMARK INTER:                  -5.058
REMARK INTRA:                  -0.572
REMARK UNBOUND:                -0.528
REMARK SMILES O=C([O-])CCCCCCCCC(=O)[O-]
REMARK SMILES IDX 7 1 6 2 5 3 4 4 2 5 1 6 3 7 8 8 9 9 10 10 11 11 12 12 13 13
REMARK SMILES IDX 14 14
REMARK H PARENT
REMARK Flexibility Score: inf
ROOT
ATOM      1  C   UNL     1     -45.118 -28.130  -5.820  1.00  0.00     0.000 C 
ENDROOT
BRANCH   1   2
ATOM      2  C   UNL     1     -46.367 -28.945  -5.451  1.00  0.00     0.000 C 
BRANCH   2   3
ATOM      3  C   UNL     1     -46.856 -28.675  -4.016  1.00  0.00     0.006 C 
BRANCH   3   4
ATOM      4  C   UNL     1     -45.814 -28.972  -2.925  1.00  0.00     0.053 C 
BRANCH   4   5
ATOM      5  C   UNL     1     -45.486 -27.756  -2.114  1.00  0.00     0.041 C 
ATOM      6  O   UNL     1     -44.507 -27.032  -2.427  1.00  0.00    -0.550 OA
ATOM      7  O   UNL     1     -46.285 -27.407  -1.032  1.00  0.00    -0.550 OA
ENDBRANCH   4   5
ENDBRANCH   3   4
ENDBRANCH   2   3
ENDBRANCH   1   2
BRANCH   1   8
ATOM      8  C   UNL     1     -45.424 -27.137  -6.951  1.00  0.00     0.000 C 
BRANCH   8   9
ATOM      9  C   UNL     1     -45.559 -27.822  -8.321  1.00  0.00     0.000 C 
BRANCH   9  10
ATOM     10  C   UNL     1     -44.224 -27.901  -9.077  1.00  0.00     0.006 C 
BRANCH  10  11
ATOM     11  C   UNL     1     -43.570 -29.274  -8.890  1.00  0.00     0.053 C 
BRANCH  11  12
ATOM     12  C   UNL     1     -42.152 -29.123  -8.442  1.00  0.00     0.041 C 
ATOM     13  O   UNL     1     -41.875 -28.395  -7.452  1.00  0.00    -0.550 OA
ATOM     14  O   UNL     1     -41.129 -29.745  -9.146  1.00  0.00    -0.550 OA
ENDBRANCH  11  12
ENDBRANCH  10  11
ENDBRANCH   9  10
ENDBRANCH   8   9
ENDBRANCH   1   8
TORSDOF 9
ENDMDL
MODEL 9
REMARK VINA RESULT:    -3.307      2.271      6.906
REMARK INTER + INTRA:          -5.575
REMARK INTER:                  -4.926
REMARK INTRA:                  -0.649
REMARK UNBOUND:                -0.528
REMARK SMILES O=C([O-])CCCCCCCCC(=O)[O-]
REMARK SMILES IDX 7 1 6 2 5 3 4 4 2 5 1 6 3 7 8 8 9 9 10 10 11 11 12 12 13 13
REMARK SMILES IDX 14 14
REMARK H PARENT
REMARK Flexibility Score: inf
ROOT
ATOM      1  C   UNL     1     -43.840 -27.099   0.328  1.00  0.00     0.000 C 
ENDROOT
BRANCH   1   2
ATOM      2  C   UNL     1     -45.326 -27.101   0.718  1.00  0.00     0.000 C 
BRANCH   2   3
ATOM      3  C   UNL     1     -45.670 -26.026   1.765  1.00  0.00     0.006 C 
BRANCH   3   4
ATOM      4  C   UNL     1     -46.803 -26.418   2.729  1.00  0.00     0.053 C 
BRANCH   4   5
ATOM      5  C   UNL     1     -46.288 -27.134   3.939  1.00  0.00     0.041 C 
ATOM      6  O   UNL     1     -46.041 -26.497   4.995  1.00  0.00    -0.550 OA
ATOM      7  O   UNL     1     -46.113 -28.512   3.910  1.00  0.00    -0.550 OA
ENDBRANCH   4   5
ENDBRANCH   3   4
ENDBRANCH   2   3
ENDBRANCH   1   2
BRANCH   1   8
ATOM      8  C   UNL     1     -43.419 -28.463  -0.239  1.00  0.00     0.000 C 
BRANCH   8   9
ATOM      9  C   UNL     1     -44.603 -29.433  -0.389  1.00  0.00     0.000 C 
BRANCH   9  10
ATOM     10  C   UNL     1     -44.925 -29.752  -1.856  1.00  0.00     0.006 C 
BRANCH  10  11
ATOM     11  C   UNL     1     -46.244 -29.098  -2.281  1.00  0.00     0.053 C 
BRANCH  11  12
ATOM     12  C   UNL     1     -45.988 -27.962  -3.220  1.00  0.00     0.041 C 
ATOM     13  O   UNL     1     -45.055 -27.149  -2.990  1.00  0.00    -0.550 OA
ATOM     14  O   UNL     1     -46.812 -27.771  -4.321  1.00  0.00    -0.550 OA
ENDBRANCH  11  12
ENDBRANCH  10  11
ENDBRANCH   9  10
ENDBRANCH   8   9
ENDBRANCH   1   8
TORSDOF 9
ENDMDL
