MODEL 1
REMARK VINA RESULT:    -3.243      0.000      0.000
REMARK INTER + INTRA:         -14.382
REMARK INTER:                  -8.551
REMARK INTRA:                  -5.831
REMARK UNBOUND:                -5.831
REMARK SMILES CCCCCCCCCCCCCCCCCCCCCCCCCCCCCC(=O)[O-]
REMARK SMILES IDX 16 1 17 2 18 3 19 4 20 5 21 6 22 7 23 8 24 9 25 10 26 11
REMARK SMILES IDX 27 12 28 13 29 14 30 15 31 16 32 17 15 18 14 19 13 20 12 21
REMARK SMILES IDX 11 22 10 23 9 24 8 25 7 26 6 27 5 28 4 29 3 30 2 31 1 32
REMARK H PARENT
REMARK Flexibility Score: inf
ROOT
ATOM      1  C   UNL     1     165.647 155.331 180.001  1.00  0.00     0.000 C 
ENDROOT
BRANCH   1   2
ATOM      2  C   UNL     1     167.082 155.520 179.472  1.00  0.00     0.000 C 
BRANCH   2   3
ATOM      3  C   UNL     1     167.433 156.940 178.987  1.00  0.00     0.000 C 
BRANCH   3   4
ATOM      4  C   UNL     1     168.274 156.952 177.698  1.00  0.00     0.000 C 
BRANCH   4   5
ATOM      5  C   UNL     1     167.548 156.309 176.503  1.00  0.00     0.000 C 
BRANCH   5   6
ATOM      6  C   UNL     1     168.321 155.184 175.787  1.00  0.00     0.000 C 
BRANCH   6   7
ATOM      7  C   UNL     1     167.792 153.764 176.049  1.00  0.00     0.000 C 
BRANCH   7   8
ATOM      8  C   UNL     1     166.299 153.744 176.421  1.00  0.00     0.000 C 
BRANCH   8   9
ATOM      9  C   UNL     1     165.948 152.591 177.388  1.00  0.00     0.000 C 
BRANCH   9  10
ATOM     10  C   UNL     1     166.821 151.334 177.205  1.00  0.00     0.000 C 
BRANCH  10  11
ATOM     11  C   UNL     1     167.647 150.926 178.438  1.00  0.00     0.000 C 
BRANCH  11  12
ATOM     12  C   UNL     1     167.547 151.942 179.589  1.00  0.00     0.000 C 
BRANCH  12  13
ATOM     13  C   UNL     1     168.923 152.472 180.023  1.00  0.00     0.006 C 
BRANCH  13  14
ATOM     14  C   UNL     1     169.884 152.642 178.837  1.00  0.00     0.053 C 
BRANCH  14  15
ATOM     15  C   UNL     1     170.518 154.001 178.840  1.00  0.00     0.041 C 
ATOM     16  O   UNL     1     171.146 154.411 177.825  1.00  0.00    -0.550 OA
ATOM     17  O   UNL     1     170.485 154.787 179.987  1.00  0.00    -0.550 OA
ENDBRANCH  14  15
ENDBRANCH  13  14
ENDBRANCH  12  13
ENDBRANCH  11  12
ENDBRANCH  10  11
ENDBRANCH   9  10
ENDBRANCH   8   9
ENDBRANCH   7   8
ENDBRANCH   6   7
ENDBRANCH   5   6
ENDBRANCH   4   5
ENDBRANCH   3   4
ENDBRANCH   2   3
ENDBRANCH   1   2
BRANCH   1  18
ATOM     18  C   UNL     1     164.640 156.319 179.388  1.00  0.00     0.000 C 
BRANCH  18  19
ATOM     19  C   UNL     1     163.957 155.769 178.125  1.00  0.00     0.000 C 
BRANCH  19  20
ATOM     20  C   UNL     1     163.781 156.814 177.002  1.00  0.00     0.000 C 
BRANCH  20  21
ATOM     21  C   UNL     1     164.457 158.153 177.344  1.00  0.00     0.000 C 
BRANCH  21  22
ATOM     22  C   UNL     1     164.916 158.917 176.090  1.00  0.00     0.000 C 
BRANCH  22  23
ATOM     23  C   UNL     1     163.891 158.829 174.948  1.00  0.00     0.000 C 
BRANCH  23  24
ATOM     24  C   UNL     1     163.242 160.194 174.678  1.00  0.00    -0.000 C 
BRANCH  24  25
ATOM     25  C   UNL     1     161.704 160.151 174.767  1.00  0.00    -0.000 C 
BRANCH  25  26
ATOM     26  C   UNL     1     161.116 158.867 175.381  1.00  0.00    -0.000 C 
BRANCH  26  27
ATOM     27  C   UNL     1     160.743 159.025 176.863  1.00  0.00    -0.000 C 
BRANCH  27  28
ATOM     28  C   UNL     1     160.409 157.686 177.541  1.00  0.00    -0.000 C 
BRANCH  28  29
ATOM     29  C   UNL     1     160.363 157.761 179.082  1.00  0.00    -0.000 C 
BRANCH  29  30
ATOM     30  C   UNL     1     161.607 158.455 179.664  1.00  0.00    -0.000 C 
BRANCH  30  31
ATOM     31  C   UNL     1     161.361 159.030 181.068  1.00  0.00    -0.003 C 
ATOM     32  C   UNL     1     160.677 158.034 182.003  1.00  0.00     0.004 C 
ENDBRANCH  30  31
ENDBRANCH  29  30
ENDBRANCH  28  29
ENDBRANCH  27  28
ENDBRANCH  26  27
ENDBRANCH  25  26
ENDBRANCH  24  25
ENDBRANCH  23  24
ENDBRANCH  22  23
ENDBRANCH  21  22
ENDBRANCH  20  21
ENDBRANCH  19  20
ENDBRANCH  18  19
ENDBRANCH   1  18
TORSDOF 28
ENDMDL
MODEL 2
REMARK VINA RESULT:    -3.195     11.422     15.516
REMARK INTER + INTRA:         -14.254
REMARK INTER:                 -10.928
REMARK INTRA:                  -3.326
REMARK UNBOUND:                -5.831
REMARK SMILES CCCCCCCCCCCCCCCCCCCCCCCCCCCCCC(=O)[O-]
REMARK SMILES IDX 16 1 17 2 18 3 19 4 20 5 21 6 22 7 23 8 24 9 25 10 26 11
REMARK SMILES IDX 27 12 28 13 29 14 30 15 31 16 32 17 15 18 14 19 13 20 12 21
REMARK SMILES IDX 11 22 10 23 9 24 8 25 7 26 6 27 5 28 4 29 3 30 2 31 1 32
REMARK H PARENT
REMARK Flexibility Score: inf
ROOT
ATOM      1  C   UNL     1     160.935 152.816 164.960  1.00  0.00     0.000 C 
ENDROOT
BRANCH   1   2
ATOM      2  C   UNL     1     159.596 152.882 164.199  1.00  0.00     0.000 C 
BRANCH   2   3
ATOM      3  C   UNL     1     158.357 152.412 164.984  1.00  0.00     0.000 C 
BRANCH   3   4
ATOM      4  C   UNL     1     157.346 153.539 165.256  1.00  0.00     0.000 C 
BRANCH   4   5
ATOM      5  C   UNL     1     156.099 153.455 164.359  1.00  0.00     0.000 C 
BRANCH   5   6
ATOM      6  C   UNL     1     155.794 154.718 163.531  1.00  0.00     0.000 C 
BRANCH   6   7
ATOM      7  C   UNL     1     154.525 155.479 163.951  1.00  0.00     0.000 C 
BRANCH   7   8
ATOM      8  C   UNL     1     154.799 156.545 165.028  1.00  0.00     0.000 C 
BRANCH   8   9
ATOM      9  C   UNL     1     153.645 156.659 166.049  1.00  0.00     0.000 C 
BRANCH   9  10
ATOM     10  C   UNL     1     153.545 155.462 167.016  1.00  0.00     0.000 C 
BRANCH  10  11
ATOM     11  C   UNL     1     154.876 155.021 167.649  1.00  0.00     0.000 C 
BRANCH  11  12
ATOM     12  C   UNL     1     154.760 153.700 168.431  1.00  0.00     0.000 C 
BRANCH  12  13
ATOM     13  C   UNL     1     153.908 153.844 169.702  1.00  0.00     0.006 C 
BRANCH  13  14
ATOM     14  C   UNL     1     154.373 155.010 170.588  1.00  0.00     0.053 C 
BRANCH  14  15
ATOM     15  C   UNL     1     153.904 154.839 172.002  1.00  0.00     0.041 C 
ATOM     16  O   UNL     1     154.272 153.836 172.675  1.00  0.00    -0.550 OA
ATOM     17  O   UNL     1     153.001 155.739 172.555  1.00  0.00    -0.550 OA
ENDBRANCH  14  15
ENDBRANCH  13  14
ENDBRANCH  12  13
ENDBRANCH  11  12
ENDBRANCH  10  11
ENDBRANCH   9  10
ENDBRANCH   8   9
ENDBRANCH   7   8
ENDBRANCH   6   7
ENDBRANCH   5   6
ENDBRANCH   4   5
ENDBRANCH   3   4
ENDBRANCH   2   3
ENDBRANCH   1   2
BRANCH   1  18
ATOM     18  C   UNL     1     160.821 152.120 166.327  1.00  0.00     0.000 C 
BRANCH  18  19
ATOM     19  C   UNL     1     160.930 153.100 167.506  1.00  0.00     0.000 C 
BRANCH  19  20
ATOM     20  C   UNL     1     162.259 152.999 168.285  1.00  0.00     0.000 C 
BRANCH  20  21
ATOM     21  C   UNL     1     162.247 151.850 169.307  1.00  0.00     0.000 C 
BRANCH  21  22
ATOM     22  C   UNL     1     163.629 151.193 169.471  1.00  0.00     0.000 C 
BRANCH  22  23
ATOM     23  C   UNL     1     164.524 151.409 168.240  1.00  0.00     0.000 C 
BRANCH  23  24
ATOM     24  C   UNL     1     165.995 151.579 168.646  1.00  0.00    -0.000 C 
BRANCH  24  25
ATOM     25  C   UNL     1     166.901 151.963 167.460  1.00  0.00    -0.000 C 
BRANCH  25  26
ATOM     26  C   UNL     1     166.348 151.606 166.068  1.00  0.00    -0.000 C 
BRANCH  26  27
ATOM     27  C   UNL     1     166.082 152.841 165.192  1.00  0.00    -0.000 C 
BRANCH  27  28
ATOM     28  C   UNL     1     164.583 153.147 165.033  1.00  0.00    -0.000 C 
BRANCH  28  29
ATOM     29  C   UNL     1     164.182 154.560 165.508  1.00  0.00    -0.000 C 
BRANCH  29  30
ATOM     30  C   UNL     1     165.302 155.237 166.316  1.00  0.00    -0.000 C 
BRANCH  30  31
ATOM     31  C   UNL     1     165.379 156.752 166.065  1.00  0.00    -0.003 C 
ATOM     32  C   UNL     1     165.321 157.108 164.580  1.00  0.00     0.004 C 
ENDBRANCH  30  31
ENDBRANCH  29  30
ENDBRANCH  28  29
ENDBRANCH  27  28
ENDBRANCH  26  27
ENDBRANCH  25  26
ENDBRANCH  24  25
ENDBRANCH  23  24
ENDBRANCH  22  23
ENDBRANCH  21  22
ENDBRANCH  20  21
ENDBRANCH  19  20
ENDBRANCH  18  19
ENDBRANCH   1  18
TORSDOF 28
ENDMDL
MODEL 3
REMARK VINA RESULT:    -3.149      3.008      7.191
REMARK INTER + INTRA:         -14.135
REMARK INTER:                  -8.010
REMARK INTRA:                  -6.126
REMARK UNBOUND:                -5.831
REMARK SMILES CCCCCCCCCCCCCCCCCCCCCCCCCCCCCC(=O)[O-]
REMARK SMILES IDX 16 1 17 2 18 3 19 4 20 5 21 6 22 7 23 8 24 9 25 10 26 11
REMARK SMILES IDX 27 12 28 13 29 14 30 15 31 16 32 17 15 18 14 19 13 20 12 21
REMARK SMILES IDX 11 22 10 23 9 24 8 25 7 26 6 27 5 28 4 29 3 30 2 31 1 32
REMARK H PARENT
REMARK Flexibility Score: inf
ROOT
ATOM      1  C   UNL     1     168.470 153.443 179.903  1.00  0.00     0.000 C 
ENDROOT
BRANCH   1   2
ATOM      2  C   UNL     1     167.842 154.828 180.150  1.00  0.00     0.000 C 
BRANCH   2   3
ATOM      3  C   UNL     1     166.332 154.832 180.457  1.00  0.00     0.000 C 
BRANCH   3   4
ATOM      4  C   UNL     1     165.599 156.059 179.889  1.00  0.00     0.000 C 
BRANCH   4   5
ATOM      5  C   UNL     1     164.476 155.684 178.905  1.00  0.00     0.000 C 
BRANCH   5   6
ATOM      6  C   UNL     1     163.918 156.849 178.065  1.00  0.00     0.000 C 
BRANCH   6   7
ATOM      7  C   UNL     1     163.496 156.475 176.634  1.00  0.00     0.000 C 
BRANCH   7   8
ATOM      8  C   UNL     1     163.999 157.479 175.582  1.00  0.00     0.000 C 
BRANCH   8   9
ATOM      9  C   UNL     1     163.051 158.689 175.422  1.00  0.00     0.000 C 
BRANCH   9  10
ATOM     10  C   UNL     1     161.572 158.367 175.717  1.00  0.00     0.000 C 
BRANCH  10  11
ATOM     11  C   UNL     1     160.825 159.429 176.542  1.00  0.00     0.000 C 
BRANCH  11  12
ATOM     12  C   UNL     1     161.147 159.358 178.045  1.00  0.00     0.000 C 
BRANCH  12  13
ATOM     13  C   UNL     1     160.073 158.595 178.838  1.00  0.00     0.006 C 
BRANCH  13  14
ATOM     14  C   UNL     1     160.599 157.268 179.406  1.00  0.00     0.053 C 
BRANCH  14  15
ATOM     15  C   UNL     1     160.385 157.187 180.888  1.00  0.00     0.041 C 
ATOM     16  O   UNL     1     160.954 158.009 181.658  1.00  0.00    -0.550 OA
ATOM     17  O   UNL     1     159.621 156.159 181.430  1.00  0.00    -0.550 OA
ENDBRANCH  14  15
ENDBRANCH  13  14
ENDBRANCH  12  13
ENDBRANCH  11  12
ENDBRANCH  10  11
ENDBRANCH   9  10
ENDBRANCH   8   9
ENDBRANCH   7   8
ENDBRANCH   6   7
ENDBRANCH   5   6
ENDBRANCH   4   5
ENDBRANCH   3   4
ENDBRANCH   2   3
ENDBRANCH   1   2
BRANCH   1  18
ATOM     18  C   UNL     1     167.427 152.325 179.734  1.00  0.00     0.000 C 
BRANCH  18  19
ATOM     19  C   UNL     1     167.851 151.262 178.708  1.00  0.00     0.000 C 
BRANCH  19  20
ATOM     20  C   UNL     1     167.275 151.490 177.294  1.00  0.00     0.000 C 
BRANCH  20  21
ATOM     21  C   UNL     1     166.070 152.447 177.306  1.00  0.00     0.000 C 
BRANCH  21  22
ATOM     22  C   UNL     1     166.334 153.735 176.506  1.00  0.00     0.000 C 
BRANCH  22  23
ATOM     23  C   UNL     1     167.807 153.869 176.090  1.00  0.00     0.000 C 
BRANCH  23  24
ATOM     24  C   UNL     1     168.383 155.227 176.517  1.00  0.00    -0.000 C 
BRANCH  24  25
ATOM     25  C   UNL     1     167.314 156.335 176.582  1.00  0.00    -0.000 C 
BRANCH  25  26
ATOM     26  C   UNL     1     167.772 157.654 177.232  1.00  0.00    -0.000 C 
BRANCH  26  27
ATOM     27  C   UNL     1     167.330 158.897 176.444  1.00  0.00    -0.000 C 
BRANCH  27  28
ATOM     28  C   UNL     1     167.004 160.094 177.353  1.00  0.00    -0.000 C 
BRANCH  28  29
ATOM     29  C   UNL     1     165.585 160.046 177.960  1.00  0.00    -0.000 C 
BRANCH  29  30
ATOM     30  C   UNL     1     165.615 159.786 179.476  1.00  0.00    -0.000 C 
BRANCH  30  31
ATOM     31  C   UNL     1     166.977 160.119 180.107  1.00  0.00    -0.003 C 
ATOM     32  C   UNL     1     167.606 158.924 180.820  1.00  0.00     0.004 C 
ENDBRANCH  30  31
ENDBRANCH  29  30
ENDBRANCH  28  29
ENDBRANCH  27  28
ENDBRANCH  26  27
ENDBRANCH  25  26
ENDBRANCH  24  25
ENDBRANCH  23  24
ENDBRANCH  22  23
ENDBRANCH  21  22
ENDBRANCH  20  21
ENDBRANCH  19  20
ENDBRANCH  18  19
ENDBRANCH   1  18
TORSDOF 28
ENDMDL
MODEL 4
REMARK VINA RESULT:    -3.137      3.343      7.765
REMARK INTER + INTRA:         -14.102
REMARK INTER:                  -7.657
REMARK INTRA:                  -6.445
REMARK UNBOUND:                -5.831
REMARK SMILES CCCCCCCCCCCCCCCCCCCCCCCCCCCCCC(=O)[O-]
REMARK SMILES IDX 16 1 17 2 18 3 19 4 20 5 21 6 22 7 23 8 24 9 25 10 26 11
REMARK SMILES IDX 27 12 28 13 29 14 30 15 31 16 32 17 15 18 14 19 13 20 12 21
REMARK SMILES IDX 11 22 10 23 9 24 8 25 7 26 6 27 5 28 4 29 3 30 2 31 1 32
REMARK H PARENT
REMARK Flexibility Score: inf
ROOT
ATOM      1  C   UNL     1     166.513 154.984 179.581  1.00  0.00     0.000 C 
ENDROOT
BRANCH   1   2
ATOM      2  C   UNL     1     167.245 156.317 179.835  1.00  0.00     0.000 C 
BRANCH   2   3
ATOM      3  C   UNL     1     166.415 157.411 180.533  1.00  0.00     0.000 C 
BRANCH   3   4
ATOM      4  C   UNL     1     166.154 158.638 179.643  1.00  0.00     0.000 C 
BRANCH   4   5
ATOM      5  C   UNL     1     166.713 158.474 178.218  1.00  0.00     0.000 C 
BRANCH   5   6
ATOM      6  C   UNL     1     165.655 158.352 177.104  1.00  0.00     0.000 C 
BRANCH   6   7
ATOM      7  C   UNL     1     165.465 156.933 176.542  1.00  0.00     0.000 C 
BRANCH   7   8
ATOM      8  C   UNL     1     163.985 156.522 176.449  1.00  0.00     0.000 C 
BRANCH   8   9
ATOM      9  C   UNL     1     163.552 155.614 177.622  1.00  0.00     0.000 C 
BRANCH   9  10
ATOM     10  C   UNL     1     163.138 156.387 178.891  1.00  0.00     0.000 C 
BRANCH  10  11
ATOM     11  C   UNL     1     162.011 157.414 178.692  1.00  0.00     0.000 C 
BRANCH  11  12
ATOM     12  C   UNL     1     162.472 158.864 178.924  1.00  0.00     0.000 C 
BRANCH  12  13
ATOM     13  C   UNL     1     161.764 159.861 177.992  1.00  0.00     0.006 C 
BRANCH  13  14
ATOM     14  C   UNL     1     162.366 159.866 176.578  1.00  0.00     0.053 C 
BRANCH  14  15
ATOM     15  C   UNL     1     161.351 159.454 175.554  1.00  0.00     0.041 C 
ATOM     16  O   UNL     1     161.298 158.255 175.160  1.00  0.00    -0.550 OA
ATOM     17  O   UNL     1     160.516 160.402 174.973  1.00  0.00    -0.550 OA
ENDBRANCH  14  15
ENDBRANCH  13  14
ENDBRANCH  12  13
ENDBRANCH  11  12
ENDBRANCH  10  11
ENDBRANCH   9  10
ENDBRANCH   8   9
ENDBRANCH   7   8
ENDBRANCH   6   7
ENDBRANCH   5   6
ENDBRANCH   4   5
ENDBRANCH   3   4
ENDBRANCH   2   3
ENDBRANCH   1   2
BRANCH   1  18
ATOM     18  C   UNL     1     167.070 153.818 180.415  1.00  0.00     0.000 C 
BRANCH  18  19
ATOM     19  C   UNL     1     168.589 153.644 180.259  1.00  0.00     0.000 C 
BRANCH  19  20
ATOM     20  C   UNL     1     168.995 152.594 179.203  1.00  0.00     0.000 C 
BRANCH  20  21
ATOM     21  C   UNL     1     167.925 151.503 179.029  1.00  0.00     0.000 C 
BRANCH  21  22
ATOM     22  C   UNL     1     167.491 151.334 177.562  1.00  0.00     0.000 C 
BRANCH  22  23
ATOM     23  C   UNL     1     166.147 152.020 177.270  1.00  0.00     0.000 C 
BRANCH  23  24
ATOM     24  C   UNL     1     166.351 153.344 176.520  1.00  0.00    -0.000 C 
BRANCH  24  25
ATOM     25  C   UNL     1     167.778 153.498 175.959  1.00  0.00    -0.000 C 
BRANCH  25  26
ATOM     26  C   UNL     1     168.221 154.946 175.679  1.00  0.00    -0.000 C 
BRANCH  26  27
ATOM     27  C   UNL     1     169.172 155.502 176.751  1.00  0.00    -0.000 C 
BRANCH  27  28
ATOM     28  C   UNL     1     169.589 156.958 176.481  1.00  0.00    -0.000 C 
BRANCH  28  29
ATOM     29  C   UNL     1     169.468 157.377 175.000  1.00  0.00    -0.000 C 
BRANCH  29  30
ATOM     30  C   UNL     1     168.599 158.634 174.825  1.00  0.00    -0.000 C 
BRANCH  30  31
ATOM     31  C   UNL     1     167.800 158.622 173.511  1.00  0.00    -0.003 C 
ATOM     32  C   UNL     1     166.416 159.253 173.655  1.00  0.00     0.004 C 
ENDBRANCH  30  31
ENDBRANCH  29  30
ENDBRANCH  28  29
ENDBRANCH  27  28
ENDBRANCH  26  27
ENDBRANCH  25  26
ENDBRANCH  24  25
ENDBRANCH  23  24
ENDBRANCH  22  23
ENDBRANCH  21  22
ENDBRANCH  20  21
ENDBRANCH  19  20
ENDBRANCH  18  19
ENDBRANCH   1  18
TORSDOF 28
ENDMDL
MODEL 5
REMARK VINA RESULT:    -3.091      3.330      8.754
REMARK INTER + INTRA:         -13.981
REMARK INTER:                  -8.807
REMARK INTRA:                  -5.174
REMARK UNBOUND:                -5.831
REMARK SMILES CCCCCCCCCCCCCCCCCCCCCCCCCCCCCC(=O)[O-]
REMARK SMILES IDX 16 1 17 2 18 3 19 4 20 5 21 6 22 7 23 8 24 9 25 10 26 11
REMARK SMILES IDX 27 12 28 13 29 14 30 15 31 16 32 17 15 18 14 19 13 20 12 21
REMARK SMILES IDX 11 22 10 23 9 24 8 25 7 26 6 27 5 28 4 29 3 30 2 31 1 32
REMARK H PARENT
REMARK Flexibility Score: inf
ROOT
ATOM      1  C   UNL     1     165.616 154.969 176.432  1.00  0.00     0.000 C 
ENDROOT
BRANCH   1   2
ATOM      2  C   UNL     1     165.962 156.125 175.473  1.00  0.00     0.000 C 
BRANCH   2   3
ATOM      3  C   UNL     1     166.099 157.514 176.125  1.00  0.00     0.000 C 
BRANCH   3   4
ATOM      4  C   UNL     1     164.748 158.201 176.385  1.00  0.00     0.000 C 
BRANCH   4   5
ATOM      5  C   UNL     1     164.585 158.673 177.841  1.00  0.00     0.000 C 
BRANCH   5   6
ATOM      6  C   UNL     1     164.491 157.550 178.893  1.00  0.00     0.000 C 
BRANCH   6   7
ATOM      7  C   UNL     1     163.305 156.588 178.712  1.00  0.00     0.000 C 
BRANCH   7   8
ATOM      8  C   UNL     1     161.947 157.311 178.710  1.00  0.00     0.000 C 
BRANCH   8   9
ATOM      9  C   UNL     1     161.258 157.266 177.327  1.00  0.00     0.000 C 
BRANCH   9  10
ATOM     10  C   UNL     1     160.756 158.639 176.834  1.00  0.00     0.000 C 
BRANCH  10  11
ATOM     11  C   UNL     1     161.091 158.969 175.369  1.00  0.00     0.000 C 
BRANCH  11  12
ATOM     12  C   UNL     1     160.081 159.935 174.726  1.00  0.00     0.000 C 
BRANCH  12  13
ATOM     13  C   UNL     1     160.748 161.216 174.199  1.00  0.00     0.006 C 
BRANCH  13  14
ATOM     14  C   UNL     1     162.280 161.104 174.162  1.00  0.00     0.053 C 
BRANCH  14  15
ATOM     15  C   UNL     1     162.809 161.339 172.779  1.00  0.00     0.041 C 
ATOM     16  O   UNL     1     162.141 162.019 171.951  1.00  0.00    -0.550 OA
ATOM     17  O   UNL     1     163.999 160.745 172.374  1.00  0.00    -0.550 OA
ENDBRANCH  14  15
ENDBRANCH  13  14
ENDBRANCH  12  13
ENDBRANCH  11  12
ENDBRANCH  10  11
ENDBRANCH   9  10
ENDBRANCH   8   9
ENDBRANCH   7   8
ENDBRANCH   6   7
ENDBRANCH   5   6
ENDBRANCH   4   5
ENDBRANCH   3   4
ENDBRANCH   2   3
ENDBRANCH   1   2
BRANCH   1  18
ATOM     18  C   UNL     1     166.620 153.806 176.366  1.00  0.00     0.000 C 
BRANCH  18  19
ATOM     19  C   UNL     1     166.106 152.532 177.055  1.00  0.00     0.000 C 
BRANCH  19  20
ATOM     20  C   UNL     1     167.188 151.452 177.266  1.00  0.00     0.000 C 
BRANCH  20  21
ATOM     21  C   UNL     1     168.423 152.003 177.998  1.00  0.00     0.000 C 
BRANCH  21  22
ATOM     22  C   UNL     1     168.442 151.623 179.489  1.00  0.00     0.000 C 
BRANCH  22  23
ATOM     23  C   UNL     1     168.233 152.842 180.402  1.00  0.00     0.000 C 
BRANCH  23  24
ATOM     24  C   UNL     1     166.740 153.163 180.566  1.00  0.00    -0.000 C 
BRANCH  24  25
ATOM     25  C   UNL     1     166.381 154.587 180.098  1.00  0.00    -0.000 C 
BRANCH  25  26
ATOM     26  C   UNL     1     166.972 155.727 180.949  1.00  0.00    -0.000 C 
BRANCH  26  27
ATOM     27  C   UNL     1     168.052 156.531 180.210  1.00  0.00    -0.000 C 
BRANCH  27  28
ATOM     28  C   UNL     1     168.213 156.104 178.741  1.00  0.00    -0.000 C 
BRANCH  28  29
ATOM     29  C   UNL     1     169.635 155.621 178.384  1.00  0.00    -0.000 C 
BRANCH  29  30
ATOM     30  C   UNL     1     169.819 155.438 176.868  1.00  0.00    -0.000 C 
BRANCH  30  31
ATOM     31  C   UNL     1     170.068 156.768 176.138  1.00  0.00    -0.003 C 
ATOM     32  C   UNL     1     169.596 156.742 174.685  1.00  0.00     0.004 C 
ENDBRANCH  30  31
ENDBRANCH  29  30
ENDBRANCH  28  29
ENDBRANCH  27  28
ENDBRANCH  26  27
ENDBRANCH  25  26
ENDBRANCH  24  25
ENDBRANCH  23  24
ENDBRANCH  22  23
ENDBRANCH  21  22
ENDBRANCH  20  21
ENDBRANCH  19  20
ENDBRANCH  18  19
ENDBRANCH   1  18
TORSDOF 28
ENDMDL
MODEL 6
REMARK VINA RESULT:    -3.084      4.226      8.392
REMARK INTER + INTRA:         -13.964
REMARK INTER:                  -8.709
REMARK INTRA:                  -5.255
REMARK UNBOUND:                -5.831
REMARK SMILES CCCCCCCCCCCCCCCCCCCCCCCCCCCCCC(=O)[O-]
REMARK SMILES IDX 16 1 17 2 18 3 19 4 20 5 21 6 22 7 23 8 24 9 25 10 26 11
REMARK SMILES IDX 27 12 28 13 29 14 30 15 31 16 32 17 15 18 14 19 13 20 12 21
REMARK SMILES IDX 11 22 10 23 9 24 8 25 7 26 6 27 5 28 4 29 3 30 2 31 1 32
REMARK H PARENT
REMARK Flexibility Score: inf
ROOT
ATOM      1  C   UNL     1     167.602 153.653 175.771  1.00  0.00     0.000 C 
ENDROOT
BRANCH   1   2
ATOM      2  C   UNL     1     168.250 155.051 175.719  1.00  0.00     0.000 C 
BRANCH   2   3
ATOM      3  C   UNL     1     169.187 155.397 176.891  1.00  0.00     0.000 C 
BRANCH   3   4
ATOM      4  C   UNL     1     169.599 156.879 176.925  1.00  0.00     0.000 C 
BRANCH   4   5
ATOM      5  C   UNL     1     169.137 157.658 175.681  1.00  0.00     0.000 C 
BRANCH   5   6
ATOM      6  C   UNL     1     168.642 159.093 175.946  1.00  0.00     0.000 C 
BRANCH   6   7
ATOM      7  C   UNL     1     167.349 159.481 175.209  1.00  0.00     0.000 C 
BRANCH   7   8
ATOM      8  C   UNL     1     167.097 158.622 173.957  1.00  0.00     0.000 C 
BRANCH   8   9
ATOM      9  C   UNL     1     165.603 158.581 173.563  1.00  0.00     0.000 C 
BRANCH   9  10
ATOM     10  C   UNL     1     165.222 159.581 172.453  1.00  0.00     0.000 C 
BRANCH  10  11
ATOM     11  C   UNL     1     166.394 160.073 171.585  1.00  0.00     0.000 C 
BRANCH  11  12
ATOM     12  C   UNL     1     166.026 160.203 170.097  1.00  0.00     0.000 C 
BRANCH  12  13
ATOM     13  C   UNL     1     164.554 159.853 169.825  1.00  0.00     0.006 C 
BRANCH  13  14
ATOM     14  C   UNL     1     163.817 160.971 169.072  1.00  0.00     0.053 C 
BRANCH  14  15
ATOM     15  C   UNL     1     163.330 162.031 170.014  1.00  0.00     0.041 C 
ATOM     16  O   UNL     1     162.750 161.708 171.088  1.00  0.00    -0.550 OA
ATOM     17  O   UNL     1     163.442 163.375 169.675  1.00  0.00    -0.550 OA
ENDBRANCH  14  15
ENDBRANCH  13  14
ENDBRANCH  12  13
ENDBRANCH  11  12
ENDBRANCH  10  11
ENDBRANCH   9  10
ENDBRANCH   8   9
ENDBRANCH   7   8
ENDBRANCH   6   7
ENDBRANCH   5   6
ENDBRANCH   4   5
ENDBRANCH   3   4
ENDBRANCH   2   3
ENDBRANCH   1   2
BRANCH   1  18
ATOM     18  C   UNL     1     166.345 153.600 176.655  1.00  0.00     0.000 C 
BRANCH  18  19
ATOM     19  C   UNL     1     166.068 152.196 177.215  1.00  0.00     0.000 C 
BRANCH  19  20
ATOM     20  C   UNL     1     167.327 151.310 177.338  1.00  0.00     0.000 C 
BRANCH  20  21
ATOM     21  C   UNL     1     167.888 151.296 178.770  1.00  0.00     0.000 C 
BRANCH  21  22
ATOM     22  C   UNL     1     169.030 152.309 178.965  1.00  0.00     0.000 C 
BRANCH  22  23
ATOM     23  C   UNL     1     168.614 153.489 179.858  1.00  0.00     0.000 C 
BRANCH  23  24
ATOM     24  C   UNL     1     167.304 153.188 180.601  1.00  0.00    -0.000 C 
BRANCH  24  25
ATOM     25  C   UNL     1     166.214 154.246 180.341  1.00  0.00    -0.000 C 
BRANCH  25  26
ATOM     26  C   UNL     1     166.712 155.567 179.726  1.00  0.00    -0.000 C 
BRANCH  26  27
ATOM     27  C   UNL     1     165.579 156.418 179.131  1.00  0.00    -0.000 C 
BRANCH  27  28
ATOM     28  C   UNL     1     165.997 157.154 177.847  1.00  0.00    -0.000 C 
BRANCH  28  29
ATOM     29  C   UNL     1     165.056 156.901 176.649  1.00  0.00    -0.000 C 
BRANCH  29  30
ATOM     30  C   UNL     1     163.763 156.183 177.073  1.00  0.00    -0.000 C 
BRANCH  30  31
ATOM     31  C   UNL     1     162.520 157.078 176.940  1.00  0.00    -0.003 C 
ATOM     32  C   UNL     1     162.628 158.073 175.787  1.00  0.00     0.004 C 
ENDBRANCH  30  31
ENDBRANCH  29  30
ENDBRANCH  28  29
ENDBRANCH  27  28
ENDBRANCH  26  27
ENDBRANCH  25  26
ENDBRANCH  24  25
ENDBRANCH  23  24
ENDBRANCH  22  23
ENDBRANCH  21  22
ENDBRANCH  20  21
ENDBRANCH  19  20
ENDBRANCH  18  19
ENDBRANCH   1  18
TORSDOF 28
ENDMDL
MODEL 7
REMARK VINA RESULT:    -3.054      3.175      7.746
REMARK INTER + INTRA:         -13.883
REMARK INTER:                  -8.272
REMARK INTRA:                  -5.611
REMARK UNBOUND:                -5.831
REMARK SMILES CCCCCCCCCCCCCCCCCCCCCCCCCCCCCC(=O)[O-]
REMARK SMILES IDX 16 1 17 2 18 3 19 4 20 5 21 6 22 7 23 8 24 9 25 10 26 11
REMARK SMILES IDX 27 12 28 13 29 14 30 15 31 16 32 17 15 18 14 19 13 20 12 21
REMARK SMILES IDX 11 22 10 23 9 24 8 25 7 26 6 27 5 28 4 29 3 30 2 31 1 32
REMARK H PARENT
REMARK Flexibility Score: inf
ROOT
ATOM      1  C   UNL     1     167.613 153.447 180.518  1.00  0.00     0.000 C 
ENDROOT
BRANCH   1   2
ATOM      2  C   UNL     1     166.366 154.328 180.305  1.00  0.00     0.000 C 
BRANCH   2   3
ATOM      3  C   UNL     1     166.638 155.830 180.094  1.00  0.00     0.000 C 
BRANCH   3   4
ATOM      4  C   UNL     1     165.713 156.474 179.047  1.00  0.00     0.000 C 
BRANCH   4   5
ATOM      5  C   UNL     1     164.225 156.177 179.299  1.00  0.00     0.000 C 
BRANCH   5   6
ATOM      6  C   UNL     1     163.400 155.825 178.045  1.00  0.00     0.000 C 
BRANCH   6   7
ATOM      7  C   UNL     1     162.315 156.849 177.672  1.00  0.00     0.000 C 
BRANCH   7   8
ATOM      8  C   UNL     1     162.828 158.299 177.707  1.00  0.00     0.000 C 
BRANCH   8   9
ATOM      9  C   UNL     1     161.903 159.269 176.938  1.00  0.00     0.000 C 
BRANCH   9  10
ATOM     10  C   UNL     1     162.022 159.164 175.404  1.00  0.00     0.000 C 
BRANCH  10  11
ATOM     11  C   UNL     1     161.278 160.254 174.614  1.00  0.00     0.000 C 
BRANCH  11  12
ATOM     12  C   UNL     1     162.211 161.091 173.722  1.00  0.00     0.000 C 
BRANCH  12  13
ATOM     13  C   UNL     1     163.695 160.889 174.072  1.00  0.00     0.006 C 
BRANCH  13  14
ATOM     14  C   UNL     1     164.631 161.396 172.964  1.00  0.00     0.053 C 
BRANCH  14  15
ATOM     15  C   UNL     1     164.542 160.534 171.741  1.00  0.00     0.041 C 
ATOM     16  O   UNL     1     165.231 159.479 171.655  1.00  0.00    -0.550 OA
ATOM     17  O   UNL     1     163.761 160.929 170.660  1.00  0.00    -0.550 OA
ENDBRANCH  14  15
ENDBRANCH  13  14
ENDBRANCH  12  13
ENDBRANCH  11  12
ENDBRANCH  10  11
ENDBRANCH   9  10
ENDBRANCH   8   9
ENDBRANCH   7   8
ENDBRANCH   6   7
ENDBRANCH   5   6
ENDBRANCH   4   5
ENDBRANCH   3   4
ENDBRANCH   2   3
ENDBRANCH   1   2
BRANCH   1  18
ATOM     18  C   UNL     1     167.520 152.084 179.810  1.00  0.00     0.000 C 
BRANCH  18  19
ATOM     19  C   UNL     1     168.575 151.913 178.706  1.00  0.00     0.000 C 
BRANCH  19  20
ATOM     20  C   UNL     1     167.990 151.900 177.277  1.00  0.00     0.000 C 
BRANCH  20  21
ATOM     21  C   UNL     1     166.463 152.082 177.274  1.00  0.00     0.000 C 
BRANCH  21  22
ATOM     22  C   UNL     1     166.038 153.483 176.799  1.00  0.00     0.000 C 
BRANCH  22  23
ATOM     23  C   UNL     1     167.245 154.376 176.471  1.00  0.00     0.000 C 
BRANCH  23  24
ATOM     24  C   UNL     1     166.893 155.413 175.395  1.00  0.00    -0.000 C 
BRANCH  24  25
ATOM     25  C   UNL     1     165.402 155.806 175.410  1.00  0.00    -0.000 C 
BRANCH  25  26
ATOM     26  C   UNL     1     165.051 157.083 174.626  1.00  0.00    -0.000 C 
BRANCH  26  27
ATOM     27  C   UNL     1     166.085 158.205 174.810  1.00  0.00    -0.000 C 
BRANCH  27  28
ATOM     28  C   UNL     1     165.998 158.876 176.191  1.00  0.00    -0.000 C 
BRANCH  28  29
ATOM     29  C   UNL     1     167.367 159.063 176.880  1.00  0.00    -0.000 C 
BRANCH  29  30
ATOM     30  C   UNL     1     168.538 158.834 175.909  1.00  0.00    -0.000 C 
BRANCH  30  31
ATOM     31  C   UNL     1     169.578 157.846 176.462  1.00  0.00    -0.003 C 
ATOM     32  C   UNL     1     169.168 157.246 177.806  1.00  0.00     0.004 C 
ENDBRANCH  30  31
ENDBRANCH  29  30
ENDBRANCH  28  29
ENDBRANCH  27  28
ENDBRANCH  26  27
ENDBRANCH  25  26
ENDBRANCH  24  25
ENDBRANCH  23  24
ENDBRANCH  22  23
ENDBRANCH  21  22
ENDBRANCH  20  21
ENDBRANCH  19  20
ENDBRANCH  18  19
ENDBRANCH   1  18
TORSDOF 28
ENDMDL
MODEL 8
REMARK VINA RESULT:    -3.053      3.344      7.273
REMARK INTER + INTRA:         -13.882
REMARK INTER:                  -7.878
REMARK INTRA:                  -6.004
REMARK UNBOUND:                -5.831
REMARK SMILES CCCCCCCCCCCCCCCCCCCCCCCCCCCCCC(=O)[O-]
REMARK SMILES IDX 16 1 17 2 18 3 19 4 20 5 21 6 22 7 23 8 24 9 25 10 26 11
REMARK SMILES IDX 27 12 28 13 29 14 30 15 31 16 32 17 15 18 14 19 13 20 12 21
REMARK SMILES IDX 11 22 10 23 9 24 8 25 7 26 6 27 5 28 4 29 3 30 2 31 1 32
REMARK H PARENT
REMARK Flexibility Score: inf
ROOT
ATOM      1  C   UNL     1     168.476 153.306 180.434  1.00  0.00     0.000 C 
ENDROOT
BRANCH   1   2
ATOM      2  C   UNL     1     167.916 154.718 180.700  1.00  0.00     0.000 C 
BRANCH   2   3
ATOM      3  C   UNL     1     168.074 155.727 179.546  1.00  0.00     0.000 C 
BRANCH   3   4
ATOM      4  C   UNL     1     166.731 156.262 179.019  1.00  0.00     0.000 C 
BRANCH   4   5
ATOM      5  C   UNL     1     165.517 155.535 179.624  1.00  0.00     0.000 C 
BRANCH   5   6
ATOM      6  C   UNL     1     164.140 156.046 179.155  1.00  0.00     0.000 C 
BRANCH   6   7
ATOM      7  C   UNL     1     163.890 155.942 177.642  1.00  0.00     0.000 C 
BRANCH   7   8
ATOM      8  C   UNL     1     162.474 156.392 177.240  1.00  0.00     0.000 C 
BRANCH   8   9
ATOM      9  C   UNL     1     161.866 157.394 178.247  1.00  0.00     0.000 C 
BRANCH   9  10
ATOM     10  C   UNL     1     160.340 157.571 178.109  1.00  0.00     0.000 C 
BRANCH  10  11
ATOM     11  C   UNL     1     159.825 159.002 178.342  1.00  0.00     0.000 C 
BRANCH  11  12
ATOM     12  C   UNL     1     160.956 160.042 178.421  1.00  0.00     0.000 C 
BRANCH  12  13
ATOM     13  C   UNL     1     160.789 161.169 177.389  1.00  0.00     0.006 C 
BRANCH  13  14
ATOM     14  C   UNL     1     161.730 161.004 176.186  1.00  0.00     0.053 C 
BRANCH  14  15
ATOM     15  C   UNL     1     161.083 160.203 175.096  1.00  0.00     0.041 C 
ATOM     16  O   UNL     1     161.231 158.950 175.055  1.00  0.00    -0.550 OA
ATOM     17  O   UNL     1     160.382 160.842 174.079  1.00  0.00    -0.550 OA
ENDBRANCH  14  15
ENDBRANCH  13  14
ENDBRANCH  12  13
ENDBRANCH  11  12
ENDBRANCH  10  11
ENDBRANCH   9  10
ENDBRANCH   8   9
ENDBRANCH   7   8
ENDBRANCH   6   7
ENDBRANCH   5   6
ENDBRANCH   4   5
ENDBRANCH   3   4
ENDBRANCH   2   3
ENDBRANCH   1   2
BRANCH   1  18
ATOM     18  C   UNL     1     167.389 152.286 180.052  1.00  0.00     0.000 C 
BRANCH  18  19
ATOM     19  C   UNL     1     167.898 151.208 179.081  1.00  0.00     0.000 C 
BRANCH  19  20
ATOM     20  C   UNL     1     167.429 151.407 177.624  1.00  0.00     0.000 C 
BRANCH  20  21
ATOM     21  C   UNL     1     166.190 152.313 177.531  1.00  0.00     0.000 C 
BRANCH  21  22
ATOM     22  C   UNL     1     166.385 153.475 176.541  1.00  0.00     0.000 C 
BRANCH  22  23
ATOM     23  C   UNL     1     167.861 153.881 176.404  1.00  0.00     0.000 C 
BRANCH  23  24
ATOM     24  C   UNL     1     167.997 155.283 175.792  1.00  0.00    -0.000 C 
BRANCH  24  25
ATOM     25  C   UNL     1     166.682 155.793 175.171  1.00  0.00    -0.000 C 
BRANCH  25  26
ATOM     26  C   UNL     1     166.554 157.324 175.068  1.00  0.00    -0.000 C 
BRANCH  26  27
ATOM     27  C   UNL     1     165.122 157.788 174.758  1.00  0.00    -0.000 C 
BRANCH  27  28
ATOM     28  C   UNL     1     164.814 159.187 175.317  1.00  0.00    -0.000 C 
BRANCH  28  29
ATOM     29  C   UNL     1     165.599 159.531 176.601  1.00  0.00    -0.000 C 
BRANCH  29  30
ATOM     30  C   UNL     1     164.709 159.478 177.855  1.00  0.00    -0.000 C 
BRANCH  30  31
ATOM     31  C   UNL     1     165.323 160.227 179.048  1.00  0.00    -0.003 C 
ATOM     32  C   UNL     1     165.252 159.428 180.348  1.00  0.00     0.004 C 
ENDBRANCH  30  31
ENDBRANCH  29  30
ENDBRANCH  28  29
ENDBRANCH  27  28
ENDBRANCH  26  27
ENDBRANCH  25  26
ENDBRANCH  24  25
ENDBRANCH  23  24
ENDBRANCH  22  23
ENDBRANCH  21  22
ENDBRANCH  20  21
ENDBRANCH  19  20
ENDBRANCH  18  19
ENDBRANCH   1  18
TORSDOF 28
ENDMDL
MODEL 9
REMARK VINA RESULT:    -3.040      3.452      7.027
REMARK INTER + INTRA:         -13.846
REMARK INTER:                  -7.812
REMARK INTRA:                  -6.035
REMARK UNBOUND:                -5.831
REMARK SMILES CCCCCCCCCCCCCCCCCCCCCCCCCCCCCC(=O)[O-]
REMARK SMILES IDX 16 1 17 2 18 3 19 4 20 5 21 6 22 7 23 8 24 9 25 10 26 11
REMARK SMILES IDX 27 12 28 13 29 14 30 15 31 16 32 17 15 18 14 19 13 20 12 21
REMARK SMILES IDX 11 22 10 23 9 24 8 25 7 26 6 27 5 28 4 29 3 30 2 31 1 32
REMARK H PARENT
REMARK Flexibility Score: inf
ROOT
ATOM      1  C   UNL     1     167.211 155.234 180.222  1.00  0.00     0.000 C 
ENDROOT
BRANCH   1   2
ATOM      2  C   UNL     1     167.897 156.281 179.323  1.00  0.00     0.000 C 
BRANCH   2   3
ATOM      3  C   UNL     1     169.365 156.596 179.664  1.00  0.00     0.000 C 
BRANCH   3   4
ATOM      4  C   UNL     1     170.353 156.153 178.571  1.00  0.00     0.000 C 
BRANCH   4   5
ATOM      5  C   UNL     1     169.658 155.493 177.367  1.00  0.00     0.000 C 
BRANCH   5   6
ATOM      6  C   UNL     1     170.085 156.024 175.985  1.00  0.00     0.000 C 
BRANCH   6   7
ATOM      7  C   UNL     1     168.958 156.667 175.160  1.00  0.00     0.000 C 
BRANCH   7   8
ATOM      8  C   UNL     1     168.256 157.817 175.905  1.00  0.00     0.000 C 
BRANCH   8   9
ATOM      9  C   UNL     1     166.734 157.588 176.043  1.00  0.00     0.000 C 
BRANCH   9  10
ATOM     10  C   UNL     1     166.152 156.611 175.001  1.00  0.00     0.000 C 
BRANCH  10  11
ATOM     11  C   UNL     1     164.695 156.885 174.592  1.00  0.00     0.000 C 
BRANCH  11  12
ATOM     12  C   UNL     1     164.165 158.230 175.120  1.00  0.00     0.000 C 
BRANCH  12  13
ATOM     13  C   UNL     1     162.629 158.295 175.124  1.00  0.00     0.006 C 
BRANCH  13  14
ATOM     14  C   UNL     1     162.097 159.489 175.931  1.00  0.00     0.053 C 
BRANCH  14  15
ATOM     15  C   UNL     1     160.724 159.884 175.476  1.00  0.00     0.041 C 
ATOM     16  O   UNL     1     159.705 159.456 176.086  1.00  0.00    -0.550 OA
ATOM     17  O   UNL     1     160.561 160.659 174.333  1.00  0.00    -0.550 OA
ENDBRANCH  14  15
ENDBRANCH  13  14
ENDBRANCH  12  13
ENDBRANCH  11  12
ENDBRANCH  10  11
ENDBRANCH   9  10
ENDBRANCH   8   9
ENDBRANCH   7   8
ENDBRANCH   6   7
ENDBRANCH   5   6
ENDBRANCH   4   5
ENDBRANCH   3   4
ENDBRANCH   2   3
ENDBRANCH   1   2
BRANCH   1  18
ATOM     18  C   UNL     1     168.140 154.668 181.310  1.00  0.00     0.000 C 
BRANCH  18  19
ATOM     19  C   UNL     1     168.484 153.187 181.089  1.00  0.00     0.000 C 
BRANCH  19  20
ATOM     20  C   UNL     1     169.767 152.958 180.261  1.00  0.00     0.000 C 
BRANCH  20  21
ATOM     21  C   UNL     1     169.506 152.094 179.014  1.00  0.00     0.000 C 
BRANCH  21  22
ATOM     22  C   UNL     1     168.305 151.148 179.195  1.00  0.00     0.000 C 
BRANCH  22  23
ATOM     23  C   UNL     1     167.307 151.248 178.031  1.00  0.00     0.000 C 
BRANCH  23  24
ATOM     24  C   UNL     1     167.841 152.161 176.918  1.00  0.00    -0.000 C 
BRANCH  24  25
ATOM     25  C   UNL     1     166.864 153.298 176.559  1.00  0.00    -0.000 C 
BRANCH  25  26
ATOM     26  C   UNL     1     165.546 153.309 177.356  1.00  0.00    -0.000 C 
BRANCH  26  27
ATOM     27  C   UNL     1     165.093 154.724 177.749  1.00  0.00    -0.000 C 
BRANCH  27  28
ATOM     28  C   UNL     1     163.611 154.985 177.432  1.00  0.00    -0.000 C 
BRANCH  28  29
ATOM     29  C   UNL     1     163.049 156.263 178.092  1.00  0.00    -0.000 C 
BRANCH  29  30
ATOM     30  C   UNL     1     164.158 157.125 178.719  1.00  0.00    -0.000 C 
BRANCH  30  31
ATOM     31  C   UNL     1     163.659 158.518 179.136  1.00  0.00    -0.003 C 
ATOM     32  C   UNL     1     162.299 158.474 179.830  1.00  0.00     0.004 C 
ENDBRANCH  30  31
ENDBRANCH  29  30
ENDBRANCH  28  29
ENDBRANCH  27  28
ENDBRANCH  26  27
ENDBRANCH  25  26
ENDBRANCH  24  25
ENDBRANCH  23  24
ENDBRANCH  22  23
ENDBRANCH  21  22
ENDBRANCH  20  21
ENDBRANCH  19  20
ENDBRANCH  18  19
ENDBRANCH   1  18
TORSDOF 28
ENDMDL
