MODEL 1
REMARK VINA RESULT:    -3.928      0.000      0.000
REMARK INTER + INTRA:          -6.538
REMARK INTER:                  -5.421
REMARK INTRA:                  -1.117
REMARK UNBOUND:                -1.117
REMARK SMILES O=C([O-])[C@H]1O[C@@H](Oc2cc3oc(-c4ccccc4)cc(=O)c3c(O)c2O)[C@H](O)[C@H](O)[C@H]1O
REMARK SMILES IDX 7 1 6 2 4 3 31 4 5 5 29 6 27 7 2 8 1 9 3 10 32 11 30 13
REMARK SMILES IDX 28 15 8 17 25 18 9 19 23 20 10 21 22 22 11 23 20 24 12 25
REMARK SMILES IDX 19 26 21 27 26 28 24 30 13 32 14 33 18 34 15 35 17 36 16 37
REMARK H PARENT 32 12 30 14 28 16 26 29 24 31
REMARK Flexibility Score: inf
ROOT
ATOM      1  O   UNL     1       6.076  33.658  87.001  1.00  0.00    -0.458 OA
ENDROOT
BRANCH   1   2
ATOM      2  C   UNL     1       6.681  33.182  88.209  1.00  0.00     0.339 C 
ATOM      3  C   UNL     1       7.822  35.218  88.682  1.00  0.00     0.199 C 
ATOM      4  C   UNL     1       9.201  34.588  88.362  1.00  0.00     0.180 C 
ATOM      5  O   UNL     1       6.873  34.253  89.125  1.00  0.00    -0.328 OA
ATOM      6  C   UNL     1       9.057  33.404  87.394  1.00  0.00     0.181 C 
ATOM      7  C   UNL     1       7.995  32.427  87.926  1.00  0.00     0.214 C 
BRANCH   3   8
ATOM      8  C   UNL     1       7.246  36.108  87.602  1.00  0.00     0.073 C 
ATOM      9  O   UNL     1       6.133  36.665  87.789  1.00  0.00    -0.547 OA
ATOM     10  O   UNL     1       7.914  36.320  86.401  1.00  0.00    -0.547 OA
ENDBRANCH   3   8
BRANCH   4  11
ATOM     11  O   UNL     1      10.069  35.559  87.835  1.00  0.00    -0.387 OA
ATOM     12  H   UNL     1      10.663  35.096  87.188  1.00  0.00     0.211 HD
ENDBRANCH   4  11
BRANCH   6  13
ATOM     13  O   UNL     1      10.295  32.752  87.261  1.00  0.00    -0.387 OA
ATOM     14  H   UNL     1      10.516  32.373  88.151  1.00  0.00     0.211 HD
ENDBRANCH   6  13
BRANCH   7  15
ATOM     15  O   UNL     1       8.437  31.818  89.114  1.00  0.00    -0.384 OA
ATOM     16  H   UNL     1       8.456  32.523  89.813  1.00  0.00     0.211 HD
ENDBRANCH   7  15
ENDBRANCH   1   2
BRANCH   1  17
ATOM     17  C   UNL     1       4.978  33.087  86.335  1.00  0.00     0.172 A 
ATOM     18  C   UNL     1       5.176  32.614  85.029  1.00  0.00     0.201 A 
ATOM     19  C   UNL     1       3.708  32.986  86.927  1.00  0.00     0.098 A 
ATOM     20  C   UNL     1       4.104  32.026  84.309  1.00  0.00     0.176 A 
ATOM     21  C   UNL     1       2.645  32.410  86.233  1.00  0.00     0.146 A 
ATOM     22  C   UNL     1       2.829  31.922  84.921  1.00  0.00     0.111 A 
ATOM     23  O   UNL     1       1.458  32.330  86.827  1.00  0.00    -0.456 OA
ATOM     24  C   UNL     1       1.711  31.345  84.281  1.00  0.00     0.197 A 
ATOM     25  C   UNL     1       0.384  31.801  86.248  1.00  0.00     0.138 A 
ATOM     26  C   UNL     1       0.487  31.283  84.948  1.00  0.00     0.100 A 
ATOM     27  O   UNL     1       1.790  30.875  83.113  1.00  0.00    -0.289 OA
BRANCH  18  28
ATOM     28  O   UNL     1       6.458  32.748  84.487  1.00  0.00    -0.502 OA
ATOM     29  H   UNL     1       7.038  31.979  84.186  1.00  0.00     0.293 HD
ENDBRANCH  18  28
BRANCH  20  30
ATOM     30  O   UNL     1       4.276  31.547  83.007  1.00  0.00    -0.504 OA
ATOM     31  H   UNL     1       4.444  30.581  82.768  1.00  0.00     0.293 HD
ENDBRANCH  20  30
BRANCH  25  32
ATOM     32  C   UNL     1      -0.892  31.766  87.008  1.00  0.00     0.017 A 
ATOM     33  C   UNL     1      -0.935  32.005  88.396  1.00  0.00     0.012 A 
ATOM     34  C   UNL     1      -2.089  31.454  86.337  1.00  0.00     0.012 A 
ATOM     35  C   UNL     1      -2.149  31.952  89.087  1.00  0.00     0.001 A 
ATOM     36  C   UNL     1      -3.301  31.403  87.033  1.00  0.00     0.001 A 
ATOM     37  C   UNL     1      -3.331  31.654  88.406  1.00  0.00     0.000 A 
ENDBRANCH  25  32
ENDBRANCH   1  17
TORSDOF 9
ENDMDL
MODEL 2
REMARK VINA RESULT:    -3.865      2.010      4.019
REMARK INTER + INTRA:          -6.451
REMARK INTER:                  -5.346
REMARK INTRA:                  -1.105
REMARK UNBOUND:                -1.117
REMARK SMILES O=C([O-])[C@H]1O[C@@H](Oc2cc3oc(-c4ccccc4)cc(=O)c3c(O)c2O)[C@H](O)[C@H](O)[C@H]1O
REMARK SMILES IDX 7 1 6 2 4 3 31 4 5 5 29 6 27 7 2 8 1 9 3 10 32 11 30 13
REMARK SMILES IDX 28 15 8 17 25 18 9 19 23 20 10 21 22 22 11 23 20 24 12 25
REMARK SMILES IDX 19 26 21 27 26 28 24 30 13 32 14 33 18 34 15 35 17 36 16 37
REMARK H PARENT 32 12 30 14 28 16 26 29 24 31
REMARK Flexibility Score: inf
ROOT
ATOM      1  O   UNL     1       5.734  32.496  86.532  1.00  0.00    -0.458 OA
ENDROOT
BRANCH   1   2
ATOM      2  C   UNL     1       6.613  33.088  85.568  1.00  0.00     0.339 C 
ATOM      3  C   UNL     1       8.529  33.039  86.982  1.00  0.00     0.199 C 
ATOM      4  C   UNL     1       8.521  34.580  87.145  1.00  0.00     0.180 C 
ATOM      5  O   UNL     1       7.943  32.620  85.753  1.00  0.00    -0.328 OA
ATOM      6  C   UNL     1       7.111  35.152  86.929  1.00  0.00     0.181 C 
ATOM      7  C   UNL     1       6.537  34.628  85.602  1.00  0.00     0.214 C 
BRANCH   3   8
ATOM      8  C   UNL     1       7.980  32.257  88.155  1.00  0.00     0.073 C 
ATOM      9  O   UNL     1       7.363  32.865  89.069  1.00  0.00    -0.547 OA
ATOM     10  O   UNL     1       8.149  30.880  88.255  1.00  0.00    -0.547 OA
ENDBRANCH   3   8
BRANCH   4  11
ATOM     11  O   UNL     1       9.014  34.938  88.411  1.00  0.00    -0.387 OA
ATOM     12  H   UNL     1       8.247  34.903  89.041  1.00  0.00     0.211 HD
ENDBRANCH   4  11
BRANCH   6  13
ATOM     13  O   UNL     1       7.170  36.556  86.914  1.00  0.00    -0.387 OA
ATOM     14  H   UNL     1       6.393  36.880  87.439  1.00  0.00     0.211 HD
ENDBRANCH   6  13
BRANCH   7  15
ATOM     15  O   UNL     1       7.263  35.144  84.513  1.00  0.00    -0.384 OA
ATOM     16  H   UNL     1       6.939  34.676  83.700  1.00  0.00     0.211 HD
ENDBRANCH   7  15
ENDBRANCH   1   2
BRANCH   1  17
ATOM     17  C   UNL     1       4.358  32.749  86.675  1.00  0.00     0.172 A 
ATOM     18  C   UNL     1       3.936  33.459  87.808  1.00  0.00     0.201 A 
ATOM     19  C   UNL     1       3.412  32.310  85.735  1.00  0.00     0.098 A 
ATOM     20  C   UNL     1       2.560  33.744  88.004  1.00  0.00     0.176 A 
ATOM     21  C   UNL     1       2.056  32.583  85.913  1.00  0.00     0.146 A 
ATOM     22  C   UNL     1       1.615  33.304  87.044  1.00  0.00     0.111 A 
ATOM     23  O   UNL     1       1.189  32.154  85.000  1.00  0.00    -0.456 OA
ATOM     24  C   UNL     1       0.229  33.551  87.156  1.00  0.00     0.197 A 
ATOM     25  C   UNL     1      -0.122  32.361  85.082  1.00  0.00     0.138 A 
ATOM     26  C   UNL     1      -0.639  33.080  86.170  1.00  0.00     0.100 A 
ATOM     27  O   UNL     1      -0.249  34.195  88.128  1.00  0.00    -0.289 OA
BRANCH  18  28
ATOM     28  O   UNL     1       4.921  33.863  88.714  1.00  0.00    -0.502 OA
ATOM     29  H   UNL     1       5.893  34.003  88.482  1.00  0.00     0.293 HD
ENDBRANCH  18  28
BRANCH  20  30
ATOM     30  O   UNL     1       2.114  34.451  89.125  1.00  0.00    -0.504 OA
ATOM     31  H   UNL     1       1.728  34.028  89.955  1.00  0.00     0.293 HD
ENDBRANCH  20  30
BRANCH  25  32
ATOM     32  C   UNL     1      -0.996  31.834  84.003  1.00  0.00     0.017 A 
ATOM     33  C   UNL     1      -0.467  31.355  82.787  1.00  0.00     0.012 A 
ATOM     34  C   UNL     1      -2.392  31.838  84.179  1.00  0.00     0.012 A 
ATOM     35  C   UNL     1      -1.317  30.877  81.785  1.00  0.00     0.001 A 
ATOM     36  C   UNL     1      -3.237  31.358  83.173  1.00  0.00     0.001 A 
ATOM     37  C   UNL     1      -2.700  30.875  81.978  1.00  0.00     0.000 A 
ENDBRANCH  25  32
ENDBRANCH   1  17
TORSDOF 9
ENDMDL
MODEL 3
REMARK VINA RESULT:    -3.000      2.494      4.157
REMARK INTER + INTRA:          -5.256
REMARK INTER:                  -4.509
REMARK INTRA:                  -0.748
REMARK UNBOUND:                -1.117
REMARK SMILES O=C([O-])[C@H]1O[C@@H](Oc2cc3oc(-c4ccccc4)cc(=O)c3c(O)c2O)[C@H](O)[C@H](O)[C@H]1O
REMARK SMILES IDX 7 1 6 2 4 3 31 4 5 5 29 6 27 7 2 8 1 9 3 10 32 11 30 13
REMARK SMILES IDX 28 15 8 17 25 18 9 19 23 20 10 21 22 22 11 23 20 24 12 25
REMARK SMILES IDX 19 26 21 27 26 28 24 30 13 32 14 33 18 34 15 35 17 36 16 37
REMARK H PARENT 32 12 30 14 28 16 26 29 24 31
REMARK Flexibility Score: inf
ROOT
ATOM      1  O   UNL     1       4.221  32.928  86.171  1.00  0.00    -0.458 OA
ENDROOT
BRANCH   1   2
ATOM      2  C   UNL     1       5.257  31.955  86.347  1.00  0.00     0.339 C 
ATOM      3  C   UNL     1       6.596  33.336  87.750  1.00  0.00     0.199 C 
ATOM      4  C   UNL     1       7.672  33.514  86.649  1.00  0.00     0.180 C 
ATOM      5  O   UNL     1       5.878  32.114  87.616  1.00  0.00    -0.328 OA
ATOM      6  C   UNL     1       7.066  33.327  85.249  1.00  0.00     0.181 C 
ATOM      7  C   UNL     1       6.283  32.004  85.197  1.00  0.00     0.214 C 
BRANCH   3   8
ATOM      8  C   UNL     1       5.663  34.511  87.945  1.00  0.00     0.073 C 
ATOM      9  O   UNL     1       5.031  34.625  89.028  1.00  0.00    -0.547 OA
ATOM     10  O   UNL     1       5.477  35.466  86.951  1.00  0.00    -0.547 OA
ENDBRANCH   3   8
BRANCH   4  11
ATOM     11  O   UNL     1       8.281  34.775  86.763  1.00  0.00    -0.387 OA
ATOM     12  H   UNL     1       7.832  35.247  87.512  1.00  0.00     0.211 HD
ENDBRANCH   4  11
BRANCH   6  13
ATOM     13  O   UNL     1       8.093  33.324  84.290  1.00  0.00    -0.387 OA
ATOM     14  H   UNL     1       8.870  32.868  84.704  1.00  0.00     0.211 HD
ENDBRANCH   6  13
BRANCH   7  15
ATOM     15  O   UNL     1       7.157  30.909  85.317  1.00  0.00    -0.384 OA
ATOM     16  H   UNL     1       8.004  31.162  84.866  1.00  0.00     0.211 HD
ENDBRANCH   7  15
ENDBRANCH   1   2
BRANCH   1  17
ATOM     17  C   UNL     1       2.839  32.714  86.325  1.00  0.00     0.172 A 
ATOM     18  C   UNL     1       2.312  32.743  87.624  1.00  0.00     0.201 A 
ATOM     19  C   UNL     1       1.990  32.467  85.234  1.00  0.00     0.098 A 
ATOM     20  C   UNL     1       0.926  32.535  87.840  1.00  0.00     0.176 A 
ATOM     21  C   UNL     1       0.625  32.262  85.429  1.00  0.00     0.146 A 
ATOM     22  C   UNL     1       0.076  32.296  86.730  1.00  0.00     0.111 A 
ATOM     23  O   UNL     1      -0.148  32.034  84.372  1.00  0.00    -0.456 OA
ATOM     24  C   UNL     1      -1.314  32.087  86.853  1.00  0.00     0.197 A 
ATOM     25  C   UNL     1      -1.459  31.823  84.455  1.00  0.00     0.138 A 
ATOM     26  C   UNL     1      -2.082  31.853  85.711  1.00  0.00     0.100 A 
ATOM     27  O   UNL     1      -1.888  32.112  87.975  1.00  0.00    -0.289 OA
BRANCH  18  28
ATOM     28  O   UNL     1       3.205  32.985  88.672  1.00  0.00    -0.502 OA
ATOM     29  H   UNL     1       4.162  33.282  88.555  1.00  0.00     0.293 HD
ENDBRANCH  18  28
BRANCH  20  30
ATOM     30  O   UNL     1       0.375  32.561  89.125  1.00  0.00    -0.504 OA
ATOM     31  H   UNL     1       0.763  32.086  89.925  1.00  0.00     0.293 HD
ENDBRANCH  20  30
BRANCH  25  32
ATOM     32  C   UNL     1      -2.222  31.577  83.205  1.00  0.00     0.017 A 
ATOM     33  C   UNL     1      -1.600  31.084  82.040  1.00  0.00     0.012 A 
ATOM     34  C   UNL     1      -3.598  31.871  83.165  1.00  0.00     0.012 A 
ATOM     35  C   UNL     1      -2.343  30.875  80.874  1.00  0.00     0.001 A 
ATOM     36  C   UNL     1      -4.336  31.659  81.996  1.00  0.00     0.001 A 
ATOM     37  C   UNL     1      -3.710  31.160  80.853  1.00  0.00     0.000 A 
ENDBRANCH  25  32
ENDBRANCH   1  17
TORSDOF 9
ENDMDL
MODEL 4
REMARK VINA RESULT:    -1.440      1.439      2.252
REMARK INTER + INTRA:          -3.104
REMARK INTER:                  -6.612
REMARK INTRA:                   3.508
REMARK UNBOUND:                -1.117
REMARK SMILES O=C([O-])[C@H]1O[C@@H](Oc2cc3oc(-c4ccccc4)cc(=O)c3c(O)c2O)[C@H](O)[C@H](O)[C@H]1O
REMARK SMILES IDX 7 1 6 2 4 3 31 4 5 5 29 6 27 7 2 8 1 9 3 10 32 11 30 13
REMARK SMILES IDX 28 15 8 17 25 18 9 19 23 20 10 21 22 22 11 23 20 24 12 25
REMARK SMILES IDX 19 26 21 27 26 28 24 30 13 32 14 33 18 34 15 35 17 36 16 37
REMARK H PARENT 32 12 30 14 28 16 26 29 24 31
REMARK Flexibility Score: inf
ROOT
ATOM      1  O   UNL     1       6.712  32.048  87.191  1.00  0.00    -0.458 OA
ENDROOT
BRANCH   1   2
ATOM      2  C   UNL     1       8.009  32.585  86.906  1.00  0.00     0.339 C 
ATOM      3  C   UNL     1       7.690  34.574  88.177  1.00  0.00     0.199 C 
ATOM      4  C   UNL     1       7.623  35.449  86.901  1.00  0.00     0.180 C 
ATOM      5  O   UNL     1       8.462  33.392  87.985  1.00  0.00    -0.328 OA
ATOM      6  C   UNL     1       7.164  34.625  85.688  1.00  0.00     0.181 C 
ATOM      7  C   UNL     1       8.023  33.355  85.570  1.00  0.00     0.214 C 
BRANCH   3   8
ATOM      8  C   UNL     1       6.359  34.269  88.829  1.00  0.00     0.073 C 
ATOM      9  O   UNL     1       6.074  33.079  89.125  1.00  0.00    -0.547 OA
ATOM     10  O   UNL     1       5.435  35.271  89.100  1.00  0.00    -0.547 OA
ENDBRANCH   3   8
BRANCH   4  11
ATOM     11  O   UNL     1       6.771  36.547  87.108  1.00  0.00    -0.387 OA
ATOM     12  H   UNL     1       7.309  37.251  87.555  1.00  0.00     0.211 HD
ENDBRANCH   4  11
BRANCH   6  13
ATOM     13  O   UNL     1       7.278  35.401  84.522  1.00  0.00    -0.387 OA
ATOM     14  H   UNL     1       6.408  35.862  84.399  1.00  0.00     0.211 HD
ENDBRANCH   6  13
BRANCH   7  15
ATOM     15  O   UNL     1       9.351  33.686  85.247  1.00  0.00    -0.384 OA
ATOM     16  H   UNL     1       9.733  32.911  84.759  1.00  0.00     0.211 HD
ENDBRANCH   7  15
ENDBRANCH   1   2
BRANCH   1  17
ATOM     17  C   UNL     1       5.670  31.847  86.270  1.00  0.00     0.172 A 
ATOM     18  C   UNL     1       6.014  31.488  84.958  1.00  0.00     0.201 A 
ATOM     19  C   UNL     1       4.318  32.003  86.617  1.00  0.00     0.098 A 
ATOM     20  C   UNL     1       5.004  31.271  83.986  1.00  0.00     0.176 A 
ATOM     21  C   UNL     1       3.314  31.792  85.673  1.00  0.00     0.146 A 
ATOM     22  C   UNL     1       3.643  31.421  84.350  1.00  0.00     0.111 A 
ATOM     23  O   UNL     1       2.045  31.945  86.039  1.00  0.00    -0.456 OA
ATOM     24  C   UNL     1       2.575  31.217  83.450  1.00  0.00     0.197 A 
ATOM     25  C   UNL     1       1.018  31.771  85.213  1.00  0.00     0.138 A 
ATOM     26  C   UNL     1       1.261  31.391  83.884  1.00  0.00     0.100 A 
ATOM     27  O   UNL     1       2.779  30.875  82.253  1.00  0.00    -0.289 OA
BRANCH  18  28
ATOM     28  O   UNL     1       7.375  31.356  84.667  1.00  0.00    -0.502 OA
ATOM     29  H   UNL     1       7.748  30.839  83.885  1.00  0.00     0.293 HD
ENDBRANCH  18  28
BRANCH  20  30
ATOM     30  O   UNL     1       5.322  30.911  82.672  1.00  0.00    -0.504 OA
ATOM     31  H   UNL     1       6.144  31.218  82.175  1.00  0.00     0.293 HD
ENDBRANCH  20  30
BRANCH  25  32
ATOM     32  C   UNL     1      -0.359  31.972  85.732  1.00  0.00     0.017 A 
ATOM     33  C   UNL     1      -0.724  31.580  87.037  1.00  0.00     0.012 A 
ATOM     34  C   UNL     1      -1.339  32.537  84.896  1.00  0.00     0.012 A 
ATOM     35  C   UNL     1      -2.032  31.770  87.493  1.00  0.00     0.001 A 
ATOM     36  C   UNL     1      -2.645  32.725  85.359  1.00  0.00     0.001 A 
ATOM     37  C   UNL     1      -2.991  32.344  86.656  1.00  0.00     0.000 A 
ENDBRANCH  25  32
ENDBRANCH   1  17
TORSDOF 9
ENDMDL
MODEL 5
REMARK VINA RESULT:    -1.027      2.201      8.430
REMARK INTER + INTRA:          -2.534
REMARK INTER:                  -2.459
REMARK INTRA:                  -0.075
REMARK UNBOUND:                -1.117
REMARK SMILES O=C([O-])[C@H]1O[C@@H](Oc2cc3oc(-c4ccccc4)cc(=O)c3c(O)c2O)[C@H](O)[C@H](O)[C@H]1O
REMARK SMILES IDX 7 1 6 2 4 3 31 4 5 5 29 6 27 7 2 8 1 9 3 10 32 11 30 13
REMARK SMILES IDX 28 15 8 17 25 18 9 19 23 20 10 21 22 22 11 23 20 24 12 25
REMARK SMILES IDX 19 26 21 27 26 28 24 30 13 32 14 33 18 34 15 35 17 36 16 37
REMARK H PARENT 32 12 30 14 28 16 26 29 24 31
REMARK Flexibility Score: inf
ROOT
ATOM      1  O   UNL     1       0.996  32.617  87.608  1.00  0.00    -0.458 OA
ENDROOT
BRANCH   1   2
ATOM      2  C   UNL     1       0.193  33.761  87.922  1.00  0.00     0.339 C 
ATOM      3  C   UNL     1      -1.786  32.902  86.914  1.00  0.00     0.199 C 
ATOM      4  C   UNL     1      -1.711  33.927  85.754  1.00  0.00     0.180 C 
ATOM      5  O   UNL     1      -1.165  33.381  88.102  1.00  0.00    -0.328 OA
ATOM      6  C   UNL     1      -0.266  34.398  85.525  1.00  0.00     0.181 C 
ATOM      7  C   UNL     1       0.342  34.867  86.858  1.00  0.00     0.214 C 
BRANCH   3   8
ATOM      8  C   UNL     1      -1.332  31.500  86.575  1.00  0.00     0.073 C 
ATOM      9  O   UNL     1      -0.598  30.875  87.385  1.00  0.00    -0.547 OA
ATOM     10  O   UNL     1      -1.696  30.884  85.382  1.00  0.00    -0.547 OA
ENDBRANCH   3   8
BRANCH   4  11
ATOM     11  O   UNL     1      -2.244  33.372  84.578  1.00  0.00    -0.387 OA
ATOM     12  H   UNL     1      -1.534  32.806  84.177  1.00  0.00     0.211 HD
ENDBRANCH   4  11
BRANCH   6  13
ATOM     13  O   UNL     1      -0.256  35.447  84.590  1.00  0.00    -0.387 OA
ATOM     14  H   UNL     1      -1.190  35.776  84.519  1.00  0.00     0.211 HD
ENDBRANCH   6  13
BRANCH   7  15
ATOM     15  O   UNL     1      -0.306  36.029  87.314  1.00  0.00    -0.384 OA
ATOM     16  H   UNL     1      -1.282  35.868  87.233  1.00  0.00     0.211 HD
ENDBRANCH   7  15
ENDBRANCH   1   2
BRANCH   1  17
ATOM     17  C   UNL     1       2.286  32.629  87.048  1.00  0.00     0.172 A 
ATOM     18  C   UNL     1       2.545  31.760  85.978  1.00  0.00     0.201 A 
ATOM     19  C   UNL     1       3.306  33.466  87.529  1.00  0.00     0.098 A 
ATOM     20  C   UNL     1       3.827  31.731  85.373  1.00  0.00     0.176 A 
ATOM     21  C   UNL     1       4.571  33.450  86.944  1.00  0.00     0.146 A 
ATOM     22  C   UNL     1       4.847  32.587  85.860  1.00  0.00     0.111 A 
ATOM     23  O   UNL     1       5.512  34.259  87.424  1.00  0.00    -0.456 OA
ATOM     24  C   UNL     1       6.147  32.629  85.313  1.00  0.00     0.197 A 
ATOM     25  C   UNL     1       6.748  34.314  86.938  1.00  0.00     0.138 A 
ATOM     26  C   UNL     1       7.098  33.496  85.853  1.00  0.00     0.100 A 
ATOM     27  O   UNL     1       6.476  31.900  84.338  1.00  0.00    -0.289 OA
BRANCH  18  28
ATOM     28  O   UNL     1       1.495  30.944  85.548  1.00  0.00    -0.502 OA
ATOM     29  H   UNL     1       0.795  30.541  86.153  1.00  0.00     0.293 HD
ENDBRANCH  18  28
BRANCH  20  30
ATOM     30  O   UNL     1       4.111  30.875  84.304  1.00  0.00    -0.504 OA
ATOM     31  H   UNL     1       3.563  30.810  83.460  1.00  0.00     0.293 HD
ENDBRANCH  20  30
BRANCH  25  32
ATOM     32  C   UNL     1       7.716  35.255  87.555  1.00  0.00     0.017 A 
ATOM     33  C   UNL     1       7.324  36.183  88.541  1.00  0.00     0.012 A 
ATOM     34  C   UNL     1       9.057  35.250  87.127  1.00  0.00     0.012 A 
ATOM     35  C   UNL     1       8.256  37.066  89.094  1.00  0.00     0.001 A 
ATOM     36  C   UNL     1       9.985  36.135  87.684  1.00  0.00     0.001 A 
ATOM     37  C   UNL     1       9.585  37.041  88.668  1.00  0.00     0.000 A 
ENDBRANCH  25  32
ENDBRANCH   1  17
TORSDOF 9
ENDMDL
MODEL 6
REMARK VINA RESULT:    -0.979     12.405     14.968
REMARK INTER + INTRA:          -2.468
REMARK INTER:                  -2.772
REMARK INTRA:                   0.304
REMARK UNBOUND:                -1.117
REMARK SMILES O=C([O-])[C@H]1O[C@@H](Oc2cc3oc(-c4ccccc4)cc(=O)c3c(O)c2O)[C@H](O)[C@H](O)[C@H]1O
REMARK SMILES IDX 7 1 6 2 4 3 31 4 5 5 29 6 27 7 2 8 1 9 3 10 32 11 30 13
REMARK SMILES IDX 28 15 8 17 25 18 9 19 23 20 10 21 22 22 11 23 20 24 12 25
REMARK SMILES IDX 19 26 21 27 26 28 24 30 13 32 14 33 18 34 15 35 17 36 16 37
REMARK H PARENT 32 12 30 14 28 16 26 29 24 31
REMARK Flexibility Score: inf
ROOT
ATOM      1  O   UNL     1      -3.402  40.694  77.632  1.00  0.00    -0.458 OA
ENDROOT
BRANCH   1   2
ATOM      2  C   UNL     1      -4.025  41.794  78.307  1.00  0.00     0.339 C 
ATOM      3  C   UNL     1      -4.435  43.044  76.322  1.00  0.00     0.199 C 
ATOM      4  C   UNL     1      -3.366  44.101  76.696  1.00  0.00     0.180 C 
ATOM      5  O   UNL     1      -4.994  42.408  77.467  1.00  0.00    -0.328 OA
ATOM      6  C   UNL     1      -2.299  43.503  77.628  1.00  0.00     0.181 C 
ATOM      7  C   UNL     1      -2.983  42.809  78.818  1.00  0.00     0.214 C 
BRANCH   3   8
ATOM      8  C   UNL     1      -4.016  42.036  75.275  1.00  0.00     0.073 C 
ATOM      9  O   UNL     1      -4.847  41.670  74.403  1.00  0.00    -0.547 OA
ATOM     10  O   UNL     1      -2.736  41.494  75.257  1.00  0.00    -0.547 OA
ENDBRANCH   3   8
BRANCH   4  11
ATOM     11  O   UNL     1      -2.773  44.626  75.535  1.00  0.00    -0.387 OA
ATOM     12  H   UNL     1      -1.802  44.717  75.722  1.00  0.00     0.211 HD
ENDBRANCH   4  11
BRANCH   6  13
ATOM     13  O   UNL     1      -1.447  44.524  78.083  1.00  0.00    -0.387 OA
ATOM     14  H   UNL     1      -0.642  44.079  78.454  1.00  0.00     0.211 HD
ENDBRANCH   6  13
BRANCH   7  15
ATOM     15  O   UNL     1      -3.629  43.754  79.635  1.00  0.00    -0.384 OA
ATOM     16  H   UNL     1      -3.986  44.461  79.036  1.00  0.00     0.211 HD
ENDBRANCH   7  15
ENDBRANCH   1   2
BRANCH   1  17
ATOM     17  C   UNL     1      -3.616  39.328  77.887  1.00  0.00     0.172 A 
ATOM     18  C   UNL     1      -3.806  38.932  79.219  1.00  0.00     0.201 A 
ATOM     19  C   UNL     1      -3.634  38.366  76.865  1.00  0.00     0.098 A 
ATOM     20  C   UNL     1      -4.028  37.567  79.536  1.00  0.00     0.176 A 
ATOM     21  C   UNL     1      -3.852  37.021  77.160  1.00  0.00     0.146 A 
ATOM     22  C   UNL     1      -4.054  36.606  78.494  1.00  0.00     0.111 A 
ATOM     23  O   UNL     1      -3.865  36.139  76.165  1.00  0.00    -0.456 OA
ATOM     24  C   UNL     1      -4.275  35.230  78.719  1.00  0.00     0.197 A 
ATOM     25  C   UNL     1      -4.061  34.835  76.344  1.00  0.00     0.138 A 
ATOM     26  C   UNL     1      -4.281  34.344  77.640  1.00  0.00     0.100 A 
ATOM     27  O   UNL     1      -4.474  34.775  79.878  1.00  0.00    -0.289 OA
BRANCH  18  28
ATOM     28  O   UNL     1      -3.769  39.931  80.196  1.00  0.00    -0.502 OA
ATOM     29  H   UNL     1      -3.950  40.909  80.025  1.00  0.00     0.293 HD
ENDBRANCH  18  28
BRANCH  20  30
ATOM     30  O   UNL     1      -4.221  37.146  80.855  1.00  0.00    -0.504 OA
ATOM     31  H   UNL     1      -3.488  37.052  81.542  1.00  0.00     0.293 HD
ENDBRANCH  20  30
BRANCH  25  32
ATOM     32  C   UNL     1      -4.054  33.943  75.158  1.00  0.00     0.017 A 
ATOM     33  C   UNL     1      -5.033  34.043  74.148  1.00  0.00     0.012 A 
ATOM     34  C   UNL     1      -3.067  32.946  75.047  1.00  0.00     0.012 A 
ATOM     35  C   UNL     1      -5.008  33.179  73.049  1.00  0.00     0.001 A 
ATOM     36  C   UNL     1      -3.047  32.085  73.944  1.00  0.00     0.001 A 
ATOM     37  C   UNL     1      -4.014  32.203  72.946  1.00  0.00     0.000 A 
ENDBRANCH  25  32
ENDBRANCH   1  17
TORSDOF 9
ENDMDL
