MODEL 1
REMARK VINA RESULT:    -7.618      0.000      0.000
REMARK INTER + INTRA:          -9.412
REMARK INTER:                  -9.176
REMARK INTRA:                  -0.236
REMARK UNBOUND:                -0.236
REMARK SMILES O=c1c(O)c(-c2ccc(O)c(O)c2)oc2cc(O)cc(O)c12
REMARK SMILES IDX 5 1 3 2 2 3 1 4 22 5 20 6 19 7 17 8 16 9 15 10 14 11 6 12
REMARK SMILES IDX 7 13 8 14 9 15 13 16 11 17 10 18 12 20 4 22 21 24 18 26
REMARK H PARENT 10 19 12 21 4 23 21 25 18 27
REMARK Flexibility Score: inf
ROOT
ATOM      1  C   UNL     1     -15.367   8.747 -12.559  1.00  0.00     0.180 A 
ATOM      2  C   UNL     1     -16.527   8.657 -11.771  1.00  0.00     0.208 A 
ATOM      3  C   UNL     1     -17.710   8.172 -12.353  1.00  0.00     0.238 A 
ATOM      4  O   UNL     1     -18.759   8.146 -11.657  1.00  0.00    -0.285 OA
ATOM      5  C   UNL     1     -17.713   7.769 -13.710  1.00  0.00     0.111 A 
ATOM      6  C   UNL     1     -18.844   7.225 -14.390  1.00  0.00     0.134 A 
ATOM      7  C   UNL     1     -18.769   6.982 -15.767  1.00  0.00     0.093 A 
ATOM      8  C   UNL     1     -17.585   7.202 -16.475  1.00  0.00     0.123 A 
ATOM      9  C   UNL     1     -16.458   7.676 -15.808  1.00  0.00     0.094 A 
ATOM     10  C   UNL     1     -16.512   7.963 -14.441  1.00  0.00     0.146 A 
ATOM     11  O   UNL     1     -15.418   8.422 -13.846  1.00  0.00    -0.452 OA
ENDROOT
BRANCH   1  12
ATOM     12  C   UNL     1     -14.076   9.224 -12.010  1.00  0.00     0.025 A 
ATOM     13  C   UNL     1     -13.351   8.462 -11.079  1.00  0.00     0.016 A 
ATOM     14  C   UNL     1     -12.123   8.921 -10.592  1.00  0.00     0.051 A 
ATOM     15  C   UNL     1     -11.599  10.140 -11.040  1.00  0.00     0.157 A 
ATOM     16  C   UNL     1     -13.535  10.435 -12.470  1.00  0.00     0.062 A 
ATOM     17  C   UNL     1     -12.304  10.898 -11.983  1.00  0.00     0.158 A 
BRANCH  15  18
ATOM     18  O   UNL     1     -10.377  10.602 -10.556  1.00  0.00    -0.504 OA
ATOM     19  H   UNL     1      -9.595  10.784 -11.175  1.00  0.00     0.293 HD
ENDBRANCH  15  18
BRANCH  17  20
ATOM     20  O   UNL     1     -11.776  12.107 -12.432  1.00  0.00    -0.504 OA
ATOM     21  H   UNL     1     -11.763  12.931 -11.844  1.00  0.00     0.293 HD
ENDBRANCH  17  20
ENDBRANCH   1  12
BRANCH   2  22
ATOM     22  O   UNL     1     -16.508   9.082 -10.440  1.00  0.00    -0.502 OA
ATOM     23  H   UNL     1     -17.311   9.506  -9.992  1.00  0.00     0.293 HD
ENDBRANCH   2  22
BRANCH   6  24
ATOM     24  O   UNL     1     -20.044   6.884 -13.760  1.00  0.00    -0.507 OA
ATOM     25  H   UNL     1     -20.378   5.941 -13.634  1.00  0.00     0.293 HD
ENDBRANCH   6  24
BRANCH   8  26
ATOM     26  O   UNL     1     -17.515   6.942 -17.842  1.00  0.00    -0.508 OA
ATOM     27  H   UNL     1     -18.146   7.386 -18.499  1.00  0.00     0.293 HD
ENDBRANCH   8  26
TORSDOF 6
ENDMDL
MODEL 2
REMARK VINA RESULT:    -6.877      1.184      1.623
REMARK INTER + INTRA:          -8.520
REMARK INTER:                  -8.190
REMARK INTRA:                  -0.330
REMARK UNBOUND:                -0.236
REMARK SMILES O=c1c(O)c(-c2ccc(O)c(O)c2)oc2cc(O)cc(O)c12
REMARK SMILES IDX 5 1 3 2 2 3 1 4 22 5 20 6 19 7 17 8 16 9 15 10 14 11 6 12
REMARK SMILES IDX 7 13 8 14 9 15 13 16 11 17 10 18 12 20 4 22 21 24 18 26
REMARK H PARENT 10 19 12 21 4 23 21 25 18 27
REMARK Flexibility Score: inf
ROOT
ATOM      1  C   UNL     1     -14.414   9.576 -11.677  1.00  0.00     0.180 A 
ATOM      2  C   UNL     1     -15.512   9.702 -10.809  1.00  0.00     0.208 A 
ATOM      3  C   UNL     1     -16.756   9.185 -11.204  1.00  0.00     0.238 A 
ATOM      4  O   UNL     1     -17.747   9.350 -10.446  1.00  0.00    -0.285 OA
ATOM      5  C   UNL     1     -16.882   8.534 -12.456  1.00  0.00     0.111 A 
ATOM      6  C   UNL     1     -18.085   7.937 -12.940  1.00  0.00     0.134 A 
ATOM      7  C   UNL     1     -18.128   7.436 -14.247  1.00  0.00     0.093 A 
ATOM      8  C   UNL     1     -16.995   7.451 -15.062  1.00  0.00     0.123 A 
ATOM      9  C   UNL     1     -15.800   7.977 -14.577  1.00  0.00     0.094 A 
ATOM     10  C   UNL     1     -15.735   8.519 -13.290  1.00  0.00     0.146 A 
ATOM     11  O   UNL     1     -14.579   9.019 -12.871  1.00  0.00    -0.452 OA
ENDROOT
BRANCH   1  12
ATOM     12  C   UNL     1     -13.065  10.074 -11.320  1.00  0.00     0.025 A 
ATOM     13  C   UNL     1     -12.129   9.250 -10.671  1.00  0.00     0.016 A 
ATOM     14  C   UNL     1     -10.854   9.733 -10.365  1.00  0.00     0.051 A 
ATOM     15  C   UNL     1     -10.492  11.041 -10.714  1.00  0.00     0.157 A 
ATOM     16  C   UNL     1     -12.689  11.377 -11.686  1.00  0.00     0.062 A 
ATOM     17  C   UNL     1     -11.410  11.863 -11.379  1.00  0.00     0.158 A 
BRANCH  15  18
ATOM     18  O   UNL     1      -9.223  11.528 -10.409  1.00  0.00    -0.504 OA
ATOM     19  H   UNL     1      -9.095  12.347  -9.827  1.00  0.00     0.293 HD
ENDBRANCH  15  18
BRANCH  17  20
ATOM     20  O   UNL     1     -11.045  13.161 -11.732  1.00  0.00    -0.504 OA
ATOM     21  H   UNL     1     -11.530  13.969 -11.359  1.00  0.00     0.293 HD
ENDBRANCH  17  20
ENDBRANCH   1  12
BRANCH   2  22
ATOM     22  O   UNL     1     -15.370  10.369  -9.589  1.00  0.00    -0.502 OA
ATOM     23  H   UNL     1     -15.253   9.878  -8.711  1.00  0.00     0.293 HD
ENDBRANCH   2  22
BRANCH   6  24
ATOM     24  O   UNL     1     -19.245   7.790 -12.175  1.00  0.00    -0.507 OA
ATOM     25  H   UNL     1     -20.019   7.189 -12.415  1.00  0.00     0.293 HD
ENDBRANCH   6  24
BRANCH   8  26
ATOM     26  O   UNL     1     -17.043   6.935 -16.356  1.00  0.00    -0.508 OA
ATOM     27  H   UNL     1     -17.920   6.827 -16.851  1.00  0.00     0.293 HD
ENDBRANCH   8  26
TORSDOF 6
ENDMDL
MODEL 3
REMARK VINA RESULT:    -6.759      1.993      7.619
REMARK INTER + INTRA:          -8.378
REMARK INTER:                  -8.053
REMARK INTRA:                  -0.326
REMARK UNBOUND:                -0.236
REMARK SMILES O=c1c(O)c(-c2ccc(O)c(O)c2)oc2cc(O)cc(O)c12
REMARK SMILES IDX 5 1 3 2 2 3 1 4 22 5 20 6 19 7 17 8 16 9 15 10 14 11 6 12
REMARK SMILES IDX 7 13 8 14 9 15 13 16 11 17 10 18 12 20 4 22 21 24 18 26
REMARK H PARENT 10 19 12 21 4 23 21 25 18 27
REMARK Flexibility Score: inf
ROOT
ATOM      1  C   UNL     1     -13.389   9.706 -11.329  1.00  0.00     0.180 A 
ATOM      2  C   UNL     1     -12.454   8.917 -10.636  1.00  0.00     0.208 A 
ATOM      3  C   UNL     1     -11.266   9.511 -10.181  1.00  0.00     0.238 A 
ATOM      4  O   UNL     1     -10.409   8.788  -9.609  1.00  0.00    -0.285 OA
ATOM      5  C   UNL     1     -11.035  10.890 -10.410  1.00  0.00     0.111 A 
ATOM      6  C   UNL     1      -9.884  11.604  -9.958  1.00  0.00     0.134 A 
ATOM      7  C   UNL     1      -9.699  12.934 -10.354  1.00  0.00     0.093 A 
ATOM      8  C   UNL     1     -10.653  13.594 -11.131  1.00  0.00     0.123 A 
ATOM      9  C   UNL     1     -11.808  12.924 -11.527  1.00  0.00     0.094 A 
ATOM     10  C   UNL     1     -12.005  11.584 -11.179  1.00  0.00     0.146 A 
ATOM     11  O   UNL     1     -13.114  10.980 -11.585  1.00  0.00    -0.452 OA
ENDROOT
BRANCH   1  12
ATOM     12  C   UNL     1     -14.675   9.157 -11.817  1.00  0.00     0.025 A 
ATOM     13  C   UNL     1     -15.797   9.064 -10.977  1.00  0.00     0.016 A 
ATOM     14  C   UNL     1     -17.008   8.565 -11.466  1.00  0.00     0.051 A 
ATOM     15  C   UNL     1     -17.117   8.165 -12.804  1.00  0.00     0.157 A 
ATOM     16  C   UNL     1     -14.797   8.774 -13.163  1.00  0.00     0.062 A 
ATOM     17  C   UNL     1     -16.010   8.272 -13.655  1.00  0.00     0.158 A 
BRANCH  15  18
ATOM     18  O   UNL     1     -18.321   7.665 -13.295  1.00  0.00    -0.504 OA
ATOM     19  H   UNL     1     -18.345   6.942 -14.004  1.00  0.00     0.293 HD
ENDBRANCH  15  18
BRANCH  17  20
ATOM     20  O   UNL     1     -16.124   7.881 -14.988  1.00  0.00    -0.504 OA
ATOM     21  H   UNL     1     -15.314   7.824 -15.595  1.00  0.00     0.293 HD
ENDBRANCH  17  20
ENDBRANCH   1  12
BRANCH   2  22
ATOM     22  O   UNL     1     -12.692   7.554 -10.441  1.00  0.00    -0.502 OA
ATOM     23  H   UNL     1     -12.546   7.099  -9.548  1.00  0.00     0.293 HD
ENDBRANCH   2  22
BRANCH   6  24
ATOM     24  O   UNL     1      -8.918  11.066  -9.104  1.00  0.00    -0.507 OA
ATOM     25  H   UNL     1      -8.354  10.256  -9.312  1.00  0.00     0.293 HD
ENDBRANCH   6  24
BRANCH   8  26
ATOM     26  O   UNL     1     -10.468  14.923 -11.507  1.00  0.00    -0.508 OA
ATOM     27  H   UNL     1     -11.075  15.659 -11.166  1.00  0.00     0.293 HD
ENDBRANCH   8  26
TORSDOF 6
ENDMDL
MODEL 4
REMARK VINA RESULT:    -6.657      1.423      2.322
REMARK INTER + INTRA:          -8.255
REMARK INTER:                  -7.937
REMARK INTRA:                  -0.318
REMARK UNBOUND:                -0.236
REMARK SMILES O=c1c(O)c(-c2ccc(O)c(O)c2)oc2cc(O)cc(O)c12
REMARK SMILES IDX 5 1 3 2 2 3 1 4 22 5 20 6 19 7 17 8 16 9 15 10 14 11 6 12
REMARK SMILES IDX 7 13 8 14 9 15 13 16 11 17 10 18 12 20 4 22 21 24 18 26
REMARK H PARENT 10 19 12 21 4 23 21 25 18 27
REMARK Flexibility Score: inf
ROOT
ATOM      1  C   UNL     1     -14.269   9.755 -11.619  1.00  0.00     0.180 A 
ATOM      2  C   UNL     1     -15.317   9.842 -10.685  1.00  0.00     0.208 A 
ATOM      3  C   UNL     1     -16.554   9.253 -10.992  1.00  0.00     0.238 A 
ATOM      4  O   UNL     1     -17.504   9.382 -10.177  1.00  0.00    -0.285 OA
ATOM      5  C   UNL     1     -16.722   8.569 -12.221  1.00  0.00     0.111 A 
ATOM      6  C   UNL     1     -17.920   7.901 -12.618  1.00  0.00     0.134 A 
ATOM      7  C   UNL     1     -18.017   7.370 -13.910  1.00  0.00     0.093 A 
ATOM      8  C   UNL     1     -16.939   7.426 -14.796  1.00  0.00     0.123 A 
ATOM      9  C   UNL     1     -15.746   8.024 -14.396  1.00  0.00     0.094 A 
ATOM     10  C   UNL     1     -15.629   8.596 -13.126  1.00  0.00     0.146 A 
ATOM     11  O   UNL     1     -14.478   9.164 -12.789  1.00  0.00    -0.452 OA
ENDROOT
BRANCH   1  12
ATOM     12  C   UNL     1     -12.929  10.329 -11.356  1.00  0.00     0.025 A 
ATOM     13  C   UNL     1     -12.596  11.630 -11.772  1.00  0.00     0.016 A 
ATOM     14  C   UNL     1     -11.333  12.160 -11.491  1.00  0.00     0.051 A 
ATOM     15  C   UNL     1     -10.393  11.404 -10.780  1.00  0.00     0.157 A 
ATOM     16  C   UNL     1     -11.989   9.584 -10.626  1.00  0.00     0.062 A 
ATOM     17  C   UNL     1     -10.722  10.115 -10.344  1.00  0.00     0.158 A 
BRANCH  15  18
ATOM     18  O   UNL     1      -9.132  11.928 -10.500  1.00  0.00    -0.504 OA
ATOM     19  H   UNL     1      -8.830  12.815 -10.884  1.00  0.00     0.293 HD
ENDBRANCH  15  18
BRANCH  17  20
ATOM     20  O   UNL     1      -9.787   9.367  -9.630  1.00  0.00    -0.504 OA
ATOM     21  H   UNL     1      -9.216   8.661 -10.080  1.00  0.00     0.293 HD
ENDBRANCH  17  20
ENDBRANCH   1  12
BRANCH   2  22
ATOM     22  O   UNL     1     -15.135  10.541  -9.489  1.00  0.00    -0.502 OA
ATOM     23  H   UNL     1     -14.468  11.297  -9.396  1.00  0.00     0.293 HD
ENDBRANCH   2  22
BRANCH   6  24
ATOM     24  O   UNL     1     -19.021   7.710 -11.779  1.00  0.00    -0.507 OA
ATOM     25  H   UNL     1     -19.287   6.826 -11.374  1.00  0.00     0.293 HD
ENDBRANCH   6  24
BRANCH   8  26
ATOM     26  O   UNL     1     -17.039   6.881 -16.074  1.00  0.00    -0.508 OA
ATOM     27  H   UNL     1     -17.838   7.067 -16.668  1.00  0.00     0.293 HD
ENDBRANCH   8  26
TORSDOF 6
ENDMDL
MODEL 5
REMARK VINA RESULT:    -6.635      2.437      8.098
REMARK INTER + INTRA:          -8.228
REMARK INTER:                  -8.131
REMARK INTRA:                  -0.097
REMARK UNBOUND:                -0.236
REMARK SMILES O=c1c(O)c(-c2ccc(O)c(O)c2)oc2cc(O)cc(O)c12
REMARK SMILES IDX 5 1 3 2 2 3 1 4 22 5 20 6 19 7 17 8 16 9 15 10 14 11 6 12
REMARK SMILES IDX 7 13 8 14 9 15 13 16 11 17 10 18 12 20 4 22 21 24 18 26
REMARK H PARENT 10 19 12 21 4 23 21 25 18 27
REMARK Flexibility Score: inf
ROOT
ATOM      1  C   UNL     1     -12.766  10.019 -11.295  1.00  0.00     0.180 A 
ATOM      2  C   UNL     1     -12.668  11.400 -11.540  1.00  0.00     0.208 A 
ATOM      3  C   UNL     1     -11.482  12.069 -11.197  1.00  0.00     0.238 A 
ATOM      4  O   UNL     1     -11.420  13.315 -11.368  1.00  0.00    -0.285 OA
ATOM      5  C   UNL     1     -10.404  11.347 -10.630  1.00  0.00     0.111 A 
ATOM      6  C   UNL     1      -9.142  11.916 -10.281  1.00  0.00     0.134 A 
ATOM      7  C   UNL     1      -8.197  11.135  -9.606  1.00  0.00     0.093 A 
ATOM      8  C   UNL     1      -8.441   9.789  -9.325  1.00  0.00     0.123 A 
ATOM      9  C   UNL     1      -9.646   9.209  -9.714  1.00  0.00     0.094 A 
ATOM     10  C   UNL     1     -10.625   9.972 -10.357  1.00  0.00     0.146 A 
ATOM     11  O   UNL     1     -11.763   9.382 -10.702  1.00  0.00    -0.452 OA
ENDROOT
BRANCH   1  12
ATOM     12  C   UNL     1     -13.975   9.240 -11.653  1.00  0.00     0.025 A 
ATOM     13  C   UNL     1     -14.475   9.227 -12.966  1.00  0.00     0.016 A 
ATOM     14  C   UNL     1     -15.603   8.465 -13.285  1.00  0.00     0.051 A 
ATOM     15  C   UNL     1     -16.237   7.696 -12.301  1.00  0.00     0.157 A 
ATOM     16  C   UNL     1     -14.602   8.450 -10.675  1.00  0.00     0.062 A 
ATOM     17  C   UNL     1     -15.734   7.686 -10.994  1.00  0.00     0.158 A 
BRANCH  15  18
ATOM     18  O   UNL     1     -17.362   6.937 -12.614  1.00  0.00    -0.504 OA
ATOM     19  H   UNL     1     -18.300   7.296 -12.475  1.00  0.00     0.293 HD
ENDBRANCH  15  18
BRANCH  17  20
ATOM     20  O   UNL     1     -16.362   6.914 -10.018  1.00  0.00    -0.504 OA
ATOM     21  H   UNL     1     -16.765   6.010 -10.235  1.00  0.00     0.293 HD
ENDBRANCH  17  20
ENDBRANCH   1  12
BRANCH   2  22
ATOM     22  O   UNL     1     -13.752  12.097 -12.080  1.00  0.00    -0.502 OA
ATOM     23  H   UNL     1     -14.660  11.670 -12.216  1.00  0.00     0.293 HD
ENDBRANCH   2  22
BRANCH   6  24
ATOM     24  O   UNL     1      -8.762  13.223 -10.597  1.00  0.00    -0.507 OA
ATOM     25  H   UNL     1      -8.865  14.016  -9.983  1.00  0.00     0.293 HD
ENDBRANCH   6  24
BRANCH   8  26
ATOM     26  O   UNL     1      -7.488   9.014  -8.667  1.00  0.00    -0.508 OA
ATOM     27  H   UNL     1      -7.666   8.622  -7.750  1.00  0.00     0.293 HD
ENDBRANCH   8  26
TORSDOF 6
ENDMDL
MODEL 6
REMARK VINA RESULT:    -6.524      1.616      7.146
REMARK INTER + INTRA:          -8.094
REMARK INTER:                  -7.847
REMARK INTRA:                  -0.247
REMARK UNBOUND:                -0.236
REMARK SMILES O=c1c(O)c(-c2ccc(O)c(O)c2)oc2cc(O)cc(O)c12
REMARK SMILES IDX 5 1 3 2 2 3 1 4 22 5 20 6 19 7 17 8 16 9 15 10 14 11 6 12
REMARK SMILES IDX 7 13 8 14 9 15 13 16 11 17 10 18 12 20 4 22 21 24 18 26
REMARK H PARENT 10 19 12 21 4 23 21 25 18 27
REMARK Flexibility Score: inf
ROOT
ATOM      1  C   UNL     1     -14.504   9.044 -12.156  1.00  0.00     0.180 A 
ATOM      2  C   UNL     1     -13.934   8.174 -11.210  1.00  0.00     0.208 A 
ATOM      3  C   UNL     1     -12.825   8.610 -10.467  1.00  0.00     0.238 A 
ATOM      4  O   UNL     1     -12.285   7.807  -9.661  1.00  0.00    -0.285 OA
ATOM      5  C   UNL     1     -12.311   9.915 -10.667  1.00  0.00     0.111 A 
ATOM      6  C   UNL     1     -11.217  10.474  -9.940  1.00  0.00     0.134 A 
ATOM      7  C   UNL     1     -10.711  11.725 -10.312  1.00  0.00     0.093 A 
ATOM      8  C   UNL     1     -11.300  12.465 -11.340  1.00  0.00     0.123 A 
ATOM      9  C   UNL     1     -12.405  11.953 -12.015  1.00  0.00     0.094 A 
ATOM     10  C   UNL     1     -12.912  10.691 -11.692  1.00  0.00     0.146 A 
ATOM     11  O   UNL     1     -13.960  10.236 -12.367  1.00  0.00    -0.452 OA
ENDROOT
BRANCH   1  12
ATOM     12  C   UNL     1     -15.690   8.665 -12.960  1.00  0.00     0.025 A 
ATOM     13  C   UNL     1     -15.575   8.320 -14.317  1.00  0.00     0.016 A 
ATOM     14  C   UNL     1     -16.704   7.943 -15.050  1.00  0.00     0.051 A 
ATOM     15  C   UNL     1     -17.960   7.892 -14.432  1.00  0.00     0.157 A 
ATOM     16  C   UNL     1     -16.949   8.592 -12.342  1.00  0.00     0.062 A 
ATOM     17  C   UNL     1     -18.083   8.214 -13.075  1.00  0.00     0.158 A 
BRANCH  15  18
ATOM     18  O   UNL     1     -19.089   7.518 -15.159  1.00  0.00    -0.504 OA
ATOM     19  H   UNL     1     -19.941   7.221 -14.700  1.00  0.00     0.293 HD
ENDBRANCH  15  18
BRANCH  17  20
ATOM     20  O   UNL     1     -19.333   8.155 -12.462  1.00  0.00    -0.504 OA
ATOM     21  H   UNL     1     -19.458   8.400 -11.486  1.00  0.00     0.293 HD
ENDBRANCH  17  20
ENDBRANCH   1  12
BRANCH   2  22
ATOM     22  O   UNL     1     -14.442   6.883 -11.045  1.00  0.00    -0.502 OA
ATOM     23  H   UNL     1     -15.285   6.693 -10.516  1.00  0.00     0.293 HD
ENDBRANCH   2  22
BRANCH   6  24
ATOM     24  O   UNL     1     -10.616   9.859  -8.839  1.00  0.00    -0.507 OA
ATOM     25  H   UNL     1     -10.502  10.287  -7.934  1.00  0.00     0.293 HD
ENDBRANCH   6  24
BRANCH   8  26
ATOM     26  O   UNL     1     -10.800  13.717 -11.693  1.00  0.00    -0.508 OA
ATOM     27  H   UNL     1      -9.828  13.961 -11.540  1.00  0.00     0.293 HD
ENDBRANCH   8  26
TORSDOF 6
ENDMDL
MODEL 7
REMARK VINA RESULT:    -6.520      1.443      6.716
REMARK INTER + INTRA:          -8.090
REMARK INTER:                  -7.955
REMARK INTRA:                  -0.135
REMARK UNBOUND:                -0.236
REMARK SMILES O=c1c(O)c(-c2ccc(O)c(O)c2)oc2cc(O)cc(O)c12
REMARK SMILES IDX 5 1 3 2 2 3 1 4 22 5 20 6 19 7 17 8 16 9 15 10 14 11 6 12
REMARK SMILES IDX 7 13 8 14 9 15 13 16 11 17 10 18 12 20 4 22 21 24 18 26
REMARK H PARENT 10 19 12 21 4 23 21 25 18 27
REMARK Flexibility Score: inf
ROOT
ATOM      1  C   UNL     1     -15.772   8.617 -12.689  1.00  0.00     0.180 A 
ATOM      2  C   UNL     1     -15.730   7.955 -11.449  1.00  0.00     0.208 A 
ATOM      3  C   UNL     1     -14.797   8.370 -10.486  1.00  0.00     0.238 A 
ATOM      4  O   UNL     1     -14.728   7.738  -9.400  1.00  0.00    -0.285 OA
ATOM      5  C   UNL     1     -13.928   9.452 -10.769  1.00  0.00     0.111 A 
ATOM      6  C   UNL     1     -12.971   9.982  -9.851  1.00  0.00     0.134 A 
ATOM      7  C   UNL     1     -12.075  10.968 -10.283  1.00  0.00     0.093 A 
ATOM      8  C   UNL     1     -12.144  11.488 -11.577  1.00  0.00     0.123 A 
ATOM      9  C   UNL     1     -13.113  11.020 -12.460  1.00  0.00     0.094 A 
ATOM     10  C   UNL     1     -13.998  10.010 -12.072  1.00  0.00     0.146 A 
ATOM     11  O   UNL     1     -14.900   9.585 -12.947  1.00  0.00    -0.452 OA
ENDROOT
BRANCH   1  12
ATOM     12  C   UNL     1     -16.745   8.253 -13.745  1.00  0.00     0.025 A 
ATOM     13  C   UNL     1     -18.130   8.312 -13.514  1.00  0.00     0.016 A 
ATOM     14  C   UNL     1     -19.031   7.987 -14.533  1.00  0.00     0.051 A 
ATOM     15  C   UNL     1     -18.560   7.613 -15.798  1.00  0.00     0.157 A 
ATOM     16  C   UNL     1     -16.280   7.897 -15.021  1.00  0.00     0.062 A 
ATOM     17  C   UNL     1     -17.182   7.570 -16.044  1.00  0.00     0.158 A 
BRANCH  15  18
ATOM     18  O   UNL     1     -19.454   7.286 -16.815  1.00  0.00    -0.504 OA
ATOM     19  H   UNL     1     -20.402   7.645 -16.825  1.00  0.00     0.293 HD
ENDBRANCH  15  18
BRANCH  17  20
ATOM     20  O   UNL     1     -16.716   7.205 -17.305  1.00  0.00    -0.504 OA
ATOM     21  H   UNL     1     -16.686   7.866 -18.072  1.00  0.00     0.293 HD
ENDBRANCH  17  20
ENDBRANCH   1  12
BRANCH   2  22
ATOM     22  O   UNL     1     -16.582   6.875 -11.201  1.00  0.00    -0.502 OA
ATOM     23  H   UNL     1     -16.573   6.034 -11.765  1.00  0.00     0.293 HD
ENDBRANCH   2  22
BRANCH   6  24
ATOM     24  O   UNL     1     -12.878   9.598  -8.511  1.00  0.00    -0.507 OA
ATOM     25  H   UNL     1     -12.201   8.946  -8.146  1.00  0.00     0.293 HD
ENDBRANCH   6  24
BRANCH   8  26
ATOM     26  O   UNL     1     -11.259  12.481 -11.993  1.00  0.00    -0.508 OA
ATOM     27  H   UNL     1     -11.577  13.420 -12.203  1.00  0.00     0.293 HD
ENDBRANCH   8  26
TORSDOF 6
ENDMDL
MODEL 8
REMARK VINA RESULT:    -6.211      1.402      6.652
REMARK INTER + INTRA:          -7.718
REMARK INTER:                  -7.506
REMARK INTRA:                  -0.212
REMARK UNBOUND:                -0.236
REMARK SMILES O=c1c(O)c(-c2ccc(O)c(O)c2)oc2cc(O)cc(O)c12
REMARK SMILES IDX 5 1 3 2 2 3 1 4 22 5 20 6 19 7 17 8 16 9 15 10 14 11 6 12
REMARK SMILES IDX 7 13 8 14 9 15 13 16 11 17 10 18 12 20 4 22 21 24 18 26
REMARK H PARENT 10 19 12 21 4 23 21 25 18 27
REMARK Flexibility Score: inf
ROOT
ATOM      1  C   UNL     1     -16.270   8.316 -13.486  1.00  0.00     0.180 A 
ATOM      2  C   UNL     1     -16.683   7.793 -12.248  1.00  0.00     0.208 A 
ATOM      3  C   UNL     1     -15.975   8.150 -11.088  1.00  0.00     0.238 A 
ATOM      4  O   UNL     1     -16.315   7.635  -9.991  1.00  0.00    -0.285 OA
ATOM      5  C   UNL     1     -14.876   9.038 -11.180  1.00  0.00     0.111 A 
ATOM      6  C   UNL     1     -14.113   9.498 -10.064  1.00  0.00     0.134 A 
ATOM      7  C   UNL     1     -12.966  10.271 -10.286  1.00  0.00     0.093 A 
ATOM      8  C   UNL     1     -12.592  10.653 -11.576  1.00  0.00     0.123 A 
ATOM      9  C   UNL     1     -13.365  10.259 -12.666  1.00  0.00     0.094 A 
ATOM     10  C   UNL     1     -14.494   9.456 -12.481  1.00  0.00     0.146 A 
ATOM     11  O   UNL     1     -15.196   9.094 -13.547  1.00  0.00    -0.452 OA
ENDROOT
BRANCH   1  12
ATOM     12  C   UNL     1     -16.981   8.006 -14.748  1.00  0.00     0.025 A 
ATOM     13  C   UNL     1     -16.409   7.174 -15.725  1.00  0.00     0.016 A 
ATOM     14  C   UNL     1     -17.108   6.875 -16.898  1.00  0.00     0.051 A 
ATOM     15  C   UNL     1     -18.394   7.393 -17.104  1.00  0.00     0.157 A 
ATOM     16  C   UNL     1     -18.278   8.505 -14.952  1.00  0.00     0.062 A 
ATOM     17  C   UNL     1     -18.981   8.207 -16.128  1.00  0.00     0.158 A 
BRANCH  15  18
ATOM     18  O   UNL     1     -19.094   7.100 -18.273  1.00  0.00    -0.504 OA
ATOM     19  H   UNL     1     -19.181   6.151 -18.615  1.00  0.00     0.293 HD
ENDBRANCH  15  18
BRANCH  17  20
ATOM     20  O   UNL     1     -20.263   8.715 -16.332  1.00  0.00    -0.504 OA
ATOM     21  H   UNL     1     -21.089   8.188 -16.077  1.00  0.00     0.293 HD
ENDBRANCH  17  20
ENDBRANCH   1  12
BRANCH   2  22
ATOM     22  O   UNL     1     -17.756   6.901 -12.184  1.00  0.00    -0.502 OA
ATOM     23  H   UNL     1     -17.863   6.231 -11.431  1.00  0.00     0.293 HD
ENDBRANCH   2  22
BRANCH   6  24
ATOM     24  O   UNL     1     -14.451   9.250  -8.732  1.00  0.00    -0.507 OA
ATOM     25  H   UNL     1     -14.761   9.951  -8.077  1.00  0.00     0.293 HD
ENDBRANCH   6  24
BRANCH   8  26
ATOM     26  O   UNL     1     -11.459  11.436 -11.786  1.00  0.00    -0.508 OA
ATOM     27  H   UNL     1     -11.473  12.438 -11.636  1.00  0.00     0.293 HD
ENDBRANCH   8  26
TORSDOF 6
ENDMDL
MODEL 9
REMARK VINA RESULT:    -6.112      1.418      2.069
REMARK INTER + INTRA:          -7.599
REMARK INTER:                  -7.371
REMARK INTRA:                  -0.227
REMARK UNBOUND:                -0.236
REMARK SMILES O=c1c(O)c(-c2ccc(O)c(O)c2)oc2cc(O)cc(O)c12
REMARK SMILES IDX 5 1 3 2 2 3 1 4 22 5 20 6 19 7 17 8 16 9 15 10 14 11 6 12
REMARK SMILES IDX 7 13 8 14 9 15 13 16 11 17 10 18 12 20 4 22 21 24 18 26
REMARK H PARENT 10 19 12 21 4 23 21 25 18 27
REMARK Flexibility Score: inf
ROOT
ATOM      1  C   UNL     1     -16.306   8.217 -13.201  1.00  0.00     0.180 A 
ATOM      2  C   UNL     1     -17.529   8.140 -12.512  1.00  0.00     0.208 A 
ATOM      3  C   UNL     1     -18.694   7.816 -13.225  1.00  0.00     0.238 A 
ATOM      4  O   UNL     1     -19.794   7.803 -12.612  1.00  0.00    -0.285 OA
ATOM      5  C   UNL     1     -18.620   7.558 -14.615  1.00  0.00     0.111 A 
ATOM      6  C   UNL     1     -19.731   7.181 -15.429  1.00  0.00     0.134 A 
ATOM      7  C   UNL     1     -19.565   7.078 -16.816  1.00  0.00     0.093 A 
ATOM      8  C   UNL     1     -18.316   7.273 -17.410  1.00  0.00     0.123 A 
ATOM      9  C   UNL     1     -17.214   7.582 -16.616  1.00  0.00     0.094 A 
ATOM     10  C   UNL     1     -17.354   7.728 -15.233  1.00  0.00     0.146 A 
ATOM     11  O   UNL     1     -16.280   8.033 -14.516  1.00  0.00    -0.452 OA
ENDROOT
BRANCH   1  12
ATOM     12  C   UNL     1     -15.032   8.528 -12.513  1.00  0.00     0.025 A 
ATOM     13  C   UNL     1     -14.403   9.776 -12.665  1.00  0.00     0.016 A 
ATOM     14  C   UNL     1     -13.213  10.056 -11.987  1.00  0.00     0.051 A 
ATOM     15  C   UNL     1     -12.643   9.098 -11.138  1.00  0.00     0.157 A 
ATOM     16  C   UNL     1     -14.466   7.580 -11.645  1.00  0.00     0.062 A 
ATOM     17  C   UNL     1     -13.272   7.859 -10.964  1.00  0.00     0.158 A 
BRANCH  15  18
ATOM     18  O   UNL     1     -11.456   9.372 -10.462  1.00  0.00    -0.504 OA
ATOM     19  H   UNL     1     -11.014   8.682  -9.866  1.00  0.00     0.293 HD
ENDBRANCH  15  18
BRANCH  17  20
ATOM     20  O   UNL     1     -12.707   6.911 -10.113  1.00  0.00    -0.504 OA
ATOM     21  H   UNL     1     -11.707   6.748 -10.090  1.00  0.00     0.293 HD
ENDBRANCH  17  20
ENDBRANCH   1  12
BRANCH   2  22
ATOM     22  O   UNL     1     -17.583   8.422 -11.144  1.00  0.00    -0.502 OA
ATOM     23  H   UNL     1     -17.618   9.368 -10.784  1.00  0.00     0.293 HD
ENDBRANCH   2  22
BRANCH   6  24
ATOM     24  O   UNL     1     -20.998   6.875 -14.927  1.00  0.00    -0.507 OA
ATOM     25  H   UNL     1     -21.387   5.946 -14.878  1.00  0.00     0.293 HD
ENDBRANCH   6  24
BRANCH   8  26
ATOM     26  O   UNL     1     -18.157   7.152 -18.789  1.00  0.00    -0.508 OA
ATOM     27  H   UNL     1     -18.460   7.882 -19.423  1.00  0.00     0.293 HD
ENDBRANCH   8  26
TORSDOF 6
ENDMDL
