MODEL 1
REMARK VINA RESULT:    -7.403      0.000      0.000
REMARK INTER + INTRA:          -8.999
REMARK INTER:                  -8.701
REMARK INTRA:                  -0.298
REMARK UNBOUND:                -0.298
REMARK SMILES O=c1cc(-c2ccc(O)c(O)c2)oc2cc(O)cc(O)c12
REMARK SMILES IDX 4 1 3 2 2 3 1 4 21 5 19 6 18 7 16 8 15 9 14 10 13 11 5 12
REMARK SMILES IDX 6 13 7 14 8 15 12 16 10 17 9 18 11 20 20 22 17 24
REMARK H PARENT 9 19 11 21 20 23 17 25
REMARK Flexibility Score: inf
ROOT
ATOM      1  C   UNL     1      47.978  44.025  77.935  1.00  0.00     0.138 A 
ATOM      2  C   UNL     1      47.676  43.592  76.637  1.00  0.00     0.100 A 
ATOM      3  C   UNL     1      48.676  43.579  75.663  1.00  0.00     0.197 A 
ATOM      4  O   UNL     1      48.389  43.132  74.523  1.00  0.00    -0.289 OA
ATOM      5  C   UNL     1      49.977  44.037  75.985  1.00  0.00     0.107 A 
ATOM      6  C   UNL     1      51.068  44.101  75.066  1.00  0.00     0.134 A 
ATOM      7  C   UNL     1      52.336  44.480  75.525  1.00  0.00     0.093 A 
ATOM      8  C   UNL     1      52.539  44.851  76.857  1.00  0.00     0.123 A 
ATOM      9  C   UNL     1      51.470  44.839  77.749  1.00  0.00     0.094 A 
ATOM     10  C   UNL     1      50.201  44.434  77.331  1.00  0.00     0.146 A 
ATOM     11  O   UNL     1      49.213  44.419  78.220  1.00  0.00    -0.456 OA
ENDROOT
BRANCH   1  12
ATOM     12  C   UNL     1      46.952  44.062  79.008  1.00  0.00     0.021 A 
ATOM     13  C   UNL     1      45.649  44.490  78.703  1.00  0.00     0.016 A 
ATOM     14  C   UNL     1      44.667  44.541  79.695  1.00  0.00     0.051 A 
ATOM     15  C   UNL     1      44.969  44.175  81.009  1.00  0.00     0.157 A 
ATOM     16  C   UNL     1      47.256  43.706  80.337  1.00  0.00     0.062 A 
ATOM     17  C   UNL     1      46.270  43.759  81.334  1.00  0.00     0.158 A 
BRANCH  15  18
ATOM     18  O   UNL     1      43.967  44.234  81.977  1.00  0.00    -0.504 OA
ATOM     19  H   UNL     1      43.851  43.510  82.677  1.00  0.00     0.293 HD
ENDBRANCH  15  18
BRANCH  17  20
ATOM     20  O   UNL     1      46.582  43.403  82.646  1.00  0.00    -0.504 OA
ATOM     21  H   UNL     1      46.322  43.988  83.431  1.00  0.00     0.293 HD
ENDBRANCH  17  20
ENDBRANCH   1  12
BRANCH   6  22
ATOM     22  O   UNL     1      50.958  43.829  73.698  1.00  0.00    -0.507 OA
ATOM     23  H   UNL     1      50.161  44.056  73.125  1.00  0.00     0.293 HD
ENDBRANCH   6  22
BRANCH   8  24
ATOM     24  O   UNL     1      53.801  45.240  77.300  1.00  0.00    -0.508 OA
ATOM     25  H   UNL     1      54.627  45.113  76.728  1.00  0.00     0.293 HD
ENDBRANCH   8  24
TORSDOF 5
ENDMDL
MODEL 2
REMARK VINA RESULT:    -7.208     19.264     21.432
REMARK INTER + INTRA:          -8.770
REMARK INTER:                  -8.506
REMARK INTRA:                  -0.263
REMARK UNBOUND:                -0.298
REMARK SMILES O=c1cc(-c2ccc(O)c(O)c2)oc2cc(O)cc(O)c12
REMARK SMILES IDX 4 1 3 2 2 3 1 4 21 5 19 6 18 7 16 8 15 9 14 10 13 11 5 12
REMARK SMILES IDX 6 13 7 14 8 15 12 16 10 17 9 18 11 20 20 22 17 24
REMARK H PARENT 9 19 11 21 20 23 17 25
REMARK Flexibility Score: inf
ROOT
ATOM      1  C   UNL     1      39.136  31.495  64.663  1.00  0.00     0.138 A 
ATOM      2  C   UNL     1      38.304  30.833  63.751  1.00  0.00     0.100 A 
ATOM      3  C   UNL     1      36.935  31.102  63.743  1.00  0.00     0.197 A 
ATOM      4  O   UNL     1      36.223  30.534  62.875  1.00  0.00    -0.289 OA
ATOM      5  C   UNL     1      36.392  32.014  64.680  1.00  0.00     0.107 A 
ATOM      6  C   UNL     1      35.007  32.342  64.789  1.00  0.00     0.134 A 
ATOM      7  C   UNL     1      34.601  33.334  65.691  1.00  0.00     0.093 A 
ATOM      8  C   UNL     1      35.523  33.968  66.529  1.00  0.00     0.123 A 
ATOM      9  C   UNL     1      36.870  33.620  66.464  1.00  0.00     0.094 A 
ATOM     10  C   UNL     1      37.311  32.659  65.552  1.00  0.00     0.146 A 
ATOM     11  O   UNL     1      38.608  32.370  65.511  1.00  0.00    -0.456 OA
ENDROOT
BRANCH   1  12
ATOM     12  C   UNL     1      40.599  31.244  64.717  1.00  0.00     0.021 A 
ATOM     13  C   UNL     1      41.465  32.046  63.955  1.00  0.00     0.016 A 
ATOM     14  C   UNL     1      42.845  31.828  63.981  1.00  0.00     0.051 A 
ATOM     15  C   UNL     1      43.383  30.800  64.760  1.00  0.00     0.157 A 
ATOM     16  C   UNL     1      41.145  30.201  65.491  1.00  0.00     0.062 A 
ATOM     17  C   UNL     1      42.530  29.980  65.515  1.00  0.00     0.158 A 
BRANCH  15  18
ATOM     18  O   UNL     1      44.764  30.608  64.769  1.00  0.00    -0.504 OA
ATOM     19  H   UNL     1      45.306  30.557  63.914  1.00  0.00     0.293 HD
ENDBRANCH  15  18
BRANCH  17  20
ATOM     20  O   UNL     1      43.060  28.945  66.287  1.00  0.00    -0.504 OA
ATOM     21  H   UNL     1      43.144  29.023  67.293  1.00  0.00     0.293 HD
ENDBRANCH  17  20
ENDBRANCH   1  12
BRANCH   6  22
ATOM     22  O   UNL     1      33.993  31.715  64.059  1.00  0.00    -0.507 OA
ATOM     23  H   UNL     1      33.846  31.817  63.067  1.00  0.00     0.293 HD
ENDBRANCH   6  22
BRANCH   8  24
ATOM     24  O   UNL     1      35.107  34.943  67.433  1.00  0.00    -0.508 OA
ATOM     25  H   UNL     1      34.173  34.939  67.825  1.00  0.00     0.293 HD
ENDBRANCH   8  24
TORSDOF 5
ENDMDL
MODEL 3
REMARK VINA RESULT:    -7.061     16.367     18.559
REMARK INTER + INTRA:          -8.597
REMARK INTER:                  -8.320
REMARK INTRA:                  -0.277
REMARK UNBOUND:                -0.298
REMARK SMILES O=c1cc(-c2ccc(O)c(O)c2)oc2cc(O)cc(O)c12
REMARK SMILES IDX 4 1 3 2 2 3 1 4 21 5 19 6 18 7 16 8 15 9 14 10 13 11 5 12
REMARK SMILES IDX 6 13 7 14 8 15 12 16 10 17 9 18 11 20 20 22 17 24
REMARK H PARENT 9 19 11 21 20 23 17 25
REMARK Flexibility Score: inf
ROOT
ATOM      1  C   UNL     1      45.037  31.185  65.133  1.00  0.00     0.138 A 
ATOM      2  C   UNL     1      45.628  30.028  65.657  1.00  0.00     0.100 A 
ATOM      3  C   UNL     1      46.940  30.077  66.132  1.00  0.00     0.197 A 
ATOM      4  O   UNL     1      47.423  29.037  66.649  1.00  0.00    -0.289 OA
ATOM      5  C   UNL     1      47.674  31.285  66.048  1.00  0.00     0.107 A 
ATOM      6  C   UNL     1      49.029  31.445  66.470  1.00  0.00     0.134 A 
ATOM      7  C   UNL     1      49.619  32.715  66.428  1.00  0.00     0.093 A 
ATOM      8  C   UNL     1      48.923  33.818  65.926  1.00  0.00     0.123 A 
ATOM      9  C   UNL     1      47.618  33.661  65.466  1.00  0.00     0.094 A 
ATOM     10  C   UNL     1      46.989  32.416  65.527  1.00  0.00     0.146 A 
ATOM     11  O   UNL     1      45.736  32.314  65.094  1.00  0.00    -0.456 OA
ENDROOT
BRANCH   1  12
ATOM     12  C   UNL     1      43.647  31.189  64.611  1.00  0.00     0.021 A 
ATOM     13  C   UNL     1      43.372  31.819  63.386  1.00  0.00     0.016 A 
ATOM     14  C   UNL     1      42.071  31.844  62.875  1.00  0.00     0.051 A 
ATOM     15  C   UNL     1      41.023  31.249  63.582  1.00  0.00     0.157 A 
ATOM     16  C   UNL     1      42.584  30.603  65.327  1.00  0.00     0.062 A 
ATOM     17  C   UNL     1      41.279  30.629  64.815  1.00  0.00     0.158 A 
BRANCH  15  18
ATOM     18  O   UNL     1      39.736  31.287  63.046  1.00  0.00    -0.504 OA
ATOM     19  H   UNL     1      39.557  31.589  62.095  1.00  0.00     0.293 HD
ENDBRANCH  15  18
BRANCH  17  20
ATOM     20  O   UNL     1      40.234  30.043  65.531  1.00  0.00    -0.504 OA
ATOM     21  H   UNL     1      40.394  29.270  66.165  1.00  0.00     0.293 HD
ENDBRANCH  17  20
ENDBRANCH   1  12
BRANCH   6  22
ATOM     22  O   UNL     1      49.842  30.397  66.913  1.00  0.00    -0.507 OA
ATOM     23  H   UNL     1      50.839  30.344  66.783  1.00  0.00     0.293 HD
ENDBRANCH   6  22
BRANCH   8  24
ATOM     24  O   UNL     1      49.524  35.074  65.874  1.00  0.00    -0.508 OA
ATOM     25  H   UNL     1      50.229  35.351  66.546  1.00  0.00     0.293 HD
ENDBRANCH   8  24
TORSDOF 5
ENDMDL
MODEL 4
REMARK VINA RESULT:    -6.710      1.181      2.662
REMARK INTER + INTRA:          -8.185
REMARK INTER:                  -7.896
REMARK INTRA:                  -0.289
REMARK UNBOUND:                -0.298
REMARK SMILES O=c1cc(-c2ccc(O)c(O)c2)oc2cc(O)cc(O)c12
REMARK SMILES IDX 4 1 3 2 2 3 1 4 21 5 19 6 18 7 16 8 15 9 14 10 13 11 5 12
REMARK SMILES IDX 6 13 7 14 8 15 12 16 10 17 9 18 11 20 20 22 17 24
REMARK H PARENT 9 19 11 21 20 23 17 25
REMARK Flexibility Score: inf
ROOT
ATOM      1  C   UNL     1      48.492  44.387  78.250  1.00  0.00     0.138 A 
ATOM      2  C   UNL     1      49.792  44.637  78.709  1.00  0.00     0.100 A 
ATOM      3  C   UNL     1      50.839  44.746  77.793  1.00  0.00     0.197 A 
ATOM      4  O   UNL     1      51.984  45.027  78.232  1.00  0.00    -0.289 OA
ATOM      5  C   UNL     1      50.587  44.566  76.412  1.00  0.00     0.107 A 
ATOM      6  C   UNL     1      51.581  44.621  75.389  1.00  0.00     0.134 A 
ATOM      7  C   UNL     1      51.196  44.525  74.045  1.00  0.00     0.093 A 
ATOM      8  C   UNL     1      49.860  44.320  73.691  1.00  0.00     0.123 A 
ATOM      9  C   UNL     1      48.889  44.216  74.685  1.00  0.00     0.094 A 
ATOM     10  C   UNL     1      49.236  44.341  76.031  1.00  0.00     0.146 A 
ATOM     11  O   UNL     1      48.276  44.254  76.946  1.00  0.00    -0.456 OA
ENDROOT
BRANCH   1  12
ATOM     12  C   UNL     1      47.341  44.259  79.180  1.00  0.00     0.021 A 
ATOM     13  C   UNL     1      46.050  44.577  78.728  1.00  0.00     0.016 A 
ATOM     14  C   UNL     1      44.951  44.473  79.584  1.00  0.00     0.051 A 
ATOM     15  C   UNL     1      45.122  44.058  80.907  1.00  0.00     0.157 A 
ATOM     16  C   UNL     1      47.511  43.854  80.519  1.00  0.00     0.062 A 
ATOM     17  C   UNL     1      46.408  43.751  81.379  1.00  0.00     0.158 A 
BRANCH  15  18
ATOM     18  O   UNL     1      44.006  43.961  81.737  1.00  0.00    -0.504 OA
ATOM     19  H   UNL     1      43.061  44.051  81.382  1.00  0.00     0.293 HD
ENDBRANCH  15  18
BRANCH  17  20
ATOM     20  O   UNL     1      46.587  43.347  82.702  1.00  0.00    -0.504 OA
ATOM     21  H   UNL     1      46.398  42.397  82.997  1.00  0.00     0.293 HD
ENDBRANCH  17  20
ENDBRANCH   1  12
BRANCH   6  22
ATOM     22  O   UNL     1      52.953  44.743  75.634  1.00  0.00    -0.507 OA
ATOM     23  H   UNL     1      53.665  44.139  75.254  1.00  0.00     0.293 HD
ENDBRANCH   6  22
BRANCH   8  24
ATOM     24  O   UNL     1      49.489  44.211  72.353  1.00  0.00    -0.508 OA
ATOM     25  H   UNL     1      50.032  44.644  71.616  1.00  0.00     0.293 HD
ENDBRANCH   8  24
TORSDOF 5
ENDMDL
MODEL 5
REMARK VINA RESULT:    -6.545     14.746     17.758
REMARK INTER + INTRA:          -7.990
REMARK INTER:                  -7.724
REMARK INTRA:                  -0.266
REMARK UNBOUND:                -0.298
REMARK SMILES O=c1cc(-c2ccc(O)c(O)c2)oc2cc(O)cc(O)c12
REMARK SMILES IDX 4 1 3 2 2 3 1 4 21 5 19 6 18 7 16 8 15 9 14 10 13 11 5 12
REMARK SMILES IDX 6 13 7 14 8 15 12 16 10 17 9 18 11 20 20 22 17 24
REMARK H PARENT 9 19 11 21 20 23 17 25
REMARK Flexibility Score: inf
ROOT
ATOM      1  C   UNL     1      49.607  33.826  65.154  1.00  0.00     0.138 A 
ATOM      2  C   UNL     1      50.312  32.793  65.787  1.00  0.00     0.100 A 
ATOM      3  C   UNL     1      49.650  31.612  66.126  1.00  0.00     0.197 A 
ATOM      4  O   UNL     1      50.322  30.682  66.642  1.00  0.00    -0.289 OA
ATOM      5  C   UNL     1      48.266  31.480  65.860  1.00  0.00     0.107 A 
ATOM      6  C   UNL     1      47.479  30.336  66.190  1.00  0.00     0.134 A 
ATOM      7  C   UNL     1      46.138  30.281  65.789  1.00  0.00     0.093 A 
ATOM      8  C   UNL     1      45.541  31.352  65.118  1.00  0.00     0.123 A 
ATOM      9  C   UNL     1      46.288  32.493  64.835  1.00  0.00     0.094 A 
ATOM     10  C   UNL     1      47.636  32.565  65.192  1.00  0.00     0.146 A 
ATOM     11  O   UNL     1      48.316  33.665  64.887  1.00  0.00    -0.456 OA
ENDROOT
BRANCH   1  12
ATOM     12  C   UNL     1      50.261  35.104  64.775  1.00  0.00     0.021 A 
ATOM     13  C   UNL     1      51.138  35.132  63.678  1.00  0.00     0.016 A 
ATOM     14  C   UNL     1      51.771  36.320  63.304  1.00  0.00     0.051 A 
ATOM     15  C   UNL     1      51.548  37.497  64.022  1.00  0.00     0.157 A 
ATOM     16  C   UNL     1      50.048  36.291  65.505  1.00  0.00     0.062 A 
ATOM     17  C   UNL     1      50.686  37.483  65.130  1.00  0.00     0.158 A 
BRANCH  15  18
ATOM     18  O   UNL     1      52.192  38.668  63.623  1.00  0.00    -0.504 OA
ATOM     19  H   UNL     1      52.678  39.266  64.281  1.00  0.00     0.293 HD
ENDBRANCH  15  18
BRANCH  17  20
ATOM     20  O   UNL     1      50.467  38.653  65.859  1.00  0.00    -0.504 OA
ATOM     21  H   UNL     1      51.133  38.981  66.547  1.00  0.00     0.293 HD
ENDBRANCH  17  20
ENDBRANCH   1  12
BRANCH   6  22
ATOM     22  O   UNL     1      47.952  29.244  66.926  1.00  0.00    -0.507 OA
ATOM     23  H   UNL     1      48.923  29.039  67.096  1.00  0.00     0.293 HD
ENDBRANCH   6  22
BRANCH   8  24
ATOM     24  O   UNL     1      44.203  31.294  64.736  1.00  0.00    -0.508 OA
ATOM     25  H   UNL     1      43.461  31.602  65.353  1.00  0.00     0.293 HD
ENDBRANCH   8  24
TORSDOF 5
ENDMDL
MODEL 6
REMARK VINA RESULT:    -6.262     14.132     17.092
REMARK INTER + INTRA:          -7.658
REMARK INTER:                  -7.340
REMARK INTRA:                  -0.318
REMARK UNBOUND:                -0.298
REMARK SMILES O=c1cc(-c2ccc(O)c(O)c2)oc2cc(O)cc(O)c12
REMARK SMILES IDX 4 1 3 2 2 3 1 4 21 5 19 6 18 7 16 8 15 9 14 10 13 11 5 12
REMARK SMILES IDX 6 13 7 14 8 15 12 16 10 17 9 18 11 20 20 22 17 24
REMARK H PARENT 9 19 11 21 20 23 17 25
REMARK Flexibility Score: inf
ROOT
ATOM      1  C   UNL     1      50.370  35.072  64.613  1.00  0.00     0.138 A 
ATOM      2  C   UNL     1      50.626  34.062  63.677  1.00  0.00     0.100 A 
ATOM      3  C   UNL     1      49.949  32.845  63.772  1.00  0.00     0.197 A 
ATOM      4  O   UNL     1      50.158  31.979  62.883  1.00  0.00    -0.289 OA
ATOM      5  C   UNL     1      49.037  32.628  64.832  1.00  0.00     0.107 A 
ATOM      6  C   UNL     1      48.314  31.416  65.050  1.00  0.00     0.134 A 
ATOM      7  C   UNL     1      47.364  31.353  66.078  1.00  0.00     0.093 A 
ATOM      8  C   UNL     1      47.153  32.439  66.931  1.00  0.00     0.123 A 
ATOM      9  C   UNL     1      47.889  33.609  66.758  1.00  0.00     0.094 A 
ATOM     10  C   UNL     1      48.818  33.715  65.722  1.00  0.00     0.146 A 
ATOM     11  O   UNL     1      49.486  34.856  65.581  1.00  0.00    -0.456 OA
ENDROOT
BRANCH   1  12
ATOM     12  C   UNL     1      51.064  36.385  64.562  1.00  0.00     0.021 A 
ATOM     13  C   UNL     1      52.045  36.608  63.582  1.00  0.00     0.016 A 
ATOM     14  C   UNL     1      52.718  37.831  63.515  1.00  0.00     0.051 A 
ATOM     15  C   UNL     1      52.430  38.847  64.430  1.00  0.00     0.157 A 
ATOM     16  C   UNL     1      50.786  37.407  65.490  1.00  0.00     0.062 A 
ATOM     17  C   UNL     1      51.463  38.634  65.425  1.00  0.00     0.158 A 
BRANCH  15  18
ATOM     18  O   UNL     1      53.116  40.058  64.337  1.00  0.00    -0.504 OA
ATOM     19  H   UNL     1      52.741  40.919  64.716  1.00  0.00     0.293 HD
ENDBRANCH  15  18
BRANCH  17  20
ATOM     20  O   UNL     1      51.178  39.641  66.348  1.00  0.00    -0.504 OA
ATOM     21  H   UNL     1      50.893  39.426  67.296  1.00  0.00     0.293 HD
ENDBRANCH  17  20
ENDBRANCH   1  12
BRANCH   6  22
ATOM     22  O   UNL     1      48.503  30.246  64.307  1.00  0.00    -0.507 OA
ATOM     23  H   UNL     1      49.384  29.939  63.926  1.00  0.00     0.293 HD
ENDBRANCH   6  22
BRANCH   8  24
ATOM     24  O   UNL     1      46.217  32.362  67.960  1.00  0.00    -0.508 OA
ATOM     25  H   UNL     1      45.234  32.210  67.772  1.00  0.00     0.293 HD
ENDBRANCH   8  24
TORSDOF 5
ENDMDL
MODEL 7
REMARK VINA RESULT:    -6.114     15.912     18.874
REMARK INTER + INTRA:          -7.483
REMARK INTER:                  -7.216
REMARK INTRA:                  -0.267
REMARK UNBOUND:                -0.298
REMARK SMILES O=c1cc(-c2ccc(O)c(O)c2)oc2cc(O)cc(O)c12
REMARK SMILES IDX 4 1 3 2 2 3 1 4 21 5 19 6 18 7 16 8 15 9 14 10 13 11 5 12
REMARK SMILES IDX 6 13 7 14 8 15 12 16 10 17 9 18 11 20 20 22 17 24
REMARK H PARENT 9 19 11 21 20 23 17 25
REMARK Flexibility Score: inf
ROOT
ATOM      1  C   UNL     1      48.105  32.252  64.988  1.00  0.00     0.138 A 
ATOM      2  C   UNL     1      48.171  31.095  65.775  1.00  0.00     0.100 A 
ATOM      3  C   UNL     1      47.018  30.335  65.984  1.00  0.00     0.197 A 
ATOM      4  O   UNL     1      47.121  29.272  66.648  1.00  0.00    -0.289 OA
ATOM      5  C   UNL     1      45.787  30.759  65.430  1.00  0.00     0.107 A 
ATOM      6  C   UNL     1      44.541  30.083  65.603  1.00  0.00     0.134 A 
ATOM      7  C   UNL     1      43.405  30.544  64.924  1.00  0.00     0.093 A 
ATOM      8  C   UNL     1      43.459  31.688  64.123  1.00  0.00     0.123 A 
ATOM      9  C   UNL     1      44.658  32.382  63.987  1.00  0.00     0.094 A 
ATOM     10  C   UNL     1      45.816  31.929  64.624  1.00  0.00     0.146 A 
ATOM     11  O   UNL     1      46.944  32.611  64.453  1.00  0.00    -0.456 OA
ENDROOT
BRANCH   1  12
ATOM     12  C   UNL     1      49.299  33.099  64.736  1.00  0.00     0.021 A 
ATOM     13  C   UNL     1      50.306  32.633  63.874  1.00  0.00     0.016 A 
ATOM     14  C   UNL     1      51.442  33.406  63.625  1.00  0.00     0.051 A 
ATOM     15  C   UNL     1      51.598  34.652  64.237  1.00  0.00     0.157 A 
ATOM     16  C   UNL     1      49.466  34.350  65.362  1.00  0.00     0.062 A 
ATOM     17  C   UNL     1      50.608  35.126  65.113  1.00  0.00     0.158 A 
BRANCH  15  18
ATOM     18  O   UNL     1      52.742  35.403  63.967  1.00  0.00    -0.504 OA
ATOM     19  H   UNL     1      53.592  34.980  63.615  1.00  0.00     0.293 HD
ENDBRANCH  15  18
BRANCH  17  20
ATOM     20  O   UNL     1      50.763  36.364  65.737  1.00  0.00    -0.504 OA
ATOM     21  H   UNL     1      49.969  36.880  66.095  1.00  0.00     0.293 HD
ENDBRANCH  17  20
ENDBRANCH   1  12
BRANCH   6  22
ATOM     22  O   UNL     1      44.357  28.979  66.442  1.00  0.00    -0.507 OA
ATOM     23  H   UNL     1      44.524  28.973  67.435  1.00  0.00     0.293 HD
ENDBRANCH   6  22
BRANCH   8  24
ATOM     24  O   UNL     1      42.320  32.147  63.463  1.00  0.00    -0.508 OA
ATOM     25  H   UNL     1      41.937  33.066  63.645  1.00  0.00     0.293 HD
ENDBRANCH   8  24
TORSDOF 5
ENDMDL
MODEL 8
REMARK VINA RESULT:    -6.099     16.995     19.214
REMARK INTER + INTRA:          -7.466
REMARK INTER:                  -7.172
REMARK INTRA:                  -0.294
REMARK UNBOUND:                -0.298
REMARK SMILES O=c1cc(-c2ccc(O)c(O)c2)oc2cc(O)cc(O)c12
REMARK SMILES IDX 4 1 3 2 2 3 1 4 21 5 19 6 18 7 16 8 15 9 14 10 13 11 5 12
REMARK SMILES IDX 6 13 7 14 8 15 12 16 10 17 9 18 11 20 20 22 17 24
REMARK H PARENT 9 19 11 21 20 23 17 25
REMARK Flexibility Score: inf
ROOT
ATOM      1  C   UNL     1      44.870  30.872  65.056  1.00  0.00     0.138 A 
ATOM      2  C   UNL     1      45.048  31.310  66.375  1.00  0.00     0.100 A 
ATOM      3  C   UNL     1      46.297  31.781  66.783  1.00  0.00     0.197 A 
ATOM      4  O   UNL     1      46.411  32.220  67.957  1.00  0.00    -0.289 OA
ATOM      5  C   UNL     1      47.382  31.780  65.874  1.00  0.00     0.107 A 
ATOM      6  C   UNL     1      48.708  32.205  66.187  1.00  0.00     0.134 A 
ATOM      7  C   UNL     1      49.675  32.251  65.175  1.00  0.00     0.093 A 
ATOM      8  C   UNL     1      49.380  31.832  63.875  1.00  0.00     0.123 A 
ATOM      9  C   UNL     1      48.102  31.368  63.571  1.00  0.00     0.094 A 
ATOM     10  C   UNL     1      47.106  31.343  64.549  1.00  0.00     0.146 A 
ATOM     11  O   UNL     1      45.895  30.910  64.213  1.00  0.00    -0.456 OA
ENDROOT
BRANCH   1  12
ATOM     12  C   UNL     1      43.564  30.358  64.569  1.00  0.00     0.021 A 
ATOM     13  C   UNL     1      43.512  29.641  63.362  1.00  0.00     0.016 A 
ATOM     14  C   UNL     1      42.296  29.153  62.877  1.00  0.00     0.051 A 
ATOM     15  C   UNL     1      41.112  29.378  63.583  1.00  0.00     0.157 A 
ATOM     16  C   UNL     1      42.366  30.594  65.271  1.00  0.00     0.062 A 
ATOM     17  C   UNL     1      41.145  30.105  64.784  1.00  0.00     0.158 A 
BRANCH  15  18
ATOM     18  O   UNL     1      39.914  28.876  63.076  1.00  0.00    -0.504 OA
ATOM     19  H   UNL     1      39.531  27.988  63.380  1.00  0.00     0.293 HD
ENDBRANCH  15  18
BRANCH  17  20
ATOM     20  O   UNL     1      39.964  30.344  65.488  1.00  0.00    -0.504 OA
ATOM     21  H   UNL     1      39.336  29.591  65.740  1.00  0.00     0.293 HD
ENDBRANCH  17  20
ENDBRANCH   1  12
BRANCH   6  22
ATOM     22  O   UNL     1      49.132  32.569  67.469  1.00  0.00    -0.507 OA
ATOM     23  H   UNL     1      49.206  33.516  67.807  1.00  0.00     0.293 HD
ENDBRANCH   6  22
BRANCH   8  24
ATOM     24  O   UNL     1      50.353  31.867  62.879  1.00  0.00    -0.508 OA
ATOM     25  H   UNL     1      51.338  31.781  63.097  1.00  0.00     0.293 HD
ENDBRANCH   8  24
TORSDOF 5
ENDMDL
MODEL 9
REMARK VINA RESULT:    -6.075      2.299      3.800
REMARK INTER + INTRA:          -7.439
REMARK INTER:                  -7.144
REMARK INTRA:                  -0.295
REMARK UNBOUND:                -0.298
REMARK SMILES O=c1cc(-c2ccc(O)c(O)c2)oc2cc(O)cc(O)c12
REMARK SMILES IDX 4 1 3 2 2 3 1 4 21 5 19 6 18 7 16 8 15 9 14 10 13 11 5 12
REMARK SMILES IDX 6 13 7 14 8 15 12 16 10 17 9 18 11 20 20 22 17 24
REMARK H PARENT 9 19 11 21 20 23 17 25
REMARK Flexibility Score: inf
ROOT
ATOM      1  C   UNL     1      50.120  45.092  76.803  1.00  0.00     0.138 A 
ATOM      2  C   UNL     1      50.420  46.457  76.894  1.00  0.00     0.100 A 
ATOM      3  C   UNL     1      51.450  46.991  76.117  1.00  0.00     0.197 A 
ATOM      4  O   UNL     1      51.658  48.230  76.179  1.00  0.00    -0.289 OA
ATOM      5  C   UNL     1      52.206  46.143  75.273  1.00  0.00     0.107 A 
ATOM      6  C   UNL     1      53.301  46.568  74.461  1.00  0.00     0.134 A 
ATOM      7  C   UNL     1      53.910  45.655  73.591  1.00  0.00     0.093 A 
ATOM      8  C   UNL     1      53.502  44.319  73.545  1.00  0.00     0.123 A 
ATOM      9  C   UNL     1      52.468  43.884  74.370  1.00  0.00     0.094 A 
ATOM     10  C   UNL     1      51.817  44.777  75.223  1.00  0.00     0.146 A 
ATOM     11  O   UNL     1      50.823  44.323  75.980  1.00  0.00    -0.456 OA
ENDROOT
BRANCH   1  12
ATOM     12  C   UNL     1      49.037  44.471  77.608  1.00  0.00     0.021 A 
ATOM     13  C   UNL     1      48.900  44.817  78.963  1.00  0.00     0.016 A 
ATOM     14  C   UNL     1      47.894  44.242  79.745  1.00  0.00     0.051 A 
ATOM     15  C   UNL     1      47.015  43.308  79.192  1.00  0.00     0.157 A 
ATOM     16  C   UNL     1      48.157  43.518  77.058  1.00  0.00     0.062 A 
ATOM     17  C   UNL     1      47.149  42.940  77.843  1.00  0.00     0.158 A 
BRANCH  15  18
ATOM     18  O   UNL     1      46.020  42.754  79.996  1.00  0.00    -0.504 OA
ATOM     19  H   UNL     1      45.654  43.235  80.809  1.00  0.00     0.293 HD
ENDBRANCH  15  18
BRANCH  17  20
ATOM     20  O   UNL     1      46.281  41.999  77.288  1.00  0.00    -0.504 OA
ATOM     21  H   UNL     1      45.321  42.230  77.064  1.00  0.00     0.293 HD
ENDBRANCH  17  20
ENDBRANCH   1  12
BRANCH   6  22
ATOM     22  O   UNL     1      53.841  47.858  74.485  1.00  0.00    -0.507 OA
ATOM     23  H   UNL     1      53.920  48.467  73.686  1.00  0.00     0.293 HD
ENDBRANCH   6  22
BRANCH   8  24
ATOM     24  O   UNL     1      54.125  43.416  72.687  1.00  0.00    -0.508 OA
ATOM     25  H   UNL     1      55.127  43.430  72.538  1.00  0.00     0.293 HD
ENDBRANCH   8  24
TORSDOF 5
ENDMDL
