MODEL 1
REMARK VINA RESULT:    -2.292      0.000      0.000
REMARK INTER + INTRA:          -2.292
REMARK INTER:                  -2.292
REMARK INTRA:                   0.000
REMARK UNBOUND:                 0.000
REMARK SMILES CC(=O)[O-]
REMARK SMILES IDX 1 1 2 2 3 3 4 4
REMARK H PARENT
REMARK Flexibility Score: inf
ROOT
ATOM      1  C   UNL     1      13.444  20.499  -0.739  1.00  0.00     0.063 C 
ATOM      2  C   UNL     1      14.462  19.752   0.052  1.00  0.00     0.038 C 
ATOM      3  O   UNL     1      15.651  20.162   0.099  1.00  0.00    -0.550 OA
ATOM      4  O   UNL     1      14.114  18.571   0.697  1.00  0.00    -0.550 OA
ENDROOT
TORSDOF 0
ENDMDL
MODEL 2
REMARK VINA RESULT:    -2.273      0.180      1.625
REMARK INTER + INTRA:          -2.273
REMARK INTER:                  -2.273
REMARK INTRA:                   0.000
REMARK UNBOUND:                 0.000
REMARK SMILES CC(=O)[O-]
REMARK SMILES IDX 1 1 2 2 3 3 4 4
REMARK H PARENT
REMARK Flexibility Score: inf
ROOT
ATOM      1  C   UNL     1      13.509  20.388  -0.657  1.00  0.00     0.063 C 
ATOM      2  C   UNL     1      14.496  19.590   0.125  1.00  0.00     0.038 C 
ATOM      3  O   UNL     1      14.118  18.580   0.774  1.00  0.00    -0.550 OA
ATOM      4  O   UNL     1      15.825  19.990   0.183  1.00  0.00    -0.550 OA
ENDROOT
TORSDOF 0
ENDMDL
MODEL 3
REMARK VINA RESULT:    -2.234      1.490      1.726
REMARK INTER + INTRA:          -2.234
REMARK INTER:                  -2.234
REMARK INTRA:                   0.000
REMARK UNBOUND:                 0.000
REMARK SMILES CC(=O)[O-]
REMARK SMILES IDX 1 1 2 2 3 3 4 4
REMARK H PARENT
REMARK Flexibility Score: inf
ROOT
ATOM      1  C   UNL     1      15.606  20.562  -0.146  1.00  0.00     0.063 C 
ATOM      2  C   UNL     1      14.211  20.038  -0.170  1.00  0.00     0.038 C 
ATOM      3  O   UNL     1      13.307  20.677  -0.769  1.00  0.00    -0.550 OA
ATOM      4  O   UNL     1      13.893  18.872   0.515  1.00  0.00    -0.550 OA
ENDROOT
TORSDOF 0
ENDMDL
MODEL 4
REMARK VINA RESULT:    -2.147     18.264     18.862
REMARK INTER + INTRA:          -2.147
REMARK INTER:                  -2.147
REMARK INTRA:                   0.000
REMARK UNBOUND:                 0.000
REMARK SMILES CC(=O)[O-]
REMARK SMILES IDX 1 1 2 2 3 3 4 4
REMARK H PARENT
REMARK Flexibility Score: inf
ROOT
ATOM      1  C   UNL     1      -2.417  12.439  -1.130  1.00  0.00     0.063 C 
ATOM      2  C   UNL     1      -2.181  11.015  -1.501  1.00  0.00     0.038 C 
ATOM      3  O   UNL     1      -1.105  10.447  -1.178  1.00  0.00    -0.550 OA
ATOM      4  O   UNL     1      -3.125  10.325  -2.252  1.00  0.00    -0.550 OA
ENDROOT
TORSDOF 0
ENDMDL
MODEL 5
REMARK VINA RESULT:    -2.145     10.104     10.795
REMARK INTER + INTRA:          -2.145
REMARK INTER:                  -2.145
REMARK INTRA:                   0.000
REMARK UNBOUND:                 0.000
REMARK SMILES CC(=O)[O-]
REMARK SMILES IDX 1 1 2 2 3 3 4 4
REMARK H PARENT
REMARK Flexibility Score: inf
ROOT
ATOM      1  C   UNL     1      13.693  12.787   7.096  1.00  0.00     0.063 C 
ATOM      2  C   UNL     1      14.238  13.144   8.436  1.00  0.00     0.038 C 
ATOM      3  O   UNL     1      14.077  12.364   9.411  1.00  0.00    -0.550 OA
ATOM      4  O   UNL     1      14.877  14.363   8.626  1.00  0.00    -0.550 OA
ENDROOT
TORSDOF 0
ENDMDL
MODEL 6
REMARK VINA RESULT:    -2.123     10.209     10.788
REMARK INTER + INTRA:          -2.123
REMARK INTER:                  -2.123
REMARK INTRA:                   0.000
REMARK UNBOUND:                 0.000
REMARK SMILES CC(=O)[O-]
REMARK SMILES IDX 1 1 2 2 3 3 4 4
REMARK H PARENT
REMARK Flexibility Score: inf
ROOT
ATOM      1  C   UNL     1      13.648  12.755   7.129  1.00  0.00     0.063 C 
ATOM      2  C   UNL     1      14.227  13.078   8.465  1.00  0.00     0.038 C 
ATOM      3  O   UNL     1      14.939  14.106   8.613  1.00  0.00    -0.550 OA
ATOM      4  O   UNL     1      14.027  12.218   9.537  1.00  0.00    -0.550 OA
ENDROOT
TORSDOF 0
ENDMDL
MODEL 7
REMARK VINA RESULT:    -2.109      9.786     10.318
REMARK INTER + INTRA:          -2.109
REMARK INTER:                  -2.109
REMARK INTRA:                   0.000
REMARK UNBOUND:                 0.000
REMARK SMILES CC(=O)[O-]
REMARK SMILES IDX 1 1 2 2 3 3 4 4
REMARK H PARENT
REMARK Flexibility Score: inf
ROOT
ATOM      1  C   UNL     1      14.526  13.080   9.214  1.00  0.00     0.063 C 
ATOM      2  C   UNL     1      14.359  13.135   7.734  1.00  0.00     0.038 C 
ATOM      3  O   UNL     1      15.184  13.771   7.028  1.00  0.00    -0.550 OA
ATOM      4  O   UNL     1      13.261  12.530   7.134  1.00  0.00    -0.550 OA
ENDROOT
TORSDOF 0
ENDMDL
MODEL 8
REMARK VINA RESULT:    -2.030     24.811     25.233
REMARK INTER + INTRA:          -2.030
REMARK INTER:                  -2.030
REMARK INTRA:                   0.000
REMARK UNBOUND:                 0.000
REMARK SMILES CC(=O)[O-]
REMARK SMILES IDX 1 1 2 2 3 3 4 4
REMARK H PARENT
REMARK Flexibility Score: inf
ROOT
ATOM      1  C   UNL     1      -0.875   4.899  11.561  1.00  0.00     0.063 C 
ATOM      2  C   UNL     1      -1.533   3.664  11.049  1.00  0.00     0.038 C 
ATOM      3  O   UNL     1      -2.361   3.735  10.103  1.00  0.00    -0.550 OA
ATOM      4  O   UNL     1      -1.277   2.438  11.650  1.00  0.00    -0.550 OA
ENDROOT
TORSDOF 0
ENDMDL
