MODEL 1
REMARK VINA RESULT:    -3.700      0.000      0.000
REMARK INTER + INTRA:          -4.165
REMARK INTER:                  -3.916
REMARK INTRA:                  -0.249
REMARK UNBOUND:                -0.249
REMARK SMILES CC1=CC[C@@H]2[C@H]3[C@@H](C(C)C)CC[C@]2(C)[C@@H]13
REMARK SMILES IDX 1 1 2 2 3 3 4 4 5 5 6 6 15 7 13 8 12 9 11 10 7 11 14 12 8 13
REMARK SMILES IDX 9 14 10 15
REMARK H PARENT
REMARK Flexibility Score: inf
ROOT
ATOM      1  C   UNL     1       0.193  10.661  12.054  1.00  0.00     0.039 C 
ATOM      2  C   UNL     1       1.678  10.491  11.940  1.00  0.00    -0.073 C 
ATOM      3  C   UNL     1       2.377  11.061  10.925  1.00  0.00    -0.027 C 
ATOM      4  C   UNL     1       3.896  10.873  10.875  1.00  0.00     0.031 C 
ATOM      5  C   UNL     1       4.374   9.973  12.060  1.00  0.00     0.003 C 
ATOM      6  C   UNL     1       3.421   8.749  12.131  1.00  0.00     0.004 C 
ATOM      7  C   UNL     1       2.473   9.656  12.949  1.00  0.00     0.024 C 
ATOM      8  C   UNL     1       3.739  10.418  13.403  1.00  0.00    -0.022 C 
ATOM      9  C   UNL     1       4.394   9.654  14.597  1.00  0.00     0.008 C 
ATOM     10  C   UNL     1       4.826   8.212  14.216  1.00  0.00     0.005 C 
ATOM     11  C   UNL     1       3.976   7.618  13.051  1.00  0.00    -0.005 C 
ATOM     12  C   UNL     1       3.619  11.928  13.715  1.00  0.00     0.012 C 
ENDROOT
BRANCH  11  13
ATOM     13  C   UNL     1       4.733   6.492  12.284  1.00  0.00    -0.014 C 
ATOM     14  C   UNL     1       6.192   6.377  12.753  1.00  0.00     0.007 C 
ATOM     15  C   UNL     1       4.049   5.116  12.364  1.00  0.00     0.007 C 
ENDBRANCH  11  13
TORSDOF 1
ENDMDL
MODEL 2
REMARK VINA RESULT:    -2.309      1.315      3.314
REMARK INTER + INTRA:          -2.693
REMARK INTER:                  -2.511
REMARK INTRA:                  -0.182
REMARK UNBOUND:                -0.249
REMARK SMILES CC1=CC[C@@H]2[C@H]3[C@@H](C(C)C)CC[C@]2(C)[C@@H]13
REMARK SMILES IDX 1 1 2 2 3 3 4 4 5 5 6 6 15 7 13 8 12 9 11 10 7 11 14 12 8 13
REMARK SMILES IDX 9 14 10 15
REMARK H PARENT
REMARK Flexibility Score: inf
ROOT
ATOM      1  C   UNL     1       3.151  10.577  11.547  1.00  0.00     0.039 C 
ATOM      2  C   UNL     1       3.766   9.628  12.531  1.00  0.00    -0.073 C 
ATOM      3  C   UNL     1       4.066  10.021  13.796  1.00  0.00    -0.027 C 
ATOM      4  C   UNL     1       4.670   9.000  14.764  1.00  0.00     0.031 C 
ATOM      5  C   UNL     1       4.870   7.624  14.051  1.00  0.00     0.003 C 
ATOM      6  C   UNL     1       5.530   7.902  12.675  1.00  0.00     0.004 C 
ATOM      7  C   UNL     1       4.100   8.181  12.154  1.00  0.00     0.024 C 
ATOM      8  C   UNL     1       3.608   7.209  13.251  1.00  0.00    -0.022 C 
ATOM      9  C   UNL     1       3.745   5.744  12.733  1.00  0.00     0.008 C 
ATOM     10  C   UNL     1       5.214   5.366  12.398  1.00  0.00     0.005 C 
ATOM     11  C   UNL     1       6.077   6.603  12.006  1.00  0.00    -0.005 C 
ATOM     12  C   UNL     1       2.212   7.446  13.873  1.00  0.00     0.012 C 
ENDROOT
BRANCH  11  13
ATOM     13  C   UNL     1       7.599   6.360  12.248  1.00  0.00    -0.014 C 
ATOM     14  C   UNL     1       8.100   7.129  13.481  1.00  0.00     0.007 C 
ATOM     15  C   UNL     1       7.981   4.875  12.368  1.00  0.00     0.007 C 
ENDBRANCH  11  13
TORSDOF 1
ENDMDL
MODEL 3
REMARK VINA RESULT:    -1.385      1.260      5.053
REMARK INTER + INTRA:          -1.715
REMARK INTER:                  -1.471
REMARK INTRA:                  -0.244
REMARK UNBOUND:                -0.249
REMARK SMILES CC1=CC[C@@H]2[C@H]3[C@@H](C(C)C)CC[C@]2(C)[C@@H]13
REMARK SMILES IDX 1 1 2 2 3 3 4 4 5 5 6 6 15 7 13 8 12 9 11 10 7 11 14 12 8 13
REMARK SMILES IDX 9 14 10 15
REMARK H PARENT
REMARK Flexibility Score: inf
ROOT
ATOM      1  C   UNL     1       8.123   6.371  11.289  1.00  0.00     0.039 C 
ATOM      2  C   UNL     1       6.792   6.372  11.977  1.00  0.00    -0.073 C 
ATOM      3  C   UNL     1       6.003   5.266  11.987  1.00  0.00    -0.027 C 
ATOM      4  C   UNL     1       4.664   5.319  12.728  1.00  0.00     0.031 C 
ATOM      5  C   UNL     1       4.434   6.740  13.338  1.00  0.00     0.003 C 
ATOM      6  C   UNL     1       4.778   7.781  12.239  1.00  0.00     0.004 C 
ATOM      7  C   UNL     1       6.251   7.619  12.683  1.00  0.00     0.024 C 
ATOM      8  C   UNL     1       5.696   7.252  14.079  1.00  0.00    -0.022 C 
ATOM      9  C   UNL     1       5.376   8.563  14.862  1.00  0.00     0.008 C 
ATOM     10  C   UNL     1       4.309   9.437  14.148  1.00  0.00     0.005 C 
ATOM     11  C   UNL     1       4.284   9.215  12.606  1.00  0.00    -0.005 C 
ATOM     12  C   UNL     1       6.503   6.268  14.958  1.00  0.00     0.012 C 
ENDROOT
BRANCH  11  13
ATOM     13  C   UNL     1       2.906   9.588  11.978  1.00  0.00    -0.014 C 
ATOM     14  C   UNL     1       1.896  10.013  13.056  1.00  0.00     0.007 C 
ATOM     15  C   UNL     1       2.991  10.670  10.888  1.00  0.00     0.007 C 
ENDBRANCH  11  13
TORSDOF 1
ENDMDL
