MODEL 1
REMARK VINA RESULT:    -5.848      0.000      0.000
REMARK INTER + INTRA:         -10.455
REMARK INTER:                  -9.950
REMARK INTRA:                  -0.506
REMARK UNBOUND:                -0.506
REMARK SMILES CCCCCCCCCCCCCC(=O)[O-]
REMARK SMILES IDX 8 1 9 2 10 3 11 4 12 5 13 6 14 7 15 8 16 9 7 10 6 11 5 12
REMARK SMILES IDX 4 13 3 14 2 15 1 16
REMARK H PARENT
REMARK Flexibility Score: inf
ROOT
ATOM      1  C   UNL     1      88.932 326.331 195.363  1.00  0.00     0.000 C 
ENDROOT
BRANCH   1   2
ATOM      2  C   UNL     1      88.046 325.948 196.559  1.00  0.00     0.000 C 
BRANCH   2   3
ATOM      3  C   UNL     1      88.444 326.681 197.848  1.00  0.00     0.000 C 
BRANCH   3   4
ATOM      4  C   UNL     1      89.071 325.714 198.858  1.00  0.00     0.000 C 
BRANCH   4   5
ATOM      5  C   UNL     1      89.670 326.472 200.049  1.00  0.00     0.006 C 
BRANCH   5   6
ATOM      6  C   UNL     1      88.802 326.305 201.300  1.00  0.00     0.053 C 
BRANCH   6   7
ATOM      7  C   UNL     1      89.583 326.651 202.528  1.00  0.00     0.041 C 
ATOM      8  O   UNL     1      89.052 326.555 203.666  1.00  0.00    -0.550 OA
ATOM      9  O   UNL     1      90.885 327.126 202.414  1.00  0.00    -0.550 OA
ENDBRANCH   6   7
ENDBRANCH   5   6
ENDBRANCH   4   5
ENDBRANCH   3   4
ENDBRANCH   2   3
ENDBRANCH   1   2
BRANCH   1  10
ATOM     10  C   UNL     1      88.113 326.654 194.100  1.00  0.00     0.000 C 
BRANCH  10  11
ATOM     11  C   UNL     1      86.713 326.019 194.122  1.00  0.00    -0.000 C 
BRANCH  11  12
ATOM     12  C   UNL     1      86.596 324.814 193.173  1.00  0.00    -0.000 C 
BRANCH  12  13
ATOM     13  C   UNL     1      87.857 324.612 192.317  1.00  0.00    -0.000 C 
BRANCH  13  14
ATOM     14  C   UNL     1      87.777 323.361 191.429  1.00  0.00    -0.000 C 
BRANCH  14  15
ATOM     15  C   UNL     1      88.545 323.569 190.119  1.00  0.00    -0.003 C 
ATOM     16  C   UNL     1      87.997 322.676 189.009  1.00  0.00     0.004 C 
ENDBRANCH  14  15
ENDBRANCH  13  14
ENDBRANCH  12  13
ENDBRANCH  11  12
ENDBRANCH  10  11
ENDBRANCH   1  10
TORSDOF 12
ENDMDL
MODEL 2
REMARK VINA RESULT:    -5.754     20.100     20.810
REMARK INTER + INTRA:         -10.296
REMARK INTER:                  -9.758
REMARK INTRA:                  -0.538
REMARK UNBOUND:                -0.506
REMARK SMILES CCCCCCCCCCCCCC(=O)[O-]
REMARK SMILES IDX 8 1 9 2 10 3 11 4 12 5 13 6 14 7 15 8 16 9 7 10 6 11 5 12
REMARK SMILES IDX 4 13 3 14 2 15 1 16
REMARK H PARENT
REMARK Flexibility Score: inf
ROOT
ATOM      1  C   UNL     1     104.336 312.261 195.644  1.00  0.00     0.000 C 
ENDROOT
BRANCH   1   2
ATOM      2  C   UNL     1     104.217 311.473 196.958  1.00  0.00     0.000 C 
BRANCH   2   3
ATOM      3  C   UNL     1     103.842 312.366 198.150  1.00  0.00     0.000 C 
BRANCH   3   4
ATOM      4  C   UNL     1     103.130 311.557 199.240  1.00  0.00     0.000 C 
BRANCH   4   5
ATOM      5  C   UNL     1     103.869 311.665 200.579  1.00  0.00     0.006 C 
BRANCH   5   6
ATOM      6  C   UNL     1     102.888 311.908 201.730  1.00  0.00     0.053 C 
BRANCH   6   7
ATOM      7  C   UNL     1     103.115 310.918 202.828  1.00  0.00     0.041 C 
ATOM      8  O   UNL     1     102.139 310.321 203.355  1.00  0.00    -0.550 OA
ATOM      9  O   UNL     1     104.400 310.687 203.302  1.00  0.00    -0.550 OA
ENDBRANCH   6   7
ENDBRANCH   5   6
ENDBRANCH   4   5
ENDBRANCH   3   4
ENDBRANCH   2   3
ENDBRANCH   1   2
BRANCH   1  10
ATOM     10  C   UNL     1     103.376 311.746 194.557  1.00  0.00     0.000 C 
BRANCH  10  11
ATOM     11  C   UNL     1     104.101 311.377 193.252  1.00  0.00    -0.000 C 
BRANCH  11  12
ATOM     12  C   UNL     1     105.527 311.949 193.187  1.00  0.00    -0.000 C 
BRANCH  12  13
ATOM     13  C   UNL     1     105.647 313.123 192.202  1.00  0.00    -0.000 C 
BRANCH  13  14
ATOM     14  C   UNL     1     104.299 313.517 191.581  1.00  0.00    -0.000 C 
BRANCH  14  15
ATOM     15  C   UNL     1     104.499 314.464 190.392  1.00  0.00    -0.003 C 
ATOM     16  C   UNL     1     105.939 314.967 190.323  1.00  0.00     0.004 C 
ENDBRANCH  14  15
ENDBRANCH  13  14
ENDBRANCH  12  13
ENDBRANCH  11  12
ENDBRANCH  10  11
ENDBRANCH   1  10
TORSDOF 12
ENDMDL
MODEL 3
REMARK VINA RESULT:    -5.743      0.934      1.705
REMARK INTER + INTRA:         -10.278
REMARK INTER:                  -9.573
REMARK INTRA:                  -0.704
REMARK UNBOUND:                -0.506
REMARK SMILES CCCCCCCCCCCCCC(=O)[O-]
REMARK SMILES IDX 8 1 9 2 10 3 11 4 12 5 13 6 14 7 15 8 16 9 7 10 6 11 5 12
REMARK SMILES IDX 4 13 3 14 2 15 1 16
REMARK H PARENT
REMARK Flexibility Score: inf
ROOT
ATOM      1  C   UNL     1      87.899 326.105 196.509  1.00  0.00     0.000 C 
ENDROOT
BRANCH   1   2
ATOM      2  C   UNL     1      88.522 326.209 197.909  1.00  0.00     0.000 C 
BRANCH   2   3
ATOM      3  C   UNL     1      88.963 324.845 198.462  1.00  0.00     0.000 C 
BRANCH   3   4
ATOM      4  C   UNL     1      89.787 325.013 199.743  1.00  0.00     0.000 C 
BRANCH   4   5
ATOM      5  C   UNL     1      89.652 326.434 200.305  1.00  0.00     0.006 C 
BRANCH   5   6
ATOM      6  C   UNL     1      90.697 326.696 201.394  1.00  0.00     0.053 C 
BRANCH   6   7
ATOM      7  C   UNL     1      90.037 326.836 202.729  1.00  0.00     0.041 C 
ATOM      8  O   UNL     1      90.505 327.629 203.587  1.00  0.00    -0.550 OA
ATOM      9  O   UNL     1      88.932 326.055 203.044  1.00  0.00    -0.550 OA
ENDBRANCH   6   7
ENDBRANCH   5   6
ENDBRANCH   4   5
ENDBRANCH   3   4
ENDBRANCH   2   3
ENDBRANCH   1   2
BRANCH   1  10
ATOM     10  C   UNL     1      88.910 326.406 195.388  1.00  0.00     0.000 C 
BRANCH  10  11
ATOM     11  C   UNL     1      88.234 326.653 194.030  1.00  0.00    -0.000 C 
BRANCH  11  12
ATOM     12  C   UNL     1      86.777 326.160 193.997  1.00  0.00    -0.000 C 
BRANCH  12  13
ATOM     13  C   UNL     1      86.602 324.891 193.147  1.00  0.00    -0.000 C 
BRANCH  13  14
ATOM     14  C   UNL     1      87.860 324.540 192.339  1.00  0.00    -0.000 C 
BRANCH  14  15
ATOM     15  C   UNL     1      87.525 323.573 191.198  1.00  0.00    -0.003 C 
ATOM     16  C   UNL     1      86.081 323.088 191.290  1.00  0.00     0.004 C 
ENDBRANCH  14  15
ENDBRANCH  13  14
ENDBRANCH  12  13
ENDBRANCH  11  12
ENDBRANCH  10  11
ENDBRANCH   1  10
TORSDOF 12
ENDMDL
MODEL 4
REMARK VINA RESULT:    -5.720     19.556     20.463
REMARK INTER + INTRA:         -10.239
REMARK INTER:                  -8.993
REMARK INTRA:                  -1.247
REMARK UNBOUND:                -0.506
REMARK SMILES CCCCCCCCCCCCCC(=O)[O-]
REMARK SMILES IDX 8 1 9 2 10 3 11 4 12 5 13 6 14 7 15 8 16 9 7 10 6 11 5 12
REMARK SMILES IDX 4 13 3 14 2 15 1 16
REMARK H PARENT
REMARK Flexibility Score: inf
ROOT
ATOM      1  C   UNL     1     103.487 311.605 194.708  1.00  0.00     0.000 C 
ENDROOT
BRANCH   1   2
ATOM      2  C   UNL     1     104.581 312.168 195.628  1.00  0.00     0.000 C 
BRANCH   2   3
ATOM      3  C   UNL     1     104.027 312.660 196.974  1.00  0.00     0.000 C 
BRANCH   3   4
ATOM      4  C   UNL     1     103.671 311.480 197.885  1.00  0.00     0.000 C 
BRANCH   4   5
ATOM      5  C   UNL     1     103.857 311.848 199.362  1.00  0.00     0.006 C 
BRANCH   5   6
ATOM      6  C   UNL     1     102.535 311.736 200.127  1.00  0.00     0.053 C 
BRANCH   6   7
ATOM      7  C   UNL     1     102.791 311.502 201.582  1.00  0.00     0.041 C 
ATOM      8  O   UNL     1     103.795 312.018 202.140  1.00  0.00    -0.550 OA
ATOM      9  O   UNL     1     101.947 310.674 202.313  1.00  0.00    -0.550 OA
ENDBRANCH   6   7
ENDBRANCH   5   6
ENDBRANCH   4   5
ENDBRANCH   3   4
ENDBRANCH   2   3
ENDBRANCH   1   2
BRANCH   1  10
ATOM     10  C   UNL     1     103.981 311.384 193.267  1.00  0.00     0.000 C 
BRANCH  10  11
ATOM     11  C   UNL     1     105.448 311.802 193.073  1.00  0.00    -0.000 C 
BRANCH  11  12
ATOM     12  C   UNL     1     105.592 313.062 192.202  1.00  0.00    -0.000 C 
BRANCH  12  13
ATOM     13  C   UNL     1     104.266 313.482 191.548  1.00  0.00    -0.000 C 
BRANCH  13  14
ATOM     14  C   UNL     1     103.817 314.889 191.969  1.00  0.00    -0.000 C 
BRANCH  14  15
ATOM     15  C   UNL     1     104.304 315.219 193.385  1.00  0.00    -0.003 C 
ATOM     16  C   UNL     1     103.133 315.359 194.354  1.00  0.00     0.004 C 
ENDBRANCH  14  15
ENDBRANCH  13  14
ENDBRANCH  12  13
ENDBRANCH  11  12
ENDBRANCH  10  11
ENDBRANCH   1  10
TORSDOF 12
ENDMDL
MODEL 5
REMARK VINA RESULT:    -5.690     19.388     21.617
REMARK INTER + INTRA:         -10.187
REMARK INTER:                  -9.554
REMARK INTRA:                  -0.634
REMARK UNBOUND:                -0.506
REMARK SMILES CCCCCCCCCCCCCC(=O)[O-]
REMARK SMILES IDX 8 1 9 2 10 3 11 4 12 5 13 6 14 7 15 8 16 9 7 10 6 11 5 12
REMARK SMILES IDX 4 13 3 14 2 15 1 16
REMARK H PARENT
REMARK Flexibility Score: inf
ROOT
ATOM      1  C   UNL     1     103.954 312.847 192.286  1.00  0.00     0.000 C 
ENDROOT
BRANCH   1   2
ATOM      2  C   UNL     1     105.257 313.548 191.871  1.00  0.00     0.000 C 
BRANCH   2   3
ATOM      3  C   UNL     1     105.070 314.472 190.658  1.00  0.00     0.000 C 
BRANCH   3   4
ATOM      4  C   UNL     1     103.641 314.381 190.114  1.00  0.00     0.000 C 
BRANCH   4   5
ATOM      5  C   UNL     1     103.555 314.945 188.690  1.00  0.00     0.006 C 
BRANCH   5   6
ATOM      6  C   UNL     1     102.186 314.659 188.067  1.00  0.00     0.053 C 
BRANCH   6   7
ATOM      7  C   UNL     1     101.349 315.898 188.052  1.00  0.00     0.041 C 
ATOM      8  O   UNL     1     100.137 315.848 188.389  1.00  0.00    -0.550 OA
ATOM      9  O   UNL     1     101.895 317.101 187.621  1.00  0.00    -0.550 OA
ENDBRANCH   6   7
ENDBRANCH   5   6
ENDBRANCH   4   5
ENDBRANCH   3   4
ENDBRANCH   2   3
ENDBRANCH   1   2
BRANCH   1  10
ATOM     10  C   UNL     1     104.206 311.560 193.092  1.00  0.00     0.000 C 
BRANCH  10  11
ATOM     11  C   UNL     1     105.658 311.442 193.582  1.00  0.00    -0.000 C 
BRANCH  11  12
ATOM     12  C   UNL     1     105.782 311.606 195.106  1.00  0.00    -0.000 C 
BRANCH  12  13
ATOM     13  C   UNL     1     104.527 312.230 195.737  1.00  0.00    -0.000 C 
BRANCH  13  14
ATOM     14  C   UNL     1     103.997 311.421 196.930  1.00  0.00    -0.000 C 
BRANCH  14  15
ATOM     15  C   UNL     1     103.842 312.310 198.169  1.00  0.00    -0.003 C 
ATOM     16  C   UNL     1     103.241 311.532 199.337  1.00  0.00     0.004 C 
ENDBRANCH  14  15
ENDBRANCH  13  14
ENDBRANCH  12  13
ENDBRANCH  11  12
ENDBRANCH  10  11
ENDBRANCH   1  10
TORSDOF 12
ENDMDL
MODEL 6
REMARK VINA RESULT:    -5.660      0.950      1.978
REMARK INTER + INTRA:         -10.136
REMARK INTER:                  -9.340
REMARK INTRA:                  -0.796
REMARK UNBOUND:                -0.506
REMARK SMILES CCCCCCCCCCCCCC(=O)[O-]
REMARK SMILES IDX 8 1 9 2 10 3 11 4 12 5 13 6 14 7 15 8 16 9 7 10 6 11 5 12
REMARK SMILES IDX 4 13 3 14 2 15 1 16
REMARK H PARENT
REMARK Flexibility Score: inf
ROOT
ATOM      1  C   UNL     1      88.925 325.027 197.412  1.00  0.00     0.000 C 
ENDROOT
BRANCH   1   2
ATOM      2  C   UNL     1      88.594 326.406 198.004  1.00  0.00     0.000 C 
BRANCH   2   3
ATOM      3  C   UNL     1      89.359 326.690 199.305  1.00  0.00     0.000 C 
BRANCH   3   4
ATOM      4  C   UNL     1      89.117 325.584 200.337  1.00  0.00     0.000 C 
BRANCH   4   5
ATOM      5  C   UNL     1      88.375 326.127 201.565  1.00  0.00     0.006 C 
BRANCH   5   6
ATOM      6  C   UNL     1      89.012 325.620 202.862  1.00  0.00     0.053 C 
BRANCH   6   7
ATOM      7  C   UNL     1      89.572 326.761 203.650  1.00  0.00     0.041 C 
ATOM      8  O   UNL     1      89.044 327.097 204.742  1.00  0.00    -0.550 OA
ATOM      9  O   UNL     1      90.650 327.485 203.155  1.00  0.00    -0.550 OA
ENDBRANCH   6   7
ENDBRANCH   5   6
ENDBRANCH   4   5
ENDBRANCH   3   4
ENDBRANCH   2   3
ENDBRANCH   1   2
BRANCH   1  10
ATOM     10  C   UNL     1      88.942 325.032 195.873  1.00  0.00     0.000 C 
BRANCH  10  11
ATOM     11  C   UNL     1      88.832 326.447 195.284  1.00  0.00    -0.000 C 
BRANCH  11  12
ATOM     12  C   UNL     1      88.071 326.473 193.947  1.00  0.00    -0.000 C 
BRANCH  12  13
ATOM     13  C   UNL     1      86.748 325.693 194.006  1.00  0.00    -0.000 C 
BRANCH  13  14
ATOM     14  C   UNL     1      86.648 324.612 192.919  1.00  0.00    -0.000 C 
BRANCH  14  15
ATOM     15  C   UNL     1      88.009 324.379 192.252  1.00  0.00    -0.003 C 
ATOM     16  C   UNL     1      87.851 323.688 190.900  1.00  0.00     0.004 C 
ENDBRANCH  14  15
ENDBRANCH  13  14
ENDBRANCH  12  13
ENDBRANCH  11  12
ENDBRANCH  10  11
ENDBRANCH   1  10
TORSDOF 12
ENDMDL
MODEL 7
REMARK VINA RESULT:    -5.645     19.066     21.222
REMARK INTER + INTRA:         -10.111
REMARK INTER:                  -8.723
REMARK INTRA:                  -1.388
REMARK UNBOUND:                -0.506
REMARK SMILES CCCCCCCCCCCCCC(=O)[O-]
REMARK SMILES IDX 8 1 9 2 10 3 11 4 12 5 13 6 14 7 15 8 16 9 7 10 6 11 5 12
REMARK SMILES IDX 4 13 3 14 2 15 1 16
REMARK H PARENT
REMARK Flexibility Score: inf
ROOT
ATOM      1  C   UNL     1     104.063 312.816 191.980  1.00  0.00     0.000 C 
ENDROOT
BRANCH   1   2
ATOM      2  C   UNL     1     105.382 313.581 191.792  1.00  0.00     0.000 C 
BRANCH   2   3
ATOM      3  C   UNL     1     105.302 314.631 190.674  1.00  0.00     0.000 C 
BRANCH   3   4
ATOM      4  C   UNL     1     103.845 314.913 190.289  1.00  0.00     0.000 C 
BRANCH   4   5
ATOM      5  C   UNL     1     103.676 314.958 188.765  1.00  0.00     0.006 C 
BRANCH   5   6
ATOM      6  C   UNL     1     102.278 314.487 188.353  1.00  0.00     0.053 C 
BRANCH   6   7
ATOM      7  C   UNL     1     101.421 315.655 187.984  1.00  0.00     0.041 C 
ATOM      8  O   UNL     1     101.931 316.667 187.435  1.00  0.00    -0.550 OA
ATOM      9  O   UNL     1     100.065 315.648 188.289  1.00  0.00    -0.550 OA
ENDBRANCH   6   7
ENDBRANCH   5   6
ENDBRANCH   4   5
ENDBRANCH   3   4
ENDBRANCH   2   3
ENDBRANCH   1   2
BRANCH   1  10
ATOM     10  C   UNL     1     104.224 311.570 192.871  1.00  0.00     0.000 C 
BRANCH  10  11
ATOM     11  C   UNL     1     105.564 311.548 193.622  1.00  0.00    -0.000 C 
BRANCH  11  12
ATOM     12  C   UNL     1     105.409 311.879 195.116  1.00  0.00    -0.000 C 
BRANCH  12  13
ATOM     13  C   UNL     1     103.941 311.877 195.572  1.00  0.00    -0.000 C 
BRANCH  13  14
ATOM     14  C   UNL     1     103.496 313.231 196.145  1.00  0.00    -0.000 C 
BRANCH  14  15
ATOM     15  C   UNL     1     104.189 314.388 195.415  1.00  0.00    -0.003 C 
ATOM     16  C   UNL     1     103.194 315.189 194.578  1.00  0.00     0.004 C 
ENDBRANCH  14  15
ENDBRANCH  13  14
ENDBRANCH  12  13
ENDBRANCH  11  12
ENDBRANCH  10  11
ENDBRANCH   1  10
TORSDOF 12
ENDMDL
MODEL 8
REMARK VINA RESULT:    -5.630     19.930     20.632
REMARK INTER + INTRA:         -10.086
REMARK INTER:                  -9.154
REMARK INTRA:                  -0.932
REMARK UNBOUND:                -0.506
REMARK SMILES CCCCCCCCCCCCCC(=O)[O-]
REMARK SMILES IDX 8 1 9 2 10 3 11 4 12 5 13 6 14 7 15 8 16 9 7 10 6 11 5 12
REMARK SMILES IDX 4 13 3 14 2 15 1 16
REMARK H PARENT
REMARK Flexibility Score: inf
ROOT
ATOM      1  C   UNL     1     103.881 313.123 197.083  1.00  0.00     0.000 C 
ENDROOT
BRANCH   1   2
ATOM      2  C   UNL     1     103.885 311.697 197.655  1.00  0.00     0.000 C 
BRANCH   2   3
ATOM      3  C   UNL     1     103.305 311.629 199.076  1.00  0.00     0.000 C 
BRANCH   3   4
ATOM      4  C   UNL     1     104.392 311.885 200.125  1.00  0.00     0.000 C 
BRANCH   4   5
ATOM      5  C   UNL     1     103.778 312.321 201.462  1.00  0.00     0.006 C 
BRANCH   5   6
ATOM      6  C   UNL     1     103.912 311.216 202.514  1.00  0.00     0.053 C 
BRANCH   6   7
ATOM      7  C   UNL     1     102.562 310.740 202.948  1.00  0.00     0.041 C 
ATOM      8  O   UNL     1     101.602 310.729 202.133  1.00  0.00    -0.550 OA
ATOM      9  O   UNL     1     102.350 310.353 204.266  1.00  0.00    -0.550 OA
ENDBRANCH   6   7
ENDBRANCH   5   6
ENDBRANCH   4   5
ENDBRANCH   3   4
ENDBRANCH   2   3
ENDBRANCH   1   2
BRANCH   1  10
ATOM     10  C   UNL     1     103.775 313.144 195.548  1.00  0.00     0.000 C 
BRANCH  10  11
ATOM     11  C   UNL     1     103.477 311.757 194.955  1.00  0.00    -0.000 C 
BRANCH  11  12
ATOM     12  C   UNL     1     104.240 311.499 193.644  1.00  0.00    -0.000 C 
BRANCH  12  13
ATOM     13  C   UNL     1     105.557 312.287 193.563  1.00  0.00    -0.000 C 
BRANCH  13  14
ATOM     14  C   UNL     1     105.671 313.121 192.278  1.00  0.00    -0.000 C 
BRANCH  14  15
ATOM     15  C   UNL     1     104.288 313.383 191.671  1.00  0.00    -0.003 C 
ATOM     16  C   UNL     1     103.813 314.803 191.970  1.00  0.00     0.004 C 
ENDBRANCH  14  15
ENDBRANCH  13  14
ENDBRANCH  12  13
ENDBRANCH  11  12
ENDBRANCH  10  11
ENDBRANCH   1  10
TORSDOF 12
ENDMDL
MODEL 9
REMARK VINA RESULT:    -5.625     19.231     20.221
REMARK INTER + INTRA:         -10.077
REMARK INTER:                  -9.292
REMARK INTRA:                  -0.784
REMARK UNBOUND:                -0.506
REMARK SMILES CCCCCCCCCCCCCC(=O)[O-]
REMARK SMILES IDX 8 1 9 2 10 3 11 4 12 5 13 6 14 7 15 8 16 9 7 10 6 11 5 12
REMARK SMILES IDX 4 13 3 14 2 15 1 16
REMARK H PARENT
REMARK Flexibility Score: inf
ROOT
ATOM      1  C   UNL     1     105.502 311.491 193.284  1.00  0.00     0.000 C 
ENDROOT
BRANCH   1   2
ATOM      2  C   UNL     1     105.835 311.797 194.753  1.00  0.00     0.000 C 
BRANCH   2   3
ATOM      3  C   UNL     1     104.635 312.365 195.525  1.00  0.00     0.000 C 
BRANCH   3   4
ATOM      4  C   UNL     1     104.289 311.482 196.729  1.00  0.00     0.000 C 
BRANCH   4   5
ATOM      5  C   UNL     1     103.657 312.309 197.856  1.00  0.00     0.006 C 
BRANCH   5   6
ATOM      6  C   UNL     1     103.517 311.478 199.135  1.00  0.00     0.053 C 
BRANCH   6   7
ATOM      7  C   UNL     1     102.355 311.958 199.945  1.00  0.00     0.041 C 
ATOM      8  O   UNL     1     101.769 313.030 199.639  1.00  0.00    -0.550 OA
ATOM      9  O   UNL     1     101.947 311.246 201.067  1.00  0.00    -0.550 OA
ENDBRANCH   6   7
ENDBRANCH   5   6
ENDBRANCH   4   5
ENDBRANCH   3   4
ENDBRANCH   2   3
ENDBRANCH   1   2
BRANCH   1  10
ATOM     10  C   UNL     1     104.050 311.848 192.921  1.00  0.00     0.000 C 
BRANCH  10  11
ATOM     11  C   UNL     1     103.959 312.913 191.817  1.00  0.00    -0.000 C 
BRANCH  11  12
ATOM     12  C   UNL     1     103.930 314.345 192.378  1.00  0.00    -0.000 C 
BRANCH  12  13
ATOM     13  C   UNL     1     104.084 315.412 191.283  1.00  0.00    -0.000 C 
BRANCH  13  14
ATOM     14  C   UNL     1     104.602 314.832 189.958  1.00  0.00    -0.000 C 
BRANCH  14  15
ATOM     15  C   UNL     1     103.815 315.395 188.769  1.00  0.00    -0.003 C 
ATOM     16  C   UNL     1     102.571 314.558 188.482  1.00  0.00     0.004 C 
ENDBRANCH  14  15
ENDBRANCH  13  14
ENDBRANCH  12  13
ENDBRANCH  11  12
ENDBRANCH  10  11
ENDBRANCH   1  10
TORSDOF 12
ENDMDL
