MODEL 1
REMARK VINA RESULT:    -6.228      0.000      0.000
REMARK INTER + INTRA:          -7.172
REMARK INTER:                  -6.956
REMARK INTRA:                  -0.216
REMARK UNBOUND:                -0.216
REMARK SMILES CC(C)c1ccc(C(=O)[O-])cc1
REMARK SMILES IDX 7 1 6 2 11 3 5 4 12 5 4 6 8 7 9 8 10 9 2 10 1 11 3 12
REMARK H PARENT
REMARK Flexibility Score: inf
ROOT
ATOM      1  C   UNL     1     -24.896   4.103  12.260  1.00  0.00    -0.003 A 
ATOM      2  C   UNL     1     -24.460   5.259  11.589  1.00  0.00     0.010 A 
ATOM      3  C   UNL     1     -26.142   4.123  12.909  1.00  0.00     0.010 A 
ATOM      4  C   UNL     1     -25.253   6.410  11.569  1.00  0.00     0.004 A 
ATOM      5  C   UNL     1     -26.935   5.274  12.889  1.00  0.00     0.004 A 
ATOM      6  C   UNL     1     -26.499   6.431  12.219  1.00  0.00    -0.045 A 
ENDROOT
BRANCH   1   7
ATOM      7  C   UNL     1     -24.060   2.883  12.283  1.00  0.00     0.071 C 
ATOM      8  O   UNL     1     -24.582   1.745  12.151  1.00  0.00    -0.545 OA
ATOM      9  O   UNL     1     -22.682   2.977  12.450  1.00  0.00    -0.545 OA
ENDBRANCH   1   7
BRANCH   6  10
ATOM     10  C   UNL     1     -27.349   7.688  12.189  1.00  0.00     0.013 C 
ATOM     11  C   UNL     1     -26.732   8.750  11.270  1.00  0.00     0.012 C 
ATOM     12  C   UNL     1     -28.791   7.370  11.775  1.00  0.00     0.012 C 
ENDBRANCH   6  10
TORSDOF 2
ENDMDL
MODEL 2
REMARK VINA RESULT:    -6.224      0.024      1.398
REMARK INTER + INTRA:          -7.167
REMARK INTER:                  -6.952
REMARK INTRA:                  -0.216
REMARK UNBOUND:                -0.216
REMARK SMILES CC(C)c1ccc(C(=O)[O-])cc1
REMARK SMILES IDX 7 1 6 2 11 3 5 4 12 5 4 6 8 7 9 8 10 9 2 10 1 11 3 12
REMARK H PARENT
REMARK Flexibility Score: inf
ROOT
ATOM      1  C   UNL     1     -24.889   4.091  12.263  1.00  0.00    -0.003 A 
ATOM      2  C   UNL     1     -26.134   4.116  12.917  1.00  0.00     0.010 A 
ATOM      3  C   UNL     1     -24.452   5.243  11.588  1.00  0.00     0.010 A 
ATOM      4  C   UNL     1     -26.923   5.269  12.895  1.00  0.00     0.004 A 
ATOM      5  C   UNL     1     -25.242   6.396  11.566  1.00  0.00     0.004 A 
ATOM      6  C   UNL     1     -26.487   6.422  12.219  1.00  0.00    -0.045 A 
ENDROOT
BRANCH   1   7
ATOM      7  C   UNL     1     -24.049   2.873  12.284  1.00  0.00     0.071 C 
ATOM      8  O   UNL     1     -24.569   1.734  12.150  1.00  0.00    -0.545 OA
ATOM      9  O   UNL     1     -22.672   2.970  12.453  1.00  0.00    -0.545 OA
ENDBRANCH   1   7
BRANCH   6  10
ATOM     10  C   UNL     1     -27.356   7.666  12.204  1.00  0.00     0.013 C 
ATOM     11  C   UNL     1     -26.766   8.740  11.282  1.00  0.00     0.012 C 
ATOM     12  C   UNL     1     -28.798   7.328  11.804  1.00  0.00     0.012 C 
ENDBRANCH   6  10
TORSDOF 2
ENDMDL
MODEL 3
REMARK VINA RESULT:    -5.801      3.117      5.311
REMARK INTER + INTRA:          -6.695
REMARK INTER:                  -6.481
REMARK INTRA:                  -0.214
REMARK UNBOUND:                -0.216
REMARK SMILES CC(C)c1ccc(C(=O)[O-])cc1
REMARK SMILES IDX 7 1 6 2 11 3 5 4 12 5 4 6 8 7 9 8 10 9 2 10 1 11 3 12
REMARK H PARENT
REMARK Flexibility Score: inf
ROOT
ATOM      1  C   UNL     1     -26.807   6.606  12.120  1.00  0.00    -0.003 A 
ATOM      2  C   UNL     1     -27.196   5.486  12.877  1.00  0.00     0.010 A 
ATOM      3  C   UNL     1     -25.502   6.656  11.603  1.00  0.00     0.010 A 
ATOM      4  C   UNL     1     -26.298   4.442  13.112  1.00  0.00     0.004 A 
ATOM      5  C   UNL     1     -24.604   5.612  11.838  1.00  0.00     0.004 A 
ATOM      6  C   UNL     1     -24.992   4.492  12.596  1.00  0.00    -0.045 A 
ENDROOT
BRANCH   1   7
ATOM      7  C   UNL     1     -27.755   7.714  11.869  1.00  0.00     0.071 C 
ATOM      8  O   UNL     1     -27.338   8.843  11.501  1.00  0.00    -0.545 OA
ATOM      9  O   UNL     1     -29.122   7.521  12.035  1.00  0.00    -0.545 OA
ENDBRANCH   1   7
BRANCH   6  10
ATOM     10  C   UNL     1     -24.028   3.350  12.859  1.00  0.00     0.013 C 
ATOM     11  C   UNL     1     -24.485   2.067  12.154  1.00  0.00     0.012 C 
ATOM     12  C   UNL     1     -22.599   3.727  12.447  1.00  0.00     0.012 C 
ENDBRANCH   6  10
TORSDOF 2
ENDMDL
MODEL 4
REMARK VINA RESULT:    -5.785      3.123      5.124
REMARK INTER + INTRA:          -6.676
REMARK INTER:                  -6.465
REMARK INTRA:                  -0.211
REMARK UNBOUND:                -0.216
REMARK SMILES CC(C)c1ccc(C(=O)[O-])cc1
REMARK SMILES IDX 7 1 6 2 11 3 5 4 12 5 4 6 8 7 9 8 10 9 2 10 1 11 3 12
REMARK H PARENT
REMARK Flexibility Score: inf
ROOT
ATOM      1  C   UNL     1     -26.839   6.607  12.132  1.00  0.00    -0.003 A 
ATOM      2  C   UNL     1     -25.526   6.682  11.633  1.00  0.00     0.010 A 
ATOM      3  C   UNL     1     -27.219   5.477  12.875  1.00  0.00     0.010 A 
ATOM      4  C   UNL     1     -24.616   5.649  11.871  1.00  0.00     0.004 A 
ATOM      5  C   UNL     1     -26.309   4.444  13.113  1.00  0.00     0.004 A 
ATOM      6  C   UNL     1     -24.996   4.518  12.613  1.00  0.00    -0.045 A 
ENDROOT
BRANCH   1   7
ATOM      7  C   UNL     1     -27.805   7.699  11.882  1.00  0.00     0.071 C 
ATOM      8  O   UNL     1     -27.452   8.903  11.981  1.00  0.00    -0.545 OA
ATOM      9  O   UNL     1     -29.120   7.408  11.533  1.00  0.00    -0.545 OA
ENDBRANCH   1   7
BRANCH   6  10
ATOM     10  C   UNL     1     -23.997   3.404  12.864  1.00  0.00     0.013 C 
ATOM     11  C   UNL     1     -24.417   2.114  12.149  1.00  0.00     0.012 C 
ATOM     12  C   UNL     1     -22.582   3.828  12.451  1.00  0.00     0.012 C 
ENDBRANCH   6  10
TORSDOF 2
ENDMDL
MODEL 5
REMARK VINA RESULT:    -5.693      3.121      5.040
REMARK INTER + INTRA:          -6.574
REMARK INTER:                  -6.359
REMARK INTRA:                  -0.215
REMARK UNBOUND:                -0.216
REMARK SMILES CC(C)c1ccc(C(=O)[O-])cc1
REMARK SMILES IDX 7 1 6 2 11 3 5 4 12 5 4 6 8 7 9 8 10 9 2 10 1 11 3 12
REMARK H PARENT
REMARK Flexibility Score: inf
ROOT
ATOM      1  C   UNL     1     -26.776   6.637  12.176  1.00  0.00    -0.003 A 
ATOM      2  C   UNL     1     -25.532   6.757  11.530  1.00  0.00     0.010 A 
ATOM      3  C   UNL     1     -27.094   5.429  12.818  1.00  0.00     0.010 A 
ATOM      4  C   UNL     1     -24.629   5.691  11.527  1.00  0.00     0.004 A 
ATOM      5  C   UNL     1     -26.190   4.363  12.815  1.00  0.00     0.004 A 
ATOM      6  C   UNL     1     -24.947   4.482  12.169  1.00  0.00    -0.045 A 
ENDROOT
BRANCH   1   7
ATOM      7  C   UNL     1     -27.735   7.763  12.182  1.00  0.00     0.071 C 
ATOM      8  O   UNL     1     -27.351   8.932  12.449  1.00  0.00    -0.545 OA
ATOM      9  O   UNL     1     -29.078   7.545  11.891  1.00  0.00    -0.545 OA
ENDBRANCH   1   7
BRANCH   6  10
ATOM     10  C   UNL     1     -23.955   3.333  12.157  1.00  0.00     0.013 C 
ATOM     11  C   UNL     1     -22.541   3.821  12.494  1.00  0.00     0.012 C 
ATOM     12  C   UNL     1     -24.395   2.215  13.110  1.00  0.00     0.012 C 
ENDBRANCH   6  10
TORSDOF 2
ENDMDL
MODEL 6
REMARK VINA RESULT:    -5.581      3.802      5.163
REMARK INTER + INTRA:          -6.449
REMARK INTER:                  -6.236
REMARK INTRA:                  -0.213
REMARK UNBOUND:                -0.216
REMARK SMILES CC(C)c1ccc(C(=O)[O-])cc1
REMARK SMILES IDX 7 1 6 2 11 3 5 4 12 5 4 6 8 7 9 8 10 9 2 10 1 11 3 12
REMARK H PARENT
REMARK Flexibility Score: inf
ROOT
ATOM      1  C   UNL     1     -24.827   6.432  14.873  1.00  0.00    -0.003 A 
ATOM      2  C   UNL     1     -23.496   6.277  14.444  1.00  0.00     0.010 A 
ATOM      3  C   UNL     1     -25.809   5.564  14.368  1.00  0.00     0.010 A 
ATOM      4  C   UNL     1     -23.157   5.275  13.531  1.00  0.00     0.004 A 
ATOM      5  C   UNL     1     -25.470   4.562  13.455  1.00  0.00     0.004 A 
ATOM      6  C   UNL     1     -24.139   4.406  13.025  1.00  0.00    -0.045 A 
ENDROOT
BRANCH   1   7
ATOM      7  C   UNL     1     -25.190   7.491  15.840  1.00  0.00     0.071 C 
ATOM      8  O   UNL     1     -25.520   7.197  17.019  1.00  0.00    -0.545 OA
ATOM      9  O   UNL     1     -25.169   8.829  15.459  1.00  0.00    -0.545 OA
ENDBRANCH   1   7
BRANCH   6  10
ATOM     10  C   UNL     1     -23.756   3.323  12.034  1.00  0.00     0.013 C 
ATOM     11  C   UNL     1     -22.282   2.929  12.188  1.00  0.00     0.012 C 
ATOM     12  C   UNL     1     -24.671   2.100  12.171  1.00  0.00     0.012 C 
ENDBRANCH   6  10
TORSDOF 2
ENDMDL
MODEL 7
REMARK VINA RESULT:    -5.340      3.320      5.020
REMARK INTER + INTRA:          -6.180
REMARK INTER:                  -5.967
REMARK INTRA:                  -0.213
REMARK UNBOUND:                -0.216
REMARK SMILES CC(C)c1ccc(C(=O)[O-])cc1
REMARK SMILES IDX 7 1 6 2 11 3 5 4 12 5 4 6 8 7 9 8 10 9 2 10 1 11 3 12
REMARK H PARENT
REMARK Flexibility Score: inf
ROOT
ATOM      1  C   UNL     1     -25.394   7.039  13.041  1.00  0.00    -0.003 A 
ATOM      2  C   UNL     1     -24.056   6.915  12.626  1.00  0.00     0.010 A 
ATOM      3  C   UNL     1     -26.209   5.896  13.058  1.00  0.00     0.010 A 
ATOM      4  C   UNL     1     -23.546   5.674  12.235  1.00  0.00     0.004 A 
ATOM      5  C   UNL     1     -25.699   4.654  12.667  1.00  0.00     0.004 A 
ATOM      6  C   UNL     1     -24.361   4.530  12.251  1.00  0.00    -0.045 A 
ENDROOT
BRANCH   1   7
ATOM      7  C   UNL     1     -25.937   8.352  13.456  1.00  0.00     0.071 C 
ATOM      8  O   UNL     1     -26.853   8.905  12.794  1.00  0.00    -0.545 OA
ATOM      9  O   UNL     1     -25.441   8.992  14.587  1.00  0.00    -0.545 OA
ENDBRANCH   1   7
BRANCH   6  10
ATOM     10  C   UNL     1     -23.794   3.189  11.823  1.00  0.00     0.013 C 
ATOM     11  C   UNL     1     -22.364   3.002  12.346  1.00  0.00     0.012 C 
ATOM     12  C   UNL     1     -24.701   2.037  12.273  1.00  0.00     0.012 C 
ENDBRANCH   6  10
TORSDOF 2
ENDMDL
MODEL 8
REMARK VINA RESULT:    -5.251      3.511      5.383
REMARK INTER + INTRA:          -6.081
REMARK INTER:                  -5.868
REMARK INTRA:                  -0.213
REMARK UNBOUND:                -0.216
REMARK SMILES CC(C)c1ccc(C(=O)[O-])cc1
REMARK SMILES IDX 7 1 6 2 11 3 5 4 12 5 4 6 8 7 9 8 10 9 2 10 1 11 3 12
REMARK H PARENT
REMARK Flexibility Score: inf
ROOT
ATOM      1  C   UNL     1     -25.103   6.757  13.793  1.00  0.00    -0.003 A 
ATOM      2  C   UNL     1     -26.049   5.723  13.675  1.00  0.00     0.010 A 
ATOM      3  C   UNL     1     -23.744   6.460  13.599  1.00  0.00     0.010 A 
ATOM      4  C   UNL     1     -25.643   4.422  13.370  1.00  0.00     0.004 A 
ATOM      5  C   UNL     1     -23.338   5.158  13.294  1.00  0.00     0.004 A 
ATOM      6  C   UNL     1     -24.283   4.124  13.176  1.00  0.00    -0.045 A 
ENDROOT
BRANCH   1   7
ATOM      7  C   UNL     1     -25.529   8.137  14.115  1.00  0.00     0.071 C 
ATOM      8  O   UNL     1     -25.257   8.648  15.234  1.00  0.00    -0.545 OA
ATOM      9  O   UNL     1     -26.236   8.891  13.184  1.00  0.00    -0.545 OA
ENDBRANCH   1   7
BRANCH   6  10
ATOM     10  C   UNL     1     -23.858   2.705  12.846  1.00  0.00     0.013 C 
ATOM     11  C   UNL     1     -24.870   2.027  11.914  1.00  0.00     0.012 C 
ATOM     12  C   UNL     1     -22.448   2.678  12.242  1.00  0.00     0.012 C 
ENDBRANCH   6  10
TORSDOF 2
ENDMDL
