MODEL 1
REMARK VINA RESULT:    -8.201      0.000      0.000
REMARK INTER + INTRA:          -9.327
REMARK INTER:                  -9.639
REMARK INTRA:                   0.312
REMARK UNBOUND:                 0.312
REMARK SMILES O=c1c(O)c(-c2ccc(O)cc2)oc2cc(O)cc(O)c12
REMARK SMILES IDX 5 1 3 2 2 3 1 4 21 5 19 6 18 7 16 8 15 9 14 10 13 11 6 12
REMARK SMILES IDX 7 13 8 14 9 15 12 16 11 17 10 18 4 20 20 22 17 24
REMARK H PARENT 10 19 4 21 20 23 17 25
REMARK Flexibility Score: inf
ROOT
ATOM      1  C   UNL     1     -24.088 -18.653 -13.716  1.00  0.00     0.180 A 
ATOM      2  C   UNL     1     -25.200 -18.040 -14.319  1.00  0.00     0.208 A 
ATOM      3  C   UNL     1     -25.111 -16.693 -14.703  1.00  0.00     0.238 A 
ATOM      4  O   UNL     1     -26.128 -16.135 -15.193  1.00  0.00    -0.285 OA
ATOM      5  C   UNL     1     -23.906 -15.980 -14.496  1.00  0.00     0.111 A 
ATOM      6  C   UNL     1     -23.689 -14.624 -14.884  1.00  0.00     0.134 A 
ATOM      7  C   UNL     1     -22.503 -13.980 -14.511  1.00  0.00     0.093 A 
ATOM      8  C   UNL     1     -21.498 -14.663 -13.822  1.00  0.00     0.123 A 
ATOM      9  C   UNL     1     -21.675 -16.005 -13.492  1.00  0.00     0.094 A 
ATOM     10  C   UNL     1     -22.863 -16.663 -13.818  1.00  0.00     0.146 A 
ATOM     11  O   UNL     1     -22.995 -17.939 -13.475  1.00  0.00    -0.452 OA
ENDROOT
BRANCH   1  12
ATOM     12  C   UNL     1     -24.099 -20.075 -13.306  1.00  0.00     0.021 A 
ATOM     13  C   UNL     1     -25.287 -20.715 -12.905  1.00  0.00     0.016 A 
ATOM     14  C   UNL     1     -25.275 -22.066 -12.545  1.00  0.00     0.047 A 
ATOM     15  C   UNL     1     -24.082 -22.799 -12.596  1.00  0.00     0.115 A 
ATOM     16  C   UNL     1     -22.912 -20.824 -13.374  1.00  0.00     0.016 A 
ATOM     17  C   UNL     1     -22.904 -22.175 -13.013  1.00  0.00     0.047 A 
BRANCH  15  18
ATOM     18  O   UNL     1     -24.060 -24.145 -12.239  1.00  0.00    -0.508 OA
ATOM     19  H   UNL     1     -24.568 -24.487 -11.432  1.00  0.00     0.293 HD
ENDBRANCH  15  18
ENDBRANCH   1  12
BRANCH   2  20
ATOM     20  O   UNL     1     -26.388 -18.757 -14.495  1.00  0.00    -0.502 OA
ATOM     21  H   UNL     1     -27.295 -18.306 -14.531  1.00  0.00     0.293 HD
ENDBRANCH   2  20
BRANCH   6  22
ATOM     22  O   UNL     1     -24.588 -13.879 -15.653  1.00  0.00    -0.507 OA
ATOM     23  H   UNL     1     -25.430 -13.450 -15.298  1.00  0.00     0.293 HD
ENDBRANCH   6  22
BRANCH   8  24
ATOM     24  O   UNL     1     -20.314 -14.019 -13.469  1.00  0.00    -0.508 OA
ATOM     25  H   UNL     1     -20.318 -13.157 -12.937  1.00  0.00     0.293 HD
ENDBRANCH   8  24
TORSDOF 5
ENDMDL
MODEL 2
REMARK VINA RESULT:    -7.791      1.652      7.392
REMARK INTER + INTRA:          -8.845
REMARK INTER:                  -9.063
REMARK INTRA:                   0.218
REMARK UNBOUND:                 0.312
REMARK SMILES O=c1c(O)c(-c2ccc(O)cc2)oc2cc(O)cc(O)c12
REMARK SMILES IDX 5 1 3 2 2 3 1 4 21 5 19 6 18 7 16 8 15 9 14 10 13 11 6 12
REMARK SMILES IDX 7 13 8 14 9 15 12 16 11 17 10 18 4 20 20 22 17 24
REMARK H PARENT 10 19 4 21 20 23 17 25
REMARK Flexibility Score: inf
ROOT
ATOM      1  C   UNL     1     -24.392 -19.383 -13.478  1.00  0.00     0.180 A 
ATOM      2  C   UNL     1     -23.267 -20.222 -13.555  1.00  0.00     0.208 A 
ATOM      3  C   UNL     1     -23.410 -21.584 -13.244  1.00  0.00     0.238 A 
ATOM      4  O   UNL     1     -22.388 -22.318 -13.263  1.00  0.00    -0.285 OA
ATOM      5  C   UNL     1     -24.679 -22.092 -12.877  1.00  0.00     0.111 A 
ATOM      6  C   UNL     1     -24.948 -23.462 -12.582  1.00  0.00     0.134 A 
ATOM      7  C   UNL     1     -26.211 -23.830 -12.102  1.00  0.00     0.093 A 
ATOM      8  C   UNL     1     -27.235 -22.888 -11.970  1.00  0.00     0.123 A 
ATOM      9  C   UNL     1     -26.999 -21.559 -12.314  1.00  0.00     0.094 A 
ATOM     10  C   UNL     1     -25.739 -21.155 -12.760  1.00  0.00     0.146 A 
ATOM     11  O   UNL     1     -25.554 -19.876 -13.066  1.00  0.00    -0.452 OA
ENDROOT
BRANCH   1  12
ATOM     12  C   UNL     1     -24.325 -17.942 -13.814  1.00  0.00     0.021 A 
ATOM     13  C   UNL     1     -23.202 -17.162 -13.480  1.00  0.00     0.016 A 
ATOM     14  C   UNL     1     -23.151 -15.809 -13.830  1.00  0.00     0.047 A 
ATOM     15  C   UNL     1     -24.214 -15.222 -14.529  1.00  0.00     0.115 A 
ATOM     16  C   UNL     1     -25.376 -17.350 -14.533  1.00  0.00     0.016 A 
ATOM     17  C   UNL     1     -25.322 -15.996 -14.881  1.00  0.00     0.047 A 
BRANCH  15  18
ATOM     18  O   UNL     1     -24.174 -13.875 -14.881  1.00  0.00    -0.508 OA
ATOM     19  H   UNL     1     -24.626 -13.166 -14.315  1.00  0.00     0.293 HD
ENDBRANCH  15  18
ENDBRANCH   1  12
BRANCH   2  20
ATOM     20  O   UNL     1     -22.019 -19.694 -13.899  1.00  0.00    -0.502 OA
ATOM     21  H   UNL     1     -21.678 -19.683 -14.853  1.00  0.00     0.293 HD
ENDBRANCH   2  20
BRANCH   6  22
ATOM     22  O   UNL     1     -24.026 -24.496 -12.765  1.00  0.00    -0.507 OA
ATOM     23  H   UNL     1     -23.885 -25.262 -12.124  1.00  0.00     0.293 HD
ENDBRANCH   6  22
BRANCH   8  24
ATOM     24  O   UNL     1     -28.494 -23.265 -11.508  1.00  0.00    -0.508 OA
ATOM     25  H   UNL     1     -28.775 -24.238 -11.472  1.00  0.00     0.293 HD
ENDBRANCH   8  24
TORSDOF 5
ENDMDL
MODEL 3
REMARK VINA RESULT:    -7.780      2.064      7.213
REMARK INTER + INTRA:          -8.833
REMARK INTER:                  -8.567
REMARK INTRA:                  -0.266
REMARK UNBOUND:                 0.312
REMARK SMILES O=c1c(O)c(-c2ccc(O)cc2)oc2cc(O)cc(O)c12
REMARK SMILES IDX 5 1 3 2 2 3 1 4 21 5 19 6 18 7 16 8 15 9 14 10 13 11 6 12
REMARK SMILES IDX 7 13 8 14 9 15 12 16 11 17 10 18 4 20 20 22 17 24
REMARK H PARENT 10 19 4 21 20 23 17 25
REMARK Flexibility Score: inf
ROOT
ATOM      1  C   UNL     1     -25.226 -19.390 -13.578  1.00  0.00     0.180 A 
ATOM      2  C   UNL     1     -26.047 -19.662 -12.470  1.00  0.00     0.208 A 
ATOM      3  C   UNL     1     -26.406 -20.992 -12.198  1.00  0.00     0.238 A 
ATOM      4  O   UNL     1     -27.186 -21.223 -11.237  1.00  0.00    -0.285 OA
ATOM      5  C   UNL     1     -25.926 -22.034 -13.027  1.00  0.00     0.111 A 
ATOM      6  C   UNL     1     -26.192 -23.421 -12.821  1.00  0.00     0.134 A 
ATOM      7  C   UNL     1     -25.774 -24.354 -13.778  1.00  0.00     0.093 A 
ATOM      8  C   UNL     1     -25.042 -23.957 -14.900  1.00  0.00     0.123 A 
ATOM      9  C   UNL     1     -24.725 -22.613 -15.078  1.00  0.00     0.094 A 
ATOM     10  C   UNL     1     -25.160 -21.654 -14.160  1.00  0.00     0.146 A 
ATOM     11  O   UNL     1     -24.845 -20.382 -14.374  1.00  0.00    -0.452 OA
ENDROOT
BRANCH   1  12
ATOM     12  C   UNL     1     -24.786 -18.017 -13.913  1.00  0.00     0.021 A 
ATOM     13  C   UNL     1     -23.501 -17.554 -13.573  1.00  0.00     0.016 A 
ATOM     14  C   UNL     1     -23.100 -16.261 -13.922  1.00  0.00     0.047 A 
ATOM     15  C   UNL     1     -23.969 -15.419 -14.628  1.00  0.00     0.115 A 
ATOM     16  C   UNL     1     -25.643 -17.174 -14.640  1.00  0.00     0.016 A 
ATOM     17  C   UNL     1     -25.239 -15.881 -14.988  1.00  0.00     0.047 A 
BRANCH  15  18
ATOM     18  O   UNL     1     -23.580 -14.130 -14.980  1.00  0.00    -0.508 OA
ATOM     19  H   UNL     1     -22.964 -13.583 -14.390  1.00  0.00     0.293 HD
ENDBRANCH  15  18
ENDBRANCH   1  12
BRANCH   2  20
ATOM     20  O   UNL     1     -26.528 -18.615 -11.678  1.00  0.00    -0.502 OA
ATOM     21  H   UNL     1     -27.214 -17.949 -12.015  1.00  0.00     0.293 HD
ENDBRANCH   2  20
BRANCH   6  22
ATOM     22  O   UNL     1     -26.834 -23.933 -11.690  1.00  0.00    -0.507 OA
ATOM     23  H   UNL     1     -26.487 -23.850 -10.745  1.00  0.00     0.293 HD
ENDBRANCH   6  22
BRANCH   8  24
ATOM     24  O   UNL     1     -24.617 -24.894 -15.839  1.00  0.00    -0.508 OA
ATOM     25  H   UNL     1     -24.359 -24.622 -16.780  1.00  0.00     0.293 HD
ENDBRANCH   8  24
TORSDOF 5
ENDMDL
MODEL 4
REMARK VINA RESULT:    -7.620      2.345      7.881
REMARK INTER + INTRA:          -8.644
REMARK INTER:                  -9.016
REMARK INTRA:                   0.371
REMARK UNBOUND:                 0.312
REMARK SMILES O=c1c(O)c(-c2ccc(O)cc2)oc2cc(O)cc(O)c12
REMARK SMILES IDX 5 1 3 2 2 3 1 4 21 5 19 6 18 7 16 8 15 9 14 10 13 11 6 12
REMARK SMILES IDX 7 13 8 14 9 15 12 16 11 17 10 18 4 20 20 22 17 24
REMARK H PARENT 10 19 4 21 20 23 17 25
REMARK Flexibility Score: inf
ROOT
ATOM      1  C   UNL     1     -24.423 -20.749 -13.985  1.00  0.00     0.180 A 
ATOM      2  C   UNL     1     -23.332 -21.457 -13.451  1.00  0.00     0.208 A 
ATOM      3  C   UNL     1     -23.366 -22.861 -13.449  1.00  0.00     0.238 A 
ATOM      4  O   UNL     1     -22.410 -23.487 -12.921  1.00  0.00    -0.285 OA
ATOM      5  C   UNL     1     -24.481 -23.538 -13.997  1.00  0.00     0.111 A 
ATOM      6  C   UNL     1     -24.603 -24.958 -14.085  1.00  0.00     0.134 A 
ATOM      7  C   UNL     1     -25.807 -25.521 -14.526  1.00  0.00     0.093 A 
ATOM      8  C   UNL     1     -26.869 -24.716 -14.944  1.00  0.00     0.123 A 
ATOM      9  C   UNL     1     -26.737 -23.329 -14.918  1.00  0.00     0.094 A 
ATOM     10  C   UNL     1     -25.562 -22.738 -14.449  1.00  0.00     0.146 A 
ATOM     11  O   UNL     1     -25.483 -21.413 -14.431  1.00  0.00    -0.452 OA
ENDROOT
BRANCH   1  12
ATOM     12  C   UNL     1     -24.449 -19.270 -14.044  1.00  0.00     0.021 A 
ATOM     13  C   UNL     1     -23.263 -18.512 -14.008  1.00  0.00     0.016 A 
ATOM     14  C   UNL     1     -23.312 -17.118 -14.090  1.00  0.00     0.047 A 
ATOM     15  C   UNL     1     -24.544 -16.462 -14.223  1.00  0.00     0.115 A 
ATOM     16  C   UNL     1     -25.677 -18.605 -14.199  1.00  0.00     0.016 A 
ATOM     17  C   UNL     1     -25.723 -17.210 -14.280  1.00  0.00     0.047 A 
BRANCH  15  18
ATOM     18  O   UNL     1     -24.604 -15.073 -14.304  1.00  0.00    -0.508 OA
ATOM     19  H   UNL     1     -24.708 -14.599 -15.194  1.00  0.00     0.293 HD
ENDBRANCH  15  18
ENDBRANCH   1  12
BRANCH   2  20
ATOM     20  O   UNL     1     -22.250 -20.766 -12.896  1.00  0.00    -0.502 OA
ATOM     21  H   UNL     1     -21.541 -21.226 -12.337  1.00  0.00     0.293 HD
ENDBRANCH   2  20
BRANCH   6  22
ATOM     22  O   UNL     1     -23.571 -25.850 -13.781  1.00  0.00    -0.507 OA
ATOM     23  H   UNL     1     -23.127 -26.465 -14.447  1.00  0.00     0.293 HD
ENDBRANCH   6  22
BRANCH   8  24
ATOM     24  O   UNL     1     -28.058 -25.285 -15.396  1.00  0.00    -0.508 OA
ATOM     25  H   UNL     1     -28.835 -25.457 -14.769  1.00  0.00     0.293 HD
ENDBRANCH   8  24
TORSDOF 5
ENDMDL
MODEL 5
REMARK VINA RESULT:    -7.161      1.179      1.442
REMARK INTER + INTRA:          -8.105
REMARK INTER:                  -8.089
REMARK INTRA:                  -0.016
REMARK UNBOUND:                 0.312
REMARK SMILES O=c1c(O)c(-c2ccc(O)cc2)oc2cc(O)cc(O)c12
REMARK SMILES IDX 5 1 3 2 2 3 1 4 21 5 19 6 18 7 16 8 15 9 14 10 13 11 6 12
REMARK SMILES IDX 7 13 8 14 9 15 12 16 11 17 10 18 4 20 20 22 17 24
REMARK H PARENT 10 19 4 21 20 23 17 25
REMARK Flexibility Score: inf
ROOT
ATOM      1  C   UNL     1     -24.148 -19.699 -13.768  1.00  0.00     0.180 A 
ATOM      2  C   UNL     1     -25.401 -19.112 -14.018  1.00  0.00     0.208 A 
ATOM      3  C   UNL     1     -25.477 -17.724 -14.210  1.00  0.00     0.238 A 
ATOM      4  O   UNL     1     -26.608 -17.198 -14.380  1.00  0.00    -0.285 OA
ATOM      5  C   UNL     1     -24.298 -16.942 -14.166  1.00  0.00     0.111 A 
ATOM      6  C   UNL     1     -24.252 -15.532 -14.388  1.00  0.00     0.134 A 
ATOM      7  C   UNL     1     -23.050 -14.841 -14.190  1.00  0.00     0.093 A 
ATOM      8  C   UNL     1     -21.878 -15.518 -13.844  1.00  0.00     0.123 A 
ATOM      9  C   UNL     1     -21.900 -16.902 -13.685  1.00  0.00     0.094 A 
ATOM     10  C   UNL     1     -23.091 -17.614 -13.839  1.00  0.00     0.146 A 
ATOM     11  O   UNL     1     -23.070 -18.930 -13.668  1.00  0.00    -0.452 OA
ENDROOT
BRANCH   1  12
ATOM     12  C   UNL     1     -23.986 -21.159 -13.580  1.00  0.00     0.021 A 
ATOM     13  C   UNL     1     -23.418 -21.689 -12.407  1.00  0.00     0.016 A 
ATOM     14  C   UNL     1     -23.297 -23.072 -12.242  1.00  0.00     0.047 A 
ATOM     15  C   UNL     1     -23.754 -23.943 -13.240  1.00  0.00     0.115 A 
ATOM     16  C   UNL     1     -24.461 -22.040 -14.565  1.00  0.00     0.016 A 
ATOM     17  C   UNL     1     -24.338 -23.423 -14.398  1.00  0.00     0.047 A 
BRANCH  15  18
ATOM     18  O   UNL     1     -23.638 -25.322 -13.086  1.00  0.00    -0.508 OA
ATOM     19  H   UNL     1     -23.687 -25.949 -13.881  1.00  0.00     0.293 HD
ENDBRANCH  15  18
ENDBRANCH   1  12
BRANCH   2  20
ATOM     20  O   UNL     1     -26.555 -19.901 -14.036  1.00  0.00    -0.502 OA
ATOM     21  H   UNL     1     -27.158 -19.964 -14.847  1.00  0.00     0.293 HD
ENDBRANCH   2  20
BRANCH   6  22
ATOM     22  O   UNL     1     -25.342 -14.775 -14.824  1.00  0.00    -0.507 OA
ATOM     23  H   UNL     1     -25.714 -14.790 -15.762  1.00  0.00     0.293 HD
ENDBRANCH   6  22
BRANCH   8  24
ATOM     24  O   UNL     1     -20.682 -14.825 -13.666  1.00  0.00    -0.508 OA
ATOM     25  H   UNL     1     -20.672 -13.849 -13.393  1.00  0.00     0.293 HD
ENDBRANCH   8  24
TORSDOF 5
ENDMDL
MODEL 6
REMARK VINA RESULT:    -7.030      2.138      6.244
REMARK INTER + INTRA:          -7.952
REMARK INTER:                  -8.077
REMARK INTRA:                   0.125
REMARK UNBOUND:                 0.312
REMARK SMILES O=c1c(O)c(-c2ccc(O)cc2)oc2cc(O)cc(O)c12
REMARK SMILES IDX 5 1 3 2 2 3 1 4 21 5 19 6 18 7 16 8 15 9 14 10 13 11 6 12
REMARK SMILES IDX 7 13 8 14 9 15 12 16 11 17 10 18 4 20 20 22 17 24
REMARK H PARENT 10 19 4 21 20 23 17 25
REMARK Flexibility Score: inf
ROOT
ATOM      1  C   UNL     1     -21.751 -15.806 -13.730  1.00  0.00     0.180 A 
ATOM      2  C   UNL     1     -22.472 -14.985 -14.615  1.00  0.00     0.208 A 
ATOM      3  C   UNL     1     -23.799 -15.321 -14.928  1.00  0.00     0.238 A 
ATOM      4  O   UNL     1     -24.420 -14.613 -15.763  1.00  0.00    -0.285 OA
ATOM      5  C   UNL     1     -24.394 -16.461 -14.338  1.00  0.00     0.111 A 
ATOM      6  C   UNL     1     -25.744 -16.872 -14.550  1.00  0.00     0.134 A 
ATOM      7  C   UNL     1     -26.188 -18.089 -14.019  1.00  0.00     0.093 A 
ATOM      8  C   UNL     1     -25.349 -18.879 -13.227  1.00  0.00     0.123 A 
ATOM      9  C   UNL     1     -24.048 -18.456 -12.965  1.00  0.00     0.094 A 
ATOM     10  C   UNL     1     -23.566 -17.265 -13.511  1.00  0.00     0.146 A 
ATOM     11  O   UNL     1     -22.316 -16.905 -13.245  1.00  0.00    -0.452 OA
ENDROOT
BRANCH   1  12
ATOM     12  C   UNL     1     -20.357 -15.503 -13.335  1.00  0.00     0.021 A 
ATOM     13  C   UNL     1     -19.357 -16.494 -13.353  1.00  0.00     0.016 A 
ATOM     14  C   UNL     1     -18.042 -16.178 -12.999  1.00  0.00     0.047 A 
ATOM     15  C   UNL     1     -17.705 -14.868 -12.635  1.00  0.00     0.115 A 
ATOM     16  C   UNL     1     -20.006 -14.188 -12.989  1.00  0.00     0.016 A 
ATOM     17  C   UNL     1     -18.689 -13.875 -12.634  1.00  0.00     0.047 A 
BRANCH  15  18
ATOM     18  O   UNL     1     -16.399 -14.542 -12.279  1.00  0.00    -0.508 OA
ATOM     19  H   UNL     1     -15.687 -15.256 -12.170  1.00  0.00     0.293 HD
ENDBRANCH  15  18
ENDBRANCH   1  12
BRANCH   2  20
ATOM     20  O   UNL     1     -21.857 -13.876 -15.203  1.00  0.00    -0.502 OA
ATOM     21  H   UNL     1     -20.947 -13.540 -14.911  1.00  0.00     0.293 HD
ENDBRANCH   2  20
BRANCH   6  22
ATOM     22  O   UNL     1     -26.690 -16.114 -15.246  1.00  0.00    -0.507 OA
ATOM     23  H   UNL     1     -27.335 -15.466 -14.819  1.00  0.00     0.293 HD
ENDBRANCH   6  22
BRANCH   8  24
ATOM     24  O   UNL     1     -25.803 -20.081 -12.689  1.00  0.00    -0.508 OA
ATOM     25  H   UNL     1     -25.192 -20.687 -12.155  1.00  0.00     0.293 HD
ENDBRANCH   8  24
TORSDOF 5
ENDMDL
MODEL 7
REMARK VINA RESULT:    -6.632      1.791      3.216
REMARK INTER + INTRA:          -7.484
REMARK INTER:                  -7.235
REMARK INTRA:                  -0.249
REMARK UNBOUND:                 0.312
REMARK SMILES O=c1c(O)c(-c2ccc(O)cc2)oc2cc(O)cc(O)c12
REMARK SMILES IDX 5 1 3 2 2 3 1 4 21 5 19 6 18 7 16 8 15 9 14 10 13 11 6 12
REMARK SMILES IDX 7 13 8 14 9 15 12 16 11 17 10 18 4 20 20 22 17 24
REMARK H PARENT 10 19 4 21 20 23 17 25
REMARK Flexibility Score: inf
ROOT
ATOM      1  C   UNL     1     -24.622 -19.557 -14.092  1.00  0.00     0.180 A 
ATOM      2  C   UNL     1     -23.259 -19.398 -13.787  1.00  0.00     0.208 A 
ATOM      3  C   UNL     1     -22.712 -18.105 -13.767  1.00  0.00     0.238 A 
ATOM      4  O   UNL     1     -21.479 -17.974 -13.547  1.00  0.00    -0.285 OA
ATOM      5  C   UNL     1     -23.538 -16.987 -14.033  1.00  0.00     0.111 A 
ATOM      6  C   UNL     1     -23.099 -15.629 -13.998  1.00  0.00     0.134 A 
ATOM      7  C   UNL     1     -23.970 -14.612 -14.407  1.00  0.00     0.093 A 
ATOM      8  C   UNL     1     -25.285 -14.897 -14.786  1.00  0.00     0.123 A 
ATOM      9  C   UNL     1     -25.740 -16.213 -14.764  1.00  0.00     0.094 A 
ATOM     10  C   UNL     1     -24.884 -17.253 -14.397  1.00  0.00     0.146 A 
ATOM     11  O   UNL     1     -25.355 -18.494 -14.402  1.00  0.00    -0.452 OA
ENDROOT
BRANCH   1  12
ATOM     12  C   UNL     1     -25.275 -20.886 -14.109  1.00  0.00     0.021 A 
ATOM     13  C   UNL     1     -26.097 -21.313 -13.050  1.00  0.00     0.016 A 
ATOM     14  C   UNL     1     -26.723 -22.563 -13.101  1.00  0.00     0.047 A 
ATOM     15  C   UNL     1     -26.548 -23.394 -14.215  1.00  0.00     0.115 A 
ATOM     16  C   UNL     1     -25.122 -21.717 -15.231  1.00  0.00     0.016 A 
ATOM     17  C   UNL     1     -25.749 -22.966 -15.279  1.00  0.00     0.047 A 
BRANCH  15  18
ATOM     18  O   UNL     1     -27.165 -24.641 -14.275  1.00  0.00    -0.508 OA
ATOM     19  H   UNL     1     -28.157 -24.749 -14.096  1.00  0.00     0.293 HD
ENDBRANCH  15  18
ENDBRANCH   1  12
BRANCH   2  20
ATOM     20  O   UNL     1     -22.457 -20.518 -13.549  1.00  0.00    -0.502 OA
ATOM     21  H   UNL     1     -22.611 -21.139 -12.763  1.00  0.00     0.293 HD
ENDBRANCH   2  20
BRANCH   6  22
ATOM     22  O   UNL     1     -21.838 -15.228 -13.549  1.00  0.00    -0.507 OA
ATOM     23  H   UNL     1     -21.498 -15.349 -12.606  1.00  0.00     0.293 HD
ENDBRANCH   6  22
BRANCH   8  24
ATOM     24  O   UNL     1     -26.149 -13.876 -15.175  1.00  0.00    -0.508 OA
ATOM     25  H   UNL     1     -25.808 -12.947 -15.395  1.00  0.00     0.293 HD
ENDBRANCH   8  24
TORSDOF 5
ENDMDL
MODEL 8
REMARK VINA RESULT:    -6.406      3.290      5.103
REMARK INTER + INTRA:          -7.218
REMARK INTER:                  -6.922
REMARK INTRA:                  -0.296
REMARK UNBOUND:                 0.312
REMARK SMILES O=c1c(O)c(-c2ccc(O)cc2)oc2cc(O)cc(O)c12
REMARK SMILES IDX 5 1 3 2 2 3 1 4 21 5 19 6 18 7 16 8 15 9 14 10 13 11 6 12
REMARK SMILES IDX 7 13 8 14 9 15 12 16 11 17 10 18 4 20 20 22 17 24
REMARK H PARENT 10 19 4 21 20 23 17 25
REMARK Flexibility Score: inf
ROOT
ATOM      1  C   UNL     1     -25.773 -21.880 -13.849  1.00  0.00     0.180 A 
ATOM      2  C   UNL     1     -25.201 -20.882 -14.657  1.00  0.00     0.208 A 
ATOM      3  C   UNL     1     -24.887 -19.639 -14.085  1.00  0.00     0.238 A 
ATOM      4  O   UNL     1     -24.425 -18.732 -14.826  1.00  0.00    -0.285 OA
ATOM      5  C   UNL     1     -25.132 -19.415 -12.709  1.00  0.00     0.111 A 
ATOM      6  C   UNL     1     -24.815 -18.209 -12.015  1.00  0.00     0.134 A 
ATOM      7  C   UNL     1     -25.222 -18.050 -10.685  1.00  0.00     0.093 A 
ATOM      8  C   UNL     1     -25.876 -19.080 -10.003  1.00  0.00     0.123 A 
ATOM      9  C   UNL     1     -26.136 -20.283 -10.654  1.00  0.00     0.094 A 
ATOM     10  C   UNL     1     -25.775 -20.458 -11.992  1.00  0.00     0.146 A 
ATOM     11  O   UNL     1     -26.052 -21.617 -12.578  1.00  0.00    -0.452 OA
ENDROOT
BRANCH   1  12
ATOM     12  C   UNL     1     -26.109 -23.222 -14.375  1.00  0.00     0.021 A 
ATOM     13  C   UNL     1     -25.151 -24.252 -14.424  1.00  0.00     0.016 A 
ATOM     14  C   UNL     1     -25.499 -25.519 -14.902  1.00  0.00     0.047 A 
ATOM     15  C   UNL     1     -26.810 -25.778 -15.323  1.00  0.00     0.115 A 
ATOM     16  C   UNL     1     -27.426 -23.497 -14.779  1.00  0.00     0.016 A 
ATOM     17  C   UNL     1     -27.771 -24.766 -15.257  1.00  0.00     0.047 A 
BRANCH  15  18
ATOM     18  O   UNL     1     -27.166 -27.036 -15.802  1.00  0.00    -0.508 OA
ATOM     19  H   UNL     1     -26.638 -27.493 -16.537  1.00  0.00     0.293 HD
ENDBRANCH  15  18
ENDBRANCH   1  12
BRANCH   2  20
ATOM     20  O   UNL     1     -24.987 -21.117 -16.019  1.00  0.00    -0.502 OA
ATOM     21  H   UNL     1     -24.117 -20.883 -16.481  1.00  0.00     0.293 HD
ENDBRANCH   2  20
BRANCH   6  22
ATOM     22  O   UNL     1     -24.085 -17.156 -12.574  1.00  0.00    -0.507 OA
ATOM     23  H   UNL     1     -23.942 -16.259 -12.135  1.00  0.00     0.293 HD
ENDBRANCH   6  22
BRANCH   8  24
ATOM     24  O   UNL     1     -26.263 -18.919  -8.674  1.00  0.00    -0.508 OA
ATOM     25  H   UNL     1     -27.191 -18.594  -8.428  1.00  0.00     0.293 HD
ENDBRANCH   8  24
TORSDOF 5
ENDMDL
MODEL 9
REMARK VINA RESULT:    -6.068      2.992      4.837
REMARK INTER + INTRA:          -6.820
REMARK INTER:                  -6.612
REMARK INTRA:                  -0.208
REMARK UNBOUND:                 0.312
REMARK SMILES O=c1c(O)c(-c2ccc(O)cc2)oc2cc(O)cc(O)c12
REMARK SMILES IDX 5 1 3 2 2 3 1 4 21 5 19 6 18 7 16 8 15 9 14 10 13 11 6 12
REMARK SMILES IDX 7 13 8 14 9 15 12 16 11 17 10 18 4 20 20 22 17 24
REMARK H PARENT 10 19 4 21 20 23 17 25
REMARK Flexibility Score: inf
ROOT
ATOM      1  C   UNL     1     -25.787 -22.135 -13.574  1.00  0.00     0.180 A 
ATOM      2  C   UNL     1     -26.214 -21.952 -12.247  1.00  0.00     0.208 A 
ATOM      3  C   UNL     1     -25.976 -20.720 -11.618  1.00  0.00     0.238 A 
ATOM      4  O   UNL     1     -26.312 -20.582 -10.413  1.00  0.00    -0.285 OA
ATOM      5  C   UNL     1     -25.331 -19.680 -12.329  1.00  0.00     0.111 A 
ATOM      6  C   UNL     1     -25.076 -18.377 -11.804  1.00  0.00     0.134 A 
ATOM      7  C   UNL     1     -24.314 -17.469 -12.550  1.00  0.00     0.093 A 
ATOM      8  C   UNL     1     -23.854 -17.794 -13.829  1.00  0.00     0.123 A 
ATOM      9  C   UNL     1     -24.150 -19.042 -14.374  1.00  0.00     0.094 A 
ATOM     10  C   UNL     1     -24.876 -19.981 -13.639  1.00  0.00     0.146 A 
ATOM     11  O   UNL     1     -25.126 -21.163 -14.191  1.00  0.00    -0.452 OA
ENDROOT
BRANCH   1  12
ATOM     12  C   UNL     1     -26.023 -23.397 -14.311  1.00  0.00     0.021 A 
ATOM     13  C   UNL     1     -24.982 -24.313 -14.551  1.00  0.00     0.016 A 
ATOM     14  C   UNL     1     -25.235 -25.509 -15.228  1.00  0.00     0.047 A 
ATOM     15  C   UNL     1     -26.533 -25.814 -15.661  1.00  0.00     0.115 A 
ATOM     16  C   UNL     1     -27.325 -23.720 -14.730  1.00  0.00     0.016 A 
ATOM     17  C   UNL     1     -27.575 -24.918 -15.407  1.00  0.00     0.047 A 
BRANCH  15  18
ATOM     18  O   UNL     1     -26.796 -27.002 -16.337  1.00  0.00    -0.508 OA
ATOM     19  H   UNL     1     -26.282 -27.852 -16.132  1.00  0.00     0.293 HD
ENDBRANCH  15  18
ENDBRANCH   1  12
BRANCH   2  20
ATOM     20  O   UNL     1     -26.830 -23.000 -11.557  1.00  0.00    -0.502 OA
ATOM     21  H   UNL     1     -27.331 -22.859 -10.688  1.00  0.00     0.293 HD
ENDBRANCH   2  20
BRANCH   6  22
ATOM     22  O   UNL     1     -25.567 -17.919 -10.579  1.00  0.00    -0.507 OA
ATOM     23  H   UNL     1     -25.277 -18.267  -9.677  1.00  0.00     0.293 HD
ENDBRANCH   6  22
BRANCH   8  24
ATOM     24  O   UNL     1     -23.110 -16.879 -14.571  1.00  0.00    -0.508 OA
ATOM     25  H   UNL     1     -22.167 -17.087 -14.877  1.00  0.00     0.293 HD
ENDBRANCH   8  24
TORSDOF 5
ENDMDL
