MODEL 1
REMARK VINA RESULT:    -3.047      0.000      0.000
REMARK INTER + INTRA:         -11.500
REMARK INTER:                  -7.677
REMARK INTRA:                  -3.822
REMARK UNBOUND:                -3.822
REMARK SMILES CCCCCCCCCCCCCCCCCCCCCCCCCCCC(=O)[O-]
REMARK SMILES IDX 15 1 16 2 17 3 18 4 19 5 20 6 21 7 22 8 23 9 24 10 25 11
REMARK SMILES IDX 26 12 27 13 28 14 29 15 30 16 14 17 13 18 12 19 11 20 10 21
REMARK SMILES IDX 9 22 8 23 7 24 6 25 5 26 4 27 3 28 2 29 1 30
REMARK H PARENT
REMARK Flexibility Score: inf
ROOT
ATOM      1  C   UNL     1      28.076  18.501 -16.817  1.00  0.00     0.000 C 
ENDROOT
BRANCH   1   2
ATOM      2  C   UNL     1      27.259  19.184 -17.925  1.00  0.00     0.000 C 
BRANCH   2   3
ATOM      3  C   UNL     1      25.897  18.511 -18.165  1.00  0.00     0.000 C 
BRANCH   3   4
ATOM      4  C   UNL     1      25.608  18.268 -19.654  1.00  0.00     0.000 C 
BRANCH   4   5
ATOM      5  C   UNL     1      25.446  16.774 -19.991  1.00  0.00     0.000 C 
BRANCH   5   6
ATOM      6  C   UNL     1      26.794  16.033 -20.125  1.00  0.00     0.000 C 
BRANCH   6   7
ATOM      7  C   UNL     1      26.874  14.717 -19.323  1.00  0.00     0.000 C 
BRANCH   7   8
ATOM      8  C   UNL     1      25.735  14.501 -18.309  1.00  0.00     0.000 C 
BRANCH   8   9
ATOM      9  C   UNL     1      24.963  13.182 -18.525  1.00  0.00     0.000 C 
BRANCH   9  10
ATOM     10  C   UNL     1      23.442  13.384 -18.489  1.00  0.00     0.000 C 
BRANCH  10  11
ATOM     11  C   UNL     1      22.983  13.902 -17.118  1.00  0.00     0.000 C 
BRANCH  11  12
ATOM     12  C   UNL     1      22.026  15.101 -17.222  1.00  0.00     0.006 C 
BRANCH  12  13
ATOM     13  C   UNL     1      22.266  15.954 -18.476  1.00  0.00     0.053 C 
BRANCH  13  14
ATOM     14  C   UNL     1      22.250  17.411 -18.137  1.00  0.00     0.041 C 
ATOM     15  O   UNL     1      21.934  18.262 -19.012  1.00  0.00    -0.550 OA
ATOM     16  O   UNL     1      22.603  17.833 -16.858  1.00  0.00    -0.550 OA
ENDBRANCH  13  14
ENDBRANCH  12  13
ENDBRANCH  11  12
ENDBRANCH  10  11
ENDBRANCH   9  10
ENDBRANCH   8   9
ENDBRANCH   7   8
ENDBRANCH   6   7
ENDBRANCH   5   6
ENDBRANCH   4   5
ENDBRANCH   3   4
ENDBRANCH   2   3
ENDBRANCH   1   2
BRANCH   1  17
ATOM     17  C   UNL     1      28.267  16.994 -17.066  1.00  0.00     0.000 C 
BRANCH  17  18
ATOM     18  C   UNL     1      28.822  16.263 -15.832  1.00  0.00     0.000 C 
BRANCH  18  19
ATOM     19  C   UNL     1      28.339  14.806 -15.746  1.00  0.00     0.000 C 
BRANCH  19  20
ATOM     20  C   UNL     1      29.469  13.834 -16.115  1.00  0.00     0.000 C 
BRANCH  20  21
ATOM     21  C   UNL     1      30.848  14.319 -15.636  1.00  0.00     0.000 C 
BRANCH  21  22
ATOM     22  C   UNL     1      31.934  14.149 -16.712  1.00  0.00    -0.000 C 
BRANCH  22  23
ATOM     23  C   UNL     1      33.348  14.055 -16.112  1.00  0.00    -0.000 C 
BRANCH  23  24
ATOM     24  C   UNL     1      34.376  15.008 -16.766  1.00  0.00    -0.000 C 
BRANCH  24  25
ATOM     25  C   UNL     1      34.371  14.964 -18.307  1.00  0.00    -0.000 C 
BRANCH  25  26
ATOM     26  C   UNL     1      34.532  16.334 -18.993  1.00  0.00    -0.000 C 
BRANCH  26  27
ATOM     27  C   UNL     1      33.964  17.534 -18.205  1.00  0.00    -0.000 C 
BRANCH  27  28
ATOM     28  C   UNL     1      32.611  18.066 -18.707  1.00  0.00    -0.000 C 
BRANCH  28  29
ATOM     29  C   UNL     1      31.884  17.075 -19.628  1.00  0.00    -0.003 C 
ATOM     30  C   UNL     1      30.407  17.433 -19.762  1.00  0.00     0.004 C 
ENDBRANCH  28  29
ENDBRANCH  27  28
ENDBRANCH  26  27
ENDBRANCH  25  26
ENDBRANCH  24  25
ENDBRANCH  23  24
ENDBRANCH  22  23
ENDBRANCH  21  22
ENDBRANCH  20  21
ENDBRANCH  19  20
ENDBRANCH  18  19
ENDBRANCH  17  18
ENDBRANCH   1  17
TORSDOF 26
ENDMDL
MODEL 2
REMARK VINA RESULT:    -3.036      2.008      2.835
REMARK INTER + INTRA:         -11.473
REMARK INTER:                  -8.551
REMARK INTRA:                  -2.922
REMARK UNBOUND:                -3.822
REMARK SMILES CCCCCCCCCCCCCCCCCCCCCCCCCCCC(=O)[O-]
REMARK SMILES IDX 15 1 16 2 17 3 18 4 19 5 20 6 21 7 22 8 23 9 24 10 25 11
REMARK SMILES IDX 26 12 27 13 28 14 29 15 30 16 14 17 13 18 12 19 11 20 10 21
REMARK SMILES IDX 9 22 8 23 7 24 6 25 5 26 4 27 3 28 2 29 1 30
REMARK H PARENT
REMARK Flexibility Score: inf
ROOT
ATOM      1  C   UNL     1      28.205  16.682 -15.784  1.00  0.00     0.000 C 
ENDROOT
BRANCH   1   2
ATOM      2  C   UNL     1      28.092  17.252 -17.207  1.00  0.00     0.000 C 
BRANCH   2   3
ATOM      3  C   UNL     1      28.045  18.790 -17.232  1.00  0.00     0.000 C 
BRANCH   3   4
ATOM      4  C   UNL     1      26.993  19.336 -18.211  1.00  0.00     0.000 C 
BRANCH   4   5
ATOM      5  C   UNL     1      25.652  18.586 -18.120  1.00  0.00     0.000 C 
BRANCH   5   6
ATOM      6  C   UNL     1      25.263  17.875 -19.435  1.00  0.00     0.000 C 
BRANCH   6   7
ATOM      7  C   UNL     1      24.444  16.582 -19.236  1.00  0.00     0.000 C 
BRANCH   7   8
ATOM      8  C   UNL     1      25.190  15.442 -18.519  1.00  0.00     0.000 C 
BRANCH   8   9
ATOM      9  C   UNL     1      24.276  14.580 -17.621  1.00  0.00     0.000 C 
BRANCH   9  10
ATOM     10  C   UNL     1      22.792  14.929 -17.793  1.00  0.00     0.000 C 
BRANCH  10  11
ATOM     11  C   UNL     1      22.033  14.798 -16.464  1.00  0.00     0.000 C 
BRANCH  11  12
ATOM     12  C   UNL     1      22.413  13.530 -15.681  1.00  0.00     0.006 C 
BRANCH  12  13
ATOM     13  C   UNL     1      22.232  13.685 -14.165  1.00  0.00     0.053 C 
BRANCH  13  14
ATOM     14  C   UNL     1      23.557  13.669 -13.468  1.00  0.00     0.041 C 
ATOM     15  O   UNL     1      24.623  13.795 -14.130  1.00  0.00    -0.550 OA
ATOM     16  O   UNL     1      23.617  13.495 -12.089  1.00  0.00    -0.550 OA
ENDBRANCH  13  14
ENDBRANCH  12  13
ENDBRANCH  11  12
ENDBRANCH  10  11
ENDBRANCH   9  10
ENDBRANCH   8   9
ENDBRANCH   7   8
ENDBRANCH   6   7
ENDBRANCH   5   6
ENDBRANCH   4   5
ENDBRANCH   3   4
ENDBRANCH   2   3
ENDBRANCH   1   2
BRANCH   1  17
ATOM     17  C   UNL     1      29.104  15.434 -15.715  1.00  0.00     0.000 C 
BRANCH  17  18
ATOM     18  C   UNL     1      28.330  14.140 -16.021  1.00  0.00     0.000 C 
BRANCH  18  19
ATOM     19  C   UNL     1      28.661  13.574 -17.412  1.00  0.00     0.000 C 
BRANCH  19  20
ATOM     20  C   UNL     1      30.180  13.520 -17.633  1.00  0.00     0.000 C 
BRANCH  20  21
ATOM     21  C   UNL     1      30.927  12.875 -16.452  1.00  0.00     0.000 C 
BRANCH  21  22
ATOM     22  C   UNL     1      32.163  13.688 -16.029  1.00  0.00    -0.000 C 
BRANCH  22  23
ATOM     23  C   UNL     1      33.314  13.579 -17.043  1.00  0.00    -0.000 C 
BRANCH  23  24
ATOM     24  C   UNL     1      34.647  14.191 -16.551  1.00  0.00    -0.000 C 
BRANCH  24  25
ATOM     25  C   UNL     1      34.752  15.713 -16.773  1.00  0.00    -0.000 C 
BRANCH  25  26
ATOM     26  C   UNL     1      34.517  16.171 -18.225  1.00  0.00    -0.000 C 
BRANCH  26  27
ATOM     27  C   UNL     1      34.111  17.651 -18.388  1.00  0.00    -0.000 C 
BRANCH  27  28
ATOM     28  C   UNL     1      32.951  17.907 -19.366  1.00  0.00    -0.000 C 
BRANCH  28  29
ATOM     29  C   UNL     1      31.571  17.733 -18.714  1.00  0.00    -0.003 C 
ATOM     30  C   UNL     1      30.760  16.655 -19.427  1.00  0.00     0.004 C 
ENDBRANCH  28  29
ENDBRANCH  27  28
ENDBRANCH  26  27
ENDBRANCH  25  26
ENDBRANCH  24  25
ENDBRANCH  23  24
ENDBRANCH  22  23
ENDBRANCH  21  22
ENDBRANCH  20  21
ENDBRANCH  19  20
ENDBRANCH  18  19
ENDBRANCH  17  18
ENDBRANCH   1  17
TORSDOF 26
ENDMDL
MODEL 3
REMARK VINA RESULT:    -2.875      2.066      3.544
REMARK INTER + INTRA:         -11.067
REMARK INTER:                  -7.162
REMARK INTRA:                  -3.905
REMARK UNBOUND:                -3.822
REMARK SMILES CCCCCCCCCCCCCCCCCCCCCCCCCCCC(=O)[O-]
REMARK SMILES IDX 15 1 16 2 17 3 18 4 19 5 20 6 21 7 22 8 23 9 24 10 25 11
REMARK SMILES IDX 26 12 27 13 28 14 29 15 30 16 14 17 13 18 12 19 11 20 10 21
REMARK SMILES IDX 9 22 8 23 7 24 6 25 5 26 4 27 3 28 2 29 1 30
REMARK H PARENT
REMARK Flexibility Score: inf
ROOT
ATOM      1  C   UNL     1      29.124  17.913 -18.978  1.00  0.00     0.000 C 
ENDROOT
BRANCH   1   2
ATOM      2  C   UNL     1      28.296  17.810 -17.688  1.00  0.00     0.000 C 
BRANCH   2   3
ATOM      3  C   UNL     1      27.855  19.182 -17.150  1.00  0.00     0.000 C 
BRANCH   3   4
ATOM      4  C   UNL     1      26.394  19.515 -17.494  1.00  0.00     0.000 C 
BRANCH   4   5
ATOM      5  C   UNL     1      25.877  18.727 -18.711  1.00  0.00     0.000 C 
BRANCH   5   6
ATOM      6  C   UNL     1      24.790  17.692 -18.347  1.00  0.00     0.000 C 
BRANCH   6   7
ATOM      7  C   UNL     1      24.577  16.597 -19.414  1.00  0.00     0.000 C 
BRANCH   7   8
ATOM      8  C   UNL     1      23.335  15.714 -19.201  1.00  0.00     0.000 C 
BRANCH   8   9
ATOM      9  C   UNL     1      23.615  14.206 -19.384  1.00  0.00     0.000 C 
BRANCH   9  10
ATOM     10  C   UNL     1      23.581  13.441 -18.055  1.00  0.00     0.000 C 
BRANCH  10  11
ATOM     11  C   UNL     1      22.154  12.993 -17.709  1.00  0.00     0.000 C 
BRANCH  11  12
ATOM     12  C   UNL     1      21.914  12.877 -16.194  1.00  0.00     0.006 C 
BRANCH  12  13
ATOM     13  C   UNL     1      22.270  14.161 -15.431  1.00  0.00     0.053 C 
BRANCH  13  14
ATOM     14  C   UNL     1      22.755  13.841 -14.052  1.00  0.00     0.041 C 
ATOM     15  O   UNL     1      21.938  13.493 -13.157  1.00  0.00    -0.550 OA
ATOM     16  O   UNL     1      24.109  13.946 -13.748  1.00  0.00    -0.550 OA
ENDBRANCH  13  14
ENDBRANCH  12  13
ENDBRANCH  11  12
ENDBRANCH  10  11
ENDBRANCH   9  10
ENDBRANCH   8   9
ENDBRANCH   7   8
ENDBRANCH   6   7
ENDBRANCH   5   6
ENDBRANCH   4   5
ENDBRANCH   3   4
ENDBRANCH   2   3
ENDBRANCH   1   2
BRANCH   1  17
ATOM     17  C   UNL     1      29.185  16.583 -19.751  1.00  0.00     0.000 C 
BRANCH  17  18
ATOM     18  C   UNL     1      27.953  15.700 -19.491  1.00  0.00     0.000 C 
BRANCH  18  19
ATOM     19  C   UNL     1      28.319  14.216 -19.328  1.00  0.00     0.000 C 
BRANCH  19  20
ATOM     20  C   UNL     1      27.435  13.548 -18.264  1.00  0.00     0.000 C 
BRANCH  20  21
ATOM     21  C   UNL     1      27.018  14.519 -17.146  1.00  0.00     0.000 C 
BRANCH  21  22
ATOM     22  C   UNL     1      27.702  14.198 -15.807  1.00  0.00    -0.000 C 
BRANCH  22  23
ATOM     23  C   UNL     1      29.028  14.956 -15.626  1.00  0.00    -0.000 C 
BRANCH  23  24
ATOM     24  C   UNL     1      30.247  14.040 -15.364  1.00  0.00    -0.000 C 
BRANCH  24  25
ATOM     25  C   UNL     1      30.955  13.565 -16.648  1.00  0.00    -0.000 C 
BRANCH  25  26
ATOM     26  C   UNL     1      31.441  14.696 -17.574  1.00  0.00    -0.000 C 
BRANCH  26  27
ATOM     27  C   UNL     1      32.925  15.087 -17.410  1.00  0.00    -0.000 C 
BRANCH  27  28
ATOM     28  C   UNL     1      33.534  15.856 -18.595  1.00  0.00    -0.000 C 
BRANCH  28  29
ATOM     29  C   UNL     1      34.340  17.087 -18.157  1.00  0.00    -0.003 C 
ATOM     30  C   UNL     1      33.652  18.377 -18.596  1.00  0.00     0.004 C 
ENDBRANCH  28  29
ENDBRANCH  27  28
ENDBRANCH  26  27
ENDBRANCH  25  26
ENDBRANCH  24  25
ENDBRANCH  23  24
ENDBRANCH  22  23
ENDBRANCH  21  22
ENDBRANCH  20  21
ENDBRANCH  19  20
ENDBRANCH  18  19
ENDBRANCH  17  18
ENDBRANCH   1  17
TORSDOF 26
ENDMDL
MODEL 4
REMARK VINA RESULT:    -2.733      1.939      4.110
REMARK INTER + INTRA:         -10.709
REMARK INTER:                  -7.958
REMARK INTRA:                  -2.751
REMARK UNBOUND:                -3.822
REMARK SMILES CCCCCCCCCCCCCCCCCCCCCCCCCCCC(=O)[O-]
REMARK SMILES IDX 15 1 16 2 17 3 18 4 19 5 20 6 21 7 22 8 23 9 24 10 25 11
REMARK SMILES IDX 26 12 27 13 28 14 29 15 30 16 14 17 13 18 12 19 11 20 10 21
REMARK SMILES IDX 9 22 8 23 7 24 6 25 5 26 4 27 3 28 2 29 1 30
REMARK H PARENT
REMARK Flexibility Score: inf
ROOT
ATOM      1  C   UNL     1      28.661  18.353 -19.594  1.00  0.00     0.000 C 
ENDROOT
BRANCH   1   2
ATOM      2  C   UNL     1      27.482  17.499 -19.101  1.00  0.00     0.000 C 
BRANCH   2   3
ATOM      3  C   UNL     1      26.264  17.565 -20.039  1.00  0.00     0.000 C 
BRANCH   3   4
ATOM      4  C   UNL     1      25.051  16.795 -19.494  1.00  0.00     0.000 C 
BRANCH   4   5
ATOM      5  C   UNL     1      24.263  17.597 -18.443  1.00  0.00     0.000 C 
BRANCH   5   6
ATOM      6  C   UNL     1      22.791  17.146 -18.313  1.00  0.00     0.000 C 
BRANCH   6   7
ATOM      7  C   UNL     1      22.291  16.275 -19.485  1.00  0.00     0.000 C 
BRANCH   7   8
ATOM      8  C   UNL     1      22.362  14.756 -19.244  1.00  0.00     0.000 C 
BRANCH   8   9
ATOM      9  C   UNL     1      22.636  14.380 -17.771  1.00  0.00     0.000 C 
BRANCH   9  10
ATOM     10  C   UNL     1      23.558  13.161 -17.642  1.00  0.00     0.000 C 
BRANCH  10  11
ATOM     11  C   UNL     1      24.963  13.574 -17.179  1.00  0.00     0.000 C 
BRANCH  11  12
ATOM     12  C   UNL     1      25.105  13.600 -15.648  1.00  0.00     0.006 C 
BRANCH  12  13
ATOM     13  C   UNL     1      23.948  12.892 -14.927  1.00  0.00     0.053 C 
BRANCH  13  14
ATOM     14  C   UNL     1      23.369  13.773 -13.865  1.00  0.00     0.041 C 
ATOM     15  O   UNL     1      22.547  14.679 -14.171  1.00  0.00    -0.550 OA
ATOM     16  O   UNL     1      23.750  13.606 -12.537  1.00  0.00    -0.550 OA
ENDBRANCH  13  14
ENDBRANCH  12  13
ENDBRANCH  11  12
ENDBRANCH  10  11
ENDBRANCH   9  10
ENDBRANCH   8   9
ENDBRANCH   7   8
ENDBRANCH   6   7
ENDBRANCH   5   6
ENDBRANCH   4   5
ENDBRANCH   3   4
ENDBRANCH   2   3
ENDBRANCH   1   2
BRANCH   1  17
ATOM     17  C   UNL     1      29.925  17.517 -19.864  1.00  0.00     0.000 C 
BRANCH  17  18
ATOM     18  C   UNL     1      30.954  17.629 -18.725  1.00  0.00     0.000 C 
BRANCH  18  19
ATOM     19  C   UNL     1      32.347  17.132 -19.142  1.00  0.00     0.000 C 
BRANCH  19  20
ATOM     20  C   UNL     1      33.444  18.050 -18.583  1.00  0.00     0.000 C 
BRANCH  20  21
ATOM     21  C   UNL     1      34.650  17.266 -18.036  1.00  0.00     0.000 C 
BRANCH  21  22
ATOM     22  C   UNL     1      34.386  15.752 -17.978  1.00  0.00    -0.000 C 
BRANCH  22  23
ATOM     23  C   UNL     1      34.820  15.129 -16.640  1.00  0.00    -0.000 C 
BRANCH  23  24
ATOM     24  C   UNL     1      34.455  13.633 -16.494  1.00  0.00    -0.000 C 
BRANCH  24  25
ATOM     25  C   UNL     1      32.983  13.317 -16.824  1.00  0.00    -0.000 C 
BRANCH  25  26
ATOM     26  C   UNL     1      32.131  12.876 -15.619  1.00  0.00    -0.000 C 
BRANCH  26  27
ATOM     27  C   UNL     1      30.799  13.637 -15.443  1.00  0.00    -0.000 C 
BRANCH  27  28
ATOM     28  C   UNL     1      30.621  14.864 -16.352  1.00  0.00    -0.000 C 
BRANCH  28  29
ATOM     29  C   UNL     1      29.218  14.952 -16.969  1.00  0.00    -0.003 C 
ATOM     30  C   UNL     1      28.397  16.056 -16.311  1.00  0.00     0.004 C 
ENDBRANCH  28  29
ENDBRANCH  27  28
ENDBRANCH  26  27
ENDBRANCH  25  26
ENDBRANCH  24  25
ENDBRANCH  23  24
ENDBRANCH  22  23
ENDBRANCH  21  22
ENDBRANCH  20  21
ENDBRANCH  19  20
ENDBRANCH  18  19
ENDBRANCH  17  18
ENDBRANCH   1  17
TORSDOF 26
ENDMDL
MODEL 5
REMARK VINA RESULT:    -2.500      1.462      3.756
REMARK INTER + INTRA:         -10.121
REMARK INTER:                  -7.198
REMARK INTRA:                  -2.923
REMARK UNBOUND:                -3.822
REMARK SMILES CCCCCCCCCCCCCCCCCCCCCCCCCCCC(=O)[O-]
REMARK SMILES IDX 15 1 16 2 17 3 18 4 19 5 20 6 21 7 22 8 23 9 24 10 25 11
REMARK SMILES IDX 26 12 27 13 28 14 29 15 30 16 14 17 13 18 12 19 11 20 10 21
REMARK SMILES IDX 9 22 8 23 7 24 6 25 5 26 4 27 3 28 2 29 1 30
REMARK H PARENT
REMARK Flexibility Score: inf
ROOT
ATOM      1  C   UNL     1      30.386  16.848 -19.110  1.00  0.00     0.000 C 
ENDROOT
BRANCH   1   2
ATOM      2  C   UNL     1      29.600  18.053 -18.569  1.00  0.00     0.000 C 
BRANCH   2   3
ATOM      3  C   UNL     1      28.151  17.699 -18.189  1.00  0.00     0.000 C 
BRANCH   3   4
ATOM      4  C   UNL     1      28.001  17.324 -16.706  1.00  0.00     0.000 C 
BRANCH   4   5
ATOM      5  C   UNL     1      28.375  15.858 -16.424  1.00  0.00     0.000 C 
BRANCH   5   6
ATOM      6  C   UNL     1      27.149  14.960 -16.152  1.00  0.00     0.000 C 
BRANCH   6   7
ATOM      7  C   UNL     1      26.199  14.804 -17.358  1.00  0.00     0.000 C 
BRANCH   7   8
ATOM      8  C   UNL     1      24.997  13.870 -17.124  1.00  0.00     0.000 C 
BRANCH   8   9
ATOM      9  C   UNL     1      24.003  13.842 -18.306  1.00  0.00     0.000 C 
BRANCH   9  10
ATOM     10  C   UNL     1      22.545  13.964 -17.844  1.00  0.00     0.000 C 
BRANCH  10  11
ATOM     11  C   UNL     1      21.933  15.302 -18.284  1.00  0.00     0.000 C 
BRANCH  11  12
ATOM     12  C   UNL     1      22.643  15.911 -19.504  1.00  0.00     0.006 C 
BRANCH  12  13
ATOM     13  C   UNL     1      22.934  17.410 -19.342  1.00  0.00     0.053 C 
BRANCH  13  14
ATOM     14  C   UNL     1      23.434  17.707 -17.963  1.00  0.00     0.041 C 
ATOM     15  O   UNL     1      24.634  18.047 -17.783  1.00  0.00    -0.550 OA
ATOM     16  O   UNL     1      22.578  17.589 -16.871  1.00  0.00    -0.550 OA
ENDBRANCH  13  14
ENDBRANCH  12  13
ENDBRANCH  11  12
ENDBRANCH  10  11
ENDBRANCH   9  10
ENDBRANCH   8   9
ENDBRANCH   7   8
ENDBRANCH   6   7
ENDBRANCH   5   6
ENDBRANCH   4   5
ENDBRANCH   3   4
ENDBRANCH   2   3
ENDBRANCH   1   2
BRANCH   1  17
ATOM     17  C   UNL     1      31.816  16.773 -18.547  1.00  0.00     0.000 C 
BRANCH  17  18
ATOM     18  C   UNL     1      32.769  17.766 -19.235  1.00  0.00     0.000 C 
BRANCH  18  19
ATOM     19  C   UNL     1      33.980  18.120 -18.358  1.00  0.00     0.000 C 
BRANCH  19  20
ATOM     20  C   UNL     1      34.561  16.862 -17.696  1.00  0.00     0.000 C 
BRANCH  20  21
ATOM     21  C   UNL     1      34.573  15.647 -18.640  1.00  0.00     0.000 C 
BRANCH  21  22
ATOM     22  C   UNL     1      35.009  14.356 -17.927  1.00  0.00    -0.000 C 
BRANCH  22  23
ATOM     23  C   UNL     1      34.643  14.357 -16.433  1.00  0.00    -0.000 C 
BRANCH  23  24
ATOM     24  C   UNL     1      33.504  13.377 -16.063  1.00  0.00    -0.000 C 
BRANCH  24  25
ATOM     25  C   UNL     1      32.116  14.040 -15.981  1.00  0.00    -0.000 C 
BRANCH  25  26
ATOM     26  C   UNL     1      31.071  13.475 -16.962  1.00  0.00    -0.000 C 
BRANCH  26  27
ATOM     27  C   UNL     1      31.616  13.097 -18.356  1.00  0.00    -0.000 C 
BRANCH  27  28
ATOM     28  C   UNL     1      30.564  13.044 -19.477  1.00  0.00    -0.000 C 
BRANCH  28  29
ATOM     29  C   UNL     1      29.152  13.396 -18.989  1.00  0.00    -0.003 C 
ATOM     30  C   UNL     1      28.122  13.195 -20.097  1.00  0.00     0.004 C 
ENDBRANCH  28  29
ENDBRANCH  27  28
ENDBRANCH  26  27
ENDBRANCH  25  26
ENDBRANCH  24  25
ENDBRANCH  23  24
ENDBRANCH  22  23
ENDBRANCH  21  22
ENDBRANCH  20  21
ENDBRANCH  19  20
ENDBRANCH  18  19
ENDBRANCH  17  18
ENDBRANCH   1  17
TORSDOF 26
ENDMDL
MODEL 6
REMARK VINA RESULT:    -2.493      2.017      3.823
REMARK INTER + INTRA:         -10.104
REMARK INTER:                  -6.693
REMARK INTRA:                  -3.411
REMARK UNBOUND:                -3.822
REMARK SMILES CCCCCCCCCCCCCCCCCCCCCCCCCCCC(=O)[O-]
REMARK SMILES IDX 15 1 16 2 17 3 18 4 19 5 20 6 21 7 22 8 23 9 24 10 25 11
REMARK SMILES IDX 26 12 27 13 28 14 29 15 30 16 14 17 13 18 12 19 11 20 10 21
REMARK SMILES IDX 9 22 8 23 7 24 6 25 5 26 4 27 3 28 2 29 1 30
REMARK H PARENT
REMARK Flexibility Score: inf
ROOT
ATOM      1  C   UNL     1      28.833  14.966 -16.417  1.00  0.00     0.000 C 
ENDROOT
BRANCH   1   2
ATOM      2  C   UNL     1      27.412  14.853 -15.843  1.00  0.00     0.000 C 
BRANCH   2   3
ATOM      3  C   UNL     1      26.944  13.395 -15.688  1.00  0.00     0.000 C 
BRANCH   3   4
ATOM      4  C   UNL     1      25.466  13.202 -16.060  1.00  0.00     0.000 C 
BRANCH   4   5
ATOM      5  C   UNL     1      24.997  14.177 -17.155  1.00  0.00     0.000 C 
BRANCH   5   6
ATOM      6  C   UNL     1      24.526  13.465 -18.442  1.00  0.00     0.000 C 
BRANCH   6   7
ATOM      7  C   UNL     1      23.016  13.610 -18.728  1.00  0.00     0.000 C 
BRANCH   7   8
ATOM      8  C   UNL     1      22.508  15.060 -18.829  1.00  0.00     0.000 C 
BRANCH   8   9
ATOM      9  C   UNL     1      22.949  15.776 -20.124  1.00  0.00     0.000 C 
BRANCH   9  10
ATOM     10  C   UNL     1      23.533  17.168 -19.851  1.00  0.00     0.000 C 
BRANCH  10  11
ATOM     11  C   UNL     1      23.755  17.392 -18.349  1.00  0.00     0.000 C 
BRANCH  11  12
ATOM     12  C   UNL     1      25.021  18.211 -18.046  1.00  0.00     0.006 C 
BRANCH  12  13
ATOM     13  C   UNL     1      26.317  17.458 -18.382  1.00  0.00     0.053 C 
BRANCH  13  14
ATOM     14  C   UNL     1      27.509  18.342 -18.190  1.00  0.00     0.041 C 
ATOM     15  O   UNL     1      28.075  18.408 -17.066  1.00  0.00    -0.550 OA
ATOM     16  O   UNL     1      27.984  19.110 -19.249  1.00  0.00    -0.550 OA
ENDBRANCH  13  14
ENDBRANCH  12  13
ENDBRANCH  11  12
ENDBRANCH  10  11
ENDBRANCH   9  10
ENDBRANCH   8   9
ENDBRANCH   7   8
ENDBRANCH   6   7
ENDBRANCH   5   6
ENDBRANCH   4   5
ENDBRANCH   3   4
ENDBRANCH   2   3
ENDBRANCH   1   2
BRANCH   1  17
ATOM     17  C   UNL     1      29.099  13.952 -17.543  1.00  0.00     0.000 C 
BRANCH  17  18
ATOM     18  C   UNL     1      30.570  13.503 -17.590  1.00  0.00     0.000 C 
BRANCH  18  19
ATOM     19  C   UNL     1      31.224  13.492 -16.199  1.00  0.00     0.000 C 
BRANCH  19  20
ATOM     20  C   UNL     1      32.556  14.256 -16.215  1.00  0.00     0.000 C 
BRANCH  20  21
ATOM     21  C   UNL     1      33.761  13.353 -15.899  1.00  0.00     0.000 C 
BRANCH  21  22
ATOM     22  C   UNL     1      34.899  13.518 -16.921  1.00  0.00    -0.000 C 
BRANCH  22  23
ATOM     23  C   UNL     1      34.486  13.085 -18.338  1.00  0.00    -0.000 C 
BRANCH  23  24
ATOM     24  C   UNL     1      35.086  13.959 -19.464  1.00  0.00    -0.000 C 
BRANCH  24  25
ATOM     25  C   UNL     1      34.336  15.288 -19.685  1.00  0.00    -0.000 C 
BRANCH  25  26
ATOM     26  C   UNL     1      34.594  16.362 -18.612  1.00  0.00    -0.000 C 
BRANCH  26  27
ATOM     27  C   UNL     1      34.229  17.804 -19.025  1.00  0.00    -0.000 C 
BRANCH  27  28
ATOM     28  C   UNL     1      32.910  18.338 -18.442  1.00  0.00    -0.000 C 
BRANCH  28  29
ATOM     29  C   UNL     1      31.682  17.927 -19.268  1.00  0.00    -0.003 C 
ATOM     30  C   UNL     1      30.857  16.872 -18.536  1.00  0.00     0.004 C 
ENDBRANCH  28  29
ENDBRANCH  27  28
ENDBRANCH  26  27
ENDBRANCH  25  26
ENDBRANCH  24  25
ENDBRANCH  23  24
ENDBRANCH  22  23
ENDBRANCH  21  22
ENDBRANCH  20  21
ENDBRANCH  19  20
ENDBRANCH  18  19
ENDBRANCH  17  18
ENDBRANCH   1  17
TORSDOF 26
ENDMDL
MODEL 7
REMARK VINA RESULT:    -2.424      1.467      2.918
REMARK INTER + INTRA:          -9.929
REMARK INTER:                  -6.106
REMARK INTRA:                  -3.823
REMARK UNBOUND:                -3.822
REMARK SMILES CCCCCCCCCCCCCCCCCCCCCCCCCCCC(=O)[O-]
REMARK SMILES IDX 15 1 16 2 17 3 18 4 19 5 20 6 21 7 22 8 23 9 24 10 25 11
REMARK SMILES IDX 26 12 27 13 28 14 29 15 30 16 14 17 13 18 12 19 11 20 10 21
REMARK SMILES IDX 9 22 8 23 7 24 6 25 5 26 4 27 3 28 2 29 1 30
REMARK H PARENT
REMARK Flexibility Score: inf
ROOT
ATOM      1  C   UNL     1      28.456  18.091 -17.466  1.00  0.00     0.000 C 
ENDROOT
BRANCH   1   2
ATOM      2  C   UNL     1      27.789  16.831 -16.890  1.00  0.00     0.000 C 
BRANCH   2   3
ATOM      3  C   UNL     1      28.432  16.365 -15.572  1.00  0.00     0.000 C 
BRANCH   3   4
ATOM      4  C   UNL     1      28.951  14.920 -15.642  1.00  0.00     0.000 C 
BRANCH   4   5
ATOM      5  C   UNL     1      27.815  13.881 -15.648  1.00  0.00     0.000 C 
BRANCH   5   6
ATOM      6  C   UNL     1      26.826  14.069 -16.819  1.00  0.00     0.000 C 
BRANCH   6   7
ATOM      7  C   UNL     1      27.001  13.050 -17.964  1.00  0.00     0.000 C 
BRANCH   7   8
ATOM      8  C   UNL     1      26.826  13.625 -19.381  1.00  0.00     0.000 C 
BRANCH   8   9
ATOM      9  C   UNL     1      25.595  13.061 -20.125  1.00  0.00     0.000 C 
BRANCH   9  10
ATOM     10  C   UNL     1      24.315  13.149 -19.284  1.00  0.00     0.000 C 
BRANCH  10  11
ATOM     11  C   UNL     1      23.306  14.122 -19.910  1.00  0.00     0.000 C 
BRANCH  11  12
ATOM     12  C   UNL     1      22.913  15.268 -18.963  1.00  0.00     0.006 C 
BRANCH  12  13
ATOM     13  C   UNL     1      24.125  16.046 -18.429  1.00  0.00     0.053 C 
BRANCH  13  14
ATOM     14  C   UNL     1      23.734  17.439 -18.047  1.00  0.00     0.041 C 
ATOM     15  O   UNL     1      24.618  18.283 -17.738  1.00  0.00    -0.550 OA
ATOM     16  O   UNL     1      22.391  17.801 -18.014  1.00  0.00    -0.550 OA
ENDBRANCH  13  14
ENDBRANCH  12  13
ENDBRANCH  11  12
ENDBRANCH  10  11
ENDBRANCH   9  10
ENDBRANCH   8   9
ENDBRANCH   7   8
ENDBRANCH   6   7
ENDBRANCH   5   6
ENDBRANCH   4   5
ENDBRANCH   3   4
ENDBRANCH   2   3
ENDBRANCH   1   2
BRANCH   1  17
ATOM     17  C   UNL     1      29.318  17.790 -18.705  1.00  0.00     0.000 C 
BRANCH  17  18
ATOM     18  C   UNL     1      29.408  16.283 -19.003  1.00  0.00     0.000 C 
BRANCH  18  19
ATOM     19  C   UNL     1      30.445  15.962 -20.091  1.00  0.00     0.000 C 
BRANCH  19  20
ATOM     20  C   UNL     1      31.056  14.570 -19.869  1.00  0.00     0.000 C 
BRANCH  20  21
ATOM     21  C   UNL     1      30.438  13.837 -18.665  1.00  0.00     0.000 C 
BRANCH  21  22
ATOM     22  C   UNL     1      31.448  12.916 -17.961  1.00  0.00    -0.000 C 
BRANCH  22  23
ATOM     23  C   UNL     1      31.866  13.448 -16.579  1.00  0.00    -0.000 C 
BRANCH  23  24
ATOM     24  C   UNL     1      33.344  13.172 -16.217  1.00  0.00    -0.000 C 
BRANCH  24  25
ATOM     25  C   UNL     1      34.266  14.395 -16.394  1.00  0.00    -0.000 C 
BRANCH  25  26
ATOM     26  C   UNL     1      34.727  14.653 -17.841  1.00  0.00    -0.000 C 
BRANCH  26  27
ATOM     27  C   UNL     1      34.591  16.113 -18.323  1.00  0.00    -0.000 C 
BRANCH  27  28
ATOM     28  C   UNL     1      33.206  16.747 -18.109  1.00  0.00    -0.000 C 
BRANCH  28  29
ATOM     29  C   UNL     1      33.117  18.183 -18.645  1.00  0.00    -0.003 C 
ATOM     30  C   UNL     1      33.483  18.241 -20.125  1.00  0.00     0.004 C 
ENDBRANCH  28  29
ENDBRANCH  27  28
ENDBRANCH  26  27
ENDBRANCH  25  26
ENDBRANCH  24  25
ENDBRANCH  23  24
ENDBRANCH  22  23
ENDBRANCH  21  22
ENDBRANCH  20  21
ENDBRANCH  19  20
ENDBRANCH  18  19
ENDBRANCH  17  18
ENDBRANCH   1  17
TORSDOF 26
ENDMDL
MODEL 8
REMARK VINA RESULT:    -2.411      2.054      5.073
REMARK INTER + INTRA:          -9.899
REMARK INTER:                  -7.550
REMARK INTRA:                  -2.349
REMARK UNBOUND:                -3.822
REMARK SMILES CCCCCCCCCCCCCCCCCCCCCCCCCCCC(=O)[O-]
REMARK SMILES IDX 15 1 16 2 17 3 18 4 19 5 20 6 21 7 22 8 23 9 24 10 25 11
REMARK SMILES IDX 26 12 27 13 28 14 29 15 30 16 14 17 13 18 12 19 11 20 10 21
REMARK SMILES IDX 9 22 8 23 7 24 6 25 5 26 4 27 3 28 2 29 1 30
REMARK H PARENT
REMARK Flexibility Score: inf
ROOT
ATOM      1  C   UNL     1      32.014  13.947 -15.382  1.00  0.00     0.000 C 
ENDROOT
BRANCH   1   2
ATOM      2  C   UNL     1      30.483  13.957 -15.508  1.00  0.00     0.000 C 
BRANCH   2   3
ATOM      3  C   UNL     1      29.988  14.777 -16.712  1.00  0.00     0.000 C 
BRANCH   3   4
ATOM      4  C   UNL     1      30.018  13.981 -18.026  1.00  0.00     0.000 C 
BRANCH   4   5
ATOM      5  C   UNL     1      28.766  14.216 -18.891  1.00  0.00     0.000 C 
BRANCH   5   6
ATOM      6  C   UNL     1      27.669  13.151 -18.675  1.00  0.00     0.000 C 
BRANCH   6   7
ATOM      7  C   UNL     1      26.239  13.644 -18.980  1.00  0.00     0.000 C 
BRANCH   7   8
ATOM      8  C   UNL     1      25.408  14.037 -17.745  1.00  0.00     0.000 C 
BRANCH   8   9
ATOM      9  C   UNL     1      23.898  13.760 -17.908  1.00  0.00     0.000 C 
BRANCH   9  10
ATOM     10  C   UNL     1      23.040  14.983 -17.558  1.00  0.00     0.000 C 
BRANCH  10  11
ATOM     11  C   UNL     1      21.876  14.598 -16.633  1.00  0.00     0.000 C 
BRANCH  11  12
ATOM     12  C   UNL     1      22.204  13.399 -15.727  1.00  0.00     0.006 C 
BRANCH  12  13
ATOM     13  C   UNL     1      22.118  13.736 -14.231  1.00  0.00     0.053 C 
BRANCH  13  14
ATOM     14  C   UNL     1      23.473  13.693 -13.599  1.00  0.00     0.041 C 
ATOM     15  O   UNL     1      24.509  13.712 -14.318  1.00  0.00    -0.550 OA
ATOM     16  O   UNL     1      23.595  13.613 -12.215  1.00  0.00    -0.550 OA
ENDBRANCH  13  14
ENDBRANCH  12  13
ENDBRANCH  11  12
ENDBRANCH  10  11
ENDBRANCH   9  10
ENDBRANCH   8   9
ENDBRANCH   7   8
ENDBRANCH   6   7
ENDBRANCH   5   6
ENDBRANCH   4   5
ENDBRANCH   3   4
ENDBRANCH   2   3
ENDBRANCH   1   2
BRANCH   1  17
ATOM     17  C   UNL     1      32.711  13.451 -16.662  1.00  0.00     0.000 C 
BRANCH  17  18
ATOM     18  C   UNL     1      33.776  14.439 -17.168  1.00  0.00     0.000 C 
BRANCH  18  19
ATOM     19  C   UNL     1      34.566  13.887 -18.365  1.00  0.00     0.000 C 
BRANCH  19  20
ATOM     20  C   UNL     1      34.981  15.020 -19.316  1.00  0.00     0.000 C 
BRANCH  20  21
ATOM     21  C   UNL     1      33.821  15.981 -19.633  1.00  0.00     0.000 C 
BRANCH  21  22
ATOM     22  C   UNL     1      33.770  17.176 -18.665  1.00  0.00    -0.000 C 
BRANCH  22  23
ATOM     23  C   UNL     1      32.596  18.124 -18.963  1.00  0.00    -0.000 C 
BRANCH  23  24
ATOM     24  C   UNL     1      31.205  17.520 -18.660  1.00  0.00    -0.000 C 
BRANCH  24  25
ATOM     25  C   UNL     1      30.248  17.529 -19.869  1.00  0.00    -0.000 C 
BRANCH  25  26
ATOM     26  C   UNL     1      28.794  17.915 -19.540  1.00  0.00    -0.000 C 
BRANCH  26  27
ATOM     27  C   UNL     1      28.413  17.826 -18.047  1.00  0.00    -0.000 C 
BRANCH  27  28
ATOM     28  C   UNL     1      27.677  19.054 -17.485  1.00  0.00    -0.000 C 
BRANCH  28  29
ATOM     29  C   UNL     1      26.193  19.092 -17.878  1.00  0.00    -0.003 C 
ATOM     30  C   UNL     1      25.677  17.695 -18.208  1.00  0.00     0.004 C 
ENDBRANCH  28  29
ENDBRANCH  27  28
ENDBRANCH  26  27
ENDBRANCH  25  26
ENDBRANCH  24  25
ENDBRANCH  23  24
ENDBRANCH  22  23
ENDBRANCH  21  22
ENDBRANCH  20  21
ENDBRANCH  19  20
ENDBRANCH  18  19
ENDBRANCH  17  18
ENDBRANCH   1  17
TORSDOF 26
ENDMDL
