MODEL 1
REMARK VINA RESULT:    -4.723      0.000      0.000
REMARK INTER + INTRA:         -11.119
REMARK INTER:                  -8.589
REMARK INTRA:                  -2.530
REMARK UNBOUND:                -2.530
REMARK SMILES CCCCCCCCCCCCCC[C@H](C)C(=O)[O-]
REMARK SMILES IDX 9 1 10 2 11 3 12 4 13 5 14 6 15 7 16 8 17 9 18 10 19 11 8 12
REMARK SMILES IDX 7 13 6 14 5 15 4 16 3 17 2 18 1 19
REMARK H PARENT
REMARK Flexibility Score: inf
ROOT
ATOM      1  C   UNL     1      60.726  27.098  25.770  1.00  0.00     0.000 C 
ENDROOT
BRANCH   1   2
ATOM      2  C   UNL     1      60.756  28.454  25.044  1.00  0.00     0.000 C 
BRANCH   2   3
ATOM      3  C   UNL     1      62.020  28.648  24.193  1.00  0.00     0.000 C 
BRANCH   3   4
ATOM      4  C   UNL     1      62.804  29.887  24.649  1.00  0.00     0.000 C 
BRANCH   4   5
ATOM      5  C   UNL     1      64.328  29.674  24.626  1.00  0.00     0.001 C 
BRANCH   5   6
ATOM      6  C   UNL     1      64.830  28.442  25.407  1.00  0.00     0.009 C 
BRANCH   6   7
ATOM      7  C   UNL     1      65.618  27.422  24.554  1.00  0.00     0.032 C 
ATOM      8  C   UNL     1      66.135  28.084  23.273  1.00  0.00     0.014 C 
BRANCH   7   9
ATOM      9  C   UNL     1      64.772  26.228  24.204  1.00  0.00     0.044 C 
ATOM     10  O   UNL     1      63.922  25.793  25.024  1.00  0.00    -0.550 OA
ATOM     11  O   UNL     1      64.923  25.597  22.974  1.00  0.00    -0.550 OA
ENDBRANCH   7   9
ENDBRANCH   6   7
ENDBRANCH   5   6
ENDBRANCH   4   5
ENDBRANCH   3   4
ENDBRANCH   2   3
ENDBRANCH   1   2
BRANCH   1  12
ATOM     12  C   UNL     1      60.865  27.178  27.303  1.00  0.00     0.000 C 
BRANCH  12  13
ATOM     13  C   UNL     1      62.304  27.378  27.822  1.00  0.00    -0.000 C 
BRANCH  13  14
ATOM     14  C   UNL     1      62.471  28.509  28.852  1.00  0.00    -0.000 C 
BRANCH  14  15
ATOM     15  C   UNL     1      62.307  29.906  28.237  1.00  0.00    -0.000 C 
BRANCH  15  16
ATOM     16  C   UNL     1      63.279  30.905  28.876  1.00  0.00    -0.000 C 
BRANCH  16  17
ATOM     17  C   UNL     1      64.463  31.194  27.946  1.00  0.00    -0.000 C 
BRANCH  17  18
ATOM     18  C   UNL     1      65.718  30.441  28.403  1.00  0.00    -0.003 C 
ATOM     19  C   UNL     1      66.908  30.756  27.501  1.00  0.00     0.004 C 
ENDBRANCH  17  18
ENDBRANCH  16  17
ENDBRANCH  15  16
ENDBRANCH  14  15
ENDBRANCH  13  14
ENDBRANCH  12  13
ENDBRANCH   1  12
TORSDOF 14
ENDMDL
MODEL 2
REMARK VINA RESULT:    -4.628     12.206     14.873
REMARK INTER + INTRA:         -10.946
REMARK INTER:                  -8.805
REMARK INTRA:                  -2.141
REMARK UNBOUND:                -2.530
REMARK SMILES CCCCCCCCCCCCCC[C@H](C)C(=O)[O-]
REMARK SMILES IDX 9 1 10 2 11 3 12 4 13 5 14 6 15 7 16 8 17 9 18 10 19 11 8 12
REMARK SMILES IDX 7 13 6 14 5 15 4 16 3 17 2 18 1 19
REMARK H PARENT
REMARK Flexibility Score: inf
ROOT
ATOM      1  C   UNL     1      62.185  28.499  12.755  1.00  0.00     0.000 C 
ENDROOT
BRANCH   1   2
ATOM      2  C   UNL     1      62.929  29.365  13.786  1.00  0.00     0.000 C 
BRANCH   2   3
ATOM      3  C   UNL     1      63.842  30.416  13.136  1.00  0.00     0.000 C 
BRANCH   3   4
ATOM      4  C   UNL     1      63.015  31.479  12.399  1.00  0.00     0.000 C 
BRANCH   4   5
ATOM      5  C   UNL     1      63.125  32.875  13.038  1.00  0.00     0.001 C 
BRANCH   5   6
ATOM      6  C   UNL     1      62.592  32.978  14.483  1.00  0.00     0.009 C 
BRANCH   6   7
ATOM      7  C   UNL     1      61.087  33.314  14.586  1.00  0.00     0.032 C 
ATOM      8  C   UNL     1      60.830  34.250  15.772  1.00  0.00     0.014 C 
BRANCH   7   9
ATOM      9  C   UNL     1      60.253  32.071  14.731  1.00  0.00     0.044 C 
ATOM     10  O   UNL     1      59.150  31.976  14.131  1.00  0.00    -0.550 OA
ATOM     11  O   UNL     1      60.692  31.019  15.527  1.00  0.00    -0.550 OA
ENDBRANCH   7   9
ENDBRANCH   6   7
ENDBRANCH   5   6
ENDBRANCH   4   5
ENDBRANCH   3   4
ENDBRANCH   2   3
ENDBRANCH   1   2
BRANCH   1  12
ATOM     12  C   UNL     1      60.675  28.329  13.019  1.00  0.00     0.000 C 
BRANCH  12  13
ATOM     13  C   UNL     1      59.757  29.258  12.200  1.00  0.00    -0.000 C 
BRANCH  13  14
ATOM     14  C   UNL     1      60.324  29.693  10.836  1.00  0.00    -0.000 C 
BRANCH  14  15
ATOM     15  C   UNL     1      60.015  28.692   9.715  1.00  0.00    -0.000 C 
BRANCH  15  16
ATOM     16  C   UNL     1      61.300  28.257   8.999  1.00  0.00    -0.000 C 
BRANCH  16  17
ATOM     17  C   UNL     1      62.284  29.426   8.875  1.00  0.00    -0.000 C 
BRANCH  17  18
ATOM     18  C   UNL     1      63.702  28.995   9.265  1.00  0.00    -0.003 C 
ATOM     19  C   UNL     1      64.614  30.204   9.453  1.00  0.00     0.004 C 
ENDBRANCH  17  18
ENDBRANCH  16  17
ENDBRANCH  15  16
ENDBRANCH  14  15
ENDBRANCH  13  14
ENDBRANCH  12  13
ENDBRANCH   1  12
TORSDOF 14
ENDMDL
MODEL 3
REMARK VINA RESULT:    -4.596      1.320      2.469
REMARK INTER + INTRA:         -10.887
REMARK INTER:                  -8.371
REMARK INTRA:                  -2.516
REMARK UNBOUND:                -2.530
REMARK SMILES CCCCCCCCCCCCCC[C@H](C)C(=O)[O-]
REMARK SMILES IDX 9 1 10 2 11 3 12 4 13 5 14 6 15 7 16 8 17 9 18 10 19 11 8 12
REMARK SMILES IDX 7 13 6 14 5 15 4 16 3 17 2 18 1 19
REMARK H PARENT
REMARK Flexibility Score: inf
ROOT
ATOM      1  C   UNL     1      61.612  29.740  24.918  1.00  0.00     0.000 C 
ENDROOT
BRANCH   1   2
ATOM      2  C   UNL     1      63.031  30.301  25.113  1.00  0.00     0.000 C 
BRANCH   2   3
ATOM      3  C   UNL     1      63.945  30.048  23.905  1.00  0.00     0.000 C 
BRANCH   3   4
ATOM      4  C   UNL     1      65.304  29.492  24.352  1.00  0.00     0.000 C 
BRANCH   4   5
ATOM      5  C   UNL     1      65.179  28.372  25.401  1.00  0.00     0.001 C 
BRANCH   5   6
ATOM      6  C   UNL     1      65.377  26.941  24.860  1.00  0.00     0.009 C 
BRANCH   6   7
ATOM      7  C   UNL     1      64.831  26.716  23.432  1.00  0.00     0.032 C 
ATOM      8  C   UNL     1      63.755  25.625  23.437  1.00  0.00     0.014 C 
BRANCH   7   9
ATOM      9  C   UNL     1      65.929  26.342  22.475  1.00  0.00     0.044 C 
ATOM     10  O   UNL     1      66.537  27.236  21.830  1.00  0.00    -0.550 OA
ATOM     11  O   UNL     1      66.280  25.009  22.295  1.00  0.00    -0.550 OA
ENDBRANCH   7   9
ENDBRANCH   6   7
ENDBRANCH   5   6
ENDBRANCH   4   5
ENDBRANCH   3   4
ENDBRANCH   2   3
ENDBRANCH   1   2
BRANCH   1  12
ATOM     12  C   UNL     1      61.545  28.224  24.644  1.00  0.00     0.000 C 
BRANCH  12  13
ATOM     13  C   UNL     1      61.089  27.361  25.837  1.00  0.00    -0.000 C 
BRANCH  13  14
ATOM     14  C   UNL     1      62.074  27.316  27.020  1.00  0.00    -0.000 C 
BRANCH  14  15
ATOM     15  C   UNL     1      61.595  28.137  28.226  1.00  0.00    -0.000 C 
BRANCH  15  16
ATOM     16  C   UNL     1      62.746  28.952  28.826  1.00  0.00    -0.000 C 
BRANCH  16  17
ATOM     17  C   UNL     1      62.522  30.456  28.621  1.00  0.00    -0.000 C 
BRANCH  17  18
ATOM     18  C   UNL     1      63.793  31.250  28.943  1.00  0.00    -0.003 C 
ATOM     19  C   UNL     1      65.024  30.595  28.324  1.00  0.00     0.004 C 
ENDBRANCH  17  18
ENDBRANCH  16  17
ENDBRANCH  15  16
ENDBRANCH  14  15
ENDBRANCH  13  14
ENDBRANCH  12  13
ENDBRANCH   1  12
TORSDOF 14
ENDMDL
MODEL 4
REMARK VINA RESULT:    -4.590     12.351     15.040
REMARK INTER + INTRA:         -10.877
REMARK INTER:                  -8.577
REMARK INTRA:                  -2.300
REMARK UNBOUND:                -2.530
REMARK SMILES CCCCCCCCCCCCCC[C@H](C)C(=O)[O-]
REMARK SMILES IDX 9 1 10 2 11 3 12 4 13 5 14 6 15 7 16 8 17 9 18 10 19 11 8 12
REMARK SMILES IDX 7 13 6 14 5 15 4 16 3 17 2 18 1 19
REMARK H PARENT
REMARK Flexibility Score: inf
ROOT
ATOM      1  C   UNL     1      63.699  30.185  12.029  1.00  0.00     0.000 C 
ENDROOT
BRANCH   1   2
ATOM      2  C   UNL     1      64.044  31.504  11.316  1.00  0.00     0.000 C 
BRANCH   2   3
ATOM      3  C   UNL     1      64.451  32.620  12.289  1.00  0.00     0.000 C 
BRANCH   3   4
ATOM      4  C   UNL     1      64.097  32.243  13.735  1.00  0.00     0.000 C 
BRANCH   4   5
ATOM      5  C   UNL     1      63.540  33.427  14.545  1.00  0.00     0.001 C 
BRANCH   5   6
ATOM      6  C   UNL     1      62.002  33.536  14.575  1.00  0.00     0.009 C 
BRANCH   6   7
ATOM      7  C   UNL     1      61.263  32.317  13.979  1.00  0.00     0.032 C 
ATOM      8  C   UNL     1      60.715  32.652  12.588  1.00  0.00     0.014 C 
BRANCH   7   9
ATOM      9  C   UNL     1      60.140  31.863  14.871  1.00  0.00     0.044 C 
ATOM     10  O   UNL     1      60.385  31.462  16.040  1.00  0.00    -0.550 OA
ATOM     11  O   UNL     1      58.828  31.882  14.415  1.00  0.00    -0.550 OA
ENDBRANCH   7   9
ENDBRANCH   6   7
ENDBRANCH   5   6
ENDBRANCH   4   5
ENDBRANCH   3   4
ENDBRANCH   2   3
ENDBRANCH   1   2
BRANCH   1  12
ATOM     12  C   UNL     1      63.433  28.990  11.091  1.00  0.00     0.000 C 
BRANCH  12  13
ATOM     13  C   UNL     1      63.429  29.325   9.586  1.00  0.00    -0.000 C 
BRANCH  13  14
ATOM     14  C   UNL     1      62.044  29.284   8.916  1.00  0.00    -0.000 C 
BRANCH  14  15
ATOM     15  C   UNL     1      61.131  28.197   9.498  1.00  0.00    -0.000 C 
BRANCH  15  16
ATOM     16  C   UNL     1      59.753  28.769   9.854  1.00  0.00    -0.000 C 
BRANCH  16  17
ATOM     17  C   UNL     1      59.783  29.468  11.219  1.00  0.00    -0.000 C 
BRANCH  17  18
ATOM     18  C   UNL     1      59.544  28.466  12.354  1.00  0.00    -0.003 C 
ATOM     19  C   UNL     1      60.663  28.529  13.390  1.00  0.00     0.004 C 
ENDBRANCH  17  18
ENDBRANCH  16  17
ENDBRANCH  15  16
ENDBRANCH  14  15
ENDBRANCH  13  14
ENDBRANCH  12  13
ENDBRANCH   1  12
TORSDOF 14
ENDMDL
MODEL 5
REMARK VINA RESULT:    -4.577     11.894     14.250
REMARK INTER + INTRA:         -10.854
REMARK INTER:                  -8.292
REMARK INTRA:                  -2.562
REMARK UNBOUND:                -2.530
REMARK SMILES CCCCCCCCCCCCCC[C@H](C)C(=O)[O-]
REMARK SMILES IDX 9 1 10 2 11 3 12 4 13 5 14 6 15 7 16 8 17 9 18 10 19 11 8 12
REMARK SMILES IDX 7 13 6 14 5 15 4 16 3 17 2 18 1 19
REMARK H PARENT
REMARK Flexibility Score: inf
ROOT
ATOM      1  C   UNL     1      61.140  28.361   9.480  1.00  0.00     0.000 C 
ENDROOT
BRANCH   1   2
ATOM      2  C   UNL     1      62.217  29.401   9.126  1.00  0.00     0.000 C 
BRANCH   2   3
ATOM      3  C   UNL     1      63.610  29.019   9.645  1.00  0.00     0.000 C 
BRANCH   3   4
ATOM      4  C   UNL     1      63.810  29.504  11.088  1.00  0.00     0.000 C 
BRANCH   4   5
ATOM      5  C   UNL     1      63.410  30.977  11.286  1.00  0.00     0.001 C 
BRANCH   5   6
ATOM      6  C   UNL     1      64.460  31.851  12.004  1.00  0.00     0.009 C 
BRANCH   6   7
ATOM      7  C   UNL     1      64.150  32.131  13.491  1.00  0.00     0.032 C 
ATOM      8  C   UNL     1      64.544  33.566  13.858  1.00  0.00     0.014 C 
BRANCH   7   9
ATOM      9  C   UNL     1      64.863  31.162  14.395  1.00  0.00     0.044 C 
ATOM     10  O   UNL     1      65.912  31.514  14.997  1.00  0.00    -0.550 OA
ATOM     11  O   UNL     1      64.371  29.874  14.572  1.00  0.00    -0.550 OA
ENDBRANCH   7   9
ENDBRANCH   6   7
ENDBRANCH   5   6
ENDBRANCH   4   5
ENDBRANCH   3   4
ENDBRANCH   2   3
ENDBRANCH   1   2
BRANCH   1  12
ATOM     12  C   UNL     1      59.793  28.952   9.944  1.00  0.00     0.000 C 
BRANCH  12  13
ATOM     13  C   UNL     1      59.672  29.195  11.462  1.00  0.00    -0.000 C 
BRANCH  13  14
ATOM     14  C   UNL     1      60.513  28.250  12.340  1.00  0.00    -0.000 C 
BRANCH  14  15
ATOM     15  C   UNL     1      61.087  28.944  13.583  1.00  0.00    -0.000 C 
BRANCH  15  16
ATOM     16  C   UNL     1      60.727  30.434  13.595  1.00  0.00    -0.000 C 
BRANCH  16  17
ATOM     17  C   UNL     1      60.965  31.047  14.981  1.00  0.00    -0.000 C 
BRANCH  17  18
ATOM     18  C   UNL     1      60.819  32.573  14.940  1.00  0.00    -0.003 C 
ATOM     19  C   UNL     1      60.574  33.065  13.516  1.00  0.00     0.004 C 
ENDBRANCH  17  18
ENDBRANCH  16  17
ENDBRANCH  15  16
ENDBRANCH  14  15
ENDBRANCH  13  14
ENDBRANCH  12  13
ENDBRANCH   1  12
TORSDOF 14
ENDMDL
MODEL 6
REMARK VINA RESULT:    -4.556     12.467     15.072
REMARK INTER + INTRA:         -10.815
REMARK INTER:                  -8.728
REMARK INTRA:                  -2.087
REMARK UNBOUND:                -2.530
REMARK SMILES CCCCCCCCCCCCCC[C@H](C)C(=O)[O-]
REMARK SMILES IDX 9 1 10 2 11 3 12 4 13 5 14 6 15 7 16 8 17 9 18 10 19 11 8 12
REMARK SMILES IDX 7 13 6 14 5 15 4 16 3 17 2 18 1 19
REMARK H PARENT
REMARK Flexibility Score: inf
ROOT
ATOM      1  C   UNL     1      60.015  29.676  11.241  1.00  0.00     0.000 C 
ENDROOT
BRANCH   1   2
ATOM      2  C   UNL     1      59.631  28.620  12.292  1.00  0.00     0.000 C 
BRANCH   2   3
ATOM      3  C   UNL     1      60.668  28.493  13.418  1.00  0.00     0.000 C 
BRANCH   3   4
ATOM      4  C   UNL     1      61.873  29.410  13.159  1.00  0.00     0.000 C 
BRANCH   4   5
ATOM      5  C   UNL     1      62.057  30.481  14.249  1.00  0.00     0.001 C 
BRANCH   5   6
ATOM      6  C   UNL     1      60.752  31.119  14.768  1.00  0.00     0.009 C 
BRANCH   6   7
ATOM      7  C   UNL     1      60.568  32.604  14.380  1.00  0.00     0.032 C 
ATOM      8  C   UNL     1      60.843  32.803  12.886  1.00  0.00     0.014 C 
BRANCH   7   9
ATOM      9  C   UNL     1      61.470  33.499  15.185  1.00  0.00     0.044 C 
ATOM     10  O   UNL     1      62.629  33.765  14.772  1.00  0.00    -0.550 OA
ATOM     11  O   UNL     1      61.031  34.039  16.389  1.00  0.00    -0.550 OA
ENDBRANCH   7   9
ENDBRANCH   6   7
ENDBRANCH   5   6
ENDBRANCH   4   5
ENDBRANCH   3   4
ENDBRANCH   2   3
ENDBRANCH   1   2
BRANCH   1  12
ATOM     12  C   UNL     1      59.982  29.182   9.781  1.00  0.00     0.000 C 
BRANCH  12  13
ATOM     13  C   UNL     1      61.214  29.558   8.934  1.00  0.00    -0.000 C 
BRANCH  13  14
ATOM     14  C   UNL     1      62.418  28.611   9.083  1.00  0.00    -0.000 C 
BRANCH  14  15
ATOM     15  C   UNL     1      63.553  29.217   9.920  1.00  0.00    -0.000 C 
BRANCH  15  16
ATOM     16  C   UNL     1      64.417  30.159   9.074  1.00  0.00    -0.000 C 
BRANCH  16  17
ATOM     17  C   UNL     1      64.616  31.506   9.779  1.00  0.00    -0.000 C 
BRANCH  17  18
ATOM     18  C   UNL     1      64.287  31.398  11.273  1.00  0.00    -0.003 C 
ATOM     19  C   UNL     1      64.589  32.706  11.999  1.00  0.00     0.004 C 
ENDBRANCH  17  18
ENDBRANCH  16  17
ENDBRANCH  15  16
ENDBRANCH  14  15
ENDBRANCH  13  14
ENDBRANCH  12  13
ENDBRANCH   1  12
TORSDOF 14
ENDMDL
MODEL 7
REMARK VINA RESULT:    -4.540     12.455     15.154
REMARK INTER + INTRA:         -10.786
REMARK INTER:                  -8.714
REMARK INTRA:                  -2.072
REMARK UNBOUND:                -2.530
REMARK SMILES CCCCCCCCCCCCCC[C@H](C)C(=O)[O-]
REMARK SMILES IDX 9 1 10 2 11 3 12 4 13 5 14 6 15 7 16 8 17 9 18 10 19 11 8 12
REMARK SMILES IDX 7 13 6 14 5 15 4 16 3 17 2 18 1 19
REMARK H PARENT
REMARK Flexibility Score: inf
ROOT
ATOM      1  C   UNL     1      63.778  30.228   9.097  1.00  0.00     0.000 C 
ENDROOT
BRANCH   1   2
ATOM      2  C   UNL     1      64.427  31.239  10.059  1.00  0.00     0.000 C 
BRANCH   2   3
ATOM      3  C   UNL     1      63.811  31.206  11.465  1.00  0.00     0.000 C 
BRANCH   3   4
ATOM      4  C   UNL     1      64.096  32.512  12.220  1.00  0.00     0.000 C 
BRANCH   4   5
ATOM      5  C   UNL     1      64.162  32.321  13.746  1.00  0.00     0.001 C 
BRANCH   5   6
ATOM      6  C   UNL     1      62.807  32.055  14.433  1.00  0.00     0.009 C 
BRANCH   6   7
ATOM      7  C   UNL     1      61.762  33.176  14.241  1.00  0.00     0.032 C 
ATOM      8  C   UNL     1      61.521  33.913  15.563  1.00  0.00     0.014 C 
BRANCH   7   9
ATOM      9  C   UNL     1      60.460  32.632  13.719  1.00  0.00     0.044 C 
ATOM     10  O   UNL     1      60.184  32.721  12.494  1.00  0.00    -0.550 OA
ATOM     11  O   UNL     1      59.553  32.028  14.583  1.00  0.00    -0.550 OA
ENDBRANCH   7   9
ENDBRANCH   6   7
ENDBRANCH   5   6
ENDBRANCH   4   5
ENDBRANCH   3   4
ENDBRANCH   2   3
ENDBRANCH   1   2
BRANCH   1  12
ATOM     12  C   UNL     1      63.055  29.051   9.783  1.00  0.00     0.000 C 
BRANCH  12  13
ATOM     13  C   UNL     1      61.756  28.588   9.094  1.00  0.00    -0.000 C 
BRANCH  13  14
ATOM     14  C   UNL     1      60.540  29.506   9.316  1.00  0.00    -0.000 C 
BRANCH  14  15
ATOM     15  C   UNL     1      60.301  29.831  10.796  1.00  0.00    -0.000 C 
BRANCH  15  16
ATOM     16  C   UNL     1      59.416  28.767  11.456  1.00  0.00    -0.000 C 
BRANCH  16  17
ATOM     17  C   UNL     1      60.170  28.044  12.579  1.00  0.00    -0.000 C 
BRANCH  17  18
ATOM     18  C   UNL     1      61.087  29.010  13.337  1.00  0.00    -0.003 C 
ATOM     19  C   UNL     1      62.525  28.497  13.365  1.00  0.00     0.004 C 
ENDBRANCH  17  18
ENDBRANCH  16  17
ENDBRANCH  15  16
ENDBRANCH  14  15
ENDBRANCH  13  14
ENDBRANCH  12  13
ENDBRANCH   1  12
TORSDOF 14
ENDMDL
MODEL 8
REMARK VINA RESULT:    -4.518     12.548     14.578
REMARK INTER + INTRA:         -10.746
REMARK INTER:                  -8.339
REMARK INTRA:                  -2.406
REMARK UNBOUND:                -2.530
REMARK SMILES CCCCCCCCCCCCCC[C@H](C)C(=O)[O-]
REMARK SMILES IDX 9 1 10 2 11 3 12 4 13 5 14 6 15 7 16 8 17 9 18 10 19 11 8 12
REMARK SMILES IDX 7 13 6 14 5 15 4 16 3 17 2 18 1 19
REMARK H PARENT
REMARK Flexibility Score: inf
ROOT
ATOM      1  C   UNL     1      63.005  33.321  14.160  1.00  0.00     0.000 C 
ENDROOT
BRANCH   1   2
ATOM      2  C   UNL     1      61.886  33.605  15.177  1.00  0.00     0.000 C 
BRANCH   2   3
ATOM      3  C   UNL     1      60.547  32.962  14.787  1.00  0.00     0.000 C 
BRANCH   3   4
ATOM      4  C   UNL     1      60.500  32.663  13.282  1.00  0.00     0.000 C 
BRANCH   4   5
ATOM      5  C   UNL     1      59.811  31.326  12.956  1.00  0.00     0.001 C 
BRANCH   5   6
ATOM      6  C   UNL     1      60.304  30.630  11.671  1.00  0.00     0.009 C 
BRANCH   6   7
ATOM      7  C   UNL     1      59.779  29.190  11.481  1.00  0.00     0.032 C 
ATOM      8  C   UNL     1      60.325  28.273  12.581  1.00  0.00     0.014 C 
BRANCH   7   9
ATOM      9  C   UNL     1      60.152  28.640  10.131  1.00  0.00     0.044 C 
ATOM     10  O   UNL     1      59.307  28.630   9.198  1.00  0.00    -0.550 OA
ATOM     11  O   UNL     1      61.429  28.141   9.904  1.00  0.00    -0.550 OA
ENDBRANCH   7   9
ENDBRANCH   6   7
ENDBRANCH   5   6
ENDBRANCH   4   5
ENDBRANCH   3   4
ENDBRANCH   2   3
ENDBRANCH   1   2
BRANCH   1  12
ATOM     12  C   UNL     1      64.294  32.726  14.761  1.00  0.00     0.000 C 
BRANCH  12  13
ATOM     13  C   UNL     1      64.470  31.207  14.562  1.00  0.00    -0.000 C 
BRANCH  13  14
ATOM     14  C   UNL     1      63.406  30.541  13.671  1.00  0.00    -0.000 C 
BRANCH  14  15
ATOM     15  C   UNL     1      63.986  29.446  12.765  1.00  0.00    -0.000 C 
BRANCH  15  16
ATOM     16  C   UNL     1      64.052  29.918  11.308  1.00  0.00    -0.000 C 
BRANCH  16  17
ATOM     17  C   UNL     1      63.783  31.424  11.204  1.00  0.00    -0.000 C 
BRANCH  17  18
ATOM     18  C   UNL     1      64.925  32.138  10.472  1.00  0.00    -0.003 C 
ATOM     19  C   UNL     1      65.522  33.248  11.332  1.00  0.00     0.004 C 
ENDBRANCH  17  18
ENDBRANCH  16  17
ENDBRANCH  15  16
ENDBRANCH  14  15
ENDBRANCH  13  14
ENDBRANCH  12  13
ENDBRANCH   1  12
TORSDOF 14
ENDMDL
MODEL 9
REMARK VINA RESULT:    -4.508      1.128      3.907
REMARK INTER + INTRA:         -10.727
REMARK INTER:                  -9.100
REMARK INTRA:                  -1.628
REMARK UNBOUND:                -2.530
REMARK SMILES CCCCCCCCCCCCCC[C@H](C)C(=O)[O-]
REMARK SMILES IDX 9 1 10 2 11 3 12 4 13 5 14 6 15 7 16 8 17 9 18 10 19 11 8 12
REMARK SMILES IDX 7 13 6 14 5 15 4 16 3 17 2 18 1 19
REMARK H PARENT
REMARK Flexibility Score: inf
ROOT
ATOM      1  C   UNL     1      64.178  30.663  27.273  1.00  0.00     0.000 C 
ENDROOT
BRANCH   1   2
ATOM      2  C   UNL     1      65.628  30.402  27.717  1.00  0.00     0.000 C 
BRANCH   2   3
ATOM      3  C   UNL     1      66.582  30.171  26.536  1.00  0.00     0.000 C 
BRANCH   3   4
ATOM      4  C   UNL     1      65.801  29.828  25.259  1.00  0.00     0.000 C 
BRANCH   4   5
ATOM      5  C   UNL     1      66.593  28.925  24.297  1.00  0.00     0.001 C 
BRANCH   5   6
ATOM      6  C   UNL     1      65.735  28.127  23.293  1.00  0.00     0.009 C 
BRANCH   6   7
ATOM      7  C   UNL     1      65.799  26.594  23.474  1.00  0.00     0.032 C 
ATOM      8  C   UNL     1      65.901  25.898  22.113  1.00  0.00     0.014 C 
BRANCH   7   9
ATOM      9  C   UNL     1      64.600  26.076  24.220  1.00  0.00     0.044 C 
ATOM     10  O   UNL     1      63.660  25.517  23.595  1.00  0.00    -0.550 OA
ATOM     11  O   UNL     1      64.519  26.211  25.601  1.00  0.00    -0.550 OA
ENDBRANCH   7   9
ENDBRANCH   6   7
ENDBRANCH   5   6
ENDBRANCH   4   5
ENDBRANCH   3   4
ENDBRANCH   2   3
ENDBRANCH   1   2
BRANCH   1  12
ATOM     12  C   UNL     1      63.149  30.732  28.420  1.00  0.00     0.000 C 
BRANCH  12  13
ATOM     13  C   UNL     1      62.729  29.369  29.006  1.00  0.00    -0.000 C 
BRANCH  13  14
ATOM     14  C   UNL     1      61.237  29.025  28.845  1.00  0.00    -0.000 C 
BRANCH  14  15
ATOM     15  C   UNL     1      61.005  27.593  28.345  1.00  0.00    -0.000 C 
BRANCH  15  16
ATOM     16  C   UNL     1      61.696  27.365  26.995  1.00  0.00    -0.000 C 
BRANCH  16  17
ATOM     17  C   UNL     1      60.666  27.210  25.869  1.00  0.00    -0.000 C 
BRANCH  17  18
ATOM     18  C   UNL     1      61.115  27.955  24.607  1.00  0.00    -0.003 C 
ATOM     19  C   UNL     1      62.002  29.147  24.957  1.00  0.00     0.004 C 
ENDBRANCH  17  18
ENDBRANCH  16  17
ENDBRANCH  15  16
ENDBRANCH  14  15
ENDBRANCH  13  14
ENDBRANCH  12  13
ENDBRANCH   1  12
TORSDOF 14
ENDMDL
