MODEL 1
REMARK VINA RESULT:    -6.356      0.000      0.000
REMARK INTER + INTRA:         -12.689
REMARK INTER:                 -10.444
REMARK INTRA:                  -2.245
REMARK UNBOUND:                -2.245
REMARK SMILES C[C@@H]1O[C@@H](OC[C@@H]2O[C@@H](Oc3c(-c4ccc(O)c(O)c4)oc4cc(O)cc(O)c4c3=O)[C@H](O)[C@H](O)[C@H]2O)[C@H](O)[C@@H](O)[C@@H]1O
REMARK SMILES IDX 7 1 36 2 34 3 32 4 9 5 8 6 6 7 5 8 4 9 1 10 2 11 42 12 3 13
REMARK SMILES IDX 40 14 38 15 43 16 41 18 39 20 37 22 35 24 10 26 11 27 12 28
REMARK SMILES IDX 30 29 21 30 29 31 31 32 22 33 27 34 23 35 26 36 24 37 13 38
REMARK SMILES IDX 20 39 14 40 18 41 15 42 16 43 19 44 17 46 28 48 25 50 33 52
REMARK H PARENT 43 17 41 19 39 21 37 23 35 25 19 45 17 47 28 49 25 51 33 53
REMARK Flexibility Score: inf
ROOT
ATOM      1  C   UNL     1      17.000  44.389  74.156  1.00  0.00     0.180 C 
ATOM      2  C   UNL     1      15.503  44.728  73.947  1.00  0.00     0.177 C 
ATOM      3  C   UNL     1      14.788  43.668  74.871  1.00  0.00     0.180 C 
ATOM      4  C   UNL     1      15.194  42.185  74.512  1.00  0.00     0.214 C 
ATOM      5  C   UNL     1      16.737  42.050  74.356  1.00  0.00     0.339 C 
ATOM      6  O   UNL     1      17.115  43.127  73.507  1.00  0.00    -0.332 OA
ENDROOT
BRANCH   1   7
ATOM      7  C   UNL     1      18.291  45.171  73.861  1.00  0.00     0.198 C 
BRANCH   7   8
ATOM      8  O   UNL     1      18.363  46.594  74.107  1.00  0.00    -0.347 OA
BRANCH   8   9
ATOM      9  C   UNL     1      18.240  46.792  75.520  1.00  0.00     0.281 C 
ATOM     10  C   UNL     1      15.687  49.459  75.662  1.00  0.00     0.041 C 
ATOM     11  C   UNL     1      17.052  48.840  75.385  1.00  0.00     0.150 C 
ATOM     12  C   UNL     1      18.247  49.687  75.909  1.00  0.00     0.174 C 
ATOM     13  O   UNL     1      17.083  47.511  75.875  1.00  0.00    -0.344 OA
ATOM     14  C   UNL     1      19.538  48.973  75.484  1.00  0.00     0.179 C 
ATOM     15  C   UNL     1      19.532  47.492  76.077  1.00  0.00     0.202 C 
BRANCH  12  16
ATOM     16  O   UNL     1      18.201  49.661  77.326  1.00  0.00    -0.388 OA
ATOM     17  H   UNL     1      19.188  49.745  77.572  1.00  0.00     0.211 HD
ENDBRANCH  12  16
BRANCH  14  18
ATOM     18  O   UNL     1      19.619  48.940  74.027  1.00  0.00    -0.387 OA
ATOM     19  H   UNL     1      20.461  48.480  73.721  1.00  0.00     0.211 HD
ENDBRANCH  14  18
BRANCH  15  20
ATOM     20  O   UNL     1      19.552  47.513  77.505  1.00  0.00    -0.385 OA
ATOM     21  H   UNL     1      18.815  46.934  77.883  1.00  0.00     0.211 HD
ENDBRANCH  15  20
ENDBRANCH   8   9
ENDBRANCH   7   8
ENDBRANCH   1   7
BRANCH   2  22
ATOM     22  O   UNL     1      15.123  46.043  74.328  1.00  0.00    -0.387 OA
ATOM     23  H   UNL     1      15.688  46.277  75.152  1.00  0.00     0.211 HD
ENDBRANCH   2  22
BRANCH   3  24
ATOM     24  O   UNL     1      13.387  43.839  74.694  1.00  0.00    -0.387 OA
ATOM     25  H   UNL     1      13.040  42.984  74.278  1.00  0.00     0.211 HD
ENDBRANCH   3  24
BRANCH   5  26
ATOM     26  O   UNL     1      17.602  42.057  75.504  1.00  0.00    -0.454 OA
BRANCH  26  27
ATOM     27  C   UNL     1      18.142  40.904  76.108  1.00  0.00     0.214 A 
ATOM     28  C   UNL     1      18.679  40.957  77.446  1.00  0.00     0.180 A 
ATOM     29  C   UNL     1      18.293  39.617  75.452  1.00  0.00     0.239 A 
ATOM     30  O   UNL     1      19.047  39.825  78.060  1.00  0.00    -0.452 OA
ATOM     31  C   UNL     1      18.859  38.512  76.100  1.00  0.00     0.111 A 
ATOM     32  O   UNL     1      17.896  39.444  74.273  1.00  0.00    -0.285 OA
ATOM     33  C   UNL     1      19.117  38.651  77.479  1.00  0.00     0.146 A 
ATOM     34  C   UNL     1      19.099  37.304  75.441  1.00  0.00     0.134 A 
ATOM     35  C   UNL     1      19.457  37.536  78.212  1.00  0.00     0.094 A 
ATOM     36  C   UNL     1      19.497  36.177  76.185  1.00  0.00     0.093 A 
ATOM     37  C   UNL     1      19.659  36.295  77.564  1.00  0.00     0.123 A 
BRANCH  28  38
ATOM     38  C   UNL     1      18.884  42.204  78.235  1.00  0.00     0.025 A 
ATOM     39  C   UNL     1      18.055  42.595  79.326  1.00  0.00     0.062 A 
ATOM     40  C   UNL     1      19.946  43.078  77.825  1.00  0.00     0.016 A 
ATOM     41  C   UNL     1      18.293  43.793  79.983  1.00  0.00     0.158 A 
ATOM     42  C   UNL     1      20.125  44.276  78.481  1.00  0.00     0.051 A 
ATOM     43  C   UNL     1      19.284  44.668  79.537  1.00  0.00     0.157 A 
BRANCH  41  44
ATOM     44  O   UNL     1      17.498  44.172  81.062  1.00  0.00    -0.504 OA
ATOM     45  H   UNL     1      17.556  45.127  81.436  1.00  0.00     0.293 HD
ENDBRANCH  41  44
BRANCH  43  46
ATOM     46  O   UNL     1      19.408  45.980  80.056  1.00  0.00    -0.504 OA
ATOM     47  H   UNL     1      20.173  46.580  79.639  1.00  0.00     0.293 HD
ENDBRANCH  43  46
ENDBRANCH  28  38
BRANCH  34  48
ATOM     48  O   UNL     1      18.948  37.177  74.058  1.00  0.00    -0.507 OA
ATOM     49  H   UNL     1      19.608  37.607  73.408  1.00  0.00     0.293 HD
ENDBRANCH  34  48
BRANCH  37  50
ATOM     50  O   UNL     1      20.044  35.150  78.299  1.00  0.00    -0.508 OA
ATOM     51  H   UNL     1      19.403  34.657  78.902  1.00  0.00     0.293 HD
ENDBRANCH  37  50
ENDBRANCH  26  27
ENDBRANCH   5  26
BRANCH   4  52
ATOM     52  O   UNL     1      14.548  41.928  73.215  1.00  0.00    -0.384 OA
ATOM     53  H   UNL     1      13.996  41.078  73.292  1.00  0.00     0.211 HD
ENDBRANCH   4  52
TORSDOF 16
ENDMDL
MODEL 2
REMARK VINA RESULT:    -5.619      1.653      2.097
REMARK INTER + INTRA:         -11.477
REMARK INTER:                 -10.142
REMARK INTRA:                  -1.334
REMARK UNBOUND:                -2.245
REMARK SMILES C[C@@H]1O[C@@H](OC[C@@H]2O[C@@H](Oc3c(-c4ccc(O)c(O)c4)oc4cc(O)cc(O)c4c3=O)[C@H](O)[C@H](O)[C@H]2O)[C@H](O)[C@@H](O)[C@@H]1O
REMARK SMILES IDX 7 1 36 2 34 3 32 4 9 5 8 6 6 7 5 8 4 9 1 10 2 11 42 12 3 13
REMARK SMILES IDX 40 14 38 15 43 16 41 18 39 20 37 22 35 24 10 26 11 27 12 28
REMARK SMILES IDX 30 29 21 30 29 31 31 32 22 33 27 34 23 35 26 36 24 37 13 38
REMARK SMILES IDX 20 39 14 40 18 41 15 42 16 43 19 44 17 46 28 48 25 50 33 52
REMARK H PARENT 43 17 41 19 39 21 37 23 35 25 19 45 17 47 28 49 25 51 33 53
REMARK Flexibility Score: inf
ROOT
ATOM      1  C   UNL     1      16.631  45.295  75.048  1.00  0.00     0.180 C 
ATOM      2  C   UNL     1      15.171  45.425  74.549  1.00  0.00     0.177 C 
ATOM      3  C   UNL     1      14.516  44.093  75.083  1.00  0.00     0.180 C 
ATOM      4  C   UNL     1      15.281  42.803  74.586  1.00  0.00     0.214 C 
ATOM      5  C   UNL     1      16.817  42.956  74.782  1.00  0.00     0.339 C 
ATOM      6  O   UNL     1      17.130  44.234  74.241  1.00  0.00    -0.332 OA
ENDROOT
BRANCH   1   7
ATOM      7  C   UNL     1      17.768  46.320  75.206  1.00  0.00     0.198 C 
BRANCH   7   8
ATOM      8  O   UNL     1      18.557  46.724  74.064  1.00  0.00    -0.347 OA
BRANCH   8   9
ATOM      9  C   UNL     1      18.479  48.151  73.971  1.00  0.00     0.281 C 
ATOM     10  C   UNL     1      15.230  48.594  72.269  1.00  0.00     0.041 C 
ATOM     11  C   UNL     1      16.698  48.205  72.407  1.00  0.00     0.150 C 
ATOM     12  C   UNL     1      17.597  48.712  71.244  1.00  0.00     0.174 C 
ATOM     13  O   UNL     1      17.183  48.612  73.674  1.00  0.00    -0.344 OA
ATOM     14  C   UNL     1      19.014  48.174  71.489  1.00  0.00     0.179 C 
ATOM     15  C   UNL     1      19.520  48.676  72.917  1.00  0.00     0.202 C 
BRANCH  12  16
ATOM     16  O   UNL     1      17.663  50.125  71.338  1.00  0.00    -0.388 OA
ATOM     17  H   UNL     1      16.762  50.406  70.948  1.00  0.00     0.211 HD
ENDBRANCH  12  16
BRANCH  14  18
ATOM     18  O   UNL     1      18.996  46.716  71.438  1.00  0.00    -0.387 OA
ATOM     19  H   UNL     1      18.965  46.320  72.364  1.00  0.00     0.211 HD
ENDBRANCH  14  18
BRANCH  15  20
ATOM     20  O   UNL     1      19.634  50.100  72.945  1.00  0.00    -0.385 OA
ATOM     21  H   UNL     1      19.901  50.419  73.867  1.00  0.00     0.211 HD
ENDBRANCH  15  20
ENDBRANCH   8   9
ENDBRANCH   7   8
ENDBRANCH   1   7
BRANCH   2  22
ATOM     22  O   UNL     1      14.460  46.551  75.046  1.00  0.00    -0.387 OA
ATOM     23  H   UNL     1      14.445  46.452  76.067  1.00  0.00     0.211 HD
ENDBRANCH   2  22
BRANCH   3  24
ATOM     24  O   UNL     1      13.174  44.068  74.609  1.00  0.00    -0.387 OA
ATOM     25  H   UNL     1      13.222  44.082  73.599  1.00  0.00     0.211 HD
ENDBRANCH   3  24
BRANCH   5  26
ATOM     26  O   UNL     1      17.412  42.860  76.086  1.00  0.00    -0.454 OA
BRANCH  26  27
ATOM     27  C   UNL     1      17.957  41.682  76.635  1.00  0.00     0.214 A 
ATOM     28  C   UNL     1      18.528  41.683  77.959  1.00  0.00     0.180 A 
ATOM     29  C   UNL     1      18.081  40.419  75.928  1.00  0.00     0.239 A 
ATOM     30  O   UNL     1      18.902  40.526  78.522  1.00  0.00    -0.452 OA
ATOM     31  C   UNL     1      18.653  39.287  76.522  1.00  0.00     0.111 A 
ATOM     32  O   UNL     1      17.653  40.291  74.754  1.00  0.00    -0.285 OA
ATOM     33  C   UNL     1      18.948  39.373  77.898  1.00  0.00     0.146 A 
ATOM     34  C   UNL     1      18.867  38.101  75.814  1.00  0.00     0.134 A 
ATOM     35  C   UNL     1      19.296  38.230  78.581  1.00  0.00     0.094 A 
ATOM     36  C   UNL     1      19.274  36.945  76.507  1.00  0.00     0.093 A 
ATOM     37  C   UNL     1      19.472  37.012  77.884  1.00  0.00     0.123 A 
BRANCH  28  38
ATOM     38  C   UNL     1      18.763  42.899  78.788  1.00  0.00     0.025 A 
ATOM     39  C   UNL     1      17.909  43.306  79.853  1.00  0.00     0.062 A 
ATOM     40  C   UNL     1      19.884  43.725  78.444  1.00  0.00     0.016 A 
ATOM     41  C   UNL     1      18.181  44.475  80.549  1.00  0.00     0.158 A 
ATOM     42  C   UNL     1      20.097  44.896  79.136  1.00  0.00     0.051 A 
ATOM     43  C   UNL     1      19.234  45.307  80.167  1.00  0.00     0.157 A 
BRANCH  41  44
ATOM     44  O   UNL     1      17.361  44.870  81.604  1.00  0.00    -0.504 OA
ATOM     45  H   UNL     1      16.394  44.529  81.663  1.00  0.00     0.293 HD
ENDBRANCH  41  44
BRANCH  43  46
ATOM     46  O   UNL     1      19.403  46.598  80.724  1.00  0.00    -0.504 OA
ATOM     47  H   UNL     1      19.303  47.414  80.058  1.00  0.00     0.293 HD
ENDBRANCH  43  46
ENDBRANCH  28  38
BRANCH  34  48
ATOM     48  O   UNL     1      18.681  38.026  74.432  1.00  0.00    -0.507 OA
ATOM     49  H   UNL     1      18.951  37.196  73.901  1.00  0.00     0.293 HD
ENDBRANCH  34  48
BRANCH  37  50
ATOM     50  O   UNL     1      19.865  35.838  78.567  1.00  0.00    -0.508 OA
ATOM     51  H   UNL     1      19.291  35.009  78.587  1.00  0.00     0.293 HD
ENDBRANCH  37  50
ENDBRANCH  26  27
ENDBRANCH   5  26
BRANCH   4  52
ATOM     52  O   UNL     1      14.976  42.725  73.148  1.00  0.00    -0.384 OA
ATOM     53  H   UNL     1      14.012  42.423  73.038  1.00  0.00     0.211 HD
ENDBRANCH   4  52
TORSDOF 16
ENDMDL
MODEL 3
REMARK VINA RESULT:    -5.035      3.556      7.701
REMARK INTER + INTRA:         -10.518
REMARK INTER:                  -8.165
REMARK INTRA:                  -2.354
REMARK UNBOUND:                -2.245
REMARK SMILES C[C@@H]1O[C@@H](OC[C@@H]2O[C@@H](Oc3c(-c4ccc(O)c(O)c4)oc4cc(O)cc(O)c4c3=O)[C@H](O)[C@H](O)[C@H]2O)[C@H](O)[C@@H](O)[C@@H]1O
REMARK SMILES IDX 7 1 36 2 34 3 32 4 9 5 8 6 6 7 5 8 4 9 1 10 2 11 42 12 3 13
REMARK SMILES IDX 40 14 38 15 43 16 41 18 39 20 37 22 35 24 10 26 11 27 12 28
REMARK SMILES IDX 30 29 21 30 29 31 31 32 22 33 27 34 23 35 26 36 24 37 13 38
REMARK SMILES IDX 20 39 14 40 18 41 15 42 16 43 19 44 17 46 28 48 25 50 33 52
REMARK H PARENT 43 17 41 19 39 21 37 23 35 25 19 45 17 47 28 49 25 51 33 53
REMARK Flexibility Score: inf
ROOT
ATOM      1  C   UNL     1      16.792  48.773  72.625  1.00  0.00     0.180 C 
ATOM      2  C   UNL     1      17.770  48.882  71.429  1.00  0.00     0.177 C 
ATOM      3  C   UNL     1      19.056  48.154  71.981  1.00  0.00     0.180 C 
ATOM      4  C   UNL     1      19.576  48.789  73.330  1.00  0.00     0.214 C 
ATOM      5  C   UNL     1      18.406  49.002  74.334  1.00  0.00     0.339 C 
ATOM      6  O   UNL     1      17.387  49.647  73.579  1.00  0.00    -0.332 OA
ENDROOT
BRANCH   1   7
ATOM      7  C   UNL     1      15.268  48.948  72.738  1.00  0.00     0.198 C 
BRANCH   7   8
ATOM      8  O   UNL     1      14.417  47.815  73.023  1.00  0.00    -0.347 OA
BRANCH   8   9
ATOM      9  C   UNL     1      14.232  47.764  74.443  1.00  0.00     0.281 C 
ATOM     10  C   UNL     1      13.560  44.168  74.961  1.00  0.00     0.041 C 
ATOM     11  C   UNL     1      13.280  45.593  74.495  1.00  0.00     0.150 C 
ATOM     12  C   UNL     1      11.862  46.110  74.866  1.00  0.00     0.174 C 
ATOM     13  O   UNL     1      14.303  46.457  74.959  1.00  0.00    -0.344 OA
ATOM     14  C   UNL     1      11.712  47.514  74.262  1.00  0.00     0.179 C 
ATOM     15  C   UNL     1      12.872  48.450  74.831  1.00  0.00     0.202 C 
BRANCH  12  16
ATOM     16  O   UNL     1      11.812  46.253  76.275  1.00  0.00    -0.388 OA
ATOM     17  H   UNL     1      11.280  47.117  76.383  1.00  0.00     0.211 HD
ENDBRANCH  12  16
BRANCH  14  18
ATOM     18  O   UNL     1      11.791  47.429  72.807  1.00  0.00    -0.387 OA
ATOM     19  H   UNL     1      11.393  48.247  72.374  1.00  0.00     0.211 HD
ENDBRANCH  14  18
BRANCH  15  20
ATOM     20  O   UNL     1      12.745  48.619  76.243  1.00  0.00    -0.385 OA
ATOM     21  H   UNL     1      11.896  49.120  76.469  1.00  0.00     0.211 HD
ENDBRANCH  15  20
ENDBRANCH   8   9
ENDBRANCH   7   8
ENDBRANCH   1   7
BRANCH   2  22
ATOM     22  O   UNL     1      17.331  48.255  70.231  1.00  0.00    -0.387 OA
ATOM     23  H   UNL     1      17.192  47.265  70.461  1.00  0.00     0.211 HD
ENDBRANCH   2  22
BRANCH   3  24
ATOM     24  O   UNL     1      20.060  48.264  70.979  1.00  0.00    -0.387 OA
ATOM     25  H   UNL     1      19.793  49.036  70.383  1.00  0.00     0.211 HD
ENDBRANCH   3  24
BRANCH   5  26
ATOM     26  O   UNL     1      17.816  47.893  75.032  1.00  0.00    -0.454 OA
BRANCH  26  27
ATOM     27  C   UNL     1      18.128  47.520  76.355  1.00  0.00     0.214 A 
ATOM     28  C   UNL     1      18.582  46.185  76.656  1.00  0.00     0.180 A 
ATOM     29  C   UNL     1      17.950  48.370  77.520  1.00  0.00     0.239 A 
ATOM     30  O   UNL     1      19.018  45.893  77.888  1.00  0.00    -0.452 OA
ATOM     31  C   UNL     1      18.259  47.933  78.814  1.00  0.00     0.111 A 
ATOM     32  O   UNL     1      17.530  49.547  77.401  1.00  0.00    -0.285 OA
ATOM     33  C   UNL     1      18.917  46.691  78.924  1.00  0.00     0.146 A 
ATOM     34  C   UNL     1      17.994  48.709  79.946  1.00  0.00     0.134 A 
ATOM     35  C   UNL     1      19.445  46.318  80.140  1.00  0.00     0.094 A 
ATOM     36  C   UNL     1      18.491  48.299  81.198  1.00  0.00     0.093 A 
ATOM     37  C   UNL     1      19.223  47.117  81.285  1.00  0.00     0.123 A 
BRANCH  28  38
ATOM     38  C   UNL     1      18.600  45.051  75.689  1.00  0.00     0.025 A 
ATOM     39  C   UNL     1      17.495  44.178  75.473  1.00  0.00     0.062 A 
ATOM     40  C   UNL     1      19.826  44.803  74.986  1.00  0.00     0.016 A 
ATOM     41  C   UNL     1      17.610  43.122  74.581  1.00  0.00     0.158 A 
ATOM     42  C   UNL     1      19.910  43.721  74.137  1.00  0.00     0.051 A 
ATOM     43  C   UNL     1      18.825  42.847  73.951  1.00  0.00     0.157 A 
BRANCH  41  44
ATOM     44  O   UNL     1      16.528  42.276  74.351  1.00  0.00    -0.504 OA
ATOM     45  H   UNL     1      16.130  41.725  75.121  1.00  0.00     0.293 HD
ENDBRANCH  41  44
BRANCH  43  46
ATOM     46  O   UNL     1      19.025  41.661  73.204  1.00  0.00    -0.504 OA
ATOM     47  H   UNL     1      18.154  41.165  72.867  1.00  0.00     0.293 HD
ENDBRANCH  43  46
ENDBRANCH  28  38
BRANCH  34  48
ATOM     48  O   UNL     1      17.253  49.891  79.871  1.00  0.00    -0.507 OA
ATOM     49  H   UNL     1      16.606  50.163  80.612  1.00  0.00     0.293 HD
ENDBRANCH  34  48
BRANCH  37  50
ATOM     50  O   UNL     1      19.728  46.728  82.547  1.00  0.00    -0.508 OA
ATOM     51  H   UNL     1      20.101  45.807  82.716  1.00  0.00     0.293 HD
ENDBRANCH  37  50
ENDBRANCH  26  27
ENDBRANCH   5  26
BRANCH   4  52
ATOM     52  O   UNL     1      20.125  50.097  72.935  1.00  0.00    -0.384 OA
ATOM     53  H   UNL     1      20.202  50.678  73.765  1.00  0.00     0.211 HD
ENDBRANCH   4  52
TORSDOF 16
ENDMDL
MODEL 4
REMARK VINA RESULT:    -4.897      2.950      7.624
REMARK INTER + INTRA:         -10.290
REMARK INTER:                  -9.059
REMARK INTRA:                  -1.231
REMARK UNBOUND:                -2.245
REMARK SMILES C[C@@H]1O[C@@H](OC[C@@H]2O[C@@H](Oc3c(-c4ccc(O)c(O)c4)oc4cc(O)cc(O)c4c3=O)[C@H](O)[C@H](O)[C@H]2O)[C@H](O)[C@@H](O)[C@@H]1O
REMARK SMILES IDX 7 1 36 2 34 3 32 4 9 5 8 6 6 7 5 8 4 9 1 10 2 11 42 12 3 13
REMARK SMILES IDX 40 14 38 15 43 16 41 18 39 20 37 22 35 24 10 26 11 27 12 28
REMARK SMILES IDX 30 29 21 30 29 31 31 32 22 33 27 34 23 35 26 36 24 37 13 38
REMARK SMILES IDX 20 39 14 40 18 41 15 42 16 43 19 44 17 46 28 48 25 50 33 52
REMARK H PARENT 43 17 41 19 39 21 37 23 35 25 19 45 17 47 28 49 25 51 33 53
REMARK Flexibility Score: inf
ROOT
ATOM      1  C   UNL     1      16.324  48.191  73.991  1.00  0.00     0.180 C 
ATOM      2  C   UNL     1      16.769  48.338  72.515  1.00  0.00     0.177 C 
ATOM      3  C   UNL     1      18.083  47.467  72.473  1.00  0.00     0.180 C 
ATOM      4  C   UNL     1      19.149  47.932  73.542  1.00  0.00     0.214 C 
ATOM      5  C   UNL     1      18.489  48.136  74.936  1.00  0.00     0.339 C 
ATOM      6  O   UNL     1      17.331  48.923  74.682  1.00  0.00    -0.332 OA
ENDROOT
BRANCH   1   7
ATOM      7  C   UNL     1      14.990  48.468  74.705  1.00  0.00     0.198 C 
BRANCH   7   8
ATOM      8  O   UNL     1      13.978  47.440  74.798  1.00  0.00    -0.347 OA
BRANCH   8   9
ATOM      9  C   UNL     1      12.721  48.045  74.477  1.00  0.00     0.281 C 
ATOM     10  C   UNL     1      11.541  49.093  77.818  1.00  0.00     0.041 C 
ATOM     11  C   UNL     1      11.901  48.119  76.701  1.00  0.00     0.150 C 
ATOM     12  C   UNL     1      10.830  47.020  76.453  1.00  0.00     0.174 C 
ATOM     13  O   UNL     1      12.211  48.839  75.521  1.00  0.00    -0.344 OA
ATOM     14  C   UNL     1      11.374  46.084  75.364  1.00  0.00     0.179 C 
ATOM     15  C   UNL     1      11.687  46.939  74.054  1.00  0.00     0.202 C 
BRANCH  12  16
ATOM     16  O   UNL     1       9.678  47.655  75.923  1.00  0.00    -0.388 OA
ATOM     17  H   UNL     1       9.418  48.289  76.680  1.00  0.00     0.211 HD
ENDBRANCH  12  16
BRANCH  14  18
ATOM     18  O   UNL     1      12.585  45.428  75.848  1.00  0.00    -0.387 OA
ATOM     19  H   UNL     1      12.866  44.684  75.229  1.00  0.00     0.211 HD
ENDBRANCH  14  18
BRANCH  15  20
ATOM     20  O   UNL     1      10.491  47.505  73.517  1.00  0.00    -0.385 OA
ATOM     21  H   UNL     1       9.879  46.782  73.163  1.00  0.00     0.211 HD
ENDBRANCH  15  20
ENDBRANCH   8   9
ENDBRANCH   7   8
ENDBRANCH   1   7
BRANCH   2  22
ATOM     22  O   UNL     1      15.837  47.862  71.553  1.00  0.00    -0.387 OA
ATOM     23  H   UNL     1      15.839  46.839  71.635  1.00  0.00     0.211 HD
ENDBRANCH   2  22
BRANCH   3  24
ATOM     24  O   UNL     1      18.627  47.596  71.165  1.00  0.00    -0.387 OA
ATOM     25  H   UNL     1      19.098  48.491  71.132  1.00  0.00     0.211 HD
ENDBRANCH   3  24
BRANCH   5  26
ATOM     26  O   UNL     1      18.101  47.013  75.745  1.00  0.00    -0.454 OA
BRANCH  26  27
ATOM     27  C   UNL     1      18.441  46.847  77.102  1.00  0.00     0.214 A 
ATOM     28  C   UNL     1      18.965  45.592  77.582  1.00  0.00     0.180 A 
ATOM     29  C   UNL     1      18.229  47.843  78.139  1.00  0.00     0.239 A 
ATOM     30  O   UNL     1      19.425  45.499  78.837  1.00  0.00    -0.452 OA
ATOM     31  C   UNL     1      18.568  47.610  79.477  1.00  0.00     0.111 A 
ATOM     32  O   UNL     1      17.747  48.970  77.862  1.00  0.00    -0.285 OA
ATOM     33  C   UNL     1      19.290  46.430  79.751  1.00  0.00     0.146 A 
ATOM     34  C   UNL     1      18.273  48.524  80.492  1.00  0.00     0.134 A 
ATOM     35  C   UNL     1      19.845  46.259  80.999  1.00  0.00     0.094 A 
ATOM     36  C   UNL     1      18.799  48.320  81.782  1.00  0.00     0.093 A 
ATOM     37  C   UNL     1      19.591  47.200  82.024  1.00  0.00     0.123 A 
BRANCH  28  38
ATOM     38  C   UNL     1      19.034  44.335  76.784  1.00  0.00     0.025 A 
ATOM     39  C   UNL     1      18.447  44.183  75.495  1.00  0.00     0.062 A 
ATOM     40  C   UNL     1      19.683  43.206  77.388  1.00  0.00     0.016 A 
ATOM     41  C   UNL     1      18.526  42.964  74.838  1.00  0.00     0.158 A 
ATOM     42  C   UNL     1      19.706  42.003  76.717  1.00  0.00     0.051 A 
ATOM     43  C   UNL     1      19.099  41.853  75.458  1.00  0.00     0.157 A 
BRANCH  41  44
ATOM     44  O   UNL     1      17.971  42.813  73.569  1.00  0.00    -0.504 OA
ATOM     45  H   UNL     1      18.508  43.082  72.735  1.00  0.00     0.293 HD
ENDBRANCH  41  44
BRANCH  43  46
ATOM     46  O   UNL     1      19.006  40.556  74.897  1.00  0.00    -0.504 OA
ATOM     47  H   UNL     1      18.909  39.754  75.580  1.00  0.00     0.293 HD
ENDBRANCH  43  46
ENDBRANCH  28  38
BRANCH  34  48
ATOM     48  O   UNL     1      17.472  49.645  80.262  1.00  0.00    -0.507 OA
ATOM     49  H   UNL     1      16.929  49.746  79.403  1.00  0.00     0.293 HD
ENDBRANCH  34  48
BRANCH  37  50
ATOM     50  O   UNL     1      20.125  47.019  83.320  1.00  0.00    -0.508 OA
ATOM     51  H   UNL     1      19.669  46.447  84.015  1.00  0.00     0.293 HD
ENDBRANCH  37  50
ENDBRANCH  26  27
ENDBRANCH   5  26
BRANCH   4  52
ATOM     52  O   UNL     1      19.637  49.226  73.038  1.00  0.00    -0.384 OA
ATOM     53  H   UNL     1      20.614  49.326  73.299  1.00  0.00     0.211 HD
ENDBRANCH   4  52
TORSDOF 16
ENDMDL
MODEL 5
REMARK VINA RESULT:    -4.355      4.276      7.269
REMARK INTER + INTRA:          -9.401
REMARK INTER:                  -7.782
REMARK INTRA:                  -1.619
REMARK UNBOUND:                -2.245
REMARK SMILES C[C@@H]1O[C@@H](OC[C@@H]2O[C@@H](Oc3c(-c4ccc(O)c(O)c4)oc4cc(O)cc(O)c4c3=O)[C@H](O)[C@H](O)[C@H]2O)[C@H](O)[C@@H](O)[C@@H]1O
REMARK SMILES IDX 7 1 36 2 34 3 32 4 9 5 8 6 6 7 5 8 4 9 1 10 2 11 42 12 3 13
REMARK SMILES IDX 40 14 38 15 43 16 41 18 39 20 37 22 35 24 10 26 11 27 12 28
REMARK SMILES IDX 30 29 21 30 29 31 31 32 22 33 27 34 23 35 26 36 24 37 13 38
REMARK SMILES IDX 20 39 14 40 18 41 15 42 16 43 19 44 17 46 28 48 25 50 33 52
REMARK H PARENT 43 17 41 19 39 21 37 23 35 25 19 45 17 47 28 49 25 51 33 53
REMARK Flexibility Score: inf
ROOT
ATOM      1  C   UNL     1      14.209  47.761  72.120  1.00  0.00     0.180 C 
ATOM      2  C   UNL     1      14.580  49.171  72.642  1.00  0.00     0.177 C 
ATOM      3  C   UNL     1      15.856  48.876  73.523  1.00  0.00     0.180 C 
ATOM      4  C   UNL     1      15.578  47.799  74.644  1.00  0.00     0.214 C 
ATOM      5  C   UNL     1      14.830  46.566  74.060  1.00  0.00     0.339 C 
ATOM      6  O   UNL     1      13.756  47.113  73.303  1.00  0.00    -0.332 OA
ENDROOT
BRANCH   1   7
ATOM      7  C   UNL     1      13.307  47.286  70.968  1.00  0.00     0.198 C 
BRANCH   7   8
ATOM      8  O   UNL     1      12.242  48.129  70.472  1.00  0.00    -0.347 OA
BRANCH   8   9
ATOM      9  C   UNL     1      11.002  47.514  70.837  1.00  0.00     0.281 C 
ATOM     10  C   UNL     1       9.725  46.439  67.540  1.00  0.00     0.041 C 
ATOM     11  C   UNL     1      10.111  47.421  68.641  1.00  0.00     0.150 C 
ATOM     12  C   UNL     1       9.037  48.511  68.919  1.00  0.00     0.174 C 
ATOM     13  O   UNL     1      10.466  46.709  69.814  1.00  0.00    -0.344 OA
ATOM     14  C   UNL     1       9.607  49.457  69.985  1.00  0.00     0.179 C 
ATOM     15  C   UNL     1       9.971  48.611  71.288  1.00  0.00     0.202 C 
BRANCH  12  16
ATOM     16  O   UNL     1       7.910  47.867  69.488  1.00  0.00    -0.388 OA
ATOM     17  H   UNL     1       8.286  46.946  69.719  1.00  0.00     0.211 HD
ENDBRANCH  12  16
BRANCH  14  18
ATOM     18  O   UNL     1      10.795  50.123  69.461  1.00  0.00    -0.387 OA
ATOM     19  H   UNL     1      11.471  49.452  69.130  1.00  0.00     0.211 HD
ENDBRANCH  14  18
BRANCH  15  20
ATOM     20  O   UNL     1       8.799  48.035  71.866  1.00  0.00    -0.385 OA
ATOM     21  H   UNL     1       8.840  48.076  72.876  1.00  0.00     0.211 HD
ENDBRANCH  15  20
ENDBRANCH   8   9
ENDBRANCH   7   8
ENDBRANCH   1   7
BRANCH   2  22
ATOM     22  O   UNL     1      14.892  50.125  71.636  1.00  0.00    -0.387 OA
ATOM     23  H   UNL     1      14.643  51.042  72.024  1.00  0.00     0.211 HD
ENDBRANCH   2  22
BRANCH   3  24
ATOM     24  O   UNL     1      16.242  50.107  74.123  1.00  0.00    -0.387 OA
ATOM     25  H   UNL     1      16.017  50.033  75.107  1.00  0.00     0.211 HD
ENDBRANCH   3  24
BRANCH   5  26
ATOM     26  O   UNL     1      15.513  45.603  73.242  1.00  0.00    -0.454 OA
BRANCH  26  27
ATOM     27  C   UNL     1      16.372  44.599  73.732  1.00  0.00     0.214 A 
ATOM     28  C   UNL     1      17.743  44.901  74.064  1.00  0.00     0.180 A 
ATOM     29  C   UNL     1      16.017  43.196  73.866  1.00  0.00     0.239 A 
ATOM     30  O   UNL     1      18.499  43.976  74.669  1.00  0.00    -0.452 OA
ATOM     31  C   UNL     1      16.924  42.241  74.340  1.00  0.00     0.111 A 
ATOM     32  O   UNL     1      14.863  42.793  73.579  1.00  0.00    -0.285 OA
ATOM     33  C   UNL     1      18.147  42.725  74.850  1.00  0.00     0.146 A 
ATOM     34  C   UNL     1      16.621  40.877  74.375  1.00  0.00     0.134 A 
ATOM     35  C   UNL     1      18.976  41.864  75.532  1.00  0.00     0.094 A 
ATOM     36  C   UNL     1      17.497  39.990  75.029  1.00  0.00     0.093 A 
ATOM     37  C   UNL     1      18.659  40.488  75.614  1.00  0.00     0.123 A 
BRANCH  28  38
ATOM     38  C   UNL     1      18.428  46.192  73.773  1.00  0.00     0.025 A 
ATOM     39  C   UNL     1      18.842  47.112  74.779  1.00  0.00     0.062 A 
ATOM     40  C   UNL     1      18.622  46.539  72.394  1.00  0.00     0.016 A 
ATOM     41  C   UNL     1      19.439  48.310  74.418  1.00  0.00     0.158 A 
ATOM     42  C   UNL     1      19.186  47.756  72.078  1.00  0.00     0.051 A 
ATOM     43  C   UNL     1      19.565  48.671  73.075  1.00  0.00     0.157 A 
BRANCH  41  44
ATOM     44  O   UNL     1      19.864  49.206  75.396  1.00  0.00    -0.504 OA
ATOM     45  H   UNL     1      19.264  49.994  75.670  1.00  0.00     0.293 HD
ENDBRANCH  41  44
BRANCH  43  46
ATOM     46  O   UNL     1      19.977  49.969  72.688  1.00  0.00    -0.504 OA
ATOM     47  H   UNL     1      19.306  50.513  72.077  1.00  0.00     0.293 HD
ENDBRANCH  43  46
ENDBRANCH  28  38
BRANCH  34  48
ATOM     48  O   UNL     1      15.464  40.366  73.783  1.00  0.00    -0.507 OA
ATOM     49  H   UNL     1      14.697  39.992  74.345  1.00  0.00     0.293 HD
ENDBRANCH  34  48
BRANCH  37  50
ATOM     50  O   UNL     1      19.519  39.586  76.280  1.00  0.00    -0.508 OA
ATOM     51  H   UNL     1      19.673  38.646  75.950  1.00  0.00     0.293 HD
ENDBRANCH  37  50
ENDBRANCH  26  27
ENDBRANCH   5  26
BRANCH   4  52
ATOM     52  O   UNL     1      14.706  48.488  75.610  1.00  0.00    -0.384 OA
ATOM     53  H   UNL     1      14.704  47.958  76.477  1.00  0.00     0.211 HD
ENDBRANCH   4  52
TORSDOF 16
ENDMDL
MODEL 6
REMARK VINA RESULT:    -4.311      1.972      2.648
REMARK INTER + INTRA:          -9.328
REMARK INTER:                  -9.693
REMARK INTRA:                   0.365
REMARK UNBOUND:                -2.245
REMARK SMILES C[C@@H]1O[C@@H](OC[C@@H]2O[C@@H](Oc3c(-c4ccc(O)c(O)c4)oc4cc(O)cc(O)c4c3=O)[C@H](O)[C@H](O)[C@H]2O)[C@H](O)[C@@H](O)[C@@H]1O
REMARK SMILES IDX 7 1 36 2 34 3 32 4 9 5 8 6 6 7 5 8 4 9 1 10 2 11 42 12 3 13
REMARK SMILES IDX 40 14 38 15 43 16 41 18 39 20 37 22 35 24 10 26 11 27 12 28
REMARK SMILES IDX 30 29 21 30 29 31 31 32 22 33 27 34 23 35 26 36 24 37 13 38
REMARK SMILES IDX 20 39 14 40 18 41 15 42 16 43 19 44 17 46 28 48 25 50 33 52
REMARK H PARENT 43 17 41 19 39 21 37 23 35 25 19 45 17 47 28 49 25 51 33 53
REMARK Flexibility Score: inf
ROOT
ATOM      1  C   UNL     1      16.267  45.036  74.290  1.00  0.00     0.180 C 
ATOM      2  C   UNL     1      14.726  44.931  74.401  1.00  0.00     0.177 C 
ATOM      3  C   UNL     1      14.540  43.581  75.195  1.00  0.00     0.180 C 
ATOM      4  C   UNL     1      15.243  42.360  74.482  1.00  0.00     0.214 C 
ATOM      5  C   UNL     1      16.694  42.725  74.052  1.00  0.00     0.339 C 
ATOM      6  O   UNL     1      16.575  43.978  73.388  1.00  0.00    -0.332 OA
ENDROOT
BRANCH   1   7
ATOM      7  C   UNL     1      17.205  46.208  73.952  1.00  0.00     0.198 C 
BRANCH   7   8
ATOM      8  O   UNL     1      16.732  47.327  73.169  1.00  0.00    -0.347 OA
BRANCH   8   9
ATOM      9  C   UNL     1      15.514  47.785  73.767  1.00  0.00     0.281 C 
ATOM     10  C   UNL     1      13.212  47.717  70.879  1.00  0.00     0.041 C 
ATOM     11  C   UNL     1      14.377  48.210  71.731  1.00  0.00     0.150 C 
ATOM     12  C   UNL     1      14.419  49.754  71.909  1.00  0.00     0.174 C 
ATOM     13  O   UNL     1      14.382  47.528  72.973  1.00  0.00    -0.344 OA
ATOM     14  C   UNL     1      15.681  50.090  72.716  1.00  0.00     0.179 C 
ATOM     15  C   UNL     1      15.628  49.315  74.109  1.00  0.00     0.202 C 
BRANCH  12  16
ATOM     16  O   UNL     1      13.304  50.125  72.701  1.00  0.00    -0.388 OA
ATOM     17  H   UNL     1      12.528  49.713  72.182  1.00  0.00     0.211 HD
ENDBRANCH  12  16
BRANCH  14  18
ATOM     18  O   UNL     1      16.864  49.694  71.957  1.00  0.00    -0.387 OA
ATOM     19  H   UNL     1      16.610  49.145  71.151  1.00  0.00     0.211 HD
ENDBRANCH  14  18
BRANCH  15  20
ATOM     20  O   UNL     1      14.529  49.767  74.902  1.00  0.00    -0.385 OA
ATOM     21  H   UNL     1      13.779  50.106  74.315  1.00  0.00     0.211 HD
ENDBRANCH  15  20
ENDBRANCH   8   9
ENDBRANCH   7   8
ENDBRANCH   1   7
BRANCH   2  22
ATOM     22  O   UNL     1      14.097  45.998  75.098  1.00  0.00    -0.387 OA
ATOM     23  H   UNL     1      13.117  46.000  74.794  1.00  0.00     0.211 HD
ENDBRANCH   2  22
BRANCH   3  24
ATOM     24  O   UNL     1      13.140  43.342  75.288  1.00  0.00    -0.387 OA
ATOM     25  H   UNL     1      12.963  42.466  74.814  1.00  0.00     0.211 HD
ENDBRANCH   3  24
BRANCH   5  26
ATOM     26  O   UNL     1      17.751  42.826  75.020  1.00  0.00    -0.454 OA
BRANCH  26  27
ATOM     27  C   UNL     1      18.211  41.761  75.820  1.00  0.00     0.214 A 
ATOM     28  C   UNL     1      18.752  42.008  77.134  1.00  0.00     0.180 A 
ATOM     29  C   UNL     1      18.272  40.373  75.397  1.00  0.00     0.239 A 
ATOM     30  O   UNL     1      19.042  40.976  77.938  1.00  0.00    -0.452 OA
ATOM     31  C   UNL     1      18.761  39.361  76.232  1.00  0.00     0.111 A 
ATOM     32  O   UNL     1      17.863  40.025  74.262  1.00  0.00    -0.285 OA
ATOM     33  C   UNL     1      19.030  39.718  77.570  1.00  0.00     0.146 A 
ATOM     34  C   UNL     1      18.916  38.043  75.795  1.00  0.00     0.134 A 
ATOM     35  C   UNL     1      19.293  38.725  78.487  1.00  0.00     0.094 A 
ATOM     36  C   UNL     1      19.237  37.037  76.726  1.00  0.00     0.093 A 
ATOM     37  C   UNL     1      19.408  37.380  78.066  1.00  0.00     0.123 A 
BRANCH  28  38
ATOM     38  C   UNL     1      19.043  43.356  77.699  1.00  0.00     0.025 A 
ATOM     39  C   UNL     1      18.972  43.664  79.088  1.00  0.00     0.062 A 
ATOM     40  C   UNL     1      19.356  44.406  76.772  1.00  0.00     0.016 A 
ATOM     41  C   UNL     1      19.221  44.956  79.524  1.00  0.00     0.158 A 
ATOM     42  C   UNL     1      19.561  45.683  77.244  1.00  0.00     0.051 A 
ATOM     43  C   UNL     1      19.460  45.986  78.613  1.00  0.00     0.157 A 
BRANCH  41  44
ATOM     44  O   UNL     1      19.172  45.260  80.883  1.00  0.00    -0.504 OA
ATOM     45  H   UNL     1      19.277  44.516  81.583  1.00  0.00     0.293 HD
ENDBRANCH  41  44
BRANCH  43  46
ATOM     46  O   UNL     1      19.510  47.342  79.017  1.00  0.00    -0.504 OA
ATOM     47  H   UNL     1      19.943  47.535  79.963  1.00  0.00     0.293 HD
ENDBRANCH  43  46
ENDBRANCH  28  38
BRANCH  34  48
ATOM     48  O   UNL     1      18.756  37.689  74.453  1.00  0.00    -0.507 OA
ATOM     49  H   UNL     1      19.203  38.220  73.704  1.00  0.00     0.293 HD
ENDBRANCH  34  48
BRANCH  37  50
ATOM     50  O   UNL     1      19.714  36.356  78.991  1.00  0.00    -0.508 OA
ATOM     51  H   UNL     1      19.656  35.379  78.751  1.00  0.00     0.293 HD
ENDBRANCH  37  50
ENDBRANCH  26  27
ENDBRANCH   5  26
BRANCH   4  52
ATOM     52  O   UNL     1      14.426  42.112  73.283  1.00  0.00    -0.384 OA
ATOM     53  H   UNL     1      13.854  41.288  73.447  1.00  0.00     0.211 HD
ENDBRANCH   4  52
TORSDOF 16
ENDMDL
MODEL 7
REMARK VINA RESULT:    -4.145      4.173      9.689
REMARK INTER + INTRA:          -9.056
REMARK INTER:                  -8.215
REMARK INTRA:                  -0.840
REMARK UNBOUND:                -2.245
REMARK SMILES C[C@@H]1O[C@@H](OC[C@@H]2O[C@@H](Oc3c(-c4ccc(O)c(O)c4)oc4cc(O)cc(O)c4c3=O)[C@H](O)[C@H](O)[C@H]2O)[C@H](O)[C@@H](O)[C@@H]1O
REMARK SMILES IDX 7 1 36 2 34 3 32 4 9 5 8 6 6 7 5 8 4 9 1 10 2 11 42 12 3 13
REMARK SMILES IDX 40 14 38 15 43 16 41 18 39 20 37 22 35 24 10 26 11 27 12 28
REMARK SMILES IDX 30 29 21 30 29 31 31 32 22 33 27 34 23 35 26 36 24 37 13 38
REMARK SMILES IDX 20 39 14 40 18 41 15 42 16 43 19 44 17 46 28 48 25 50 33 52
REMARK H PARENT 43 17 41 19 39 21 37 23 35 25 19 45 17 47 28 49 25 51 33 53
REMARK Flexibility Score: inf
ROOT
ATOM      1  C   UNL     1      16.910  46.971  74.350  1.00  0.00     0.180 C 
ATOM      2  C   UNL     1      18.207  47.799  74.517  1.00  0.00     0.177 C 
ATOM      3  C   UNL     1      17.696  49.273  74.286  1.00  0.00     0.180 C 
ATOM      4  C   UNL     1      16.965  49.447  72.896  1.00  0.00     0.214 C 
ATOM      5  C   UNL     1      15.937  48.304  72.659  1.00  0.00     0.339 C 
ATOM      6  O   UNL     1      16.645  47.106  72.958  1.00  0.00    -0.332 OA
ENDROOT
BRANCH   1   7
ATOM      7  C   UNL     1      16.540  45.531  74.745  1.00  0.00     0.198 C 
BRANCH   7   8
ATOM      8  O   UNL     1      17.525  44.655  75.339  1.00  0.00    -0.347 OA
BRANCH   8   9
ATOM      9  C   UNL     1      18.083  43.860  74.287  1.00  0.00     0.281 C 
ATOM     10  C   UNL     1      15.351  41.452  73.664  1.00  0.00     0.041 C 
ATOM     11  C   UNL     1      16.498  42.102  74.430  1.00  0.00     0.150 C 
ATOM     12  C   UNL     1      17.521  41.088  75.015  1.00  0.00     0.174 C 
ATOM     13  O   UNL     1      17.121  43.082  73.617  1.00  0.00    -0.344 OA
ATOM     14  C   UNL     1      18.558  41.890  75.815  1.00  0.00     0.179 C 
ATOM     15  C   UNL     1      19.242  42.962  74.851  1.00  0.00     0.202 C 
BRANCH  12  16
ATOM     16  O   UNL     1      18.204  40.491  73.925  1.00  0.00    -0.388 OA
ATOM     17  H   UNL     1      19.156  40.834  74.058  1.00  0.00     0.211 HD
ENDBRANCH  12  16
BRANCH  14  18
ATOM     18  O   UNL     1      17.899  42.556  76.934  1.00  0.00    -0.387 OA
ATOM     19  H   UNL     1      18.363  42.350  77.804  1.00  0.00     0.211 HD
ENDBRANCH  14  18
BRANCH  15  20
ATOM     20  O   UNL     1      19.972  42.316  73.808  1.00  0.00    -0.385 OA
ATOM     21  H   UNL     1      19.669  41.357  73.698  1.00  0.00     0.211 HD
ENDBRANCH  15  20
ENDBRANCH   8   9
ENDBRANCH   7   8
ENDBRANCH   1   7
BRANCH   2  22
ATOM     22  O   UNL     1      18.832  47.693  75.789  1.00  0.00    -0.387 OA
ATOM     23  H   UNL     1      19.064  46.701  75.912  1.00  0.00     0.211 HD
ENDBRANCH   2  22
BRANCH   3  24
ATOM     24  O   UNL     1      18.835  50.124  74.340  1.00  0.00    -0.387 OA
ATOM     25  H   UNL     1      18.550  51.016  73.957  1.00  0.00     0.211 HD
ENDBRANCH   3  24
BRANCH   5  26
ATOM     26  O   UNL     1      14.685  48.274  73.364  1.00  0.00    -0.454 OA
BRANCH  26  27
ATOM     27  C   UNL     1      13.420  48.195  72.748  1.00  0.00     0.214 A 
ATOM     28  C   UNL     1      12.217  48.448  73.503  1.00  0.00     0.180 A 
ATOM     29  C   UNL     1      13.190  47.783  71.374  1.00  0.00     0.239 A 
ATOM     30  O   UNL     1      11.038  48.519  72.871  1.00  0.00    -0.452 OA
ATOM     31  C   UNL     1      11.905  47.704  70.825  1.00  0.00     0.111 A 
ATOM     32  O   UNL     1      14.151  47.502  70.616  1.00  0.00    -0.285 OA
ATOM     33  C   UNL     1      10.848  48.210  71.610  1.00  0.00     0.146 A 
ATOM     34  C   UNL     1      11.672  47.211  69.538  1.00  0.00     0.134 A 
ATOM     35  C   UNL     1       9.605  48.367  71.039  1.00  0.00     0.094 A 
ATOM     36  C   UNL     1      10.387  47.326  68.975  1.00  0.00     0.093 A 
ATOM     37  C   UNL     1       9.367  47.914  69.720  1.00  0.00     0.123 A 
BRANCH  28  38
ATOM     38  C   UNL     1      12.158  48.631  74.981  1.00  0.00     0.025 A 
ATOM     39  C   UNL     1      11.136  48.081  75.806  1.00  0.00     0.062 A 
ATOM     40  C   UNL     1      13.165  49.458  75.583  1.00  0.00     0.016 A 
ATOM     41  C   UNL     1      11.136  48.334  77.170  1.00  0.00     0.158 A 
ATOM     42  C   UNL     1      13.107  49.714  76.935  1.00  0.00     0.051 A 
ATOM     43  C   UNL     1      12.078  49.193  77.738  1.00  0.00     0.157 A 
BRANCH  41  44
ATOM     44  O   UNL     1      10.150  47.785  77.986  1.00  0.00    -0.504 OA
ATOM     45  H   UNL     1      10.359  46.964  78.568  1.00  0.00     0.293 HD
ENDBRANCH  41  44
BRANCH  43  46
ATOM     46  O   UNL     1      11.974  49.629  79.081  1.00  0.00    -0.504 OA
ATOM     47  H   UNL     1      12.108  50.665  79.251  1.00  0.00     0.293 HD
ENDBRANCH  43  46
ENDBRANCH  28  38
BRANCH  34  48
ATOM     48  O   UNL     1      12.685  46.611  68.786  1.00  0.00    -0.507 OA
ATOM     49  H   UNL     1      13.382  47.168  68.289  1.00  0.00     0.293 HD
ENDBRANCH  34  48
BRANCH  37  50
ATOM     50  O   UNL     1       8.087  48.036  69.134  1.00  0.00    -0.508 OA
ATOM     51  H   UNL     1       7.913  48.632  68.339  1.00  0.00     0.293 HD
ENDBRANCH  37  50
ENDBRANCH  26  27
ENDBRANCH   5  26
BRANCH   4  52
ATOM     52  O   UNL     1      18.044  49.350  71.898  1.00  0.00    -0.384 OA
ATOM     53  H   UNL     1      18.722  48.666  72.222  1.00  0.00     0.211 HD
ENDBRANCH   4  52
TORSDOF 16
ENDMDL
MODEL 8
REMARK VINA RESULT:    -3.852      2.444      7.798
REMARK INTER + INTRA:          -8.574
REMARK INTER:                  -9.335
REMARK INTRA:                   0.761
REMARK UNBOUND:                -2.245
REMARK SMILES C[C@@H]1O[C@@H](OC[C@@H]2O[C@@H](Oc3c(-c4ccc(O)c(O)c4)oc4cc(O)cc(O)c4c3=O)[C@H](O)[C@H](O)[C@H]2O)[C@H](O)[C@@H](O)[C@@H]1O
REMARK SMILES IDX 7 1 36 2 34 3 32 4 9 5 8 6 6 7 5 8 4 9 1 10 2 11 42 12 3 13
REMARK SMILES IDX 40 14 38 15 43 16 41 18 39 20 37 22 35 24 10 26 11 27 12 28
REMARK SMILES IDX 30 29 21 30 29 31 31 32 22 33 27 34 23 35 26 36 24 37 13 38
REMARK SMILES IDX 20 39 14 40 18 41 15 42 16 43 19 44 17 46 28 48 25 50 33 52
REMARK H PARENT 43 17 41 19 39 21 37 23 35 25 19 45 17 47 28 49 25 51 33 53
REMARK Flexibility Score: inf
ROOT
ATOM      1  C   UNL     1      19.227  46.152  75.063  1.00  0.00     0.180 C 
ATOM      2  C   UNL     1      19.196  47.463  75.887  1.00  0.00     0.177 C 
ATOM      3  C   UNL     1      17.768  48.039  75.545  1.00  0.00     0.180 C 
ATOM      4  C   UNL     1      17.547  48.220  73.992  1.00  0.00     0.214 C 
ATOM      5  C   UNL     1      17.994  46.949  73.213  1.00  0.00     0.339 C 
ATOM      6  O   UNL     1      19.284  46.639  73.727  1.00  0.00    -0.332 OA
ENDROOT
BRANCH   1   7
ATOM      7  C   UNL     1      20.125  44.905  75.131  1.00  0.00     0.198 C 
BRANCH   7   8
ATOM      8  O   UNL     1      20.083  44.029  76.280  1.00  0.00    -0.347 OA
BRANCH   8   9
ATOM      9  C   UNL     1      18.835  44.256  76.947  1.00  0.00     0.281 C 
ATOM     10  C   UNL     1      19.951  44.737  80.436  1.00  0.00     0.041 C 
ATOM     11  C   UNL     1      19.671  43.971  79.148  1.00  0.00     0.150 C 
ATOM     12  C   UNL     1      18.930  42.621  79.366  1.00  0.00     0.174 C 
ATOM     13  O   UNL     1      18.992  44.811  78.231  1.00  0.00    -0.344 OA
ATOM     14  C   UNL     1      18.797  41.944  77.994  1.00  0.00     0.179 C 
ATOM     15  C   UNL     1      18.010  42.920  77.008  1.00  0.00     0.202 C 
BRANCH  12  16
ATOM     16  O   UNL     1      17.620  42.918  79.816  1.00  0.00    -0.388 OA
ATOM     17  H   UNL     1      17.157  42.012  79.735  1.00  0.00     0.211 HD
ENDBRANCH  12  16
BRANCH  14  18
ATOM     18  O   UNL     1      20.125  41.646  77.467  1.00  0.00    -0.387 OA
ATOM     19  H   UNL     1      20.223  40.665  77.263  1.00  0.00     0.211 HD
ENDBRANCH  14  18
BRANCH  15  20
ATOM     20  O   UNL     1      16.675  43.138  77.464  1.00  0.00    -0.385 OA
ATOM     21  H   UNL     1      16.272  43.952  77.019  1.00  0.00     0.211 HD
ENDBRANCH  15  20
ENDBRANCH   8   9
ENDBRANCH   7   8
ENDBRANCH   1   7
BRANCH   2  22
ATOM     22  O   UNL     1      19.332  47.296  77.292  1.00  0.00    -0.387 OA
ATOM     23  H   UNL     1      20.131  46.668  77.430  1.00  0.00     0.211 HD
ENDBRANCH   2  22
BRANCH   3  24
ATOM     24  O   UNL     1      17.661  49.300  76.196  1.00  0.00    -0.387 OA
ATOM     25  H   UNL     1      18.464  49.844  75.910  1.00  0.00     0.211 HD
ENDBRANCH   3  24
BRANCH   5  26
ATOM     26  O   UNL     1      17.202  45.751  73.231  1.00  0.00    -0.454 OA
BRANCH  26  27
ATOM     27  C   UNL     1      15.893  45.662  73.747  1.00  0.00     0.214 A 
ATOM     28  C   UNL     1      15.366  44.400  74.204  1.00  0.00     0.180 A 
ATOM     29  C   UNL     1      14.943  46.760  73.792  1.00  0.00     0.239 A 
ATOM     30  O   UNL     1      14.183  44.361  74.830  1.00  0.00    -0.452 OA
ATOM     31  C   UNL     1      13.647  46.603  74.298  1.00  0.00     0.111 A 
ATOM     32  O   UNL     1      15.264  47.908  73.394  1.00  0.00    -0.285 OA
ATOM     33  C   UNL     1      13.357  45.375  74.927  1.00  0.00     0.146 A 
ATOM     34  C   UNL     1      12.698  47.628  74.250  1.00  0.00     0.134 A 
ATOM     35  C   UNL     1      12.184  45.248  75.638  1.00  0.00     0.094 A 
ATOM     36  C   UNL     1      11.478  47.475  74.935  1.00  0.00     0.093 A 
ATOM     37  C   UNL     1      11.234  46.295  75.635  1.00  0.00     0.123 A 
BRANCH  28  38
ATOM     38  C   UNL     1      16.035  43.080  74.026  1.00  0.00     0.025 A 
ATOM     39  C   UNL     1      15.349  41.832  74.076  1.00  0.00     0.062 A 
ATOM     40  C   UNL     1      17.460  43.081  73.852  1.00  0.00     0.016 A 
ATOM     41  C   UNL     1      16.056  40.648  73.939  1.00  0.00     0.158 A 
ATOM     42  C   UNL     1      18.128  41.880  73.756  1.00  0.00     0.051 A 
ATOM     43  C   UNL     1      17.448  40.653  73.836  1.00  0.00     0.157 A 
BRANCH  41  44
ATOM     44  O   UNL     1      15.390  39.425  73.968  1.00  0.00    -0.504 OA
ATOM     45  H   UNL     1      15.232  38.902  73.098  1.00  0.00     0.293 HD
ENDBRANCH  41  44
BRANCH  43  46
ATOM     46  O   UNL     1      18.205  39.458  73.905  1.00  0.00    -0.504 OA
ATOM     47  H   UNL     1      18.745  39.294  74.800  1.00  0.00     0.293 HD
ENDBRANCH  43  46
ENDBRANCH  28  38
BRANCH  34  48
ATOM     48  O   UNL     1      12.929  48.811  73.543  1.00  0.00    -0.507 OA
ATOM     49  H   UNL     1      12.899  49.722  74.003  1.00  0.00     0.293 HD
ENDBRANCH  34  48
BRANCH  37  50
ATOM     50  O   UNL     1      10.011  46.164  76.331  1.00  0.00    -0.508 OA
ATOM     51  H   UNL     1       9.806  45.367  76.913  1.00  0.00     0.293 HD
ENDBRANCH  37  50
ENDBRANCH  26  27
ENDBRANCH   5  26
BRANCH   4  52
ATOM     52  O   UNL     1      18.417  49.350  73.624  1.00  0.00    -0.384 OA
ATOM     53  H   UNL     1      18.081  49.743  72.749  1.00  0.00     0.211 HD
ENDBRANCH   4  52
TORSDOF 16
ENDMDL
