MODEL 1
REMARK VINA RESULT:    -5.039      0.000      0.000
REMARK INTER + INTRA:          -5.187
REMARK INTER:                  -5.187
REMARK INTRA:                   0.000
REMARK UNBOUND:                 0.000
REMARK SMILES Nc1ncnc2nc[nH]c12
REMARK SMILES IDX 8 1 7 2 6 3 5 4 4 5 3 6 2 7 10 8 9 9 1 11
REMARK H PARENT 9 10 1 12 1 13
REMARK Flexibility Score: inf
ROOT
ATOM      1  C   UNL     1     -25.274 -17.680 -14.511  1.00  0.00     0.199 A 
ATOM      2  N   UNL     1     -24.134 -17.729 -13.770  1.00  0.00    -0.217 NA
ATOM      3  C   UNL     1     -23.444 -16.676 -14.239  1.00  0.00     0.182 A 
ATOM      4  N   UNL     1     -22.218 -16.267 -13.832  1.00  0.00    -0.215 NA
ATOM      5  C   UNL     1     -21.673 -15.165 -14.433  1.00  0.00     0.226 A 
ATOM      6  N   UNL     1     -22.358 -14.498 -15.417  1.00  0.00    -0.217 NA
ATOM      7  C   UNL     1     -23.594 -14.909 -15.828  1.00  0.00     0.152 A 
ATOM      8  C   UNL     1     -24.134 -16.032 -15.208  1.00  0.00     0.127 A 
ATOM      9  N   UNL     1     -25.305 -16.654 -15.400  1.00  0.00    -0.340 N 
ATOM     10  H   UNL     1     -26.068 -16.416 -16.070  1.00  0.00     0.168 HD
ENDROOT
BRANCH   7  11
ATOM     11  N   UNL     1     -24.288 -14.201 -16.855  1.00  0.00    -0.382 N 
ATOM     12  H   UNL     1     -25.328 -14.114 -16.819  1.00  0.00     0.158 HD
ATOM     13  H   UNL     1     -23.778 -13.762 -17.653  1.00  0.00     0.158 HD
ENDBRANCH   7  11
TORSDOF 1
ENDMDL
MODEL 2
REMARK VINA RESULT:    -5.012      1.172      2.399
REMARK INTER + INTRA:          -5.158
REMARK INTER:                  -5.158
REMARK INTRA:                   0.000
REMARK UNBOUND:                 0.000
REMARK SMILES Nc1ncnc2nc[nH]c12
REMARK SMILES IDX 8 1 7 2 6 3 5 4 4 5 3 6 2 7 10 8 9 9 1 11
REMARK H PARENT 9 10 1 12 1 13
REMARK Flexibility Score: inf
ROOT
ATOM      1  C   UNL     1     -23.955 -18.000 -14.420  1.00  0.00     0.199 A 
ATOM      2  N   UNL     1     -25.002 -17.258 -14.874  1.00  0.00    -0.217 NA
ATOM      3  C   UNL     1     -24.414 -16.086 -15.169  1.00  0.00     0.182 A 
ATOM      4  N   UNL     1     -25.019 -14.981 -15.667  1.00  0.00    -0.215 NA
ATOM      5  C   UNL     1     -24.250 -13.876 -15.905  1.00  0.00     0.226 A 
ATOM      6  N   UNL     1     -22.903 -13.896 -15.646  1.00  0.00    -0.217 NA
ATOM      7  C   UNL     1     -22.291 -15.009 -15.144  1.00  0.00     0.152 A 
ATOM      8  C   UNL     1     -23.088 -16.126 -14.907  1.00  0.00     0.127 A 
ATOM      9  N   UNL     1     -22.771 -17.336 -14.427  1.00  0.00    -0.340 N 
ATOM     10  H   UNL     1     -21.838 -17.695 -14.128  1.00  0.00     0.168 HD
ENDROOT
BRANCH   7  11
ATOM     11  N   UNL     1     -20.887 -15.007 -14.881  1.00  0.00    -0.382 N 
ATOM     12  H   UNL     1     -20.211 -15.222 -15.648  1.00  0.00     0.158 HD
ATOM     13  H   UNL     1     -20.512 -14.796 -13.931  1.00  0.00     0.158 HD
ENDBRANCH   7  11
TORSDOF 1
ENDMDL
MODEL 3
REMARK VINA RESULT:    -4.958      1.162      3.259
REMARK INTER + INTRA:          -5.103
REMARK INTER:                  -5.103
REMARK INTRA:                   0.000
REMARK UNBOUND:                 0.000
REMARK SMILES Nc1ncnc2nc[nH]c12
REMARK SMILES IDX 8 1 7 2 6 3 5 4 4 5 3 6 2 7 10 8 9 9 1 11
REMARK H PARENT 9 10 1 12 1 13
REMARK Flexibility Score: inf
ROOT
ATOM      1  C   UNL     1     -23.946 -14.064 -16.563  1.00  0.00     0.199 A 
ATOM      2  N   UNL     1     -24.640 -15.234 -16.503  1.00  0.00    -0.217 NA
ATOM      3  C   UNL     1     -24.154 -15.796 -15.384  1.00  0.00     0.182 A 
ATOM      4  N   UNL     1     -24.515 -16.991 -14.857  1.00  0.00    -0.215 NA
ATOM      5  C   UNL     1     -23.904 -17.398 -13.703  1.00  0.00     0.226 A 
ATOM      6  N   UNL     1     -22.955 -16.611 -13.102  1.00  0.00    -0.217 NA
ATOM      7  C   UNL     1     -22.591 -15.406 -13.631  1.00  0.00     0.152 A 
ATOM      8  C   UNL     1     -23.221 -15.006 -14.806  1.00  0.00     0.127 A 
ATOM      9  N   UNL     1     -23.070 -13.895 -15.540  1.00  0.00    -0.340 N 
ATOM     10  H   UNL     1     -22.434 -13.085 -15.375  1.00  0.00     0.168 HD
ENDROOT
BRANCH   7  11
ATOM     11  N   UNL     1     -21.599 -14.603 -12.988  1.00  0.00    -0.382 N 
ATOM     12  H   UNL     1     -21.394 -13.643 -13.344  1.00  0.00     0.158 HD
ATOM     13  H   UNL     1     -21.066 -14.955 -12.164  1.00  0.00     0.158 HD
ENDBRANCH   7  11
TORSDOF 1
ENDMDL
MODEL 4
REMARK VINA RESULT:    -4.840      1.460      4.025
REMARK INTER + INTRA:          -4.982
REMARK INTER:                  -4.982
REMARK INTRA:                   0.000
REMARK UNBOUND:                 0.000
REMARK SMILES Nc1ncnc2nc[nH]c12
REMARK SMILES IDX 8 1 7 2 6 3 5 4 4 5 3 6 2 7 10 8 9 9 1 11
REMARK H PARENT 9 10 1 12 1 13
REMARK Flexibility Score: inf
ROOT
ATOM      1  C   UNL     1     -21.181 -13.876 -14.119  1.00  0.00     0.199 A 
ATOM      2  N   UNL     1     -21.902 -14.179 -15.233  1.00  0.00    -0.217 NA
ATOM      3  C   UNL     1     -22.658 -15.206 -14.814  1.00  0.00     0.182 A 
ATOM      4  N   UNL     1     -23.570 -15.890 -15.546  1.00  0.00    -0.215 NA
ATOM      5  C   UNL     1     -24.248 -16.912 -14.941  1.00  0.00     0.226 A 
ATOM      6  N   UNL     1     -24.006 -17.228 -13.628  1.00  0.00    -0.217 NA
ATOM      7  C   UNL     1     -23.087 -16.539 -12.889  1.00  0.00     0.152 A 
ATOM      8  C   UNL     1     -22.405 -15.502 -13.519  1.00  0.00     0.127 A 
ATOM      9  N   UNL     1     -21.466 -14.668 -13.053  1.00  0.00    -0.340 N 
ATOM     10  H   UNL     1     -21.045 -14.626 -12.100  1.00  0.00     0.168 HD
ENDROOT
BRANCH   7  11
ATOM     11  N   UNL     1     -22.850 -16.886 -11.524  1.00  0.00    -0.382 N 
ATOM     12  H   UNL     1     -21.938 -16.645 -11.074  1.00  0.00     0.158 HD
ATOM     13  H   UNL     1     -23.571 -17.381 -10.955  1.00  0.00     0.158 HD
ENDBRANCH   7  11
TORSDOF 1
ENDMDL
MODEL 5
REMARK VINA RESULT:    -4.833      1.184      2.962
REMARK INTER + INTRA:          -4.975
REMARK INTER:                  -4.975
REMARK INTRA:                   0.000
REMARK UNBOUND:                 0.000
REMARK SMILES Nc1ncnc2nc[nH]c12
REMARK SMILES IDX 8 1 7 2 6 3 5 4 4 5 3 6 2 7 10 8 9 9 1 11
REMARK H PARENT 9 10 1 12 1 13
REMARK Flexibility Score: inf
ROOT
ATOM      1  C   UNL     1     -24.237 -14.230 -16.641  1.00  0.00     0.199 A 
ATOM      2  N   UNL     1     -23.276 -13.875 -15.744  1.00  0.00    -0.217 NA
ATOM      3  C   UNL     1     -23.293 -14.907 -14.885  1.00  0.00     0.182 A 
ATOM      4  N   UNL     1     -22.515 -15.058 -13.786  1.00  0.00    -0.215 NA
ATOM      5  C   UNL     1     -22.678 -16.185 -13.029  1.00  0.00     0.226 A 
ATOM      6  N   UNL     1     -23.605 -17.132 -13.381  1.00  0.00    -0.217 NA
ATOM      7  C   UNL     1     -24.390 -16.983 -14.488  1.00  0.00     0.152 A 
ATOM      8  C   UNL     1     -24.213 -15.830 -15.248  1.00  0.00     0.127 A 
ATOM      9  N   UNL     1     -24.828 -15.420 -16.365  1.00  0.00    -0.340 N 
ATOM     10  H   UNL     1     -25.584 -15.895 -16.905  1.00  0.00     0.168 HD
ENDROOT
BRANCH   7  11
ATOM     11  N   UNL     1     -25.350 -17.982 -14.835  1.00  0.00    -0.382 N 
ATOM     12  H   UNL     1     -25.173 -18.617 -15.645  1.00  0.00     0.158 HD
ATOM     13  H   UNL     1     -26.236 -18.096 -14.296  1.00  0.00     0.158 HD
ENDBRANCH   7  11
TORSDOF 1
ENDMDL
MODEL 6
REMARK VINA RESULT:    -4.819      1.066      3.609
REMARK INTER + INTRA:          -4.960
REMARK INTER:                  -4.960
REMARK INTRA:                   0.000
REMARK UNBOUND:                 0.000
REMARK SMILES Nc1ncnc2nc[nH]c12
REMARK SMILES IDX 8 1 7 2 6 3 5 4 4 5 3 6 2 7 10 8 9 9 1 11
REMARK H PARENT 9 10 1 12 1 13
REMARK Flexibility Score: inf
ROOT
ATOM      1  C   UNL     1     -21.237 -14.558 -13.366  1.00  0.00     0.199 A 
ATOM      2  N   UNL     1     -21.554 -13.875 -14.500  1.00  0.00    -0.217 NA
ATOM      3  C   UNL     1     -22.590 -14.582 -14.979  1.00  0.00     0.182 A 
ATOM      4  N   UNL     1     -23.291 -14.325 -16.110  1.00  0.00    -0.215 NA
ATOM      5  C   UNL     1     -24.320 -15.165 -16.436  1.00  0.00     0.226 A 
ATOM      6  N   UNL     1     -24.628 -16.234 -15.634  1.00  0.00    -0.217 NA
ATOM      7  C   UNL     1     -23.923 -16.495 -14.494  1.00  0.00     0.152 A 
ATOM      8  C   UNL     1     -22.878 -15.631 -14.175  1.00  0.00     0.127 A 
ATOM      9  N   UNL     1     -22.029 -15.638 -13.140  1.00  0.00    -0.340 N 
ATOM     10  H   UNL     1     -21.978 -16.307 -12.341  1.00  0.00     0.168 HD
ENDROOT
BRANCH   7  11
ATOM     11  N   UNL     1     -24.261 -17.614 -13.674  1.00  0.00    -0.382 N 
ATOM     12  H   UNL     1     -23.824 -17.722 -12.731  1.00  0.00     0.158 HD
ATOM     13  H   UNL     1     -24.940 -18.338 -13.994  1.00  0.00     0.158 HD
ENDBRANCH   7  11
TORSDOF 1
ENDMDL
MODEL 7
REMARK VINA RESULT:    -4.785      1.033      3.032
REMARK INTER + INTRA:          -4.925
REMARK INTER:                  -4.925
REMARK INTRA:                   0.000
REMARK UNBOUND:                 0.000
REMARK SMILES Nc1ncnc2nc[nH]c12
REMARK SMILES IDX 8 1 7 2 6 3 5 4 4 5 3 6 2 7 10 8 9 9 1 11
REMARK H PARENT 9 10 1 12 1 13
REMARK Flexibility Score: inf
ROOT
ATOM      1  C   UNL     1     -21.145 -13.883 -14.214  1.00  0.00     0.199 A 
ATOM      2  N   UNL     1     -21.407 -14.887 -13.333  1.00  0.00    -0.217 NA
ATOM      3  C   UNL     1     -22.443 -15.514 -13.913  1.00  0.00     0.182 A 
ATOM      4  N   UNL     1     -23.098 -16.601 -13.440  1.00  0.00    -0.215 NA
ATOM      5  C   UNL     1     -24.136 -17.101 -14.177  1.00  0.00     0.226 A 
ATOM      6  N   UNL     1     -24.496 -16.511 -15.362  1.00  0.00    -0.217 NA
ATOM      7  C   UNL     1     -23.837 -15.415 -15.841  1.00  0.00     0.152 A 
ATOM      8  C   UNL     1     -22.783 -14.918 -15.079  1.00  0.00     0.127 A 
ATOM      9  N   UNL     1     -21.970 -13.875 -15.293  1.00  0.00    -0.340 N 
ATOM     10  H   UNL     1     -21.962 -13.208 -16.094  1.00  0.00     0.168 HD
ENDROOT
BRANCH   7  11
ATOM     11  N   UNL     1     -24.230 -14.816 -17.076  1.00  0.00    -0.382 N 
ATOM     12  H   UNL     1     -24.654 -13.862 -17.083  1.00  0.00     0.158 HD
ATOM     13  H   UNL     1     -24.105 -15.312 -17.986  1.00  0.00     0.158 HD
ENDBRANCH   7  11
TORSDOF 1
ENDMDL
MODEL 8
REMARK VINA RESULT:    -4.703      1.361      2.829
REMARK INTER + INTRA:          -4.840
REMARK INTER:                  -4.840
REMARK INTRA:                   0.000
REMARK UNBOUND:                 0.000
REMARK SMILES Nc1ncnc2nc[nH]c12
REMARK SMILES IDX 8 1 7 2 6 3 5 4 4 5 3 6 2 7 10 8 9 9 1 11
REMARK H PARENT 9 10 1 12 1 13
REMARK Flexibility Score: inf
ROOT
ATOM      1  C   UNL     1     -24.976 -15.750 -16.003  1.00  0.00     0.199 A 
ATOM      2  N   UNL     1     -24.160 -14.794 -16.524  1.00  0.00    -0.217 NA
ATOM      3  C   UNL     1     -23.200 -14.698 -15.591  1.00  0.00     0.182 A 
ATOM      4  N   UNL     1     -22.124 -13.876 -15.619  1.00  0.00    -0.215 NA
ATOM      5  C   UNL     1     -21.248 -13.921 -14.569  1.00  0.00     0.226 A 
ATOM      6  N   UNL     1     -21.462 -14.780 -13.521  1.00  0.00    -0.217 NA
ATOM      7  C   UNL     1     -22.547 -15.610 -13.491  1.00  0.00     0.152 A 
ATOM      8  C   UNL     1     -23.428 -15.552 -14.567  1.00  0.00     0.127 A 
ATOM      9  N   UNL     1     -24.556 -16.234 -14.806  1.00  0.00    -0.340 N 
ATOM     10  H   UNL     1     -25.013 -16.966 -14.220  1.00  0.00     0.168 HD
ENDROOT
BRANCH   7  11
ATOM     11  N   UNL     1     -22.750 -16.495 -12.389  1.00  0.00    -0.382 N 
ATOM     12  H   UNL     1     -22.267 -17.422 -12.366  1.00  0.00     0.158 HD
ATOM     13  H   UNL     1     -23.377 -16.241 -11.594  1.00  0.00     0.158 HD
ENDBRANCH   7  11
TORSDOF 1
ENDMDL
MODEL 9
REMARK VINA RESULT:    -4.367      2.104      3.407
REMARK INTER + INTRA:          -4.494
REMARK INTER:                  -4.494
REMARK INTRA:                   0.000
REMARK UNBOUND:                 0.000
REMARK SMILES Nc1ncnc2nc[nH]c12
REMARK SMILES IDX 8 1 7 2 6 3 5 4 4 5 3 6 2 7 10 8 9 9 1 11
REMARK H PARENT 9 10 1 12 1 13
REMARK Flexibility Score: inf
ROOT
ATOM      1  C   UNL     1     -23.855 -18.260 -10.715  1.00  0.00     0.199 A 
ATOM      2  N   UNL     1     -24.665 -18.720 -11.707  1.00  0.00    -0.217 NA
ATOM      3  C   UNL     1     -24.335 -17.922 -12.737  1.00  0.00     0.182 A 
ATOM      4  N   UNL     1     -24.857 -17.959 -13.986  1.00  0.00    -0.215 NA
ATOM      5  C   UNL     1     -24.391 -17.060 -14.906  1.00  0.00     0.226 A 
ATOM      6  N   UNL     1     -23.422 -16.151 -14.564  1.00  0.00    -0.217 NA
ATOM      7  C   UNL     1     -22.895 -16.113 -13.304  1.00  0.00     0.152 A 
ATOM      8  C   UNL     1     -23.379 -17.034 -12.380  1.00  0.00     0.127 A 
ATOM      9  N   UNL     1     -23.057 -17.230 -11.094  1.00  0.00    -0.340 N 
ATOM     10  H   UNL     1     -22.358 -16.718 -10.512  1.00  0.00     0.168 HD
ENDROOT
BRANCH   7  11
ATOM     11  N   UNL     1     -21.888 -15.158 -12.970  1.00  0.00    -0.382 N 
ATOM     12  H   UNL     1     -21.071 -15.016 -13.606  1.00  0.00     0.158 HD
ATOM     13  H   UNL     1     -21.943 -14.592 -12.095  1.00  0.00     0.158 HD
ENDBRANCH   7  11
TORSDOF 1
ENDMDL
