MODEL 1
REMARK VINA RESULT:    -4.072      0.000      0.000
REMARK INTER + INTRA:          -6.676
REMARK INTER:                  -5.977
REMARK INTRA:                  -0.699
REMARK UNBOUND:                -0.699
REMARK SMILES O=C([O-])CCCCCCCC(=O)[O-]
REMARK SMILES IDX 7 1 6 2 5 3 4 4 2 5 1 6 3 7 8 8 9 9 10 10 11 11 12 12 13 13
REMARK H PARENT
REMARK Flexibility Score: inf
ROOT
ATOM      1  C   UNL     1     -16.203  44.388  30.178  1.00  0.00     0.000 C 
ENDROOT
BRANCH   1   2
ATOM      2  C   UNL     1     -14.801  44.881  30.567  1.00  0.00     0.000 C 
BRANCH   2   3
ATOM      3  C   UNL     1     -14.202  44.011  31.679  1.00  0.00     0.006 C 
BRANCH   3   4
ATOM      4  C   UNL     1     -13.649  44.876  32.815  1.00  0.00     0.053 C 
BRANCH   4   5
ATOM      5  C   UNL     1     -14.556  44.822  34.004  1.00  0.00     0.041 C 
ATOM      6  O   UNL     1     -14.605  45.790  34.808  1.00  0.00    -0.550 OA
ATOM      7  O   UNL     1     -15.385  43.725  34.197  1.00  0.00    -0.550 OA
ENDBRANCH   4   5
ENDBRANCH   3   4
ENDBRANCH   2   3
ENDBRANCH   1   2
BRANCH   1   8
ATOM      8  C   UNL     1     -17.277  44.754  31.218  1.00  0.00     0.000 C 
BRANCH   8   9
ATOM      9  C   UNL     1     -18.182  43.588  31.656  1.00  0.00     0.006 C 
BRANCH   9  10
ATOM     10  C   UNL     1     -17.478  42.227  31.593  1.00  0.00     0.053 C 
BRANCH  10  11
ATOM     11  C   UNL     1     -17.877  41.378  32.758  1.00  0.00     0.041 C 
ATOM     12  O   UNL     1     -17.601  40.150  32.771  1.00  0.00    -0.550 OA
ATOM     13  O   UNL     1     -18.511  41.953  33.852  1.00  0.00    -0.550 OA
ENDBRANCH  10  11
ENDBRANCH   9  10
ENDBRANCH   8   9
ENDBRANCH   1   8
TORSDOF 8
ENDMDL
MODEL 2
REMARK VINA RESULT:    -4.007      0.471      4.363
REMARK INTER + INTRA:          -6.580
REMARK INTER:                  -5.955
REMARK INTRA:                  -0.625
REMARK UNBOUND:                -0.699
REMARK SMILES O=C([O-])CCCCCCCC(=O)[O-]
REMARK SMILES IDX 7 1 6 2 5 3 4 4 2 5 1 6 3 7 8 8 9 9 10 10 11 11 12 12 13 13
REMARK H PARENT
REMARK Flexibility Score: inf
ROOT
ATOM      1  C   UNL     1     -15.782  44.307  30.086  1.00  0.00     0.000 C 
ENDROOT
BRANCH   1   2
ATOM      2  C   UNL     1     -17.090  44.892  30.640  1.00  0.00     0.000 C 
BRANCH   2   3
ATOM      3  C   UNL     1     -17.676  43.989  31.731  1.00  0.00     0.006 C 
BRANCH   3   4
ATOM      4  C   UNL     1     -17.378  42.515  31.444  1.00  0.00     0.053 C 
BRANCH   4   5
ATOM      5  C   UNL     1     -17.914  41.648  32.539  1.00  0.00     0.041 C 
ATOM      6  O   UNL     1     -19.015  41.925  33.084  1.00  0.00    -0.550 OA
ATOM      7  O   UNL     1     -17.223  40.507  32.924  1.00  0.00    -0.550 OA
ENDBRANCH   4   5
ENDBRANCH   3   4
ENDBRANCH   2   3
ENDBRANCH   1   2
BRANCH   1   8
ATOM      8  C   UNL     1     -14.528  44.928  30.728  1.00  0.00     0.000 C 
BRANCH   8   9
ATOM      9  C   UNL     1     -13.819  44.037  31.765  1.00  0.00     0.006 C 
BRANCH   9  10
ATOM     10  C   UNL     1     -13.350  44.815  33.001  1.00  0.00     0.053 C 
BRANCH  10  11
ATOM     11  C   UNL     1     -14.425  44.838  34.041  1.00  0.00     0.041 C 
ATOM     12  O   UNL     1     -15.142  43.822  34.236  1.00  0.00    -0.550 OA
ATOM     13  O   UNL     1     -14.604  45.968  34.830  1.00  0.00    -0.550 OA
ENDBRANCH  10  11
ENDBRANCH   9  10
ENDBRANCH   8   9
ENDBRANCH   1   8
TORSDOF 8
ENDMDL
MODEL 3
REMARK VINA RESULT:    -3.991      2.529      4.264
REMARK INTER + INTRA:          -6.556
REMARK INTER:                  -5.762
REMARK INTRA:                  -0.794
REMARK UNBOUND:                -0.699
REMARK SMILES O=C([O-])CCCCCCCC(=O)[O-]
REMARK SMILES IDX 7 1 6 2 5 3 4 4 2 5 1 6 3 7 8 8 9 9 10 10 11 11 12 12 13 13
REMARK H PARENT
REMARK Flexibility Score: inf
ROOT
ATOM      1  C   UNL     1     -14.196  44.870  33.230  1.00  0.00     0.000 C 
ENDROOT
BRANCH   1   2
ATOM      2  C   UNL     1     -14.725  43.836  34.236  1.00  0.00     0.000 C 
BRANCH   2   3
ATOM      3  C   UNL     1     -16.098  43.305  33.806  1.00  0.00     0.006 C 
BRANCH   3   4
ATOM      4  C   UNL     1     -17.047  44.455  33.457  1.00  0.00     0.053 C 
BRANCH   4   5
ATOM      5  C   UNL     1     -18.382  43.925  33.041  1.00  0.00     0.041 C 
ATOM      6  O   UNL     1     -19.377  44.044  33.804  1.00  0.00    -0.550 OA
ATOM      7  O   UNL     1     -18.540  43.342  31.791  1.00  0.00    -0.550 OA
ENDBRANCH   4   5
ENDBRANCH   3   4
ENDBRANCH   2   3
ENDBRANCH   1   2
BRANCH   1   8
ATOM      8  C   UNL     1     -13.145  44.287  32.268  1.00  0.00     0.000 C 
BRANCH   8   9
ATOM      9  C   UNL     1     -13.429  44.527  30.773  1.00  0.00     0.006 C 
BRANCH   9  10
ATOM     10  C   UNL     1     -14.893  44.887  30.492  1.00  0.00     0.053 C 
BRANCH  10  11
ATOM     11  C   UNL     1     -15.612  43.720  29.894  1.00  0.00     0.041 C 
ATOM     12  O   UNL     1     -16.322  43.872  28.866  1.00  0.00    -0.550 OA
ATOM     13  O   UNL     1     -15.459  42.453  30.444  1.00  0.00    -0.550 OA
ENDBRANCH  10  11
ENDBRANCH   9  10
ENDBRANCH   8   9
ENDBRANCH   1   8
TORSDOF 8
ENDMDL
MODEL 4
REMARK VINA RESULT:    -3.982      2.081      4.588
REMARK INTER + INTRA:          -6.543
REMARK INTER:                  -5.851
REMARK INTRA:                  -0.692
REMARK UNBOUND:                -0.699
REMARK SMILES O=C([O-])CCCCCCCC(=O)[O-]
REMARK SMILES IDX 7 1 6 2 5 3 4 4 2 5 1 6 3 7 8 8 9 9 10 10 11 11 12 12 13 13
REMARK H PARENT
REMARK Flexibility Score: inf
ROOT
ATOM      1  C   UNL     1     -14.623  44.087  34.003  1.00  0.00     0.000 C 
ENDROOT
BRANCH   1   2
ATOM      2  C   UNL     1     -16.134  43.860  33.837  1.00  0.00     0.000 C 
BRANCH   2   3
ATOM      3  C   UNL     1     -16.499  42.392  34.092  1.00  0.00     0.006 C 
BRANCH   3   4
ATOM      4  C   UNL     1     -16.458  41.583  32.793  1.00  0.00     0.053 C 
BRANCH   4   5
ATOM      5  C   UNL     1     -17.816  41.045  32.467  1.00  0.00     0.041 C 
ATOM      6  O   UNL     1     -17.934  39.987  31.795  1.00  0.00    -0.550 OA
ATOM      7  O   UNL     1     -18.950  41.685  32.948  1.00  0.00    -0.550 OA
ENDBRANCH   4   5
ENDBRANCH   3   4
ENDBRANCH   2   3
ENDBRANCH   1   2
BRANCH   1   8
ATOM      8  C   UNL     1     -14.007  44.891  32.845  1.00  0.00     0.000 C 
BRANCH   8   9
ATOM      9  C   UNL     1     -13.941  44.147  31.499  1.00  0.00     0.006 C 
BRANCH   9  10
ATOM     10  C   UNL     1     -14.646  44.899  30.363  1.00  0.00     0.053 C 
BRANCH  10  11
ATOM     11  C   UNL     1     -16.055  44.419  30.215  1.00  0.00     0.041 C 
ATOM     12  O   UNL     1     -16.291  43.296  29.697  1.00  0.00    -0.550 OA
ATOM     13  O   UNL     1     -17.106  45.190  30.694  1.00  0.00    -0.550 OA
ENDBRANCH  10  11
ENDBRANCH   9  10
ENDBRANCH   8   9
ENDBRANCH   1   8
TORSDOF 8
ENDMDL
MODEL 5
REMARK VINA RESULT:    -3.966      2.661      5.188
REMARK INTER + INTRA:          -6.520
REMARK INTER:                  -5.966
REMARK INTRA:                  -0.554
REMARK UNBOUND:                -0.699
REMARK SMILES O=C([O-])CCCCCCCC(=O)[O-]
REMARK SMILES IDX 7 1 6 2 5 3 4 4 2 5 1 6 3 7 8 8 9 9 10 10 11 11 12 12 13 13
REMARK H PARENT
REMARK Flexibility Score: inf
ROOT
ATOM      1  C   UNL     1     -16.226  42.975  33.752  1.00  0.00     0.000 C 
ENDROOT
BRANCH   1   2
ATOM      2  C   UNL     1     -17.384  42.067  34.192  1.00  0.00     0.000 C 
BRANCH   2   3
ATOM      3  C   UNL     1     -17.192  40.639  33.667  1.00  0.00     0.006 C 
BRANCH   3   4
ATOM      4  C   UNL     1     -17.935  40.437  32.343  1.00  0.00     0.053 C 
BRANCH   4   5
ATOM      5  C   UNL     1     -17.256  39.392  31.516  1.00  0.00     0.041 C 
ATOM      6  O   UNL     1     -17.818  38.284  31.308  1.00  0.00    -0.550 OA
ATOM      7  O   UNL     1     -16.024  39.658  30.933  1.00  0.00    -0.550 OA
ENDBRANCH   4   5
ENDBRANCH   3   4
ENDBRANCH   2   3
ENDBRANCH   1   2
BRANCH   1   8
ATOM      8  C   UNL     1     -16.703  44.326  33.189  1.00  0.00     0.000 C 
BRANCH   8   9
ATOM      9  C   UNL     1     -17.640  44.229  31.972  1.00  0.00     0.006 C 
BRANCH   9  10
ATOM     10  C   UNL     1     -17.109  44.983  30.746  1.00  0.00     0.053 C 
BRANCH  10  11
ATOM     11  C   UNL     1     -15.838  44.360  30.262  1.00  0.00     0.041 C 
ATOM     12  O   UNL     1     -14.764  45.017  30.275  1.00  0.00    -0.550 OA
ATOM     13  O   UNL     1     -15.829  43.035  29.841  1.00  0.00    -0.550 OA
ENDBRANCH  10  11
ENDBRANCH   9  10
ENDBRANCH   8   9
ENDBRANCH   1   8
TORSDOF 8
ENDMDL
MODEL 6
REMARK VINA RESULT:    -3.946      1.470      4.152
REMARK INTER + INTRA:          -6.490
REMARK INTER:                  -5.690
REMARK INTRA:                  -0.800
REMARK UNBOUND:                -0.699
REMARK SMILES O=C([O-])CCCCCCCC(=O)[O-]
REMARK SMILES IDX 7 1 6 2 5 3 4 4 2 5 1 6 3 7 8 8 9 9 10 10 11 11 12 12 13 13
REMARK H PARENT
REMARK Flexibility Score: inf
ROOT
ATOM      1  C   UNL     1     -13.438  44.031  30.661  1.00  0.00     0.000 C 
ENDROOT
BRANCH   1   2
ATOM      2  C   UNL     1     -14.698  44.865  30.382  1.00  0.00     0.000 C 
BRANCH   2   3
ATOM      3  C   UNL     1     -15.926  43.964  30.213  1.00  0.00     0.006 C 
BRANCH   3   4
ATOM      4  C   UNL     1     -17.174  44.618  30.814  1.00  0.00     0.053 C 
BRANCH   4   5
ATOM      5  C   UNL     1     -17.938  43.629  31.638  1.00  0.00     0.041 C 
ATOM      6  O   UNL     1     -18.871  44.018  32.390  1.00  0.00    -0.550 OA
ATOM      7  O   UNL     1     -17.654  42.274  31.539  1.00  0.00    -0.550 OA
ENDBRANCH   4   5
ENDBRANCH   3   4
ENDBRANCH   2   3
ENDBRANCH   1   2
BRANCH   1   8
ATOM      8  C   UNL     1     -12.527  44.660  31.731  1.00  0.00     0.000 C 
BRANCH   8   9
ATOM      9  C   UNL     1     -12.775  44.168  33.168  1.00  0.00     0.006 C 
BRANCH   9  10
ATOM     10  C   UNL     1     -13.724  45.078  33.957  1.00  0.00     0.053 C 
BRANCH  10  11
ATOM     11  C   UNL     1     -15.088  44.468  34.036  1.00  0.00     0.041 C 
ATOM     12  O   UNL     1     -15.231  43.221  33.938  1.00  0.00    -0.550 OA
ATOM     13  O   UNL     1     -16.197  45.273  34.266  1.00  0.00    -0.550 OA
ENDBRANCH  10  11
ENDBRANCH   9  10
ENDBRANCH   8   9
ENDBRANCH   1   8
TORSDOF 8
ENDMDL
MODEL 7
REMARK VINA RESULT:    -3.938      2.300      3.445
REMARK INTER + INTRA:          -6.478
REMARK INTER:                  -5.665
REMARK INTRA:                  -0.813
REMARK UNBOUND:                -0.699
REMARK SMILES O=C([O-])CCCCCCCC(=O)[O-]
REMARK SMILES IDX 7 1 6 2 5 3 4 4 2 5 1 6 3 7 8 8 9 9 10 10 11 11 12 12 13 13
REMARK H PARENT
REMARK Flexibility Score: inf
ROOT
ATOM      1  C   UNL     1     -13.834  44.932  33.059  1.00  0.00     0.000 C 
ENDROOT
BRANCH   1   2
ATOM      2  C   UNL     1     -13.039  44.010  32.122  1.00  0.00     0.000 C 
BRANCH   2   3
ATOM      3  C   UNL     1     -13.391  44.284  30.655  1.00  0.00     0.006 C 
BRANCH   3   4
ATOM      4  C   UNL     1     -14.749  44.982  30.537  1.00  0.00     0.053 C 
BRANCH   4   5
ATOM      5  C   UNL     1     -15.792  44.022  30.060  1.00  0.00     0.041 C 
ATOM      6  O   UNL     1     -16.846  44.449  29.518  1.00  0.00    -0.550 OA
ATOM      7  O   UNL     1     -15.580  42.654  30.170  1.00  0.00    -0.550 OA
ENDBRANCH   4   5
ENDBRANCH   3   4
ENDBRANCH   2   3
ENDBRANCH   1   2
BRANCH   1   8
ATOM      8  C   UNL     1     -14.506  44.175  34.218  1.00  0.00     0.000 C 
BRANCH   8   9
ATOM      9  C   UNL     1     -15.841  43.493  33.863  1.00  0.00     0.006 C 
BRANCH   9  10
ATOM     10  C   UNL     1     -16.951  44.494  33.519  1.00  0.00     0.053 C 
BRANCH  10  11
ATOM     11  C   UNL     1     -18.189  43.773  33.089  1.00  0.00     0.041 C 
ATOM     12  O   UNL     1     -18.105  42.730  32.388  1.00  0.00    -0.550 OA
ATOM     13  O   UNL     1     -19.435  44.224  33.504  1.00  0.00    -0.550 OA
ENDBRANCH  10  11
ENDBRANCH   9  10
ENDBRANCH   8   9
ENDBRANCH   1   8
TORSDOF 8
ENDMDL
MODEL 8
REMARK VINA RESULT:    -3.876      1.805      3.295
REMARK INTER + INTRA:          -6.388
REMARK INTER:                  -5.511
REMARK INTRA:                  -0.877
REMARK UNBOUND:                -0.699
REMARK SMILES O=C([O-])CCCCCCCC(=O)[O-]
REMARK SMILES IDX 7 1 6 2 5 3 4 4 2 5 1 6 3 7 8 8 9 9 10 10 11 11 12 12 13 13
REMARK H PARENT
REMARK Flexibility Score: inf
ROOT
ATOM      1  C   UNL     1     -15.912  44.576  29.748  1.00  0.00     0.000 C 
ENDROOT
BRANCH   1   2
ATOM      2  C   UNL     1     -17.150  44.979  30.564  1.00  0.00     0.000 C 
BRANCH   2   3
ATOM      3  C   UNL     1     -17.692  43.788  31.363  1.00  0.00     0.006 C 
BRANCH   3   4
ATOM      4  C   UNL     1     -17.869  44.152  32.840  1.00  0.00     0.053 C 
BRANCH   4   5
ATOM      5  C   UNL     1     -16.642  43.795  33.618  1.00  0.00     0.041 C 
ATOM      6  O   UNL     1     -15.716  44.637  33.762  1.00  0.00    -0.550 OA
ATOM      7  O   UNL     1     -16.541  42.551  34.225  1.00  0.00    -0.550 OA
ENDBRANCH   4   5
ENDBRANCH   3   4
ENDBRANCH   2   3
ENDBRANCH   1   2
BRANCH   1   8
ATOM      8  C   UNL     1     -14.589  44.961  30.435  1.00  0.00     0.000 C 
BRANCH   8   9
ATOM      9  C   UNL     1     -13.492  43.881  30.384  1.00  0.00     0.006 C 
BRANCH   9  10
ATOM     10  C   UNL     1     -14.047  42.477  30.110  1.00  0.00     0.053 C 
BRANCH  10  11
ATOM     11  C   UNL     1     -14.406  41.798  31.394  1.00  0.00     0.041 C 
ATOM     12  O   UNL     1     -15.387  41.011  31.443  1.00  0.00    -0.550 OA
ATOM     13  O   UNL     1     -13.625  41.996  32.527  1.00  0.00    -0.550 OA
ENDBRANCH  10  11
ENDBRANCH   9  10
ENDBRANCH   8   9
ENDBRANCH   1   8
TORSDOF 8
ENDMDL
MODEL 9
REMARK VINA RESULT:    -3.864      2.268      3.218
REMARK INTER + INTRA:          -6.370
REMARK INTER:                  -5.548
REMARK INTRA:                  -0.822
REMARK UNBOUND:                -0.699
REMARK SMILES O=C([O-])CCCCCCCC(=O)[O-]
REMARK SMILES IDX 7 1 6 2 5 3 4 4 2 5 1 6 3 7 8 8 9 9 10 10 11 11 12 12 13 13
REMARK H PARENT
REMARK Flexibility Score: inf
ROOT
ATOM      1  C   UNL     1     -15.275  43.851  33.821  1.00  0.00     0.000 C 
ENDROOT
BRANCH   1   2
ATOM      2  C   UNL     1     -14.270  44.532  32.879  1.00  0.00     0.000 C 
BRANCH   2   3
ATOM      3  C   UNL     1     -14.295  43.884  31.489  1.00  0.00     0.006 C 
BRANCH   3   4
ATOM      4  C   UNL     1     -14.684  44.904  30.415  1.00  0.00     0.053 C 
BRANCH   4   5
ATOM      5  C   UNL     1     -16.010  44.555  29.817  1.00  0.00     0.041 C 
ATOM      6  O   UNL     1     -16.110  43.583  29.021  1.00  0.00    -0.550 OA
ATOM      7  O   UNL     1     -17.145  45.270  30.174  1.00  0.00    -0.550 OA
ENDBRANCH   4   5
ENDBRANCH   3   4
ENDBRANCH   2   3
ENDBRANCH   1   2
BRANCH   1   8
ATOM      8  C   UNL     1     -16.736  44.220  33.506  1.00  0.00     0.000 C 
BRANCH   8   9
ATOM      9  C   UNL     1     -17.720  43.035  33.503  1.00  0.00     0.006 C 
BRANCH   9  10
ATOM     10  C   UNL     1     -17.911  42.419  32.111  1.00  0.00     0.053 C 
BRANCH  10  11
ATOM     11  C   UNL     1     -17.212  41.099  32.024  1.00  0.00     0.041 C 
ATOM     12  O   UNL     1     -17.478  40.185  32.848  1.00  0.00    -0.550 OA
ATOM     13  O   UNL     1     -16.302  40.861  31.002  1.00  0.00    -0.550 OA
ENDBRANCH  10  11
ENDBRANCH   9  10
ENDBRANCH   8   9
ENDBRANCH   1   8
TORSDOF 8
ENDMDL
