MODEL 1
REMARK VINA RESULT:    -4.134      0.000      0.000
REMARK INTER + INTRA:         -13.417
REMARK INTER:                 -10.416
REMARK INTRA:                  -3.001
REMARK UNBOUND:                -3.001
REMARK SMILES CCCCCCCCCCCCCCCCCCCCCCCCCCCC(=O)[O-]
REMARK SMILES IDX 15 1 16 2 17 3 18 4 19 5 20 6 21 7 22 8 23 9 24 10 25 11
REMARK SMILES IDX 26 12 27 13 28 14 29 15 30 16 14 17 13 18 12 19 11 20 10 21
REMARK SMILES IDX 9 22 8 23 7 24 6 25 5 26 4 27 3 28 2 29 1 30
REMARK H PARENT
REMARK Flexibility Score: inf
ROOT
ATOM      1  C   UNL     1       2.240  11.586  -9.048  1.00  0.00     0.000 C 
ENDROOT
BRANCH   1   2
ATOM      2  C   UNL     1       3.277  12.682  -8.747  1.00  0.00     0.000 C 
BRANCH   2   3
ATOM      3  C   UNL     1       4.483  12.647  -9.706  1.00  0.00     0.000 C 
BRANCH   3   4
ATOM      4  C   UNL     1       5.761  13.326  -9.183  1.00  0.00     0.000 C 
BRANCH   4   5
ATOM      5  C   UNL     1       5.826  13.382  -7.647  1.00  0.00     0.000 C 
BRANCH   5   6
ATOM      6  C   UNL     1       7.243  13.122  -7.107  1.00  0.00     0.000 C 
BRANCH   6   7
ATOM      7  C   UNL     1       8.217  12.659  -8.203  1.00  0.00     0.000 C 
BRANCH   7   8
ATOM      8  C   UNL     1       8.856  11.292  -7.893  1.00  0.00     0.000 C 
BRANCH   8   9
ATOM      9  C   UNL     1       9.390  10.527  -9.121  1.00  0.00     0.000 C 
BRANCH   9  10
ATOM     10  C   UNL     1      10.844  10.030  -9.001  1.00  0.00     0.000 C 
BRANCH  10  11
ATOM     11  C   UNL     1      11.002   8.502  -8.863  1.00  0.00     0.000 C 
BRANCH  11  12
ATOM     12  C   UNL     1      11.731   8.037  -7.587  1.00  0.00     0.006 C 
BRANCH  12  13
ATOM     13  C   UNL     1      11.743   9.071  -6.450  1.00  0.00     0.053 C 
BRANCH  13  14
ATOM     14  C   UNL     1      10.832   8.681  -5.326  1.00  0.00     0.041 C 
ATOM     15  O   UNL     1      11.182   7.790  -4.507  1.00  0.00    -0.550 OA
ATOM     16  O   UNL     1       9.586   9.282  -5.200  1.00  0.00    -0.550 OA
ENDBRANCH  13  14
ENDBRANCH  12  13
ENDBRANCH  11  12
ENDBRANCH  10  11
ENDBRANCH   9  10
ENDBRANCH   8   9
ENDBRANCH   7   8
ENDBRANCH   6   7
ENDBRANCH   5   6
ENDBRANCH   4   5
ENDBRANCH   3   4
ENDBRANCH   2   3
ENDBRANCH   1   2
BRANCH   1  17
ATOM     17  C   UNL     1       1.802  11.559 -10.525  1.00  0.00     0.000 C 
BRANCH  17  18
ATOM     18  C   UNL     1       0.997  10.313 -10.944  1.00  0.00     0.000 C 
BRANCH  18  19
ATOM     19  C   UNL     1       1.836   9.300 -11.745  1.00  0.00     0.000 C 
BRANCH  19  20
ATOM     20  C   UNL     1       2.051   7.962 -11.010  1.00  0.00     0.000 C 
BRANCH  20  21
ATOM     21  C   UNL     1       2.593   8.100  -9.573  1.00  0.00     0.000 C 
BRANCH  21  22
ATOM     22  C   UNL     1       1.750   7.354  -8.529  1.00  0.00    -0.000 C 
BRANCH  22  23
ATOM     23  C   UNL     1       0.719   8.291  -7.884  1.00  0.00    -0.000 C 
BRANCH  23  24
ATOM     24  C   UNL     1      -0.717   8.038  -8.378  1.00  0.00    -0.000 C 
BRANCH  24  25
ATOM     25  C   UNL     1      -0.914   6.735  -9.174  1.00  0.00    -0.000 C 
BRANCH  25  26
ATOM     26  C   UNL     1      -1.417   6.982 -10.608  1.00  0.00    -0.000 C 
BRANCH  26  27
ATOM     27  C   UNL     1      -2.906   7.365 -10.661  1.00  0.00    -0.000 C 
BRANCH  27  28
ATOM     28  C   UNL     1      -3.230   8.611 -11.508  1.00  0.00    -0.000 C 
BRANCH  28  29
ATOM     29  C   UNL     1      -2.760   9.936 -10.871  1.00  0.00    -0.003 C 
ATOM     30  C   UNL     1      -2.821  11.107 -11.852  1.00  0.00     0.004 C 
ENDBRANCH  28  29
ENDBRANCH  27  28
ENDBRANCH  26  27
ENDBRANCH  25  26
ENDBRANCH  24  25
ENDBRANCH  23  24
ENDBRANCH  22  23
ENDBRANCH  21  22
ENDBRANCH  20  21
ENDBRANCH  19  20
ENDBRANCH  18  19
ENDBRANCH  17  18
ENDBRANCH   1  17
TORSDOF 26
ENDMDL
MODEL 2
REMARK VINA RESULT:    -4.034      1.431      2.150
REMARK INTER + INTRA:         -13.167
REMARK INTER:                 -10.423
REMARK INTRA:                  -2.745
REMARK UNBOUND:                -3.001
REMARK SMILES CCCCCCCCCCCCCCCCCCCCCCCCCCCC(=O)[O-]
REMARK SMILES IDX 15 1 16 2 17 3 18 4 19 5 20 6 21 7 22 8 23 9 24 10 25 11
REMARK SMILES IDX 26 12 27 13 28 14 29 15 30 16 14 17 13 18 12 19 11 20 10 21
REMARK SMILES IDX 9 22 8 23 7 24 6 25 5 26 4 27 3 28 2 29 1 30
REMARK H PARENT
REMARK Flexibility Score: inf
ROOT
ATOM      1  C   UNL     1       1.783  11.942 -10.060  1.00  0.00     0.000 C 
ENDROOT
BRANCH   1   2
ATOM      2  C   UNL     1       3.280  12.289 -10.000  1.00  0.00     0.000 C 
BRANCH   2   3
ATOM      3  C   UNL     1       3.747  12.691  -8.588  1.00  0.00     0.000 C 
BRANCH   3   4
ATOM      4  C   UNL     1       4.813  13.800  -8.537  1.00  0.00     0.000 C 
BRANCH   4   5
ATOM      5  C   UNL     1       6.230  13.261  -8.275  1.00  0.00     0.000 C 
BRANCH   5   6
ATOM      6  C   UNL     1       6.828  13.790  -6.960  1.00  0.00     0.000 C 
BRANCH   6   7
ATOM      7  C   UNL     1       6.600  12.832  -5.780  1.00  0.00     0.000 C 
BRANCH   7   8
ATOM      8  C   UNL     1       7.471  13.177  -4.556  1.00  0.00     0.000 C 
BRANCH   8   9
ATOM      9  C   UNL     1       8.931  13.555  -4.879  1.00  0.00     0.000 C 
BRANCH   9  10
ATOM     10  C   UNL     1       9.909  12.367  -4.973  1.00  0.00     0.000 C 
BRANCH  10  11
ATOM     11  C   UNL     1      10.140  11.823  -6.397  1.00  0.00     0.000 C 
BRANCH  11  12
ATOM     12  C   UNL     1       9.830  10.324  -6.579  1.00  0.00     0.006 C 
BRANCH  12  13
ATOM     13  C   UNL     1       9.834   9.512  -5.274  1.00  0.00     0.053 C 
BRANCH  13  14
ATOM     14  C   UNL     1      10.856   8.417  -5.296  1.00  0.00     0.041 C 
ATOM     15  O   UNL     1      11.019   7.683  -4.285  1.00  0.00    -0.550 OA
ATOM     16  O   UNL     1      11.646   8.225  -6.421  1.00  0.00    -0.550 OA
ENDBRANCH  13  14
ENDBRANCH  12  13
ENDBRANCH  11  12
ENDBRANCH  10  11
ENDBRANCH   9  10
ENDBRANCH   8   9
ENDBRANCH   7   8
ENDBRANCH   6   7
ENDBRANCH   5   6
ENDBRANCH   4   5
ENDBRANCH   3   4
ENDBRANCH   2   3
ENDBRANCH   1   2
BRANCH   1  17
ATOM     17  C   UNL     1       1.356  11.344 -11.413  1.00  0.00     0.000 C 
BRANCH  17  18
ATOM     18  C   UNL     1       0.415  10.127 -11.321  1.00  0.00     0.000 C 
BRANCH  18  19
ATOM     19  C   UNL     1       1.134   8.792 -11.594  1.00  0.00     0.000 C 
BRANCH  19  20
ATOM     20  C   UNL     1       2.279   8.496 -10.605  1.00  0.00     0.000 C 
BRANCH  20  21
ATOM     21  C   UNL     1       1.868   7.651  -9.384  1.00  0.00     0.000 C 
BRANCH  21  22
ATOM     22  C   UNL     1       1.162   8.465  -8.289  1.00  0.00    -0.000 C 
BRANCH  22  23
ATOM     23  C   UNL     1      -0.283   7.983  -8.092  1.00  0.00    -0.000 C 
BRANCH  23  24
ATOM     24  C   UNL     1      -0.695   6.890  -9.095  1.00  0.00    -0.000 C 
BRANCH  24  25
ATOM     25  C   UNL     1      -2.157   6.961  -9.574  1.00  0.00    -0.000 C 
BRANCH  25  26
ATOM     26  C   UNL     1      -2.300   6.756 -11.092  1.00  0.00    -0.000 C 
BRANCH  26  27
ATOM     27  C   UNL     1      -3.434   7.594 -11.705  1.00  0.00    -0.000 C 
BRANCH  27  28
ATOM     28  C   UNL     1      -3.834   8.844 -10.896  1.00  0.00    -0.000 C 
BRANCH  28  29
ATOM     29  C   UNL     1      -3.955  10.125 -11.748  1.00  0.00    -0.003 C 
ATOM     30  C   UNL     1      -3.176  11.297 -11.151  1.00  0.00     0.004 C 
ENDBRANCH  28  29
ENDBRANCH  27  28
ENDBRANCH  26  27
ENDBRANCH  25  26
ENDBRANCH  24  25
ENDBRANCH  23  24
ENDBRANCH  22  23
ENDBRANCH  21  22
ENDBRANCH  20  21
ENDBRANCH  19  20
ENDBRANCH  18  19
ENDBRANCH  17  18
ENDBRANCH   1  17
TORSDOF 26
ENDMDL
MODEL 3
REMARK VINA RESULT:    -3.990      1.843      3.792
REMARK INTER + INTRA:         -13.056
REMARK INTER:                 -10.529
REMARK INTRA:                  -2.527
REMARK UNBOUND:                -3.001
REMARK SMILES CCCCCCCCCCCCCCCCCCCCCCCCCCCC(=O)[O-]
REMARK SMILES IDX 15 1 16 2 17 3 18 4 19 5 20 6 21 7 22 8 23 9 24 10 25 11
REMARK SMILES IDX 26 12 27 13 28 14 29 15 30 16 14 17 13 18 12 19 11 20 10 21
REMARK SMILES IDX 9 22 8 23 7 24 6 25 5 26 4 27 3 28 2 29 1 30
REMARK H PARENT
REMARK Flexibility Score: inf
ROOT
ATOM      1  C   UNL     1       2.181  10.552  -9.360  1.00  0.00     0.000 C 
ENDROOT
BRANCH   1   2
ATOM      2  C   UNL     1       2.470  11.878  -8.635  1.00  0.00     0.000 C 
BRANCH   2   3
ATOM      3  C   UNL     1       3.236  12.887  -9.512  1.00  0.00     0.000 C 
BRANCH   3   4
ATOM      4  C   UNL     1       4.205  13.814  -8.758  1.00  0.00     0.000 C 
BRANCH   4   5
ATOM      5  C   UNL     1       5.655  13.299  -8.762  1.00  0.00     0.000 C 
BRANCH   5   6
ATOM      6  C   UNL     1       6.488  13.874  -7.604  1.00  0.00     0.000 C 
BRANCH   6   7
ATOM      7  C   UNL     1       6.591  12.906  -6.414  1.00  0.00     0.000 C 
BRANCH   7   8
ATOM      8  C   UNL     1       6.800  13.633  -5.071  1.00  0.00     0.000 C 
BRANCH   8   9
ATOM      9  C   UNL     1       8.094  13.258  -4.320  1.00  0.00     0.000 C 
BRANCH   9  10
ATOM     10  C   UNL     1       9.387  13.367  -5.151  1.00  0.00     0.000 C 
BRANCH  10  11
ATOM     11  C   UNL     1      10.618  12.667  -4.538  1.00  0.00     0.000 C 
BRANCH  11  12
ATOM     12  C   UNL     1      11.220  11.540  -5.400  1.00  0.00     0.006 C 
BRANCH  12  13
ATOM     13  C   UNL     1      11.486  10.232  -4.638  1.00  0.00     0.053 C 
BRANCH  13  14
ATOM     14  C   UNL     1      10.513   9.155  -5.012  1.00  0.00     0.041 C 
ATOM     15  O   UNL     1       9.341   9.454  -5.364  1.00  0.00    -0.550 OA
ATOM     16  O   UNL     1      10.893   7.821  -4.945  1.00  0.00    -0.550 OA
ENDBRANCH  13  14
ENDBRANCH  12  13
ENDBRANCH  11  12
ENDBRANCH  10  11
ENDBRANCH   9  10
ENDBRANCH   8   9
ENDBRANCH   7   8
ENDBRANCH   6   7
ENDBRANCH   5   6
ENDBRANCH   4   5
ENDBRANCH   3   4
ENDBRANCH   2   3
ENDBRANCH   1   2
BRANCH   1  17
ATOM     17  C   UNL     1       2.460  10.618 -10.873  1.00  0.00     0.000 C 
BRANCH  17  18
ATOM     18  C   UNL     1       1.376   9.982 -11.764  1.00  0.00     0.000 C 
BRANCH  18  19
ATOM     19  C   UNL     1      -0.053  10.362 -11.334  1.00  0.00     0.000 C 
BRANCH  19  20
ATOM     20  C   UNL     1      -0.518  11.727 -11.882  1.00  0.00     0.000 C 
BRANCH  20  21
ATOM     21  C   UNL     1      -2.024  12.006 -11.711  1.00  0.00     0.000 C 
BRANCH  21  22
ATOM     22  C   UNL     1      -2.905  10.774 -11.966  1.00  0.00    -0.000 C 
BRANCH  22  23
ATOM     23  C   UNL     1      -3.915  10.575 -10.826  1.00  0.00    -0.000 C 
BRANCH  23  24
ATOM     24  C   UNL     1      -3.935   9.134 -10.284  1.00  0.00    -0.000 C 
BRANCH  24  25
ATOM     25  C   UNL     1      -3.662   8.039 -11.331  1.00  0.00    -0.000 C 
BRANCH  25  26
ATOM     26  C   UNL     1      -2.360   7.265 -11.061  1.00  0.00    -0.000 C 
BRANCH  26  27
ATOM     27  C   UNL     1      -1.972   7.248  -9.573  1.00  0.00    -0.000 C 
BRANCH  27  28
ATOM     28  C   UNL     1      -0.505   6.877  -9.283  1.00  0.00    -0.000 C 
BRANCH  28  29
ATOM     29  C   UNL     1       0.194   7.830  -8.291  1.00  0.00    -0.003 C 
ATOM     30  C   UNL     1       1.498   7.247  -7.744  1.00  0.00     0.004 C 
ENDBRANCH  28  29
ENDBRANCH  27  28
ENDBRANCH  26  27
ENDBRANCH  25  26
ENDBRANCH  24  25
ENDBRANCH  23  24
ENDBRANCH  22  23
ENDBRANCH  21  22
ENDBRANCH  20  21
ENDBRANCH  19  20
ENDBRANCH  18  19
ENDBRANCH  17  18
ENDBRANCH   1  17
TORSDOF 26
ENDMDL
MODEL 4
REMARK VINA RESULT:    -3.920      3.698      9.828
REMARK INTER + INTRA:         -12.880
REMARK INTER:                  -9.619
REMARK INTRA:                  -3.261
REMARK UNBOUND:                -3.001
REMARK SMILES CCCCCCCCCCCCCCCCCCCCCCCCCCCC(=O)[O-]
REMARK SMILES IDX 15 1 16 2 17 3 18 4 19 5 20 6 21 7 22 8 23 9 24 10 25 11
REMARK SMILES IDX 26 12 27 13 28 14 29 15 30 16 14 17 13 18 12 19 11 20 10 21
REMARK SMILES IDX 9 22 8 23 7 24 6 25 5 26 4 27 3 28 2 29 1 30
REMARK H PARENT
REMARK Flexibility Score: inf
ROOT
ATOM      1  C   UNL     1       6.855  12.565  -5.209  1.00  0.00     0.000 C 
ENDROOT
BRANCH   1   2
ATOM      2  C   UNL     1       6.617  13.632  -6.292  1.00  0.00     0.000 C 
BRANCH   2   3
ATOM      3  C   UNL     1       6.204  13.028  -7.648  1.00  0.00     0.000 C 
BRANCH   3   4
ATOM      4  C   UNL     1       5.027  13.728  -8.350  1.00  0.00     0.000 C 
BRANCH   4   5
ATOM      5  C   UNL     1       4.216  12.781  -9.251  1.00  0.00     0.000 C 
BRANCH   5   6
ATOM      6  C   UNL     1       2.943  12.258  -8.563  1.00  0.00     0.000 C 
BRANCH   6   7
ATOM      7  C   UNL     1       2.210  11.200  -9.404  1.00  0.00     0.000 C 
BRANCH   7   8
ATOM      8  C   UNL     1       2.959  10.849 -10.704  1.00  0.00     0.000 C 
BRANCH   8   9
ATOM      9  C   UNL     1       3.309   9.357 -10.874  1.00  0.00     0.000 C 
BRANCH   9  10
ATOM     10  C   UNL     1       2.176   8.374 -10.517  1.00  0.00     0.000 C 
BRANCH  10  11
ATOM     11  C   UNL     1       2.203   7.848  -9.067  1.00  0.00     0.000 C 
BRANCH  11  12
ATOM     12  C   UNL     1       0.818   7.682  -8.410  1.00  0.00     0.006 C 
BRANCH  12  13
ATOM     13  C   UNL     1      -0.069   6.610  -9.063  1.00  0.00     0.053 C 
BRANCH  13  14
ATOM     14  C   UNL     1      -1.387   7.166  -9.507  1.00  0.00     0.041 C 
ATOM     15  O   UNL     1      -2.390   6.412  -9.612  1.00  0.00    -0.550 OA
ATOM     16  O   UNL     1      -1.500   8.512  -9.834  1.00  0.00    -0.550 OA
ENDBRANCH  13  14
ENDBRANCH  12  13
ENDBRANCH  11  12
ENDBRANCH  10  11
ENDBRANCH   9  10
ENDBRANCH   8   9
ENDBRANCH   7   8
ENDBRANCH   6   7
ENDBRANCH   5   6
ENDBRANCH   4   5
ENDBRANCH   3   4
ENDBRANCH   2   3
ENDBRANCH   1   2
BRANCH   1  17
ATOM     17  C   UNL     1       8.042  11.637  -5.528  1.00  0.00     0.000 C 
BRANCH  17  18
ATOM     18  C   UNL     1       9.434  12.272  -5.347  1.00  0.00     0.000 C 
BRANCH  18  19
ATOM     19  C   UNL     1      10.566  11.230  -5.294  1.00  0.00     0.000 C 
BRANCH  19  20
ATOM     20  C   UNL     1      10.064   9.786  -5.094  1.00  0.00     0.000 C 
BRANCH  20  21
ATOM     21  C   UNL     1      11.090   8.695  -5.460  1.00  0.00     0.000 C 
BRANCH  21  22
ATOM     22  C   UNL     1      12.378   9.253  -6.080  1.00  0.00    -0.000 C 
BRANCH  22  23
ATOM     23  C   UNL     1      12.569   8.731  -7.512  1.00  0.00    -0.000 C 
BRANCH  23  24
ATOM     24  C   UNL     1      11.983   9.672  -8.580  1.00  0.00    -0.000 C 
BRANCH  24  25
ATOM     25  C   UNL     1      10.814   9.088  -9.395  1.00  0.00    -0.000 C 
BRANCH  25  26
ATOM     26  C   UNL     1       9.440   9.579  -8.905  1.00  0.00    -0.000 C 
BRANCH  26  27
ATOM     27  C   UNL     1       9.334  11.112  -8.860  1.00  0.00    -0.000 C 
BRANCH  27  28
ATOM     28  C   UNL     1       9.058  11.789 -10.217  1.00  0.00    -0.000 C 
BRANCH  28  29
ATOM     29  C   UNL     1       8.226  10.923 -11.187  1.00  0.00    -0.003 C 
ATOM     30  C   UNL     1       6.807  11.460 -11.376  1.00  0.00     0.004 C 
ENDBRANCH  28  29
ENDBRANCH  27  28
ENDBRANCH  26  27
ENDBRANCH  25  26
ENDBRANCH  24  25
ENDBRANCH  23  24
ENDBRANCH  22  23
ENDBRANCH  21  22
ENDBRANCH  20  21
ENDBRANCH  19  20
ENDBRANCH  18  19
ENDBRANCH  17  18
ENDBRANCH   1  17
TORSDOF 26
ENDMDL
MODEL 5
REMARK VINA RESULT:    -3.727      1.311      3.275
REMARK INTER + INTRA:         -12.394
REMARK INTER:                  -8.995
REMARK INTRA:                  -3.399
REMARK UNBOUND:                -3.001
REMARK SMILES CCCCCCCCCCCCCCCCCCCCCCCCCCCC(=O)[O-]
REMARK SMILES IDX 15 1 16 2 17 3 18 4 19 5 20 6 21 7 22 8 23 9 24 10 25 11
REMARK SMILES IDX 26 12 27 13 28 14 29 15 30 16 14 17 13 18 12 19 11 20 10 21
REMARK SMILES IDX 9 22 8 23 7 24 6 25 5 26 4 27 3 28 2 29 1 30
REMARK H PARENT
REMARK Flexibility Score: inf
ROOT
ATOM      1  C   UNL     1       2.245  11.272  -8.824  1.00  0.00     0.000 C 
ENDROOT
BRANCH   1   2
ATOM      2  C   UNL     1       2.306  12.808  -8.778  1.00  0.00     0.000 C 
BRANCH   2   3
ATOM      3  C   UNL     1       3.605  13.376  -9.380  1.00  0.00     0.000 C 
BRANCH   3   4
ATOM      4  C   UNL     1       4.821  13.381  -8.438  1.00  0.00     0.000 C 
BRANCH   4   5
ATOM      5  C   UNL     1       6.160  13.240  -9.183  1.00  0.00     0.000 C 
BRANCH   5   6
ATOM      6  C   UNL     1       5.993  12.629 -10.584  1.00  0.00     0.000 C 
BRANCH   6   7
ATOM      7  C   UNL     1       7.338  12.411 -11.297  1.00  0.00     0.000 C 
BRANCH   7   8
ATOM      8  C   UNL     1       7.995  11.066 -10.930  1.00  0.00     0.000 C 
BRANCH   8   9
ATOM      9  C   UNL     1       9.469  11.159 -10.486  1.00  0.00     0.000 C 
BRANCH   9  10
ATOM     10  C   UNL     1       9.750  10.682  -9.047  1.00  0.00     0.000 C 
BRANCH  10  11
ATOM     11  C   UNL     1       9.358  11.683  -7.940  1.00  0.00     0.000 C 
BRANCH  11  12
ATOM     12  C   UNL     1       9.063  11.049  -6.566  1.00  0.00     0.006 C 
BRANCH  12  13
ATOM     13  C   UNL     1       9.461   9.569  -6.451  1.00  0.00     0.053 C 
BRANCH  13  14
ATOM     14  C   UNL     1      10.450   9.337  -5.349  1.00  0.00     0.041 C 
ATOM     15  O   UNL     1      10.970  10.314  -4.748  1.00  0.00    -0.550 OA
ATOM     16  O   UNL     1      10.818   8.042  -5.007  1.00  0.00    -0.550 OA
ENDBRANCH  13  14
ENDBRANCH  12  13
ENDBRANCH  11  12
ENDBRANCH  10  11
ENDBRANCH   9  10
ENDBRANCH   8   9
ENDBRANCH   7   8
ENDBRANCH   6   7
ENDBRANCH   5   6
ENDBRANCH   4   5
ENDBRANCH   3   4
ENDBRANCH   2   3
ENDBRANCH   1   2
BRANCH   1  17
ATOM     17  C   UNL     1       2.762  10.687 -10.151  1.00  0.00     0.000 C 
BRANCH  17  18
ATOM     18  C   UNL     1       1.668  10.184 -11.113  1.00  0.00     0.000 C 
BRANCH  18  19
ATOM     19  C   UNL     1       1.158  11.280 -12.067  1.00  0.00     0.000 C 
BRANCH  19  20
ATOM     20  C   UNL     1      -0.359  11.535 -11.957  1.00  0.00     0.000 C 
BRANCH  20  21
ATOM     21  C   UNL     1      -1.159  10.376 -11.330  1.00  0.00     0.000 C 
BRANCH  21  22
ATOM     22  C   UNL     1      -2.679  10.572 -11.410  1.00  0.00    -0.000 C 
BRANCH  22  23
ATOM     23  C   UNL     1      -3.416   9.471 -10.634  1.00  0.00    -0.000 C 
BRANCH  23  24
ATOM     24  C   UNL     1      -3.428   8.119 -11.370  1.00  0.00    -0.000 C 
BRANCH  24  25
ATOM     25  C   UNL     1      -2.678   6.980 -10.656  1.00  0.00    -0.000 C 
BRANCH  25  26
ATOM     26  C   UNL     1      -1.298   6.693 -11.275  1.00  0.00    -0.000 C 
BRANCH  26  27
ATOM     27  C   UNL     1      -0.138   6.982 -10.308  1.00  0.00    -0.000 C 
BRANCH  27  28
ATOM     28  C   UNL     1      -0.560   7.399  -8.886  1.00  0.00    -0.000 C 
BRANCH  28  29
ATOM     29  C   UNL     1       0.560   8.093  -8.082  1.00  0.00    -0.003 C 
ATOM     30  C   UNL     1       1.890   7.343  -8.171  1.00  0.00     0.004 C 
ENDBRANCH  28  29
ENDBRANCH  27  28
ENDBRANCH  26  27
ENDBRANCH  25  26
ENDBRANCH  24  25
ENDBRANCH  23  24
ENDBRANCH  22  23
ENDBRANCH  21  22
ENDBRANCH  20  21
ENDBRANCH  19  20
ENDBRANCH  18  19
ENDBRANCH  17  18
ENDBRANCH   1  17
TORSDOF 26
ENDMDL
MODEL 6
REMARK VINA RESULT:    -3.718      4.248     11.350
REMARK INTER + INTRA:         -12.370
REMARK INTER:                 -10.002
REMARK INTRA:                  -2.368
REMARK UNBOUND:                -3.001
REMARK SMILES CCCCCCCCCCCCCCCCCCCCCCCCCCCC(=O)[O-]
REMARK SMILES IDX 15 1 16 2 17 3 18 4 19 5 20 6 21 7 22 8 23 9 24 10 25 11
REMARK SMILES IDX 26 12 27 13 28 14 29 15 30 16 14 17 13 18 12 19 11 20 10 21
REMARK SMILES IDX 9 22 8 23 7 24 6 25 5 26 4 27 3 28 2 29 1 30
REMARK H PARENT
REMARK Flexibility Score: inf
ROOT
ATOM      1  C   UNL     1       2.324  11.591  -9.676  1.00  0.00     0.000 C 
ENDROOT
BRANCH   1   2
ATOM      2  C   UNL     1       2.188  11.483 -11.205  1.00  0.00     0.000 C 
BRANCH   2   3
ATOM      3  C   UNL     1       2.347  10.040 -11.722  1.00  0.00     0.000 C 
BRANCH   3   4
ATOM      4  C   UNL     1       1.152   9.108 -11.450  1.00  0.00     0.000 C 
BRANCH   4   5
ATOM      5  C   UNL     1       1.576   7.730 -10.914  1.00  0.00     0.000 C 
BRANCH   5   6
ATOM      6  C   UNL     1       2.055   7.786  -9.454  1.00  0.00     0.000 C 
BRANCH   6   7
ATOM      7  C   UNL     1       1.041   8.473  -8.525  1.00  0.00     0.000 C 
BRANCH   7   8
ATOM      8  C   UNL     1      -0.210   7.611  -8.268  1.00  0.00     0.000 C 
BRANCH   8   9
ATOM      9  C   UNL     1      -1.478   8.056  -9.025  1.00  0.00     0.000 C 
BRANCH   9  10
ATOM     10  C   UNL     1      -2.202   6.939  -9.802  1.00  0.00     0.000 C 
BRANCH  10  11
ATOM     11  C   UNL     1      -2.493   7.257 -11.283  1.00  0.00     0.000 C 
BRANCH  11  12
ATOM     12  C   UNL     1      -3.944   7.682 -11.583  1.00  0.00     0.006 C 
BRANCH  12  13
ATOM     13  C   UNL     1      -4.118   9.180 -11.880  1.00  0.00     0.053 C 
BRANCH  13  14
ATOM     14  C   UNL     1      -4.735   9.913 -10.729  1.00  0.00     0.041 C 
ATOM     15  O   UNL     1      -4.042  10.207  -9.719  1.00  0.00    -0.550 OA
ATOM     16  O   UNL     1      -6.083  10.247 -10.759  1.00  0.00    -0.550 OA
ENDBRANCH  13  14
ENDBRANCH  12  13
ENDBRANCH  11  12
ENDBRANCH  10  11
ENDBRANCH   9  10
ENDBRANCH   8   9
ENDBRANCH   7   8
ENDBRANCH   6   7
ENDBRANCH   5   6
ENDBRANCH   4   5
ENDBRANCH   3   4
ENDBRANCH   2   3
ENDBRANCH   1   2
BRANCH   1  17
ATOM     17  C   UNL     1       2.187  13.034  -9.159  1.00  0.00     0.000 C 
BRANCH  17  18
ATOM     18  C   UNL     1       3.496  13.848  -9.139  1.00  0.00     0.000 C 
BRANCH  18  19
ATOM     19  C   UNL     1       4.642  13.121  -8.412  1.00  0.00     0.000 C 
BRANCH  19  20
ATOM     20  C   UNL     1       6.044  13.562  -8.878  1.00  0.00     0.000 C 
BRANCH  20  21
ATOM     21  C   UNL     1       7.191  13.153  -7.933  1.00  0.00     0.000 C 
BRANCH  21  22
ATOM     22  C   UNL     1       7.116  13.826  -6.555  1.00  0.00    -0.000 C 
BRANCH  22  23
ATOM     23  C   UNL     1       6.709  12.817  -5.472  1.00  0.00    -0.000 C 
BRANCH  23  24
ATOM     24  C   UNL     1       7.883  12.393  -4.571  1.00  0.00    -0.000 C 
BRANCH  24  25
ATOM     25  C   UNL     1       9.248  12.997  -4.951  1.00  0.00    -0.000 C 
BRANCH  25  26
ATOM     26  C   UNL     1      10.360  11.938  -5.060  1.00  0.00    -0.000 C 
BRANCH  26  27
ATOM     27  C   UNL     1       9.890  10.647  -5.751  1.00  0.00    -0.000 C 
BRANCH  27  28
ATOM     28  C   UNL     1      10.282   9.341  -5.033  1.00  0.00    -0.000 C 
BRANCH  28  29
ATOM     29  C   UNL     1      11.600   8.722  -5.545  1.00  0.00    -0.003 C 
ATOM     30  C   UNL     1      11.620   8.571  -7.066  1.00  0.00     0.004 C 
ENDBRANCH  28  29
ENDBRANCH  27  28
ENDBRANCH  26  27
ENDBRANCH  25  26
ENDBRANCH  24  25
ENDBRANCH  23  24
ENDBRANCH  22  23
ENDBRANCH  21  22
ENDBRANCH  20  21
ENDBRANCH  19  20
ENDBRANCH  18  19
ENDBRANCH  17  18
ENDBRANCH   1  17
TORSDOF 26
ENDMDL
MODEL 7
REMARK VINA RESULT:    -3.702      2.742     10.346
REMARK INTER + INTRA:         -12.330
REMARK INTER:                  -9.215
REMARK INTRA:                  -3.115
REMARK UNBOUND:                -3.001
REMARK SMILES CCCCCCCCCCCCCCCCCCCCCCCCCCCC(=O)[O-]
REMARK SMILES IDX 15 1 16 2 17 3 18 4 19 5 20 6 21 7 22 8 23 9 24 10 25 11
REMARK SMILES IDX 26 12 27 13 28 14 29 15 30 16 14 17 13 18 12 19 11 20 10 21
REMARK SMILES IDX 9 22 8 23 7 24 6 25 5 26 4 27 3 28 2 29 1 30
REMARK H PARENT
REMARK Flexibility Score: inf
ROOT
ATOM      1  C   UNL     1       3.048  12.083  -9.251  1.00  0.00     0.000 C 
ENDROOT
BRANCH   1   2
ATOM      2  C   UNL     1       2.922  11.627 -10.715  1.00  0.00     0.000 C 
BRANCH   2   3
ATOM      3  C   UNL     1       2.561  10.135 -10.849  1.00  0.00     0.000 C 
BRANCH   3   4
ATOM      4  C   UNL     1       1.315   9.832 -11.700  1.00  0.00     0.000 C 
BRANCH   4   5
ATOM      5  C   UNL     1      -0.002  10.159 -10.975  1.00  0.00     0.000 C 
BRANCH   5   6
ATOM      6  C   UNL     1      -0.873  11.157 -11.757  1.00  0.00     0.000 C 
BRANCH   6   7
ATOM      7  C   UNL     1      -2.358  10.757 -11.773  1.00  0.00     0.000 C 
BRANCH   7   8
ATOM      8  C   UNL     1      -2.708   9.724 -10.686  1.00  0.00     0.000 C 
BRANCH   8   9
ATOM      9  C   UNL     1      -3.454   8.472 -11.190  1.00  0.00     0.000 C 
BRANCH   9  10
ATOM     10  C   UNL     1      -2.870   7.127 -10.714  1.00  0.00     0.000 C 
BRANCH  10  11
ATOM     11  C   UNL     1      -1.621   6.648 -11.484  1.00  0.00     0.000 C 
BRANCH  11  12
ATOM     12  C   UNL     1      -0.321   6.616 -10.657  1.00  0.00     0.006 C 
BRANCH  12  13
ATOM     13  C   UNL     1      -0.504   6.965  -9.172  1.00  0.00     0.053 C 
BRANCH  13  14
ATOM     14  C   UNL     1       0.801   7.257  -8.498  1.00  0.00     0.041 C 
ATOM     15  O   UNL     1       1.885   7.108  -9.122  1.00  0.00    -0.550 OA
ATOM     16  O   UNL     1       0.822   7.667  -7.171  1.00  0.00    -0.550 OA
ENDBRANCH  13  14
ENDBRANCH  12  13
ENDBRANCH  11  12
ENDBRANCH  10  11
ENDBRANCH   9  10
ENDBRANCH   8   9
ENDBRANCH   7   8
ENDBRANCH   6   7
ENDBRANCH   5   6
ENDBRANCH   4   5
ENDBRANCH   3   4
ENDBRANCH   2   3
ENDBRANCH   1   2
BRANCH   1  17
ATOM     17  C   UNL     1       3.649  13.494  -9.109  1.00  0.00     0.000 C 
BRANCH  17  18
ATOM     18  C   UNL     1       5.076  13.540  -8.529  1.00  0.00     0.000 C 
BRANCH  18  19
ATOM     19  C   UNL     1       6.162  13.262  -9.586  1.00  0.00     0.000 C 
BRANCH  19  20
ATOM     20  C   UNL     1       7.571  13.079  -8.986  1.00  0.00     0.000 C 
BRANCH  20  21
ATOM     21  C   UNL     1       8.266  11.760  -9.377  1.00  0.00     0.000 C 
BRANCH  21  22
ATOM     22  C   UNL     1       9.770  11.748  -9.064  1.00  0.00    -0.000 C 
BRANCH  22  23
ATOM     23  C   UNL     1      10.412  10.425  -9.508  1.00  0.00    -0.000 C 
BRANCH  23  24
ATOM     24  C   UNL     1      10.335   9.327  -8.431  1.00  0.00    -0.000 C 
BRANCH  24  25
ATOM     25  C   UNL     1      11.284   9.520  -7.233  1.00  0.00    -0.000 C 
BRANCH  25  26
ATOM     26  C   UNL     1      10.544   9.550  -5.884  1.00  0.00    -0.000 C 
BRANCH  26  27
ATOM     27  C   UNL     1      10.756  10.865  -5.115  1.00  0.00    -0.000 C 
BRANCH  27  28
ATOM     28  C   UNL     1       9.690  11.949  -5.368  1.00  0.00    -0.000 C 
BRANCH  28  29
ATOM     29  C   UNL     1       8.242  11.415  -5.352  1.00  0.00    -0.003 C 
ATOM     30  C   UNL     1       7.207  12.535  -5.461  1.00  0.00     0.004 C 
ENDBRANCH  28  29
ENDBRANCH  27  28
ENDBRANCH  26  27
ENDBRANCH  25  26
ENDBRANCH  24  25
ENDBRANCH  23  24
ENDBRANCH  22  23
ENDBRANCH  21  22
ENDBRANCH  20  21
ENDBRANCH  19  20
ENDBRANCH  18  19
ENDBRANCH  17  18
ENDBRANCH   1  17
TORSDOF 26
ENDMDL
MODEL 8
REMARK VINA RESULT:    -3.699      2.752     10.481
REMARK INTER + INTRA:         -12.323
REMARK INTER:                  -9.718
REMARK INTRA:                  -2.606
REMARK UNBOUND:                -3.001
REMARK SMILES CCCCCCCCCCCCCCCCCCCCCCCCCCCC(=O)[O-]
REMARK SMILES IDX 15 1 16 2 17 3 18 4 19 5 20 6 21 7 22 8 23 9 24 10 25 11
REMARK SMILES IDX 26 12 27 13 28 14 29 15 30 16 14 17 13 18 12 19 11 20 10 21
REMARK SMILES IDX 9 22 8 23 7 24 6 25 5 26 4 27 3 28 2 29 1 30
REMARK H PARENT
REMARK Flexibility Score: inf
ROOT
ATOM      1  C   UNL     1       2.651  11.937  -8.880  1.00  0.00     0.000 C 
ENDROOT
BRANCH   1   2
ATOM      2  C   UNL     1       2.567  10.641  -9.704  1.00  0.00     0.000 C 
BRANCH   2   3
ATOM      3  C   UNL     1       1.238  10.502 -10.470  1.00  0.00     0.000 C 
BRANCH   3   4
ATOM      4  C   UNL     1       1.077  11.434 -11.685  1.00  0.00     0.000 C 
BRANCH   4   5
ATOM      5  C   UNL     1      -0.376  11.889 -11.904  1.00  0.00     0.000 C 
BRANCH   5   6
ATOM      6  C   UNL     1      -1.393  10.767 -11.634  1.00  0.00     0.000 C 
BRANCH   6   7
ATOM      7  C   UNL     1      -2.783  11.308 -11.261  1.00  0.00     0.000 C 
BRANCH   7   8
ATOM      8  C   UNL     1      -3.899  10.262 -11.448  1.00  0.00     0.000 C 
BRANCH   8   9
ATOM      9  C   UNL     1      -3.758   8.995 -10.580  1.00  0.00     0.000 C 
BRANCH   9  10
ATOM     10  C   UNL     1      -3.671   7.671 -11.365  1.00  0.00     0.000 C 
BRANCH  10  11
ATOM     11  C   UNL     1      -2.426   6.813 -11.061  1.00  0.00     0.000 C 
BRANCH  11  12
ATOM     12  C   UNL     1      -1.577   7.299  -9.869  1.00  0.00     0.006 C 
BRANCH  12  13
ATOM     13  C   UNL     1      -0.064   7.098 -10.044  1.00  0.00     0.053 C 
BRANCH  13  14
ATOM     14  C   UNL     1       0.680   7.272  -8.755  1.00  0.00     0.041 C 
ATOM     15  O   UNL     1       1.905   6.990  -8.687  1.00  0.00    -0.550 OA
ATOM     16  O   UNL     1       0.011   7.718  -7.622  1.00  0.00    -0.550 OA
ENDBRANCH  13  14
ENDBRANCH  12  13
ENDBRANCH  11  12
ENDBRANCH  10  11
ENDBRANCH   9  10
ENDBRANCH   8   9
ENDBRANCH   7   8
ENDBRANCH   6   7
ENDBRANCH   5   6
ENDBRANCH   4   5
ENDBRANCH   3   4
ENDBRANCH   2   3
ENDBRANCH   1   2
BRANCH   1  17
ATOM     17  C   UNL     1       3.680  12.939  -9.435  1.00  0.00     0.000 C 
BRANCH  17  18
ATOM     18  C   UNL     1       4.733  13.423  -8.420  1.00  0.00     0.000 C 
BRANCH  18  19
ATOM     19  C   UNL     1       6.174  13.072  -8.836  1.00  0.00     0.000 C 
BRANCH  19  20
ATOM     20  C   UNL     1       7.195  13.201  -7.689  1.00  0.00     0.000 C 
BRANCH  20  21
ATOM     21  C   UNL     1       6.588  13.619  -6.335  1.00  0.00     0.000 C 
BRANCH  21  22
ATOM     22  C   UNL     1       6.809  12.585  -5.222  1.00  0.00    -0.000 C 
BRANCH  22  23
ATOM     23  C   UNL     1       8.247  12.047  -5.251  1.00  0.00    -0.000 C 
BRANCH  23  24
ATOM     24  C   UNL     1       8.315  10.509  -5.253  1.00  0.00    -0.000 C 
BRANCH  24  25
ATOM     25  C   UNL     1       9.558   9.910  -5.936  1.00  0.00    -0.000 C 
BRANCH  25  26
ATOM     26  C   UNL     1      10.088  10.787  -7.084  1.00  0.00    -0.000 C 
BRANCH  26  27
ATOM     27  C   UNL     1       9.458  10.438  -8.443  1.00  0.00    -0.000 C 
BRANCH  27  28
ATOM     28  C   UNL     1      10.014   9.167  -9.115  1.00  0.00    -0.000 C 
BRANCH  28  29
ATOM     29  C   UNL     1      11.531   8.968  -8.912  1.00  0.00    -0.003 C 
ATOM     30  C   UNL     1      11.855   7.658  -8.193  1.00  0.00     0.004 C 
ENDBRANCH  28  29
ENDBRANCH  27  28
ENDBRANCH  26  27
ENDBRANCH  25  26
ENDBRANCH  24  25
ENDBRANCH  23  24
ENDBRANCH  22  23
ENDBRANCH  21  22
ENDBRANCH  20  21
ENDBRANCH  19  20
ENDBRANCH  18  19
ENDBRANCH  17  18
ENDBRANCH   1  17
TORSDOF 26
ENDMDL
MODEL 9
REMARK VINA RESULT:    -3.629      4.387     11.205
REMARK INTER + INTRA:         -12.147
REMARK INTER:                  -9.508
REMARK INTRA:                  -2.639
REMARK UNBOUND:                -3.001
REMARK SMILES CCCCCCCCCCCCCCCCCCCCCCCCCCCC(=O)[O-]
REMARK SMILES IDX 15 1 16 2 17 3 18 4 19 5 20 6 21 7 22 8 23 9 24 10 25 11
REMARK SMILES IDX 26 12 27 13 28 14 29 15 30 16 14 17 13 18 12 19 11 20 10 21
REMARK SMILES IDX 9 22 8 23 7 24 6 25 5 26 4 27 3 28 2 29 1 30
REMARK H PARENT
REMARK Flexibility Score: inf
ROOT
ATOM      1  C   UNL     1       3.724  12.703  -8.783  1.00  0.00     0.000 C 
ENDROOT
BRANCH   1   2
ATOM      2  C   UNL     1       2.684  13.256  -9.772  1.00  0.00     0.000 C 
BRANCH   2   3
ATOM      3  C   UNL     1       2.494  12.357 -11.009  1.00  0.00     0.000 C 
BRANCH   3   4
ATOM      4  C   UNL     1       3.224  11.003 -10.957  1.00  0.00     0.000 C 
BRANCH   4   5
ATOM      5  C   UNL     1       2.297   9.809 -11.240  1.00  0.00     0.000 C 
BRANCH   5   6
ATOM      6  C   UNL     1       1.526   9.352  -9.990  1.00  0.00     0.000 C 
BRANCH   6   7
ATOM      7  C   UNL     1       2.227   8.199  -9.253  1.00  0.00     0.000 C 
BRANCH   7   8
ATOM      8  C   UNL     1       1.321   7.525  -8.204  1.00  0.00     0.000 C 
BRANCH   8   9
ATOM      9  C   UNL     1      -0.191   7.748  -8.408  1.00  0.00     0.000 C 
BRANCH   9  10
ATOM     10  C   UNL     1      -0.916   6.636  -9.192  1.00  0.00     0.000 C 
BRANCH  10  11
ATOM     11  C   UNL     1      -1.364   7.027 -10.615  1.00  0.00     0.000 C 
BRANCH  11  12
ATOM     12  C   UNL     1      -2.763   7.670 -10.702  1.00  0.00     0.006 C 
BRANCH  12  13
ATOM     13  C   UNL     1      -2.754   9.206 -10.755  1.00  0.00     0.053 C 
BRANCH  13  14
ATOM     14  C   UNL     1      -4.079   9.762 -11.179  1.00  0.00     0.041 C 
ATOM     15  O   UNL     1      -4.131  10.762 -11.942  1.00  0.00    -0.550 OA
ATOM     16  O   UNL     1      -5.254   9.194 -10.706  1.00  0.00    -0.550 OA
ENDBRANCH  13  14
ENDBRANCH  12  13
ENDBRANCH  11  12
ENDBRANCH  10  11
ENDBRANCH   9  10
ENDBRANCH   8   9
ENDBRANCH   7   8
ENDBRANCH   6   7
ENDBRANCH   5   6
ENDBRANCH   4   5
ENDBRANCH   3   4
ENDBRANCH   2   3
ENDBRANCH   1   2
BRANCH   1  17
ATOM     17  C   UNL     1       5.106  13.369  -8.927  1.00  0.00     0.000 C 
BRANCH  17  18
ATOM     18  C   UNL     1       5.665  13.995  -7.634  1.00  0.00     0.000 C 
BRANCH  18  19
ATOM     19  C   UNL     1       6.722  13.110  -6.948  1.00  0.00     0.000 C 
BRANCH  19  20
ATOM     20  C   UNL     1       6.445  12.870  -5.450  1.00  0.00     0.000 C 
BRANCH  20  21
ATOM     21  C   UNL     1       7.696  12.535  -4.614  1.00  0.00     0.000 C 
BRANCH  21  22
ATOM     22  C   UNL     1       8.790  13.610  -4.697  1.00  0.00    -0.000 C 
BRANCH  22  23
ATOM     23  C   UNL     1      10.142  13.054  -4.226  1.00  0.00    -0.000 C 
BRANCH  23  24
ATOM     24  C   UNL     1      11.225  13.098  -5.319  1.00  0.00    -0.000 C 
BRANCH  24  25
ATOM     25  C   UNL     1      12.210  11.915  -5.311  1.00  0.00    -0.000 C 
BRANCH  25  26
ATOM     26  C   UNL     1      11.635  10.664  -4.622  1.00  0.00    -0.000 C 
BRANCH  26  27
ATOM     27  C   UNL     1      11.103   9.623  -5.621  1.00  0.00    -0.000 C 
BRANCH  27  28
ATOM     28  C   UNL     1       9.594   9.713  -5.919  1.00  0.00    -0.000 C 
BRANCH  28  29
ATOM     29  C   UNL     1       9.260  10.475  -7.219  1.00  0.00    -0.003 C 
ATOM     30  C   UNL     1       9.505   9.629  -8.469  1.00  0.00     0.004 C 
ENDBRANCH  28  29
ENDBRANCH  27  28
ENDBRANCH  26  27
ENDBRANCH  25  26
ENDBRANCH  24  25
ENDBRANCH  23  24
ENDBRANCH  22  23
ENDBRANCH  21  22
ENDBRANCH  20  21
ENDBRANCH  19  20
ENDBRANCH  18  19
ENDBRANCH  17  18
ENDBRANCH   1  17
TORSDOF 26
ENDMDL
