MODEL 1
REMARK VINA RESULT:    -5.833      0.000      0.000
REMARK INTER + INTRA:          -7.425
REMARK INTER:                  -7.027
REMARK INTRA:                  -0.398
REMARK UNBOUND:                -0.398
REMARK SMILES NC(=O)C[C@@H]([NH3+])C(=O)[O-]
REMARK SMILES IDX 4 1 5 2 6 3 7 7 8 8 9 9 2 10 3 11 1 12
REMARK H PARENT 6 4 6 5 6 6 1 13 1 14
REMARK Flexibility Score: inf
ROOT
ATOM      1  C   UNL     1      -1.362   1.945  -2.659  1.00  0.00     0.171 C 
ENDROOT
BRANCH   1   2
ATOM      2  C   UNL     1      -0.182   2.930  -2.533  1.00  0.00     0.237 C 
BRANCH   2   3
ATOM      3  N   UNL     1      -0.361   3.838  -1.392  1.00  0.00    -0.350 N 
ATOM      4  H   UNL     1      -0.504   4.816  -1.736  1.00  0.00     0.345 HD
ATOM      5  H   UNL     1      -1.207   3.564  -0.843  1.00  0.00     0.345 HD
ATOM      6  H   UNL     1       0.477   3.816  -0.765  1.00  0.00     0.345 HD
ENDBRANCH   2   3
BRANCH   2   7
ATOM      7  C   UNL     1       1.105   2.162  -2.386  1.00  0.00     0.100 C 
ATOM      8  O   UNL     1       1.257   1.062  -2.978  1.00  0.00    -0.544 OA
ATOM      9  O   UNL     1       2.127   2.656  -1.583  1.00  0.00    -0.544 OA
ENDBRANCH   2   7
ENDBRANCH   1   2
BRANCH   1  10
ATOM     10  C   UNL     1      -1.753   1.375  -1.326  1.00  0.00     0.223 C 
ATOM     11  O   UNL     1      -2.597   1.977  -0.610  1.00  0.00    -0.275 OA
ATOM     12  N   UNL     1      -1.195   0.141  -0.876  1.00  0.00    -0.369 N 
ATOM     13  H   UNL     1      -0.502  -0.375  -1.462  1.00  0.00     0.159 HD
ATOM     14  H   UNL     1      -1.477  -0.260   0.047  1.00  0.00     0.159 HD
ENDBRANCH   1  10
TORSDOF 4
ENDMDL
MODEL 2
REMARK VINA RESULT:    -5.710      1.810      2.121
REMARK INTER + INTRA:          -7.276
REMARK INTER:                  -7.025
REMARK INTRA:                  -0.251
REMARK UNBOUND:                -0.398
REMARK SMILES NC(=O)C[C@@H]([NH3+])C(=O)[O-]
REMARK SMILES IDX 4 1 5 2 6 3 7 7 8 8 9 9 2 10 3 11 1 12
REMARK H PARENT 6 4 6 5 6 6 1 13 1 14
REMARK Flexibility Score: inf
ROOT
ATOM      1  C   UNL     1       0.740   2.244  -1.820  1.00  0.00     0.171 C 
ENDROOT
BRANCH   1   2
ATOM      2  C   UNL     1       1.090   2.936  -3.153  1.00  0.00     0.237 C 
BRANCH   2   3
ATOM      3  N   UNL     1       0.557   4.303  -3.205  1.00  0.00    -0.350 N 
ATOM      4  H   UNL     1      -0.377   4.338  -2.736  1.00  0.00     0.345 HD
ATOM      5  H   UNL     1       1.196   4.957  -2.698  1.00  0.00     0.345 HD
ATOM      6  H   UNL     1       0.454   4.624  -4.196  1.00  0.00     0.345 HD
ENDBRANCH   2   3
BRANCH   2   7
ATOM      7  C   UNL     1       2.585   2.956  -3.336  1.00  0.00     0.100 C 
ATOM      8  O   UNL     1       3.344   2.642  -2.381  1.00  0.00    -0.544 OA
ATOM      9  O   UNL     1       3.137   3.337  -4.553  1.00  0.00    -0.544 OA
ENDBRANCH   2   7
ENDBRANCH   1   2
BRANCH   1  10
ATOM     10  C   UNL     1      -0.564   1.505  -1.905  1.00  0.00     0.223 C 
ATOM     11  O   UNL     1      -1.457   1.898  -2.702  1.00  0.00    -0.275 OA
ATOM     12  N   UNL     1      -0.788   0.342  -1.109  1.00  0.00    -0.369 N 
ATOM     13  H   UNL     1      -0.054  -0.003  -0.452  1.00  0.00     0.159 HD
ATOM     14  H   UNL     1      -1.691  -0.178  -1.178  1.00  0.00     0.159 HD
ENDBRANCH   1  10
TORSDOF 4
ENDMDL
MODEL 3
REMARK VINA RESULT:    -5.641      1.371      4.001
REMARK INTER + INTRA:          -7.193
REMARK INTER:                  -6.936
REMARK INTRA:                  -0.257
REMARK UNBOUND:                -0.398
REMARK SMILES NC(=O)C[C@@H]([NH3+])C(=O)[O-]
REMARK SMILES IDX 4 1 5 2 6 3 7 7 8 8 9 9 2 10 3 11 1 12
REMARK H PARENT 6 4 6 5 6 6 1 13 1 14
REMARK Flexibility Score: inf
ROOT
ATOM      1  C   UNL     1       0.010   2.850  -1.721  1.00  0.00     0.171 C 
ENDROOT
BRANCH   1   2
ATOM      2  C   UNL     1      -0.984   1.689  -1.922  1.00  0.00     0.237 C 
BRANCH   2   3
ATOM      3  N   UNL     1      -0.336   0.386  -1.721  1.00  0.00    -0.350 N 
ATOM      4  H   UNL     1      -1.027  -0.383  -1.881  1.00  0.00     0.345 HD
ATOM      5  H   UNL     1       0.445   0.264  -2.404  1.00  0.00     0.345 HD
ATOM      6  H   UNL     1       0.043   0.307  -0.748  1.00  0.00     0.345 HD
ENDBRANCH   2   3
BRANCH   2   7
ATOM      7  C   UNL     1      -2.142   1.843  -0.972  1.00  0.00     0.100 C 
ATOM      8  O   UNL     1      -2.470   0.894  -0.213  1.00  0.00    -0.544 OA
ATOM      9  O   UNL     1      -2.868   3.029  -0.939  1.00  0.00    -0.544 OA
ENDBRANCH   2   7
ENDBRANCH   1   2
BRANCH   1  10
ATOM     10  C   UNL     1       0.967   2.967  -2.872  1.00  0.00     0.223 C 
ATOM     11  O   UNL     1       1.763   2.024  -3.123  1.00  0.00    -0.275 OA
ATOM     12  N   UNL     1       0.961   4.128  -3.701  1.00  0.00    -0.369 N 
ATOM     13  H   UNL     1       0.299   4.914  -3.512  1.00  0.00     0.159 HD
ATOM     14  H   UNL     1       1.619   4.203  -4.509  1.00  0.00     0.159 HD
ENDBRANCH   1  10
TORSDOF 4
ENDMDL
MODEL 4
REMARK VINA RESULT:    -5.591      0.992      3.905
REMARK INTER + INTRA:          -7.133
REMARK INTER:                  -6.705
REMARK INTRA:                  -0.427
REMARK UNBOUND:                -0.398
REMARK SMILES NC(=O)C[C@@H]([NH3+])C(=O)[O-]
REMARK SMILES IDX 4 1 5 2 6 3 7 7 8 8 9 9 2 10 3 11 1 12
REMARK H PARENT 6 4 6 5 6 6 1 13 1 14
REMARK Flexibility Score: inf
ROOT
ATOM      1  C   UNL     1      -1.096   1.964  -2.463  1.00  0.00     0.171 C 
ENDROOT
BRANCH   1   2
ATOM      2  C   UNL     1      -1.958   1.055  -1.563  1.00  0.00     0.237 C 
BRANCH   2   3
ATOM      3  N   UNL     1      -1.133   0.082  -0.835  1.00  0.00    -0.350 N 
ATOM      4  H   UNL     1      -0.867  -0.703  -1.472  1.00  0.00     0.345 HD
ATOM      5  H   UNL     1      -0.254   0.537  -0.500  1.00  0.00     0.345 HD
ATOM      6  H   UNL     1      -1.655  -0.305  -0.014  1.00  0.00     0.345 HD
ENDBRANCH   2   3
BRANCH   2   7
ATOM      7  C   UNL     1      -2.740   1.900  -0.592  1.00  0.00     0.100 C 
ATOM      8  O   UNL     1      -2.989   3.106  -0.858  1.00  0.00    -0.544 OA
ATOM      9  O   UNL     1      -3.178   1.360   0.612  1.00  0.00    -0.544 OA
ENDBRANCH   2   7
ENDBRANCH   1   2
BRANCH   1  10
ATOM     10  C   UNL     1       0.198   2.335  -1.798  1.00  0.00     0.223 C 
ATOM     11  O   UNL     1       1.217   1.614  -1.965  1.00  0.00    -0.275 OA
ATOM     12  N   UNL     1       0.288   3.516  -1.001  1.00  0.00    -0.369 N 
ATOM     13  H   UNL     1      -0.545   4.129  -0.862  1.00  0.00     0.159 HD
ATOM     14  H   UNL     1       1.192   3.779  -0.549  1.00  0.00     0.159 HD
ENDBRANCH   1  10
TORSDOF 4
ENDMDL
MODEL 5
REMARK VINA RESULT:    -5.509      1.730      1.957
REMARK INTER + INTRA:          -7.034
REMARK INTER:                  -6.748
REMARK INTRA:                  -0.286
REMARK UNBOUND:                -0.398
REMARK SMILES NC(=O)C[C@@H]([NH3+])C(=O)[O-]
REMARK SMILES IDX 4 1 5 2 6 3 7 7 8 8 9 9 2 10 3 11 1 12
REMARK H PARENT 6 4 6 5 6 6 1 13 1 14
REMARK Flexibility Score: inf
ROOT
ATOM      1  C   UNL     1      -1.484   0.729  -0.793  1.00  0.00     0.171 C 
ENDROOT
BRANCH   1   2
ATOM      2  C   UNL     1      -1.452   1.939  -1.749  1.00  0.00     0.237 C 
BRANCH   2   3
ATOM      3  N   UNL     1      -2.066   3.124  -1.136  1.00  0.00    -0.350 N 
ATOM      4  H   UNL     1      -1.905   3.961  -1.742  1.00  0.00     0.345 HD
ATOM      5  H   UNL     1      -3.098   2.987  -1.044  1.00  0.00     0.345 HD
ATOM      6  H   UNL     1      -1.658   3.305  -0.188  1.00  0.00     0.345 HD
ENDBRANCH   2   3
BRANCH   2   7
ATOM      7  C   UNL     1      -0.028   2.238  -2.139  1.00  0.00     0.100 C 
ATOM      8  O   UNL     1       0.217   3.062  -3.059  1.00  0.00    -0.544 OA
ATOM      9  O   UNL     1       1.024   1.592  -1.499  1.00  0.00    -0.544 OA
ENDBRANCH   2   7
ENDBRANCH   1   2
BRANCH   1  10
ATOM     10  C   UNL     1      -2.829   0.571  -0.145  1.00  0.00     0.223 C 
ATOM     11  O   UNL     1      -3.045   1.085   0.985  1.00  0.00    -0.275 OA
ATOM     12  N   UNL     1      -3.874  -0.135  -0.812  1.00  0.00    -0.369 N 
ATOM     13  H   UNL     1      -3.713  -0.559  -1.753  1.00  0.00     0.159 HD
ATOM     14  H   UNL     1      -4.812  -0.235  -0.365  1.00  0.00     0.159 HD
ENDBRANCH   1  10
TORSDOF 4
ENDMDL
MODEL 6
REMARK VINA RESULT:    -5.508      1.834      2.029
REMARK INTER + INTRA:          -7.033
REMARK INTER:                  -6.873
REMARK INTRA:                  -0.160
REMARK UNBOUND:                -0.398
REMARK SMILES NC(=O)C[C@@H]([NH3+])C(=O)[O-]
REMARK SMILES IDX 4 1 5 2 6 3 7 7 8 8 9 9 2 10 3 11 1 12
REMARK H PARENT 6 4 6 5 6 6 1 13 1 14
REMARK Flexibility Score: inf
ROOT
ATOM      1  C   UNL     1      -0.890   1.356  -0.932  1.00  0.00     0.171 C 
ENDROOT
BRANCH   1   2
ATOM      2  C   UNL     1      -0.440   1.450  -2.404  1.00  0.00     0.237 C 
BRANCH   2   3
ATOM      3  N   UNL     1      -1.528   1.923  -3.270  1.00  0.00    -0.350 N 
ATOM      4  H   UNL     1      -2.235   1.163  -3.399  1.00  0.00     0.345 HD
ATOM      5  H   UNL     1      -2.010   2.738  -2.828  1.00  0.00     0.345 HD
ATOM      6  H   UNL     1      -1.159   2.209  -4.207  1.00  0.00     0.345 HD
ENDBRANCH   2   3
BRANCH   2   7
ATOM      7  C   UNL     1       0.746   2.373  -2.513  1.00  0.00     0.100 C 
ATOM      8  O   UNL     1       1.729   2.235  -1.738  1.00  0.00    -0.544 OA
ATOM      9  O   UNL     1       0.755   3.393  -3.457  1.00  0.00    -0.544 OA
ENDBRANCH   2   7
ENDBRANCH   1   2
BRANCH   1  10
ATOM     10  C   UNL     1      -2.385   1.400  -0.806  1.00  0.00     0.223 C 
ATOM     11  O   UNL     1      -3.059   0.347  -0.963  1.00  0.00    -0.275 OA
ATOM     12  N   UNL     1      -3.047   2.622  -0.482  1.00  0.00    -0.369 N 
ATOM     13  H   UNL     1      -2.502   3.501  -0.338  1.00  0.00     0.159 HD
ATOM     14  H   UNL     1      -4.086   2.649  -0.383  1.00  0.00     0.159 HD
ENDBRANCH   1  10
TORSDOF 4
ENDMDL
MODEL 7
REMARK VINA RESULT:    -5.418      2.420      4.221
REMARK INTER + INTRA:          -6.925
REMARK INTER:                  -6.665
REMARK INTRA:                  -0.261
REMARK UNBOUND:                -0.398
REMARK SMILES NC(=O)C[C@@H]([NH3+])C(=O)[O-]
REMARK SMILES IDX 4 1 5 2 6 3 7 7 8 8 9 9 2 10 3 11 1 12
REMARK H PARENT 6 4 6 5 6 6 1 13 1 14
REMARK Flexibility Score: inf
ROOT
ATOM      1  C   UNL     1      -1.348   0.972  -1.089  1.00  0.00     0.171 C 
ENDROOT
BRANCH   1   2
ATOM      2  C   UNL     1      -2.406   1.380  -0.044  1.00  0.00     0.237 C 
BRANCH   2   3
ATOM      3  N   UNL     1      -3.135   2.586  -0.460  1.00  0.00    -0.350 N 
ATOM      4  H   UNL     1      -3.828   2.342  -1.204  1.00  0.00     0.345 HD
ATOM      5  H   UNL     1      -3.662   2.984   0.350  1.00  0.00     0.345 HD
ATOM      6  H   UNL     1      -2.475   3.309  -0.830  1.00  0.00     0.345 HD
ENDBRANCH   2   3
BRANCH   2   7
ATOM      7  C   UNL     1      -3.368   0.242   0.173  1.00  0.00     0.100 C 
ATOM      8  O   UNL     1      -3.994  -0.252  -0.801  1.00  0.00    -0.544 OA
ATOM      9  O   UNL     1      -3.585  -0.258   1.452  1.00  0.00    -0.544 OA
ENDBRANCH   2   7
ENDBRANCH   1   2
BRANCH   1  10
ATOM     10  C   UNL     1      -1.158   2.037  -2.130  1.00  0.00     0.223 C 
ATOM     11  O   UNL     1      -0.453   3.049  -1.870  1.00  0.00    -0.275 OA
ATOM     12  N   UNL     1      -1.747   1.898  -3.422  1.00  0.00    -0.369 N 
ATOM     13  H   UNL     1      -2.325   1.061  -3.656  1.00  0.00     0.159 HD
ATOM     14  H   UNL     1      -1.604   2.634  -4.149  1.00  0.00     0.159 HD
ENDBRANCH   1  10
TORSDOF 4
ENDMDL
MODEL 8
REMARK VINA RESULT:    -5.405      2.485      3.359
REMARK INTER + INTRA:          -6.909
REMARK INTER:                  -6.579
REMARK INTRA:                  -0.330
REMARK UNBOUND:                -0.398
REMARK SMILES NC(=O)C[C@@H]([NH3+])C(=O)[O-]
REMARK SMILES IDX 4 1 5 2 6 3 7 7 8 8 9 9 2 10 3 11 1 12
REMARK H PARENT 6 4 6 5 6 6 1 13 1 14
REMARK Flexibility Score: inf
ROOT
ATOM      1  C   UNL     1       1.293   3.066  -3.399  1.00  0.00     0.171 C 
ENDROOT
BRANCH   1   2
ATOM      2  C   UNL     1       2.764   3.487  -3.209  1.00  0.00     0.237 C 
BRANCH   2   3
ATOM      3  N   UNL     1       3.156   3.445  -1.794  1.00  0.00    -0.350 N 
ATOM      4  H   UNL     1       3.316   2.455  -1.499  1.00  0.00     0.345 HD
ATOM      5  H   UNL     1       4.049   3.970  -1.653  1.00  0.00     0.345 HD
ATOM      6  H   UNL     1       2.412   3.866  -1.190  1.00  0.00     0.345 HD
ENDBRANCH   2   3
BRANCH   2   7
ATOM      7  C   UNL     1       3.657   2.585  -4.020  1.00  0.00     0.100 C 
ATOM      8  O   UNL     1       4.293   3.044  -5.006  1.00  0.00    -0.544 OA
ATOM      9  O   UNL     1       3.772   1.238  -3.697  1.00  0.00    -0.544 OA
ENDBRANCH   2   7
ENDBRANCH   1   2
BRANCH   1  10
ATOM     10  C   UNL     1       0.646   2.708  -2.092  1.00  0.00     0.223 C 
ATOM     11  O   UNL     1       0.972   1.645  -1.501  1.00  0.00    -0.275 OA
ATOM     12  N   UNL     1      -0.317   3.580  -1.500  1.00  0.00    -0.369 N 
ATOM     13  H   UNL     1      -0.591   4.470  -1.973  1.00  0.00     0.159 HD
ATOM     14  H   UNL     1      -0.758   3.336  -0.585  1.00  0.00     0.159 HD
ENDBRANCH   1  10
TORSDOF 4
ENDMDL
MODEL 9
REMARK VINA RESULT:    -4.942      2.252      3.980
REMARK INTER + INTRA:          -6.351
REMARK INTER:                  -6.226
REMARK INTRA:                  -0.125
REMARK UNBOUND:                -0.398
REMARK SMILES NC(=O)C[C@@H]([NH3+])C(=O)[O-]
REMARK SMILES IDX 4 1 5 2 6 3 7 7 8 8 9 9 2 10 3 11 1 12
REMARK H PARENT 6 4 6 5 6 6 1 13 1 14
REMARK Flexibility Score: inf
ROOT
ATOM      1  C   UNL     1       1.078   3.728  -3.500  1.00  0.00     0.171 C 
ENDROOT
BRANCH   1   2
ATOM      2  C   UNL     1       0.474   3.177  -2.192  1.00  0.00     0.237 C 
BRANCH   2   3
ATOM      3  N   UNL     1      -0.487   4.121  -1.606  1.00  0.00    -0.350 N 
ATOM      4  H   UNL     1      -0.084   4.545  -0.739  1.00  0.00     0.345 HD
ATOM      5  H   UNL     1      -0.686   4.895  -2.279  1.00  0.00     0.345 HD
ATOM      6  H   UNL     1      -1.383   3.636  -1.366  1.00  0.00     0.345 HD
ENDBRANCH   2   3
BRANCH   2   7
ATOM      7  C   UNL     1      -0.196   1.856  -2.462  1.00  0.00     0.100 C 
ATOM      8  O   UNL     1       0.359   0.781  -2.112  1.00  0.00    -0.544 OA
ATOM      9  O   UNL     1      -1.423   1.813  -3.113  1.00  0.00    -0.544 OA
ENDBRANCH   2   7
ENDBRANCH   1   2
BRANCH   1  10
ATOM     10  C   UNL     1       2.558   3.481  -3.574  1.00  0.00     0.223 C 
ATOM     11  O   UNL     1       3.116   3.351  -4.696  1.00  0.00    -0.275 OA
ATOM     12  N   UNL     1       3.341   3.422  -2.383  1.00  0.00    -0.369 N 
ATOM     13  H   UNL     1       2.894   3.538  -1.446  1.00  0.00     0.159 HD
ATOM     14  H   UNL     1       4.371   3.262  -2.437  1.00  0.00     0.159 HD
ENDBRANCH   1  10
TORSDOF 4
ENDMDL
