MODEL 1
REMARK VINA RESULT:    -6.013      0.000      0.000
REMARK INTER + INTRA:         -18.899
REMARK INTER:                 -15.854
REMARK INTRA:                  -3.045
REMARK UNBOUND:                -3.045
REMARK SMILES CCCCCCCCCCCCCCCCCCCCCCCCCCCCCC(=O)[O-]
REMARK SMILES IDX 16 1 17 2 18 3 19 4 20 5 21 6 22 7 23 8 24 9 25 10 26 11
REMARK SMILES IDX 27 12 28 13 29 14 30 15 31 16 32 17 15 18 14 19 13 20 12 21
REMARK SMILES IDX 11 22 10 23 9 24 8 25 7 26 6 27 5 28 4 29 3 30 2 31 1 32
REMARK H PARENT
REMARK Flexibility Score: inf
ROOT
ATOM      1  C   UNL     1      90.226 324.036 198.960  1.00  0.00     0.000 C 
ENDROOT
BRANCH   1   2
ATOM      2  C   UNL     1      88.872 324.241 198.252  1.00  0.00     0.000 C 
BRANCH   2   3
ATOM      3  C   UNL     1      88.958 324.815 196.825  1.00  0.00     0.000 C 
BRANCH   3   4
ATOM      4  C   UNL     1      88.559 326.299 196.752  1.00  0.00     0.000 C 
BRANCH   4   5
ATOM      5  C   UNL     1      87.053 326.499 196.507  1.00  0.00     0.000 C 
BRANCH   5   6
ATOM      6  C   UNL     1      86.643 326.652 195.029  1.00  0.00     0.000 C 
BRANCH   6   7
ATOM      7  C   UNL     1      87.813 326.774 194.032  1.00  0.00     0.000 C 
BRANCH   7   8
ATOM      8  C   UNL     1      88.132 325.489 193.248  1.00  0.00     0.000 C 
BRANCH   8   9
ATOM      9  C   UNL     1      86.936 324.528 193.167  1.00  0.00     0.000 C 
BRANCH   9  10
ATOM     10  C   UNL     1      86.945 323.754 191.842  1.00  0.00     0.000 C 
BRANCH  10  11
ATOM     11  C   UNL     1      88.139 324.119 190.941  1.00  0.00     0.000 C 
BRANCH  11  12
ATOM     12  C   UNL     1      88.463 323.092 189.838  1.00  0.00     0.000 C 
BRANCH  12  13
ATOM     13  C   UNL     1      89.641 323.463 188.917  1.00  0.00     0.006 C 
BRANCH  13  14
ATOM     14  C   UNL     1      90.451 322.252 188.420  1.00  0.00     0.053 C 
BRANCH  14  15
ATOM     15  C   UNL     1      91.899 322.338 188.796  1.00  0.00     0.041 C 
ATOM     16  O   UNL     1      92.435 321.421 189.472  1.00  0.00    -0.550 OA
ATOM     17  O   UNL     1      92.649 323.449 188.431  1.00  0.00    -0.550 OA
ENDBRANCH  14  15
ENDBRANCH  13  14
ENDBRANCH  12  13
ENDBRANCH  11  12
ENDBRANCH  10  11
ENDBRANCH   9  10
ENDBRANCH   8   9
ENDBRANCH   7   8
ENDBRANCH   6   7
ENDBRANCH   5   6
ENDBRANCH   4   5
ENDBRANCH   3   4
ENDBRANCH   2   3
ENDBRANCH   1   2
BRANCH   1  18
ATOM     18  C   UNL     1      90.497 324.987 200.141  1.00  0.00     0.000 C 
BRANCH  18  19
ATOM     19  C   UNL     1      89.480 326.135 200.300  1.00  0.00     0.000 C 
BRANCH  19  20
ATOM     20  C   UNL     1      88.493 325.971 201.470  1.00  0.00     0.000 C 
BRANCH  20  21
ATOM     21  C   UNL     1      88.740 324.693 202.285  1.00  0.00     0.000 C 
BRANCH  21  22
ATOM     22  C   UNL     1      87.431 323.914 202.494  1.00  0.00     0.000 C 
BRANCH  22  23
ATOM     23  C   UNL     1      87.374 323.204 203.855  1.00  0.00     0.000 C 
BRANCH  23  24
ATOM     24  C   UNL     1      86.322 323.810 204.796  1.00  0.00    -0.000 C 
BRANCH  24  25
ATOM     25  C   UNL     1      86.992 324.565 205.955  1.00  0.00    -0.000 C 
BRANCH  25  26
ATOM     26  C   UNL     1      88.518 324.384 205.974  1.00  0.00    -0.000 C 
BRANCH  26  27
ATOM     27  C   UNL     1      89.221 325.399 206.892  1.00  0.00    -0.000 C 
BRANCH  27  28
ATOM     28  C   UNL     1      89.013 326.852 206.437  1.00  0.00    -0.000 C 
BRANCH  28  29
ATOM     29  C   UNL     1      89.239 327.037 204.929  1.00  0.00    -0.000 C 
BRANCH  29  30
ATOM     30  C   UNL     1      90.650 327.573 204.648  1.00  0.00    -0.000 C 
BRANCH  30  31
ATOM     31  C   UNL     1      91.463 326.644 203.733  1.00  0.00    -0.003 C 
ATOM     32  C   UNL     1      92.753 326.150 204.386  1.00  0.00     0.004 C 
ENDBRANCH  30  31
ENDBRANCH  29  30
ENDBRANCH  28  29
ENDBRANCH  27  28
ENDBRANCH  26  27
ENDBRANCH  25  26
ENDBRANCH  24  25
ENDBRANCH  23  24
ENDBRANCH  22  23
ENDBRANCH  21  22
ENDBRANCH  20  21
ENDBRANCH  19  20
ENDBRANCH  18  19
ENDBRANCH   1  18
TORSDOF 28
ENDMDL
MODEL 2
REMARK VINA RESULT:    -5.978      2.103      3.883
REMARK INTER + INTRA:         -18.808
REMARK INTER:                 -16.023
REMARK INTRA:                  -2.786
REMARK UNBOUND:                -3.045
REMARK SMILES CCCCCCCCCCCCCCCCCCCCCCCCCCCCCC(=O)[O-]
REMARK SMILES IDX 16 1 17 2 18 3 19 4 20 5 21 6 22 7 23 8 24 9 25 10 26 11
REMARK SMILES IDX 27 12 28 13 29 14 30 15 31 16 32 17 15 18 14 19 13 20 12 21
REMARK SMILES IDX 11 22 10 23 9 24 8 25 7 26 6 27 5 28 4 29 3 30 2 31 1 32
REMARK H PARENT
REMARK Flexibility Score: inf
ROOT
ATOM      1  C   UNL     1      89.623 326.465 200.466  1.00  0.00     0.000 C 
ENDROOT
BRANCH   1   2
ATOM      2  C   UNL     1      89.113 325.828 199.157  1.00  0.00     0.000 C 
BRANCH   2   3
ATOM      3  C   UNL     1      88.821 326.821 198.016  1.00  0.00     0.000 C 
BRANCH   3   4
ATOM      4  C   UNL     1      88.359 326.126 196.724  1.00  0.00     0.000 C 
BRANCH   4   5
ATOM      5  C   UNL     1      86.901 326.457 196.358  1.00  0.00     0.000 C 
BRANCH   5   6
ATOM      6  C   UNL     1      86.591 326.471 194.848  1.00  0.00     0.000 C 
BRANCH   6   7
ATOM      7  C   UNL     1      87.824 326.463 193.923  1.00  0.00     0.000 C 
BRANCH   7   8
ATOM      8  C   UNL     1      88.089 325.125 193.210  1.00  0.00     0.000 C 
BRANCH   8   9
ATOM      9  C   UNL     1      86.815 324.289 193.018  1.00  0.00     0.000 C 
BRANCH   9  10
ATOM     10  C   UNL     1      86.789 323.643 191.626  1.00  0.00     0.000 C 
BRANCH  10  11
ATOM     11  C   UNL     1      88.114 323.813 190.860  1.00  0.00     0.000 C 
BRANCH  11  12
ATOM     12  C   UNL     1      88.129 323.215 189.440  1.00  0.00     0.000 C 
BRANCH  12  13
ATOM     13  C   UNL     1      88.952 321.922 189.278  1.00  0.00     0.006 C 
BRANCH  13  14
ATOM     14  C   UNL     1      88.156 320.745 188.685  1.00  0.00     0.053 C 
BRANCH  14  15
ATOM     15  C   UNL     1      86.675 320.970 188.739  1.00  0.00     0.041 C 
ATOM     16  O   UNL     1      86.012 320.588 189.739  1.00  0.00    -0.550 OA
ATOM     17  O   UNL     1      86.022 321.570 187.670  1.00  0.00    -0.550 OA
ENDBRANCH  14  15
ENDBRANCH  13  14
ENDBRANCH  12  13
ENDBRANCH  11  12
ENDBRANCH  10  11
ENDBRANCH   9  10
ENDBRANCH   8   9
ENDBRANCH   7   8
ENDBRANCH   6   7
ENDBRANCH   5   6
ENDBRANCH   4   5
ENDBRANCH   3   4
ENDBRANCH   2   3
ENDBRANCH   1   2
BRANCH   1  18
ATOM     18  C   UNL     1      88.771 326.163 201.714  1.00  0.00     0.000 C 
BRANCH  18  19
ATOM     19  C   UNL     1      89.568 325.986 203.022  1.00  0.00     0.000 C 
BRANCH  19  20
ATOM     20  C   UNL     1      90.069 327.295 203.659  1.00  0.00     0.000 C 
BRANCH  20  21
ATOM     21  C   UNL     1      89.433 327.575 205.028  1.00  0.00     0.000 C 
BRANCH  21  22
ATOM     22  C   UNL     1      90.223 326.885 206.151  1.00  0.00     0.000 C 
BRANCH  22  23
ATOM     23  C   UNL     1      89.411 325.793 206.864  1.00  0.00     0.000 C 
BRANCH  23  24
ATOM     24  C   UNL     1      87.896 326.030 206.780  1.00  0.00    -0.000 C 
BRANCH  24  25
ATOM     25  C   UNL     1      87.195 324.857 206.077  1.00  0.00    -0.000 C 
BRANCH  25  26
ATOM     26  C   UNL     1      88.188 323.819 205.528  1.00  0.00    -0.000 C 
BRANCH  26  27
ATOM     27  C   UNL     1      87.626 323.045 204.323  1.00  0.00    -0.000 C 
BRANCH  27  28
ATOM     28  C   UNL     1      86.298 323.628 203.813  1.00  0.00    -0.000 C 
BRANCH  28  29
ATOM     29  C   UNL     1      86.189 323.601 202.281  1.00  0.00    -0.000 C 
BRANCH  29  30
ATOM     30  C   UNL     1      85.887 322.182 201.778  1.00  0.00    -0.000 C 
BRANCH  30  31
ATOM     31  C   UNL     1      86.871 321.717 200.695  1.00  0.00    -0.003 C 
ATOM     32  C   UNL     1      87.947 322.757 200.386  1.00  0.00     0.004 C 
ENDBRANCH  30  31
ENDBRANCH  29  30
ENDBRANCH  28  29
ENDBRANCH  27  28
ENDBRANCH  26  27
ENDBRANCH  25  26
ENDBRANCH  24  25
ENDBRANCH  23  24
ENDBRANCH  22  23
ENDBRANCH  21  22
ENDBRANCH  20  21
ENDBRANCH  19  20
ENDBRANCH  18  19
ENDBRANCH   1  18
TORSDOF 28
ENDMDL
MODEL 3
REMARK VINA RESULT:    -5.977      1.904      5.127
REMARK INTER + INTRA:         -18.805
REMARK INTER:                 -15.168
REMARK INTRA:                  -3.637
REMARK UNBOUND:                -3.045
REMARK SMILES CCCCCCCCCCCCCCCCCCCCCCCCCCCCCC(=O)[O-]
REMARK SMILES IDX 16 1 17 2 18 3 19 4 20 5 21 6 22 7 23 8 24 9 25 10 26 11
REMARK SMILES IDX 27 12 28 13 29 14 30 15 31 16 32 17 15 18 14 19 13 20 12 21
REMARK SMILES IDX 11 22 10 23 9 24 8 25 7 26 6 27 5 28 4 29 3 30 2 31 1 32
REMARK H PARENT
REMARK Flexibility Score: inf
ROOT
ATOM      1  C   UNL     1      86.994 322.974 203.924  1.00  0.00     0.000 C 
ENDROOT
BRANCH   1   2
ATOM      2  C   UNL     1      86.681 323.505 202.511  1.00  0.00     0.000 C 
BRANCH   2   3
ATOM      3  C   UNL     1      86.112 322.463 201.530  1.00  0.00     0.000 C 
BRANCH   3   4
ATOM      4  C   UNL     1      87.114 322.065 200.432  1.00  0.00     0.000 C 
BRANCH   4   5
ATOM      5  C   UNL     1      88.116 323.187 200.106  1.00  0.00     0.000 C 
BRANCH   5   6
ATOM      6  C   UNL     1      88.545 323.273 198.627  1.00  0.00     0.000 C 
BRANCH   6   7
ATOM      7  C   UNL     1      88.921 324.684 198.133  1.00  0.00     0.000 C 
BRANCH   7   8
ATOM      8  C   UNL     1      88.114 325.180 196.920  1.00  0.00     0.000 C 
BRANCH   8   9
ATOM      9  C   UNL     1      88.872 326.224 196.086  1.00  0.00     0.000 C 
BRANCH   9  10
ATOM     10  C   UNL     1      88.036 326.672 194.880  1.00  0.00     0.000 C 
BRANCH  10  11
ATOM     11  C   UNL     1      86.689 325.932 194.774  1.00  0.00     0.000 C 
BRANCH  11  12
ATOM     12  C   UNL     1      86.507 325.086 193.499  1.00  0.00     0.000 C 
BRANCH  12  13
ATOM     13  C   UNL     1      87.741 324.274 193.063  1.00  0.00     0.006 C 
BRANCH  13  14
ATOM     14  C   UNL     1      88.097 324.428 191.573  1.00  0.00     0.053 C 
BRANCH  14  15
ATOM     15  C   UNL     1      87.642 323.260 190.752  1.00  0.00     0.041 C 
ATOM     16  O   UNL     1      88.463 322.629 190.036  1.00  0.00    -0.550 OA
ATOM     17  O   UNL     1      86.302 322.889 190.750  1.00  0.00    -0.550 OA
ENDBRANCH  14  15
ENDBRANCH  13  14
ENDBRANCH  12  13
ENDBRANCH  11  12
ENDBRANCH  10  11
ENDBRANCH   9  10
ENDBRANCH   8   9
ENDBRANCH   7   8
ENDBRANCH   6   7
ENDBRANCH   5   6
ENDBRANCH   4   5
ENDBRANCH   3   4
ENDBRANCH   2   3
ENDBRANCH   1   2
BRANCH   1  18
ATOM     18  C   UNL     1      86.265 323.702 205.071  1.00  0.00     0.000 C 
BRANCH  18  19
ATOM     19  C   UNL     1      87.140 324.676 205.886  1.00  0.00     0.000 C 
BRANCH  19  20
ATOM     20  C   UNL     1      88.526 324.131 206.276  1.00  0.00     0.000 C 
BRANCH  20  21
ATOM     21  C   UNL     1      89.343 325.123 207.117  1.00  0.00     0.000 C 
BRANCH  21  22
ATOM     22  C   UNL     1      89.205 326.551 206.568  1.00  0.00     0.000 C 
BRANCH  22  23
ATOM     23  C   UNL     1      90.550 327.153 206.133  1.00  0.00     0.000 C 
BRANCH  23  24
ATOM     24  C   UNL     1      90.575 327.539 204.647  1.00  0.00    -0.000 C 
BRANCH  24  25
ATOM     25  C   UNL     1      89.205 327.298 203.995  1.00  0.00    -0.000 C 
BRANCH  25  26
ATOM     26  C   UNL     1      89.191 326.056 203.089  1.00  0.00    -0.000 C 
BRANCH  26  27
ATOM     27  C   UNL     1      89.049 326.413 201.599  1.00  0.00    -0.000 C 
BRANCH  27  28
ATOM     28  C   UNL     1      90.407 326.626 200.911  1.00  0.00    -0.000 C 
BRANCH  28  29
ATOM     29  C   UNL     1      91.501 325.697 201.460  1.00  0.00    -0.000 C 
BRANCH  29  30
ATOM     30  C   UNL     1      91.573 324.396 200.649  1.00  0.00    -0.000 C 
BRANCH  30  31
ATOM     31  C   UNL     1      92.939 324.195 199.976  1.00  0.00    -0.003 C 
ATOM     32  C   UNL     1      92.899 323.162 198.850  1.00  0.00     0.004 C 
ENDBRANCH  30  31
ENDBRANCH  29  30
ENDBRANCH  28  29
ENDBRANCH  27  28
ENDBRANCH  26  27
ENDBRANCH  25  26
ENDBRANCH  24  25
ENDBRANCH  23  24
ENDBRANCH  22  23
ENDBRANCH  21  22
ENDBRANCH  20  21
ENDBRANCH  19  20
ENDBRANCH  18  19
ENDBRANCH   1  18
TORSDOF 28
ENDMDL
MODEL 4
REMARK VINA RESULT:    -5.964      5.207     12.573
REMARK INTER + INTRA:         -18.770
REMARK INTER:                 -16.672
REMARK INTRA:                  -2.098
REMARK UNBOUND:                -3.045
REMARK SMILES CCCCCCCCCCCCCCCCCCCCCCCCCCCCCC(=O)[O-]
REMARK SMILES IDX 16 1 17 2 18 3 19 4 20 5 21 6 22 7 23 8 24 9 25 10 26 11
REMARK SMILES IDX 27 12 28 13 29 14 30 15 31 16 32 17 15 18 14 19 13 20 12 21
REMARK SMILES IDX 11 22 10 23 9 24 8 25 7 26 6 27 5 28 4 29 3 30 2 31 1 32
REMARK H PARENT
REMARK Flexibility Score: inf
ROOT
ATOM      1  C   UNL     1      87.042 322.980 193.132  1.00  0.00     0.000 C 
ENDROOT
BRANCH   1   2
ATOM      2  C   UNL     1      88.115 323.977 193.611  1.00  0.00     0.000 C 
BRANCH   2   3
ATOM      3  C   UNL     1      88.101 325.346 192.906  1.00  0.00     0.000 C 
BRANCH   3   4
ATOM      4  C   UNL     1      87.879 326.518 193.878  1.00  0.00     0.000 C 
BRANCH   4   5
ATOM      5  C   UNL     1      86.633 326.331 194.761  1.00  0.00     0.000 C 
BRANCH   5   6
ATOM      6  C   UNL     1      86.876 326.471 196.277  1.00  0.00     0.000 C 
BRANCH   6   7
ATOM      7  C   UNL     1      88.356 326.457 196.709  1.00  0.00     0.000 C 
BRANCH   7   8
ATOM      8  C   UNL     1      88.857 325.108 197.255  1.00  0.00     0.000 C 
BRANCH   8   9
ATOM      9  C   UNL     1      88.992 325.097 198.785  1.00  0.00     0.000 C 
BRANCH   9  10
ATOM     10  C   UNL     1      89.208 326.518 199.325  1.00  0.00     0.000 C 
BRANCH  10  11
ATOM     11  C   UNL     1      90.046 326.548 200.616  1.00  0.00     0.000 C 
BRANCH  11  12
ATOM     12  C   UNL     1      89.246 326.361 201.920  1.00  0.00     0.000 C 
BRANCH  12  13
ATOM     13  C   UNL     1      90.004 326.708 203.216  1.00  0.00     0.006 C 
BRANCH  13  14
ATOM     14  C   UNL     1      89.136 327.397 204.283  1.00  0.00     0.053 C 
BRANCH  14  15
ATOM     15  C   UNL     1      89.673 327.209 205.669  1.00  0.00     0.041 C 
ATOM     16  O   UNL     1      88.937 326.743 206.577  1.00  0.00    -0.550 OA
ATOM     17  O   UNL     1      90.978 327.581 205.966  1.00  0.00    -0.550 OA
ENDBRANCH  14  15
ENDBRANCH  13  14
ENDBRANCH  12  13
ENDBRANCH  11  12
ENDBRANCH  10  11
ENDBRANCH   9  10
ENDBRANCH   8   9
ENDBRANCH   7   8
ENDBRANCH   6   7
ENDBRANCH   5   6
ENDBRANCH   4   5
ENDBRANCH   3   4
ENDBRANCH   2   3
ENDBRANCH   1   2
BRANCH   1  18
ATOM     18  C   UNL     1      86.298 323.390 191.846  1.00  0.00     0.000 C 
BRANCH  18  19
ATOM     19  C   UNL     1      86.604 322.521 190.610  1.00  0.00     0.000 C 
BRANCH  19  20
ATOM     20  C   UNL     1      88.093 322.436 190.228  1.00  0.00     0.000 C 
BRANCH  20  21
ATOM     21  C   UNL     1      88.487 323.437 189.132  1.00  0.00     0.000 C 
BRANCH  21  22
ATOM     22  C   UNL     1      90.006 323.424 188.899  1.00  0.00     0.000 C 
BRANCH  22  23
ATOM     23  C   UNL     1      90.639 322.053 189.181  1.00  0.00     0.000 C 
BRANCH  23  24
ATOM     24  C   UNL     1      92.122 321.991 188.786  1.00  0.00    -0.000 C 
BRANCH  24  25
ATOM     25  C   UNL     1      92.680 323.399 188.527  1.00  0.00    -0.000 C 
BRANCH  25  26
ATOM     26  C   UNL     1      94.206 323.470 188.696  1.00  0.00    -0.000 C 
BRANCH  26  27
ATOM     27  C   UNL     1      94.637 323.472 190.174  1.00  0.00    -0.000 C 
BRANCH  27  28
ATOM     28  C   UNL     1      95.648 324.584 190.493  1.00  0.00    -0.000 C 
BRANCH  28  29
ATOM     29  C   UNL     1      96.261 324.442 191.894  1.00  0.00    -0.000 C 
BRANCH  29  30
ATOM     30  C   UNL     1      95.430 325.202 192.936  1.00  0.00    -0.000 C 
BRANCH  30  31
ATOM     31  C   UNL     1      95.629 324.661 194.360  1.00  0.00    -0.003 C 
ATOM     32  C   UNL     1      95.371 325.715 195.436  1.00  0.00     0.004 C 
ENDBRANCH  30  31
ENDBRANCH  29  30
ENDBRANCH  28  29
ENDBRANCH  27  28
ENDBRANCH  26  27
ENDBRANCH  25  26
ENDBRANCH  24  25
ENDBRANCH  23  24
ENDBRANCH  22  23
ENDBRANCH  21  22
ENDBRANCH  20  21
ENDBRANCH  19  20
ENDBRANCH  18  19
ENDBRANCH   1  18
TORSDOF 28
ENDMDL
MODEL 5
REMARK VINA RESULT:    -5.941      3.007      5.022
REMARK INTER + INTRA:         -18.711
REMARK INTER:                 -13.878
REMARK INTRA:                  -4.834
REMARK UNBOUND:                -3.045
REMARK SMILES CCCCCCCCCCCCCCCCCCCCCCCCCCCCCC(=O)[O-]
REMARK SMILES IDX 16 1 17 2 18 3 19 4 20 5 21 6 22 7 23 8 24 9 25 10 26 11
REMARK SMILES IDX 27 12 28 13 29 14 30 15 31 16 32 17 15 18 14 19 13 20 12 21
REMARK SMILES IDX 11 22 10 23 9 24 8 25 7 26 6 27 5 28 4 29 3 30 2 31 1 32
REMARK H PARENT
REMARK Flexibility Score: inf
ROOT
ATOM      1  C   UNL     1      89.052 325.720 199.216  1.00  0.00     0.000 C 
ENDROOT
BRANCH   1   2
ATOM      2  C   UNL     1      88.832 326.759 198.098  1.00  0.00     0.000 C 
BRANCH   2   3
ATOM      3  C   UNL     1      88.030 326.255 196.883  1.00  0.00     0.000 C 
BRANCH   3   4
ATOM      4  C   UNL     1      88.788 326.423 195.555  1.00  0.00     0.000 C 
BRANCH   4   5
ATOM      5  C   UNL     1      87.858 326.759 194.376  1.00  0.00     0.000 C 
BRANCH   5   6
ATOM      6  C   UNL     1      86.485 326.058 194.404  1.00  0.00     0.000 C 
BRANCH   6   7
ATOM      7  C   UNL     1      86.278 324.976 193.325  1.00  0.00     0.000 C 
BRANCH   7   8
ATOM      8  C   UNL     1      87.574 324.429 192.701  1.00  0.00     0.000 C 
BRANCH   8   9
ATOM      9  C   UNL     1      87.852 322.969 193.087  1.00  0.00     0.000 C 
BRANCH   9  10
ATOM     10  C   UNL     1      88.697 322.892 194.366  1.00  0.00     0.000 C 
BRANCH  10  11
ATOM     11  C   UNL     1      87.845 322.774 195.644  1.00  0.00     0.000 C 
BRANCH  11  12
ATOM     12  C   UNL     1      88.642 322.550 196.943  1.00  0.00     0.000 C 
BRANCH  12  13
ATOM     13  C   UNL     1      90.075 323.115 196.944  1.00  0.00     0.006 C 
BRANCH  13  14
ATOM     14  C   UNL     1      91.082 322.265 197.739  1.00  0.00     0.053 C 
BRANCH  14  15
ATOM     15  C   UNL     1      92.284 323.051 198.166  1.00  0.00     0.041 C 
ATOM     16  O   UNL     1      93.385 322.899 197.574  1.00  0.00    -0.550 OA
ATOM     17  O   UNL     1      92.199 323.926 199.242  1.00  0.00    -0.550 OA
ENDBRANCH  14  15
ENDBRANCH  13  14
ENDBRANCH  12  13
ENDBRANCH  11  12
ENDBRANCH  10  11
ENDBRANCH   9  10
ENDBRANCH   8   9
ENDBRANCH   7   8
ENDBRANCH   6   7
ENDBRANCH   5   6
ENDBRANCH   4   5
ENDBRANCH   3   4
ENDBRANCH   2   3
ENDBRANCH   1   2
BRANCH   1  18
ATOM     18  C   UNL     1      89.629 326.285 200.528  1.00  0.00     0.000 C 
BRANCH  18  19
ATOM     19  C   UNL     1      88.702 326.166 201.754  1.00  0.00     0.000 C 
BRANCH  19  20
ATOM     20  C   UNL     1      89.201 326.888 203.018  1.00  0.00     0.000 C 
BRANCH  20  21
ATOM     21  C   UNL     1      90.265 326.087 203.783  1.00  0.00     0.000 C 
BRANCH  21  22
ATOM     22  C   UNL     1      90.452 326.641 205.204  1.00  0.00     0.000 C 
BRANCH  22  23
ATOM     23  C   UNL     1      89.117 326.910 205.917  1.00  0.00     0.000 C 
BRANCH  23  24
ATOM     24  C   UNL     1      88.640 325.714 206.754  1.00  0.00    -0.000 C 
BRANCH  24  25
ATOM     25  C   UNL     1      87.592 324.892 205.988  1.00  0.00    -0.000 C 
BRANCH  25  26
ATOM     26  C   UNL     1      88.007 323.423 205.810  1.00  0.00    -0.000 C 
BRANCH  26  27
ATOM     27  C   UNL     1      87.583 322.850 204.446  1.00  0.00    -0.000 C 
BRANCH  27  28
ATOM     28  C   UNL     1      86.548 323.733 203.731  1.00  0.00    -0.000 C 
BRANCH  28  29
ATOM     29  C   UNL     1      86.250 323.255 202.301  1.00  0.00    -0.000 C 
BRANCH  29  30
ATOM     30  C   UNL     1      87.174 322.094 201.908  1.00  0.00    -0.000 C 
BRANCH  30  31
ATOM     31  C   UNL     1      88.116 322.455 200.750  1.00  0.00    -0.003 C 
ATOM     32  C   UNL     1      89.563 322.651 201.201  1.00  0.00     0.004 C 
ENDBRANCH  30  31
ENDBRANCH  29  30
ENDBRANCH  28  29
ENDBRANCH  27  28
ENDBRANCH  26  27
ENDBRANCH  25  26
ENDBRANCH  24  25
ENDBRANCH  23  24
ENDBRANCH  22  23
ENDBRANCH  21  22
ENDBRANCH  20  21
ENDBRANCH  19  20
ENDBRANCH  18  19
ENDBRANCH   1  18
TORSDOF 28
ENDMDL
MODEL 6
REMARK VINA RESULT:    -5.886      3.343     10.462
REMARK INTER + INTRA:         -18.566
REMARK INTER:                 -14.552
REMARK INTRA:                  -4.014
REMARK UNBOUND:                -3.045
REMARK SMILES CCCCCCCCCCCCCCCCCCCCCCCCCCCCCC(=O)[O-]
REMARK SMILES IDX 16 1 17 2 18 3 19 4 20 5 21 6 22 7 23 8 24 9 25 10 26 11
REMARK SMILES IDX 27 12 28 13 29 14 30 15 31 16 32 17 15 18 14 19 13 20 12 21
REMARK SMILES IDX 11 22 10 23 9 24 8 25 7 26 6 27 5 28 4 29 3 30 2 31 1 32
REMARK H PARENT
REMARK Flexibility Score: inf
ROOT
ATOM      1  C   UNL     1      92.483 325.097 201.586  1.00  0.00     0.000 C 
ENDROOT
BRANCH   1   2
ATOM      2  C   UNL     1      92.359 326.547 202.095  1.00  0.00     0.000 C 
BRANCH   2   3
ATOM      3  C   UNL     1      91.843 326.693 203.539  1.00  0.00     0.000 C 
BRANCH   3   4
ATOM      4  C   UNL     1      90.620 327.620 203.646  1.00  0.00     0.000 C 
BRANCH   4   5
ATOM      5  C   UNL     1      89.424 326.952 204.346  1.00  0.00     0.000 C 
BRANCH   5   6
ATOM      6  C   UNL     1      89.355 327.163 205.872  1.00  0.00     0.000 C 
BRANCH   6   7
ATOM      7  C   UNL     1      88.507 326.129 206.640  1.00  0.00     0.000 C 
BRANCH   7   8
ATOM      8  C   UNL     1      88.255 324.811 205.887  1.00  0.00     0.000 C 
BRANCH   8   9
ATOM      9  C   UNL     1      86.767 324.436 205.825  1.00  0.00     0.000 C 
BRANCH   9  10
ATOM     10  C   UNL     1      86.545 323.232 204.899  1.00  0.00     0.000 C 
BRANCH  10  11
ATOM     11  C   UNL     1      87.195 323.410 203.514  1.00  0.00     0.000 C 
BRANCH  11  12
ATOM     12  C   UNL     1      86.207 323.480 202.334  1.00  0.00     0.000 C 
BRANCH  12  13
ATOM     13  C   UNL     1      86.121 322.207 201.469  1.00  0.00     0.006 C 
BRANCH  13  14
ATOM     14  C   UNL     1      87.085 322.200 200.270  1.00  0.00     0.053 C 
BRANCH  14  15
ATOM     15  C   UNL     1      88.319 321.390 200.532  1.00  0.00     0.041 C 
ATOM     16  O   UNL     1      88.416 320.703 201.582  1.00  0.00    -0.550 OA
ATOM     17  O   UNL     1      89.378 321.422 199.632  1.00  0.00    -0.550 OA
ENDBRANCH  14  15
ENDBRANCH  13  14
ENDBRANCH  12  13
ENDBRANCH  11  12
ENDBRANCH  10  11
ENDBRANCH   9  10
ENDBRANCH   8   9
ENDBRANCH   7   8
ENDBRANCH   6   7
ENDBRANCH   5   6
ENDBRANCH   4   5
ENDBRANCH   3   4
ENDBRANCH   2   3
ENDBRANCH   1   2
BRANCH   1  18
ATOM     18  C   UNL     1      91.361 324.641 200.633  1.00  0.00     0.000 C 
BRANCH  18  19
ATOM     19  C   UNL     1      89.959 324.559 201.268  1.00  0.00     0.000 C 
BRANCH  19  20
ATOM     20  C   UNL     1      88.909 325.497 200.646  1.00  0.00     0.000 C 
BRANCH  20  21
ATOM     21  C   UNL     1      89.526 326.559 199.725  1.00  0.00     0.000 C 
BRANCH  21  22
ATOM     22  C   UNL     1      88.865 326.534 198.338  1.00  0.00     0.000 C 
BRANCH  22  23
ATOM     23  C   UNL     1      88.698 325.110 197.785  1.00  0.00     0.000 C 
BRANCH  23  24
ATOM     24  C   UNL     1      88.540 325.082 196.258  1.00  0.00    -0.000 C 
BRANCH  24  25
ATOM     25  C   UNL     1      88.828 326.463 195.651  1.00  0.00    -0.000 C 
BRANCH  25  26
ATOM     26  C   UNL     1      87.999 326.738 194.386  1.00  0.00    -0.000 C 
BRANCH  26  27
ATOM     27  C   UNL     1      87.363 325.461 193.808  1.00  0.00    -0.000 C 
BRANCH  27  28
ATOM     28  C   UNL     1      88.038 325.003 192.505  1.00  0.00    -0.000 C 
BRANCH  28  29
ATOM     29  C   UNL     1      87.942 323.484 192.291  1.00  0.00    -0.000 C 
BRANCH  29  30
ATOM     30  C   UNL     1      88.497 322.724 193.504  1.00  0.00    -0.000 C 
BRANCH  30  31
ATOM     31  C   UNL     1      87.586 321.568 193.944  1.00  0.00    -0.003 C 
ATOM     32  C   UNL     1      86.377 322.041 194.751  1.00  0.00     0.004 C 
ENDBRANCH  30  31
ENDBRANCH  29  30
ENDBRANCH  28  29
ENDBRANCH  27  28
ENDBRANCH  26  27
ENDBRANCH  25  26
ENDBRANCH  24  25
ENDBRANCH  23  24
ENDBRANCH  22  23
ENDBRANCH  21  22
ENDBRANCH  20  21
ENDBRANCH  19  20
ENDBRANCH  18  19
ENDBRANCH   1  18
TORSDOF 28
ENDMDL
MODEL 7
REMARK VINA RESULT:    -5.883      4.187     12.624
REMARK INTER + INTRA:         -18.556
REMARK INTER:                 -15.663
REMARK INTRA:                  -2.893
REMARK UNBOUND:                -3.045
REMARK SMILES CCCCCCCCCCCCCCCCCCCCCCCCCCCCCC(=O)[O-]
REMARK SMILES IDX 16 1 17 2 18 3 19 4 20 5 21 6 22 7 23 8 24 9 25 10 26 11
REMARK SMILES IDX 27 12 28 13 29 14 30 15 31 16 32 17 15 18 14 19 13 20 12 21
REMARK SMILES IDX 11 22 10 23 9 24 8 25 7 26 6 27 5 28 4 29 3 30 2 31 1 32
REMARK H PARENT
REMARK Flexibility Score: inf
ROOT
ATOM      1  C   UNL     1      89.253 324.948 198.737  1.00  0.00     0.000 C 
ENDROOT
BRANCH   1   2
ATOM      2  C   UNL     1      89.253 326.380 199.307  1.00  0.00     0.000 C 
BRANCH   2   3
ATOM      3  C   UNL     1      89.637 326.494 200.795  1.00  0.00     0.000 C 
BRANCH   3   4
ATOM      4  C   UNL     1      88.523 326.009 201.738  1.00  0.00     0.000 C 
BRANCH   4   5
ATOM      5  C   UNL     1      88.910 324.739 202.515  1.00  0.00     0.000 C 
BRANCH   5   6
ATOM      6  C   UNL     1      88.592 323.410 201.800  1.00  0.00     0.000 C 
BRANCH   6   7
ATOM      7  C   UNL     1      87.472 322.569 202.444  1.00  0.00     0.000 C 
BRANCH   7   8
ATOM      8  C   UNL     1      86.587 323.330 203.447  1.00  0.00     0.000 C 
BRANCH   8   9
ATOM      9  C   UNL     1      86.692 322.776 204.875  1.00  0.00     0.000 C 
BRANCH   9  10
ATOM     10  C   UNL     1      87.639 323.633 205.726  1.00  0.00     0.000 C 
BRANCH  10  11
ATOM     11  C   UNL     1      87.034 324.995 206.113  1.00  0.00     0.000 C 
BRANCH  11  12
ATOM     12  C   UNL     1      88.055 326.065 206.545  1.00  0.00     0.000 C 
BRANCH  12  13
ATOM     13  C   UNL     1      89.424 325.994 205.842  1.00  0.00     0.006 C 
BRANCH  13  14
ATOM     14  C   UNL     1      90.276 327.265 206.004  1.00  0.00     0.053 C 
BRANCH  14  15
ATOM     15  C   UNL     1      91.320 327.395 204.937  1.00  0.00     0.041 C 
ATOM     16  O   UNL     1      90.986 327.653 203.751  1.00  0.00    -0.550 OA
ATOM     17  O   UNL     1      92.660 327.196 205.245  1.00  0.00    -0.550 OA
ENDBRANCH  14  15
ENDBRANCH  13  14
ENDBRANCH  12  13
ENDBRANCH  11  12
ENDBRANCH  10  11
ENDBRANCH   9  10
ENDBRANCH   8   9
ENDBRANCH   7   8
ENDBRANCH   6   7
ENDBRANCH   5   6
ENDBRANCH   4   5
ENDBRANCH   3   4
ENDBRANCH   2   3
ENDBRANCH   1   2
BRANCH   1  18
ATOM     18  C   UNL     1      88.608 324.800 197.345  1.00  0.00     0.000 C 
BRANCH  18  19
ATOM     19  C   UNL     1      88.018 326.097 196.758  1.00  0.00     0.000 C 
BRANCH  19  20
ATOM     20  C   UNL     1      88.634 326.543 195.419  1.00  0.00     0.000 C 
BRANCH  20  21
ATOM     21  C   UNL     1      87.577 326.913 194.368  1.00  0.00     0.000 C 
BRANCH  21  22
ATOM     22  C   UNL     1      86.276 326.127 194.598  1.00  0.00     0.000 C 
BRANCH  22  23
ATOM     23  C   UNL     1      86.108 324.958 193.614  1.00  0.00     0.000 C 
BRANCH  23  24
ATOM     24  C   UNL     1      86.906 323.714 194.029  1.00  0.00    -0.000 C 
BRANCH  24  25
ATOM     25  C   UNL     1      88.083 323.473 193.071  1.00  0.00    -0.000 C 
BRANCH  25  26
ATOM     26  C   UNL     1      88.082 324.442 191.878  1.00  0.00    -0.000 C 
BRANCH  26  27
ATOM     27  C   UNL     1      88.124 323.712 190.524  1.00  0.00    -0.000 C 
BRANCH  27  28
ATOM     28  C   UNL     1      88.357 322.200 190.675  1.00  0.00    -0.000 C 
BRANCH  28  29
ATOM     29  C   UNL     1      89.644 321.728 189.983  1.00  0.00    -0.000 C 
BRANCH  29  30
ATOM     30  C   UNL     1      90.084 322.727 188.904  1.00  0.00    -0.000 C 
BRANCH  30  31
ATOM     31  C   UNL     1      91.368 322.290 188.183  1.00  0.00    -0.003 C 
ATOM     32  C   UNL     1      91.207 320.965 187.438  1.00  0.00     0.004 C 
ENDBRANCH  30  31
ENDBRANCH  29  30
ENDBRANCH  28  29
ENDBRANCH  27  28
ENDBRANCH  26  27
ENDBRANCH  25  26
ENDBRANCH  24  25
ENDBRANCH  23  24
ENDBRANCH  22  23
ENDBRANCH  21  22
ENDBRANCH  20  21
ENDBRANCH  19  20
ENDBRANCH  18  19
ENDBRANCH   1  18
TORSDOF 28
ENDMDL
MODEL 8
REMARK VINA RESULT:    -5.882      4.237     12.214
REMARK INTER + INTRA:         -18.556
REMARK INTER:                 -14.837
REMARK INTRA:                  -3.719
REMARK UNBOUND:                -3.045
REMARK SMILES CCCCCCCCCCCCCCCCCCCCCCCCCCCCCC(=O)[O-]
REMARK SMILES IDX 16 1 17 2 18 3 19 4 20 5 21 6 22 7 23 8 24 9 25 10 26 11
REMARK SMILES IDX 27 12 28 13 29 14 30 15 31 16 32 17 15 18 14 19 13 20 12 21
REMARK SMILES IDX 11 22 10 23 9 24 8 25 7 26 6 27 5 28 4 29 3 30 2 31 1 32
REMARK H PARENT
REMARK Flexibility Score: inf
ROOT
ATOM      1  C   UNL     1      88.854 326.571 198.104  1.00  0.00     0.000 C 
ENDROOT
BRANCH   1   2
ATOM      2  C   UNL     1      89.263 325.371 198.981  1.00  0.00     0.000 C 
BRANCH   2   3
ATOM      3  C   UNL     1      90.089 325.724 200.233  1.00  0.00     0.000 C 
BRANCH   3   4
ATOM      4  C   UNL     1      89.233 326.317 201.365  1.00  0.00     0.000 C 
BRANCH   4   5
ATOM      5  C   UNL     1      88.233 325.304 201.949  1.00  0.00     0.000 C 
BRANCH   5   6
ATOM      6  C   UNL     1      88.813 323.907 202.248  1.00  0.00     0.000 C 
BRANCH   6   7
ATOM      7  C   UNL     1      88.471 323.337 203.639  1.00  0.00     0.000 C 
BRANCH   7   8
ATOM      8  C   UNL     1      86.966 323.190 203.925  1.00  0.00     0.000 C 
BRANCH   8   9
ATOM      9  C   UNL     1      86.526 323.927 205.198  1.00  0.00     0.000 C 
BRANCH   9  10
ATOM     10  C   UNL     1      87.741 324.323 206.048  1.00  0.00     0.000 C 
BRANCH  10  11
ATOM     11  C   UNL     1      87.726 325.807 206.462  1.00  0.00     0.000 C 
BRANCH  11  12
ATOM     12  C   UNL     1      89.068 326.546 206.291  1.00  0.00     0.000 C 
BRANCH  12  13
ATOM     13  C   UNL     1      89.310 327.162 204.900  1.00  0.00     0.006 C 
BRANCH  13  14
ATOM     14  C   UNL     1      90.750 327.659 204.678  1.00  0.00     0.053 C 
BRANCH  14  15
ATOM     15  C   UNL     1      91.742 326.537 204.633  1.00  0.00     0.041 C 
ATOM     16  O   UNL     1      91.534 325.534 203.900  1.00  0.00    -0.550 OA
ATOM     17  O   UNL     1      92.881 326.581 205.428  1.00  0.00    -0.550 OA
ENDBRANCH  14  15
ENDBRANCH  13  14
ENDBRANCH  12  13
ENDBRANCH  11  12
ENDBRANCH  10  11
ENDBRANCH   9  10
ENDBRANCH   8   9
ENDBRANCH   7   8
ENDBRANCH   6   7
ENDBRANCH   5   6
ENDBRANCH   4   5
ENDBRANCH   3   4
ENDBRANCH   2   3
ENDBRANCH   1   2
BRANCH   1  18
ATOM     18  C   UNL     1      88.482 326.221 196.651  1.00  0.00     0.000 C 
BRANCH  18  19
ATOM     19  C   UNL     1      87.002 326.448 196.283  1.00  0.00     0.000 C 
BRANCH  19  20
ATOM     20  C   UNL     1      86.741 326.747 194.796  1.00  0.00     0.000 C 
BRANCH  20  21
ATOM     21  C   UNL     1      88.011 326.658 193.937  1.00  0.00     0.000 C 
BRANCH  21  22
ATOM     22  C   UNL     1      88.017 325.371 193.098  1.00  0.00     0.000 C 
BRANCH  22  23
ATOM     23  C   UNL     1      86.725 324.554 193.254  1.00  0.00     0.000 C 
BRANCH  23  24
ATOM     24  C   UNL     1      86.947 323.229 193.998  1.00  0.00    -0.000 C 
BRANCH  24  25
ATOM     25  C   UNL     1      88.387 323.130 194.525  1.00  0.00    -0.000 C 
BRANCH  25  26
ATOM     26  C   UNL     1      89.034 321.769 194.224  1.00  0.00    -0.000 C 
BRANCH  26  27
ATOM     27  C   UNL     1      88.507 321.139 192.922  1.00  0.00    -0.000 C 
BRANCH  27  28
ATOM     28  C   UNL     1      89.634 320.794 191.935  1.00  0.00    -0.000 C 
BRANCH  28  29
ATOM     29  C   UNL     1      89.437 321.451 190.560  1.00  0.00    -0.000 C 
BRANCH  29  30
ATOM     30  C   UNL     1      88.506 322.667 190.663  1.00  0.00    -0.000 C 
BRANCH  30  31
ATOM     31  C   UNL     1      87.317 322.583 189.695  1.00  0.00    -0.003 C 
ATOM     32  C   UNL     1      85.988 322.336 190.409  1.00  0.00     0.004 C 
ENDBRANCH  30  31
ENDBRANCH  29  30
ENDBRANCH  28  29
ENDBRANCH  27  28
ENDBRANCH  26  27
ENDBRANCH  25  26
ENDBRANCH  24  25
ENDBRANCH  23  24
ENDBRANCH  22  23
ENDBRANCH  21  22
ENDBRANCH  20  21
ENDBRANCH  19  20
ENDBRANCH  18  19
ENDBRANCH   1  18
TORSDOF 28
ENDMDL
MODEL 9
REMARK VINA RESULT:    -5.878      1.984      4.565
REMARK INTER + INTRA:         -18.543
REMARK INTER:                 -15.587
REMARK INTRA:                  -2.956
REMARK UNBOUND:                -3.045
REMARK SMILES CCCCCCCCCCCCCCCCCCCCCCCCCCCCCC(=O)[O-]
REMARK SMILES IDX 16 1 17 2 18 3 19 4 20 5 21 6 22 7 23 8 24 9 25 10 26 11
REMARK SMILES IDX 27 12 28 13 29 14 30 15 31 16 32 17 15 18 14 19 13 20 12 21
REMARK SMILES IDX 11 22 10 23 9 24 8 25 7 26 6 27 5 28 4 29 3 30 2 31 1 32
REMARK H PARENT
REMARK Flexibility Score: inf
ROOT
ATOM      1  C   UNL     1      89.101 326.493 201.761  1.00  0.00     0.000 C 
ENDROOT
BRANCH   1   2
ATOM      2  C   UNL     1      89.937 326.377 200.471  1.00  0.00     0.000 C 
BRANCH   2   3
ATOM      3  C   UNL     1      89.223 326.830 199.184  1.00  0.00     0.000 C 
BRANCH   3   4
ATOM      4  C   UNL     1      88.849 325.656 198.262  1.00  0.00     0.000 C 
BRANCH   4   5
ATOM      5  C   UNL     1      88.009 326.094 197.050  1.00  0.00     0.000 C 
BRANCH   5   6
ATOM      6  C   UNL     1      88.820 326.528 195.812  1.00  0.00     0.000 C 
BRANCH   6   7
ATOM      7  C   UNL     1      87.988 326.801 194.544  1.00  0.00     0.000 C 
BRANCH   7   8
ATOM      8  C   UNL     1      86.519 326.349 194.625  1.00  0.00     0.000 C 
BRANCH   8   9
ATOM      9  C   UNL     1      86.188 325.214 193.645  1.00  0.00     0.000 C 
BRANCH   9  10
ATOM     10  C   UNL     1      86.941 323.930 194.020  1.00  0.00     0.000 C 
BRANCH  10  11
ATOM     11  C   UNL     1      88.059 323.575 193.022  1.00  0.00     0.000 C 
BRANCH  11  12
ATOM     12  C   UNL     1      88.071 324.413 191.729  1.00  0.00     0.000 C 
BRANCH  12  13
ATOM     13  C   UNL     1      88.244 323.612 190.424  1.00  0.00     0.006 C 
BRANCH  13  14
ATOM     14  C   UNL     1      87.052 322.698 190.089  1.00  0.00     0.053 C 
BRANCH  14  15
ATOM     15  C   UNL     1      87.198 322.032 188.755  1.00  0.00     0.041 C 
ATOM     16  O   UNL     1      86.189 321.845 188.025  1.00  0.00    -0.550 OA
ATOM     17  O   UNL     1      88.443 321.586 188.331  1.00  0.00    -0.550 OA
ENDBRANCH  14  15
ENDBRANCH  13  14
ENDBRANCH  12  13
ENDBRANCH  11  12
ENDBRANCH  10  11
ENDBRANCH   9  10
ENDBRANCH   8   9
ENDBRANCH   7   8
ENDBRANCH   6   7
ENDBRANCH   5   6
ENDBRANCH   4   5
ENDBRANCH   3   4
ENDBRANCH   2   3
ENDBRANCH   1   2
BRANCH   1  18
ATOM     18  C   UNL     1      89.883 326.949 203.008  1.00  0.00     0.000 C 
BRANCH  18  19
ATOM     19  C   UNL     1      89.639 326.107 204.276  1.00  0.00     0.000 C 
BRANCH  19  20
ATOM     20  C   UNL     1      89.340 326.922 205.548  1.00  0.00     0.000 C 
BRANCH  20  21
ATOM     21  C   UNL     1      88.483 326.153 206.564  1.00  0.00     0.000 C 
BRANCH  21  22
ATOM     22  C   UNL     1      88.132 324.753 206.036  1.00  0.00     0.000 C 
BRANCH  22  23
ATOM     23  C   UNL     1      86.636 324.595 205.721  1.00  0.00     0.000 C 
BRANCH  23  24
ATOM     24  C   UNL     1      86.326 323.309 204.941  1.00  0.00    -0.000 C 
BRANCH  24  25
ATOM     25  C   UNL     1      87.250 323.172 203.720  1.00  0.00    -0.000 C 
BRANCH  25  26
ATOM     26  C   UNL     1      86.569 323.606 202.412  1.00  0.00    -0.000 C 
BRANCH  26  27
ATOM     27  C   UNL     1      86.105 322.409 201.563  1.00  0.00    -0.000 C 
BRANCH  27  28
ATOM     28  C   UNL     1      87.279 321.635 200.941  1.00  0.00    -0.000 C 
BRANCH  28  29
ATOM     29  C   UNL     1      88.025 322.450 199.874  1.00  0.00    -0.000 C 
BRANCH  29  30
ATOM     30  C   UNL     1      89.132 321.611 199.220  1.00  0.00    -0.000 C 
BRANCH  30  31
ATOM     31  C   UNL     1      88.805 321.232 197.768  1.00  0.00    -0.003 C 
ATOM     32  C   UNL     1      88.053 322.333 197.022  1.00  0.00     0.004 C 
ENDBRANCH  30  31
ENDBRANCH  29  30
ENDBRANCH  28  29
ENDBRANCH  27  28
ENDBRANCH  26  27
ENDBRANCH  25  26
ENDBRANCH  24  25
ENDBRANCH  23  24
ENDBRANCH  22  23
ENDBRANCH  21  22
ENDBRANCH  20  21
ENDBRANCH  19  20
ENDBRANCH  18  19
ENDBRANCH   1  18
TORSDOF 28
ENDMDL
