MODEL 1
REMARK VINA RESULT:    -4.158      0.000      0.000
REMARK INTER + INTRA:          -5.579
REMARK INTER:                  -5.373
REMARK INTRA:                  -0.205
REMARK UNBOUND:                -0.205
REMARK SMILES CCCCCCC(=O)[O-]
REMARK SMILES IDX 5 1 6 2 7 3 8 4 9 5 4 6 3 7 2 8 1 9
REMARK H PARENT
REMARK Flexibility Score: inf
ROOT
ATOM      1  C   UNL     1      13.318  13.486  69.398  1.00  0.00     0.006 C 
ENDROOT
BRANCH   1   2
ATOM      2  C   UNL     1      12.005  13.038  68.743  1.00  0.00     0.053 C 
BRANCH   2   3
ATOM      3  C   UNL     1      10.836  13.459  69.577  1.00  0.00     0.041 C 
ATOM      4  O   UNL     1      10.889  13.375  70.832  1.00  0.00    -0.550 OA
ATOM      5  O   UNL     1       9.669  13.898  68.965  1.00  0.00    -0.550 OA
ENDBRANCH   2   3
ENDBRANCH   1   2
BRANCH   1   6
ATOM      6  C   UNL     1      13.626  14.972  69.154  1.00  0.00     0.000 C 
BRANCH   6   7
ATOM      7  C   UNL     1      14.844  15.463  69.955  1.00  0.00    -0.000 C 
BRANCH   7   8
ATOM      8  C   UNL     1      15.805  14.321  70.323  1.00  0.00    -0.003 C 
ATOM      9  C   UNL     1      17.181  14.471  69.676  1.00  0.00     0.004 C 
ENDBRANCH   7   8
ENDBRANCH   6   7
ENDBRANCH   1   6
TORSDOF 5
ENDMDL
MODEL 2
REMARK VINA RESULT:    -4.132      2.507      4.853
REMARK INTER + INTRA:          -5.545
REMARK INTER:                  -5.335
REMARK INTRA:                  -0.210
REMARK UNBOUND:                -0.205
REMARK SMILES CCCCCCC(=O)[O-]
REMARK SMILES IDX 5 1 6 2 7 3 8 4 9 5 4 6 3 7 2 8 1 9
REMARK H PARENT
REMARK Flexibility Score: inf
ROOT
ATOM      1  C   UNL     1      12.474  13.132  69.188  1.00  0.00     0.006 C 
ENDROOT
BRANCH   1   2
ATOM      2  C   UNL     1      13.724  13.721  69.854  1.00  0.00     0.053 C 
BRANCH   2   3
ATOM      3  C   UNL     1      14.010  15.086  69.314  1.00  0.00     0.041 C 
ATOM      4  O   UNL     1      14.540  15.961  70.048  1.00  0.00    -0.550 OA
ATOM      5  O   UNL     1      13.645  15.408  68.013  1.00  0.00    -0.550 OA
ENDBRANCH   2   3
ENDBRANCH   1   2
BRANCH   1   6
ATOM      6  C   UNL     1      11.170  13.610  69.846  1.00  0.00     0.000 C 
BRANCH   6   7
ATOM      7  C   UNL     1       9.931  13.324  68.980  1.00  0.00    -0.000 C 
BRANCH   7   8
ATOM      8  C   UNL     1      10.151  12.155  68.006  1.00  0.00    -0.003 C 
ATOM      9  C   UNL     1       9.469  10.866  68.462  1.00  0.00     0.004 C 
ENDBRANCH   7   8
ENDBRANCH   6   7
ENDBRANCH   1   6
TORSDOF 5
ENDMDL
MODEL 3
REMARK VINA RESULT:    -4.073      2.210      2.551
REMARK INTER + INTRA:          -5.469
REMARK INTER:                  -5.166
REMARK INTRA:                  -0.303
REMARK UNBOUND:                -0.205
REMARK SMILES CCCCCCC(=O)[O-]
REMARK SMILES IDX 5 1 6 2 7 3 8 4 9 5 4 6 3 7 2 8 1 9
REMARK H PARENT
REMARK Flexibility Score: inf
ROOT
ATOM      1  C   UNL     1      13.082  13.507  69.226  1.00  0.00     0.006 C 
ENDROOT
BRANCH   1   2
ATOM      2  C   UNL     1      11.999  14.186  68.377  1.00  0.00     0.053 C 
BRANCH   2   3
ATOM      3  C   UNL     1      12.536  15.431  67.746  1.00  0.00     0.041 C 
ATOM      4  O   UNL     1      11.952  16.534  67.920  1.00  0.00    -0.550 OA
ATOM      5  O   UNL     1      13.655  15.367  66.925  1.00  0.00    -0.550 OA
ENDBRANCH   2   3
ENDBRANCH   1   2
BRANCH   1   6
ATOM      6  C   UNL     1      13.461  14.325  70.470  1.00  0.00     0.000 C 
BRANCH   6   7
ATOM      7  C   UNL     1      14.963  14.249  70.792  1.00  0.00    -0.000 C 
BRANCH   7   8
ATOM      8  C   UNL     1      15.827  14.967  69.743  1.00  0.00    -0.003 C 
ATOM      9  C   UNL     1      17.245  14.405  69.657  1.00  0.00     0.004 C 
ENDBRANCH   7   8
ENDBRANCH   6   7
ENDBRANCH   1   6
TORSDOF 5
ENDMDL
MODEL 4
REMARK VINA RESULT:    -4.066      1.441      2.346
REMARK INTER + INTRA:          -5.459
REMARK INTER:                  -5.134
REMARK INTRA:                  -0.325
REMARK UNBOUND:                -0.205
REMARK SMILES CCCCCCC(=O)[O-]
REMARK SMILES IDX 5 1 6 2 7 3 8 4 9 5 4 6 3 7 2 8 1 9
REMARK H PARENT
REMARK Flexibility Score: inf
ROOT
ATOM      1  C   UNL     1      13.359  13.561  69.506  1.00  0.00     0.006 C 
ENDROOT
BRANCH   1   2
ATOM      2  C   UNL     1      12.093  13.054  68.803  1.00  0.00     0.053 C 
BRANCH   2   3
ATOM      3  C   UNL     1      10.884  13.341  69.635  1.00  0.00     0.041 C 
ATOM      4  O   UNL     1      10.948  13.277  70.891  1.00  0.00    -0.550 OA
ATOM      5  O   UNL     1       9.672  13.633  69.022  1.00  0.00    -0.550 OA
ENDBRANCH   2   3
ENDBRANCH   1   2
BRANCH   1   6
ATOM      6  C   UNL     1      13.741  14.989  69.085  1.00  0.00     0.000 C 
BRANCH   6   7
ATOM      7  C   UNL     1      14.089  15.886  70.284  1.00  0.00    -0.000 C 
BRANCH   7   8
ATOM      8  C   UNL     1      12.956  16.864  70.636  1.00  0.00    -0.003 C 
ATOM      9  C   UNL     1      12.168  16.439  71.874  1.00  0.00     0.004 C 
ENDBRANCH   7   8
ENDBRANCH   6   7
ENDBRANCH   1   6
TORSDOF 5
ENDMDL
MODEL 5
REMARK VINA RESULT:    -4.041      2.603      3.112
REMARK INTER + INTRA:          -5.428
REMARK INTER:                  -4.998
REMARK INTRA:                  -0.430
REMARK UNBOUND:                -0.205
REMARK SMILES CCCCCCC(=O)[O-]
REMARK SMILES IDX 5 1 6 2 7 3 8 4 9 5 4 6 3 7 2 8 1 9
REMARK H PARENT
REMARK Flexibility Score: inf
ROOT
ATOM      1  C   UNL     1      12.427  13.567  68.665  1.00  0.00     0.006 C 
ENDROOT
BRANCH   1   2
ATOM      2  C   UNL     1      11.526  14.645  68.047  1.00  0.00     0.053 C 
BRANCH   2   3
ATOM      3  C   UNL     1      12.352  15.659  67.321  1.00  0.00     0.041 C 
ATOM      4  O   UNL     1      13.526  15.382  66.961  1.00  0.00    -0.550 OA
ATOM      5  O   UNL     1      11.841  16.929  67.085  1.00  0.00    -0.550 OA
ENDBRANCH   2   3
ENDBRANCH   1   2
BRANCH   1   6
ATOM      6  C   UNL     1      12.830  13.889  70.113  1.00  0.00     0.000 C 
BRANCH   6   7
ATOM      7  C   UNL     1      14.334  14.180  70.256  1.00  0.00    -0.000 C 
BRANCH   7   8
ATOM      8  C   UNL     1      14.650  15.683  70.202  1.00  0.00    -0.003 C 
ATOM      9  C   UNL     1      13.499  16.551  70.709  1.00  0.00     0.004 C 
ENDBRANCH   7   8
ENDBRANCH   6   7
ENDBRANCH   1   6
TORSDOF 5
ENDMDL
MODEL 6
REMARK VINA RESULT:    -3.997      2.566      4.224
REMARK INTER + INTRA:          -5.371
REMARK INTER:                  -4.984
REMARK INTRA:                  -0.387
REMARK UNBOUND:                -0.205
REMARK SMILES CCCCCCC(=O)[O-]
REMARK SMILES IDX 5 1 6 2 7 3 8 4 9 5 4 6 3 7 2 8 1 9
REMARK H PARENT
REMARK Flexibility Score: inf
ROOT
ATOM      1  C   UNL     1      11.977  13.227  68.950  1.00  0.00     0.006 C 
ENDROOT
BRANCH   1   2
ATOM      2  C   UNL     1      13.376  13.553  69.490  1.00  0.00     0.053 C 
BRANCH   2   3
ATOM      3  C   UNL     1      13.791  14.927  69.068  1.00  0.00     0.041 C 
ATOM      4  O   UNL     1      13.503  15.352  67.919  1.00  0.00    -0.550 OA
ATOM      5  O   UNL     1      14.538  15.722  69.929  1.00  0.00    -0.550 OA
ENDBRANCH   2   3
ENDBRANCH   1   2
BRANCH   1   6
ATOM      6  C   UNL     1      10.857  13.627  69.923  1.00  0.00     0.000 C 
BRANCH   6   7
ATOM      7  C   UNL     1      11.275  13.484  71.396  1.00  0.00    -0.000 C 
BRANCH   7   8
ATOM      8  C   UNL     1      11.245  14.823  72.150  1.00  0.00    -0.003 C 
ATOM      9  C   UNL     1      10.899  16.006  71.245  1.00  0.00     0.004 C 
ENDBRANCH   7   8
ENDBRANCH   6   7
ENDBRANCH   1   6
TORSDOF 5
ENDMDL
MODEL 7
REMARK VINA RESULT:    -3.978      2.535      4.587
REMARK INTER + INTRA:          -5.346
REMARK INTER:                  -4.980
REMARK INTRA:                  -0.367
REMARK UNBOUND:                -0.205
REMARK SMILES CCCCCCC(=O)[O-]
REMARK SMILES IDX 5 1 6 2 7 3 8 4 9 5 4 6 3 7 2 8 1 9
REMARK H PARENT
REMARK Flexibility Score: inf
ROOT
ATOM      1  C   UNL     1      12.155  13.165  68.782  1.00  0.00     0.006 C 
ENDROOT
BRANCH   1   2
ATOM      2  C   UNL     1      13.231  13.726  69.721  1.00  0.00     0.053 C 
BRANCH   2   3
ATOM      3  C   UNL     1      13.816  14.980  69.153  1.00  0.00     0.041 C 
ATOM      4  O   UNL     1      14.548  15.718  69.863  1.00  0.00    -0.550 OA
ATOM      5  O   UNL     1      13.514  15.360  67.851  1.00  0.00    -0.550 OA
ENDBRANCH   2   3
ENDBRANCH   1   2
BRANCH   1   6
ATOM      6  C   UNL     1      10.769  13.096  69.443  1.00  0.00     0.000 C 
BRANCH   6   7
ATOM      7  C   UNL     1       9.744  14.021  68.765  1.00  0.00    -0.000 C 
BRANCH   7   8
ATOM      8  C   UNL     1       9.978  15.503  69.098  1.00  0.00    -0.003 C 
ATOM      9  C   UNL     1      10.096  16.380  67.852  1.00  0.00     0.004 C 
ENDBRANCH   7   8
ENDBRANCH   6   7
ENDBRANCH   1   6
TORSDOF 5
ENDMDL
MODEL 8
REMARK VINA RESULT:    -3.962      2.315      4.291
REMARK INTER + INTRA:          -5.326
REMARK INTER:                  -4.947
REMARK INTRA:                  -0.378
REMARK UNBOUND:                -0.205
REMARK SMILES CCCCCCC(=O)[O-]
REMARK SMILES IDX 5 1 6 2 7 3 8 4 9 5 4 6 3 7 2 8 1 9
REMARK H PARENT
REMARK Flexibility Score: inf
ROOT
ATOM      1  C   UNL     1      13.751  14.998  69.012  1.00  0.00     0.006 C 
ENDROOT
BRANCH   1   2
ATOM      2  C   UNL     1      13.088  15.272  67.655  1.00  0.00     0.053 C 
BRANCH   2   3
ATOM      3  C   UNL     1      12.096  16.384  67.775  1.00  0.00     0.041 C 
ATOM      4  O   UNL     1      11.746  17.035  66.755  1.00  0.00    -0.550 OA
ATOM      5  O   UNL     1      11.592  16.735  69.021  1.00  0.00    -0.550 OA
ENDBRANCH   2   3
ENDBRANCH   1   2
BRANCH   1   6
ATOM      6  C   UNL     1      13.383  13.621  69.585  1.00  0.00     0.000 C 
BRANCH   6   7
ATOM      7  C   UNL     1      12.179  12.986  68.870  1.00  0.00    -0.000 C 
BRANCH   7   8
ATOM      8  C   UNL     1      10.871  13.148  69.661  1.00  0.00    -0.003 C 
ATOM      9  C   UNL     1       9.712  13.645  68.797  1.00  0.00     0.004 C 
ENDBRANCH   7   8
ENDBRANCH   6   7
ENDBRANCH   1   6
TORSDOF 5
ENDMDL
MODEL 9
REMARK VINA RESULT:    -3.954      2.174      4.254
REMARK INTER + INTRA:          -5.315
REMARK INTER:                  -4.873
REMARK INTRA:                  -0.442
REMARK UNBOUND:                -0.205
REMARK SMILES CCCCCCC(=O)[O-]
REMARK SMILES IDX 5 1 6 2 7 3 8 4 9 5 4 6 3 7 2 8 1 9
REMARK H PARENT
REMARK Flexibility Score: inf
ROOT
ATOM      1  C   UNL     1      13.115  13.401  69.635  1.00  0.00     0.006 C 
ENDROOT
BRANCH   1   2
ATOM      2  C   UNL     1      13.462  14.461  70.689  1.00  0.00     0.053 C 
BRANCH   2   3
ATOM      3  C   UNL     1      12.222  14.936  71.379  1.00  0.00     0.041 C 
ATOM      4  O   UNL     1      12.011  16.168  71.527  1.00  0.00    -0.550 OA
ATOM      5  O   UNL     1      11.323  14.015  71.902  1.00  0.00    -0.550 OA
ENDBRANCH   2   3
ENDBRANCH   1   2
BRANCH   1   6
ATOM      6  C   UNL     1      12.212  13.949  68.518  1.00  0.00     0.000 C 
BRANCH   6   7
ATOM      7  C   UNL     1      11.049  13.000  68.181  1.00  0.00    -0.000 C 
BRANCH   7   8
ATOM      8  C   UNL     1       9.722  13.446  68.817  1.00  0.00    -0.003 C 
ATOM      9  C   UNL     1       9.534  14.963  68.795  1.00  0.00     0.004 C 
ENDBRANCH   7   8
ENDBRANCH   6   7
ENDBRANCH   1   6
TORSDOF 5
ENDMDL
