MODEL 1
REMARK VINA RESULT:    -4.746      0.000      0.000
REMARK INTER + INTRA:          -5.174
REMARK INTER:                  -5.163
REMARK INTRA:                  -0.012
REMARK UNBOUND:                -0.012
REMARK SMILES OCc1ccccc1
REMARK SMILES IDX 2 1 3 2 6 3 5 4 7 5 4 6 8 7 1 8
REMARK H PARENT 1 9
REMARK Flexibility Score: inf
ROOT
ATOM      1  C   UNL     1     -20.188 -21.297  16.263  1.00  0.00     0.191 C 
ENDROOT
BRANCH   1   2
ATOM      2  C   UNL     1     -20.249 -20.787  14.850  1.00  0.00    -0.023 A 
ATOM      3  C   UNL     1     -20.439 -19.856  12.209  1.00  0.00     0.000 A 
ATOM      4  C   UNL     1     -20.774 -19.014  13.273  1.00  0.00     0.000 A 
ATOM      5  C   UNL     1     -20.018 -21.165  12.461  1.00  0.00     0.000 A 
ATOM      6  C   UNL     1     -20.685 -19.477  14.590  1.00  0.00     0.006 A 
ATOM      7  C   UNL     1     -19.929 -21.633  13.776  1.00  0.00     0.006 A 
ENDBRANCH   1   2
BRANCH   1   8
ATOM      8  O   UNL     1     -21.473 -21.319  16.823  1.00  0.00    -0.392 OA
ATOM      9  H   UNL     1     -21.353 -21.362  17.807  1.00  0.00     0.211 HD
ENDBRANCH   1   8
TORSDOF 2
ENDMDL
MODEL 2
REMARK VINA RESULT:    -4.573     12.311     13.560
REMARK INTER + INTRA:          -4.986
REMARK INTER:                  -4.974
REMARK INTRA:                  -0.012
REMARK UNBOUND:                -0.012
REMARK SMILES OCc1ccccc1
REMARK SMILES IDX 2 1 3 2 6 3 5 4 7 5 4 6 8 7 1 8
REMARK H PARENT 1 9
REMARK Flexibility Score: inf
ROOT
ATOM      1  C   UNL     1     -13.923 -15.697  26.250  1.00  0.00     0.191 C 
ENDROOT
BRANCH   1   2
ATOM      2  C   UNL     1     -15.306 -15.345  25.777  1.00  0.00    -0.023 A 
ATOM      3  C   UNL     1     -17.917 -14.725  24.956  1.00  0.00     0.000 A 
ATOM      4  C   UNL     1     -17.240 -13.875  25.835  1.00  0.00     0.000 A 
ATOM      5  C   UNL     1     -17.297 -15.889  24.494  1.00  0.00     0.000 A 
ATOM      6  C   UNL     1     -15.940 -14.184  26.250  1.00  0.00     0.006 A 
ATOM      7  C   UNL     1     -15.998 -16.203  24.907  1.00  0.00     0.006 A 
ENDBRANCH   1   2
BRANCH   1   8
ATOM      8  O   UNL     1     -13.045 -14.633  26.004  1.00  0.00    -0.392 OA
ATOM      9  H   UNL     1     -13.481 -13.816  26.364  1.00  0.00     0.211 HD
ENDBRANCH   1   8
TORSDOF 2
ENDMDL
MODEL 3
REMARK VINA RESULT:    -4.573     12.931     14.141
REMARK INTER + INTRA:          -4.986
REMARK INTER:                  -4.972
REMARK INTRA:                  -0.014
REMARK UNBOUND:                -0.012
REMARK SMILES OCc1ccccc1
REMARK SMILES IDX 2 1 3 2 6 3 5 4 7 5 4 6 8 7 1 8
REMARK H PARENT 1 9
REMARK Flexibility Score: inf
ROOT
ATOM      1  C   UNL     1     -12.830 -16.106  27.226  1.00  0.00     0.191 C 
ENDROOT
BRANCH   1   2
ATOM      2  C   UNL     1     -14.095 -15.888  26.444  1.00  0.00    -0.023 A 
ATOM      3  C   UNL     1     -16.415 -15.490  24.916  1.00  0.00     0.000 A 
ATOM      4  C   UNL     1     -16.019 -16.785  25.261  1.00  0.00     0.000 A 
ATOM      5  C   UNL     1     -15.650 -14.393  25.324  1.00  0.00     0.000 A 
ATOM      6  C   UNL     1     -14.860 -16.987  26.017  1.00  0.00     0.006 A 
ATOM      7  C   UNL     1     -14.490 -14.591  26.080  1.00  0.00     0.006 A 
ENDBRANCH   1   2
BRANCH   1   8
ATOM      8  O   UNL     1     -12.037 -17.077  26.598  1.00  0.00    -0.392 OA
ATOM      9  H   UNL     1     -11.613 -17.608  27.322  1.00  0.00     0.211 HD
ENDBRANCH   1   8
TORSDOF 2
ENDMDL
MODEL 4
REMARK VINA RESULT:    -4.557     11.920     13.538
REMARK INTER + INTRA:          -4.968
REMARK INTER:                  -4.949
REMARK INTRA:                  -0.020
REMARK UNBOUND:                -0.012
REMARK SMILES OCc1ccccc1
REMARK SMILES IDX 2 1 3 2 6 3 5 4 7 5 4 6 8 7 1 8
REMARK H PARENT 1 9
REMARK Flexibility Score: inf
ROOT
ATOM      1  C   UNL     1     -17.372 -15.318  24.494  1.00  0.00     0.191 C 
ENDROOT
BRANCH   1   2
ATOM      2  C   UNL     1     -16.077 -15.561  25.219  1.00  0.00    -0.023 A 
ATOM      3  C   UNL     1     -13.700 -16.014  26.641  1.00  0.00     0.000 A 
ATOM      4  C   UNL     1     -14.506 -17.092  26.264  1.00  0.00     0.000 A 
ATOM      5  C   UNL     1     -14.083 -14.709  26.317  1.00  0.00     0.000 A 
ATOM      6  C   UNL     1     -15.694 -16.869  25.561  1.00  0.00     0.006 A 
ATOM      7  C   UNL     1     -15.271 -14.481  25.614  1.00  0.00     0.006 A 
ENDBRANCH   1   2
BRANCH   1   8
ATOM      8  O   UNL     1     -17.945 -16.538  24.111  1.00  0.00    -0.392 OA
ATOM      9  H   UNL     1     -18.572 -16.336  23.368  1.00  0.00     0.211 HD
ENDBRANCH   1   8
TORSDOF 2
ENDMDL
MODEL 5
REMARK VINA RESULT:    -4.539     10.865     12.357
REMARK INTER + INTRA:          -4.949
REMARK INTER:                  -4.936
REMARK INTRA:                  -0.013
REMARK UNBOUND:                -0.012
REMARK SMILES OCc1ccccc1
REMARK SMILES IDX 2 1 3 2 6 3 5 4 7 5 4 6 8 7 1 8
REMARK H PARENT 1 9
REMARK Flexibility Score: inf
ROOT
ATOM      1  C   UNL     1     -18.768 -16.184  23.263  1.00  0.00     0.191 C 
ENDROOT
BRANCH   1   2
ATOM      2  C   UNL     1     -17.907 -15.401  24.215  1.00  0.00    -0.023 A 
ATOM      3  C   UNL     1     -16.307 -13.875  25.943  1.00  0.00     0.000 A 
ATOM      4  C   UNL     1     -17.694 -13.894  26.109  1.00  0.00     0.000 A 
ATOM      5  C   UNL     1     -15.717 -14.609  24.911  1.00  0.00     0.000 A 
ATOM      6  C   UNL     1     -18.495 -14.649  25.245  1.00  0.00     0.006 A 
ATOM      7  C   UNL     1     -16.513 -15.365  24.044  1.00  0.00     0.006 A 
ENDBRANCH   1   2
BRANCH   1   8
ATOM      8  O   UNL     1     -18.550 -15.751  21.949  1.00  0.00    -0.392 OA
ATOM      9  H   UNL     1     -18.851 -14.806  21.908  1.00  0.00     0.211 HD
ENDBRANCH   1   8
TORSDOF 2
ENDMDL
MODEL 6
REMARK VINA RESULT:    -4.421      8.537      9.786
REMARK INTER + INTRA:          -4.820
REMARK INTER:                  -4.802
REMARK INTRA:                  -0.018
REMARK UNBOUND:                -0.012
REMARK SMILES OCc1ccccc1
REMARK SMILES IDX 2 1 3 2 6 3 5 4 7 5 4 6 8 7 1 8
REMARK H PARENT 1 9
REMARK Flexibility Score: inf
ROOT
ATOM      1  C   UNL     1     -14.199 -21.786  21.154  1.00  0.00     0.191 C 
ENDROOT
BRANCH   1   2
ATOM      2  C   UNL     1     -15.350 -21.400  22.040  1.00  0.00    -0.023 A 
ATOM      3  C   UNL     1     -17.493 -20.606  23.670  1.00  0.00     0.000 A 
ATOM      4  C   UNL     1     -17.726 -20.996  22.348  1.00  0.00     0.000 A 
ATOM      5  C   UNL     1     -16.191 -20.603  24.177  1.00  0.00     0.000 A 
ATOM      6  C   UNL     1     -16.660 -21.387  21.532  1.00  0.00     0.006 A 
ATOM      7  C   UNL     1     -15.120 -20.992  23.364  1.00  0.00     0.006 A 
ENDBRANCH   1   2
BRANCH   1   8
ATOM      8  O   UNL     1     -14.666 -22.500  20.042  1.00  0.00    -0.392 OA
ATOM      9  H   UNL     1     -14.718 -21.854  19.291  1.00  0.00     0.211 HD
ENDBRANCH   1   8
TORSDOF 2
ENDMDL
MODEL 7
REMARK VINA RESULT:    -4.410      8.564      9.779
REMARK INTER + INTRA:          -4.809
REMARK INTER:                  -4.790
REMARK INTRA:                  -0.019
REMARK UNBOUND:                -0.012
REMARK SMILES OCc1ccccc1
REMARK SMILES IDX 2 1 3 2 6 3 5 4 7 5 4 6 8 7 1 8
REMARK H PARENT 1 9
REMARK Flexibility Score: inf
ROOT
ATOM      1  C   UNL     1     -14.224 -21.807  21.214  1.00  0.00     0.191 C 
ENDROOT
BRANCH   1   2
ATOM      2  C   UNL     1     -15.369 -21.352  22.076  1.00  0.00    -0.023 A 
ATOM      3  C   UNL     1     -17.514 -20.575  23.712  1.00  0.00     0.000 A 
ATOM      4  C   UNL     1     -16.210 -20.566  24.216  1.00  0.00     0.000 A 
ATOM      5  C   UNL     1     -17.750 -20.980  22.395  1.00  0.00     0.000 A 
ATOM      6  C   UNL     1     -15.140 -20.958  23.405  1.00  0.00     0.006 A 
ATOM      7  C   UNL     1     -16.683 -21.374  21.580  1.00  0.00     0.006 A 
ENDBRANCH   1   2
BRANCH   1   8
ATOM      8  O   UNL     1     -14.708 -22.525  20.112  1.00  0.00    -0.392 OA
ATOM      9  H   UNL     1     -14.714 -23.481  20.376  1.00  0.00     0.211 HD
ENDBRANCH   1   8
TORSDOF 2
ENDMDL
MODEL 8
REMARK VINA RESULT:    -4.234     13.902     14.412
REMARK INTER + INTRA:          -4.617
REMARK INTER:                  -4.601
REMARK INTRA:                  -0.016
REMARK UNBOUND:                -0.012
REMARK SMILES OCc1ccccc1
REMARK SMILES IDX 2 1 3 2 6 3 5 4 7 5 4 6 8 7 1 8
REMARK H PARENT 1 9
REMARK Flexibility Score: inf
ROOT
ATOM      1  C   UNL     1     -18.903 -31.230  24.861  1.00  0.00     0.191 C 
ENDROOT
BRANCH   1   2
ATOM      2  C   UNL     1     -19.768 -30.046  25.195  1.00  0.00    -0.023 A 
ATOM      3  C   UNL     1     -21.377 -27.813  25.743  1.00  0.00     0.000 A 
ATOM      4  C   UNL     1     -21.960 -29.004  25.300  1.00  0.00     0.000 A 
ATOM      5  C   UNL     1     -19.991 -27.732  25.903  1.00  0.00     0.000 A 
ATOM      6  C   UNL     1     -21.160 -30.117  25.021  1.00  0.00     0.006 A 
ATOM      7  C   UNL     1     -19.186 -28.842  25.625  1.00  0.00     0.006 A 
ENDBRANCH   1   2
BRANCH   1   8
ATOM      8  O   UNL     1     -19.356 -31.839  23.683  1.00  0.00    -0.392 OA
ATOM      9  H   UNL     1     -18.613 -31.779  23.028  1.00  0.00     0.211 HD
ENDBRANCH   1   8
TORSDOF 2
ENDMDL
MODEL 9
REMARK VINA RESULT:    -4.193      8.869     10.341
REMARK INTER + INTRA:          -4.572
REMARK INTER:                  -4.557
REMARK INTRA:                  -0.016
REMARK UNBOUND:                -0.012
REMARK SMILES OCc1ccccc1
REMARK SMILES IDX 2 1 3 2 6 3 5 4 7 5 4 6 8 7 1 8
REMARK H PARENT 1 9
REMARK Flexibility Score: inf
ROOT
ATOM      1  C   UNL     1     -15.247 -20.299  25.281  1.00  0.00     0.191 C 
ENDROOT
BRANCH   1   2
ATOM      2  C   UNL     1     -15.945 -20.747  24.027  1.00  0.00    -0.023 A 
ATOM      3  C   UNL     1     -17.226 -21.515  21.650  1.00  0.00     0.000 A 
ATOM      4  C   UNL     1     -15.871 -21.803  21.840  1.00  0.00     0.000 A 
ATOM      5  C   UNL     1     -17.940 -20.835  22.641  1.00  0.00     0.000 A 
ATOM      6  C   UNL     1     -15.229 -21.417  23.020  1.00  0.00     0.006 A 
ATOM      7  C   UNL     1     -17.301 -20.446  23.824  1.00  0.00     0.006 A 
ENDBRANCH   1   2
BRANCH   1   8
ATOM      8  O   UNL     1     -15.666 -19.008  25.630  1.00  0.00    -0.392 OA
ATOM      9  H   UNL     1     -16.399 -19.117  26.291  1.00  0.00     0.211 HD
ENDBRANCH   1   8
TORSDOF 2
ENDMDL
