MODEL 1
REMARK VINA RESULT:    -3.446      0.000      0.000
REMARK INTER + INTRA:          -4.230
REMARK INTER:                  -4.151
REMARK INTRA:                  -0.079
REMARK UNBOUND:                -0.079
REMARK SMILES CC[C@H](C)[C@H]([NH3+])C(=O)[O-]
REMARK SMILES IDX 3 1 4 2 5 3 6 4 7 8 8 9 9 10 2 11 1 12
REMARK H PARENT 6 5 6 6 6 7
REMARK Flexibility Score: inf
ROOT
ATOM      1  C   UNL     1     212.530 196.894 213.331  1.00  0.00     0.050 C 
ATOM      2  C   UNL     1     213.398 195.764 212.736  1.00  0.00     0.014 C 
ENDROOT
BRANCH   1   3
ATOM      3  C   UNL     1     212.373 198.058 212.301  1.00  0.00     0.230 C 
BRANCH   3   4
ATOM      4  N   UNL     1     211.470 199.114 212.787  1.00  0.00    -0.350 N 
ATOM      5  H   UNL     1     211.334 199.028 213.820  1.00  0.00     0.345 HD
ATOM      6  H   UNL     1     210.543 199.063 212.302  1.00  0.00     0.345 HD
ATOM      7  H   UNL     1     211.890 200.057 212.615  1.00  0.00     0.345 HD
ENDBRANCH   3   4
BRANCH   3   8
ATOM      8  C   UNL     1     211.856 197.539 210.980  1.00  0.00     0.099 C 
ATOM      9  O   UNL     1     210.663 197.150 210.876  1.00  0.00    -0.544 OA
ATOM     10  O   UNL     1     212.695 197.484 209.874  1.00  0.00    -0.544 OA
ENDBRANCH   3   8
ENDBRANCH   1   3
BRANCH   1  11
ATOM     11  C   UNL     1     213.132 197.395 214.672  1.00  0.00     0.006 C 
ATOM     12  C   UNL     1     212.444 196.814 215.909  1.00  0.00     0.004 C 
ENDBRANCH   1  11
TORSDOF 4
ENDMDL
MODEL 2
REMARK VINA RESULT:    -3.438      3.113      4.250
REMARK INTER + INTRA:          -4.221
REMARK INTER:                  -4.142
REMARK INTRA:                  -0.079
REMARK UNBOUND:                -0.079
REMARK SMILES CC[C@H](C)[C@H]([NH3+])C(=O)[O-]
REMARK SMILES IDX 3 1 4 2 5 3 6 4 7 8 8 9 9 10 2 11 1 12
REMARK H PARENT 6 5 6 6 6 7
REMARK Flexibility Score: inf
ROOT
ATOM      1  C   UNL     1     212.184 197.363 212.790  1.00  0.00     0.050 C 
ATOM      2  C   UNL     1     212.104 198.904 212.758  1.00  0.00     0.014 C 
ENDROOT
BRANCH   1   3
ATOM      3  C   UNL     1     213.339 196.898 213.736  1.00  0.00     0.230 C 
BRANCH   3   4
ATOM      4  N   UNL     1     213.581 195.448 213.648  1.00  0.00    -0.350 N 
ATOM      5  H   UNL     1     214.030 195.211 212.734  1.00  0.00     0.345 HD
ATOM      6  H   UNL     1     212.686 194.916 213.754  1.00  0.00     0.345 HD
ATOM      7  H   UNL     1     214.246 195.147 214.398  1.00  0.00     0.345 HD
ENDBRANCH   3   4
BRANCH   3   8
ATOM      8  C   UNL     1     213.034 197.259 215.170  1.00  0.00     0.099 C 
ATOM      9  O   UNL     1     212.146 196.633 215.806  1.00  0.00    -0.544 OA
ATOM     10  O   UNL     1     213.729 198.287 215.794  1.00  0.00    -0.544 OA
ENDBRANCH   3   8
ENDBRANCH   1   3
BRANCH   1  11
ATOM     11  C   UNL     1     212.360 196.796 211.355  1.00  0.00     0.006 C 
ATOM     12  C   UNL     1     211.578 197.569 210.290  1.00  0.00     0.004 C 
ENDBRANCH   1  11
TORSDOF 4
ENDMDL
MODEL 3
REMARK VINA RESULT:    -3.368      1.776      2.451
REMARK INTER + INTRA:          -4.136
REMARK INTER:                  -4.053
REMARK INTRA:                  -0.084
REMARK UNBOUND:                -0.079
REMARK SMILES CC[C@H](C)[C@H]([NH3+])C(=O)[O-]
REMARK SMILES IDX 3 1 4 2 5 3 6 4 7 8 8 9 9 10 2 11 1 12
REMARK H PARENT 6 5 6 6 6 7
REMARK Flexibility Score: inf
ROOT
ATOM      1  C   UNL     1     212.015 197.087 211.460  1.00  0.00     0.050 C 
ATOM      2  C   UNL     1     212.859 196.574 210.273  1.00  0.00     0.014 C 
ENDROOT
BRANCH   1   3
ATOM      3  C   UNL     1     211.750 198.621 211.316  1.00  0.00     0.230 C 
BRANCH   3   4
ATOM      4  N   UNL     1     211.496 199.266 212.615  1.00  0.00    -0.350 N 
ATOM      5  H   UNL     1     212.027 200.163 212.684  1.00  0.00     0.345 HD
ATOM      6  H   UNL     1     211.764 198.631 213.403  1.00  0.00     0.345 HD
ATOM      7  H   UNL     1     210.482 199.508 212.705  1.00  0.00     0.345 HD
ENDBRANCH   3   4
BRANCH   3   8
ATOM      8  C   UNL     1     210.578 198.879 210.401  1.00  0.00     0.099 C 
ATOM      9  O   UNL     1     210.685 199.697 209.449  1.00  0.00    -0.544 OA
ATOM     10  O   UNL     1     209.373 198.219 210.605  1.00  0.00    -0.544 OA
ENDBRANCH   3   8
ENDBRANCH   1   3
BRANCH   1  11
ATOM     11  C   UNL     1     212.708 196.751 212.808  1.00  0.00     0.006 C 
ATOM     12  C   UNL     1     213.613 195.519 212.743  1.00  0.00     0.004 C 
ENDBRANCH   1  11
TORSDOF 4
ENDMDL
MODEL 4
REMARK VINA RESULT:    -3.307      2.280      2.965
REMARK INTER + INTRA:          -4.063
REMARK INTER:                  -3.978
REMARK INTRA:                  -0.085
REMARK UNBOUND:                -0.079
REMARK SMILES CC[C@H](C)[C@H]([NH3+])C(=O)[O-]
REMARK SMILES IDX 3 1 4 2 5 3 6 4 7 8 8 9 9 10 2 11 1 12
REMARK H PARENT 6 5 6 6 6 7
REMARK Flexibility Score: inf
ROOT
ATOM      1  C   UNL     1     212.657 197.374 215.552  1.00  0.00     0.050 C 
ATOM      2  C   UNL     1     211.598 196.772 216.502  1.00  0.00     0.014 C 
ENDROOT
BRANCH   1   3
ATOM      3  C   UNL     1     212.639 196.630 214.177  1.00  0.00     0.230 C 
BRANCH   3   4
ATOM      4  N   UNL     1     213.805 195.748 214.007  1.00  0.00    -0.350 N 
ATOM      5  H   UNL     1     213.518 194.851 213.554  1.00  0.00     0.345 HD
ATOM      6  H   UNL     1     214.260 195.552 214.929  1.00  0.00     0.345 HD
ATOM      7  H   UNL     1     214.507 196.196 213.372  1.00  0.00     0.345 HD
ENDBRANCH   3   4
BRANCH   3   8
ATOM      8  C   UNL     1     212.597 197.617 213.035  1.00  0.00     0.099 C 
ATOM      9  O   UNL     1     212.504 197.207 211.848  1.00  0.00    -0.544 OA
ATOM     10  O   UNL     1     212.666 198.981 213.286  1.00  0.00    -0.544 OA
ENDBRANCH   3   8
ENDBRANCH   1   3
BRANCH   1  11
ATOM     11  C   UNL     1     214.064 197.331 216.206  1.00  0.00     0.006 C 
ATOM     12  C   UNL     1     214.125 196.478 217.475  1.00  0.00     0.004 C 
ENDBRANCH   1  11
TORSDOF 4
ENDMDL
MODEL 5
REMARK VINA RESULT:    -3.269      2.325      3.861
REMARK INTER + INTRA:          -4.018
REMARK INTER:                  -3.948
REMARK INTRA:                  -0.069
REMARK UNBOUND:                -0.079
REMARK SMILES CC[C@H](C)[C@H]([NH3+])C(=O)[O-]
REMARK SMILES IDX 3 1 4 2 5 3 6 4 7 8 8 9 9 10 2 11 1 12
REMARK H PARENT 6 5 6 6 6 7
REMARK Flexibility Score: inf
ROOT
ATOM      1  C   UNL     1     212.503 197.400 211.422  1.00  0.00     0.050 C 
ATOM      2  C   UNL     1     212.830 195.900 211.587  1.00  0.00     0.014 C 
ENDROOT
BRANCH   1   3
ATOM      3  C   UNL     1     211.853 197.962 212.728  1.00  0.00     0.230 C 
BRANCH   3   4
ATOM      4  N   UNL     1     211.543 199.398 212.622  1.00  0.00    -0.350 N 
ATOM      5  H   UNL     1     211.131 199.611 211.686  1.00  0.00     0.345 HD
ATOM      6  H   UNL     1     212.404 199.975 212.772  1.00  0.00     0.345 HD
ATOM      7  H   UNL     1     210.827 199.666 213.336  1.00  0.00     0.345 HD
ENDBRANCH   3   4
BRANCH   3   8
ATOM      8  C   UNL     1     212.759 197.741 213.915  1.00  0.00     0.099 C 
ATOM      9  O   UNL     1     213.777 198.466 214.079  1.00  0.00    -0.544 OA
ATOM     10  O   UNL     1     212.479 196.735 214.830  1.00  0.00    -0.544 OA
ENDBRANCH   3   8
ENDBRANCH   1   3
BRANCH   1  11
ATOM     11  C   UNL     1     211.589 197.626 210.187  1.00  0.00     0.006 C 
ATOM     12  C   UNL     1     212.224 198.505 209.107  1.00  0.00     0.004 C 
ENDBRANCH   1  11
TORSDOF 4
ENDMDL
MODEL 6
REMARK VINA RESULT:    -3.264      2.482      3.308
REMARK INTER + INTRA:          -4.012
REMARK INTER:                  -3.959
REMARK INTRA:                  -0.052
REMARK UNBOUND:                -0.079
REMARK SMILES CC[C@H](C)[C@H]([NH3+])C(=O)[O-]
REMARK SMILES IDX 3 1 4 2 5 3 6 4 7 8 8 9 9 10 2 11 1 12
REMARK H PARENT 6 5 6 6 6 7
REMARK Flexibility Score: inf
ROOT
ATOM      1  C   UNL     1     212.194 197.762 211.179  1.00  0.00     0.050 C 
ATOM      2  C   UNL     1     211.658 198.672 212.306  1.00  0.00     0.014 C 
ENDROOT
BRANCH   1   3
ATOM      3  C   UNL     1     211.298 197.889 209.905  1.00  0.00     0.230 C 
BRANCH   3   4
ATOM      4  N   UNL     1     211.640 196.887 208.882  1.00  0.00    -0.350 N 
ATOM      5  H   UNL     1     211.689 197.334 207.939  1.00  0.00     0.345 HD
ATOM      6  H   UNL     1     210.935 196.112 208.872  1.00  0.00     0.345 HD
ATOM      7  H   UNL     1     212.585 196.482 209.075  1.00  0.00     0.345 HD
ENDBRANCH   3   4
BRANCH   3   8
ATOM      8  C   UNL     1     211.416 199.268 209.302  1.00  0.00     0.099 C 
ATOM      9  O   UNL     1     212.416 199.568 208.598  1.00  0.00    -0.544 OA
ATOM     10  O   UNL     1     210.424 200.215 209.522  1.00  0.00    -0.544 OA
ENDBRANCH   3   8
ENDBRANCH   1   3
BRANCH   1  11
ATOM     11  C   UNL     1     212.292 196.291 211.665  1.00  0.00     0.006 C 
ATOM     12  C   UNL     1     213.220 196.102 212.867  1.00  0.00     0.004 C 
ENDBRANCH   1  11
TORSDOF 4
ENDMDL
MODEL 7
REMARK VINA RESULT:    -3.229      2.597      4.132
REMARK INTER + INTRA:          -3.969
REMARK INTER:                  -3.838
REMARK INTRA:                  -0.131
REMARK UNBOUND:                -0.079
REMARK SMILES CC[C@H](C)[C@H]([NH3+])C(=O)[O-]
REMARK SMILES IDX 3 1 4 2 5 3 6 4 7 8 8 9 9 10 2 11 1 12
REMARK H PARENT 6 5 6 6 6 7
REMARK Flexibility Score: inf
ROOT
ATOM      1  C   UNL     1     212.810 197.065 209.989  1.00  0.00     0.050 C 
ATOM      2  C   UNL     1     213.490 195.682 209.898  1.00  0.00     0.014 C 
ENDROOT
BRANCH   1   3
ATOM      3  C   UNL     1     211.669 197.040 211.057  1.00  0.00     0.230 C 
BRANCH   3   4
ATOM      4  N   UNL     1     210.346 197.295 210.464  1.00  0.00    -0.350 N 
ATOM      5  H   UNL     1     210.138 198.319 210.469  1.00  0.00     0.345 HD
ATOM      6  H   UNL     1     209.599 196.778 210.985  1.00  0.00     0.345 HD
ATOM      7  H   UNL     1     210.333 196.990 209.463  1.00  0.00     0.345 HD
ENDBRANCH   3   4
BRANCH   3   8
ATOM      8  C   UNL     1     211.927 198.059 212.141  1.00  0.00     0.099 C 
ATOM      9  O   UNL     1     211.564 199.255 211.985  1.00  0.00    -0.544 OA
ATOM     10  O   UNL     1     212.569 197.685 213.314  1.00  0.00    -0.544 OA
ENDBRANCH   3   8
ENDBRANCH   1   3
BRANCH   1  11
ATOM     11  C   UNL     1     212.280 197.504 208.598  1.00  0.00     0.006 C 
ATOM     12  C   UNL     1     212.659 198.939 208.222  1.00  0.00     0.004 C 
ENDBRANCH   1  11
TORSDOF 4
ENDMDL
MODEL 8
REMARK VINA RESULT:    -3.149      2.493      4.101
REMARK INTER + INTRA:          -3.873
REMARK INTER:                  -3.807
REMARK INTRA:                  -0.066
REMARK UNBOUND:                -0.079
REMARK SMILES CC[C@H](C)[C@H]([NH3+])C(=O)[O-]
REMARK SMILES IDX 3 1 4 2 5 3 6 4 7 8 8 9 9 10 2 11 1 12
REMARK H PARENT 6 5 6 6 6 7
REMARK Flexibility Score: inf
ROOT
ATOM      1  C   UNL     1     211.854 198.187 210.495  1.00  0.00     0.050 C 
ATOM      2  C   UNL     1     212.411 198.093 209.058  1.00  0.00     0.014 C 
ENDROOT
BRANCH   1   3
ATOM      3  C   UNL     1     212.488 197.080 211.398  1.00  0.00     0.230 C 
BRANCH   3   4
ATOM      4  N   UNL     1     211.755 195.806 211.315  1.00  0.00    -0.350 N 
ATOM      5  H   UNL     1     210.730 195.969 211.438  1.00  0.00     0.345 HD
ATOM      6  H   UNL     1     212.097 195.133 212.040  1.00  0.00     0.345 HD
ATOM      7  H   UNL     1     211.880 195.378 210.368  1.00  0.00     0.345 HD
ENDBRANCH   3   4
BRANCH   3   8
ATOM      8  C   UNL     1     212.537 197.526 212.840  1.00  0.00     0.099 C 
ATOM      9  O   UNL     1     212.445 198.749 213.127  1.00  0.00    -0.544 OA
ATOM     10  O   UNL     1     212.690 196.592 213.856  1.00  0.00    -0.544 OA
ENDBRANCH   3   8
ENDBRANCH   1   3
BRANCH   1  11
ATOM     11  C   UNL     1     210.304 198.098 210.486  1.00  0.00     0.006 C 
ATOM     12  C   UNL     1     209.617 199.396 210.059  1.00  0.00     0.004 C 
ENDBRANCH   1  11
TORSDOF 4
ENDMDL
MODEL 9
REMARK VINA RESULT:    -3.070      7.831      8.767
REMARK INTER + INTRA:          -3.777
REMARK INTER:                  -3.712
REMARK INTRA:                  -0.065
REMARK UNBOUND:                -0.079
REMARK SMILES CC[C@H](C)[C@H]([NH3+])C(=O)[O-]
REMARK SMILES IDX 3 1 4 2 5 3 6 4 7 8 8 9 9 10 2 11 1 12
REMARK H PARENT 6 5 6 6 6 7
REMARK Flexibility Score: inf
ROOT
ATOM      1  C   UNL     1     208.584 203.134 208.245  1.00  0.00     0.050 C 
ATOM      2  C   UNL     1     207.437 203.016 207.218  1.00  0.00     0.014 C 
ENDROOT
BRANCH   1   3
ATOM      3  C   UNL     1     209.925 203.490 207.524  1.00  0.00     0.230 C 
BRANCH   3   4
ATOM      4  N   UNL     1     211.092 202.891 208.191  1.00  0.00    -0.350 N 
ATOM      5  H   UNL     1     210.804 202.050 208.739  1.00  0.00     0.345 HD
ATOM      6  H   UNL     1     211.555 203.586 208.823  1.00  0.00     0.345 HD
ATOM      7  H   UNL     1     211.787 202.566 207.480  1.00  0.00     0.345 HD
ENDBRANCH   3   4
BRANCH   3   8
ATOM      8  C   UNL     1     210.113 204.987 207.452  1.00  0.00     0.099 C 
ATOM      9  O   UNL     1     211.038 205.476 206.751  1.00  0.00    -0.544 OA
ATOM     10  O   UNL     1     209.271 205.832 208.163  1.00  0.00    -0.544 OA
ENDBRANCH   3   8
ENDBRANCH   1   3
BRANCH   1  11
ATOM     11  C   UNL     1     208.712 201.827 209.073  1.00  0.00     0.006 C 
ATOM     12  C   UNL     1     207.365 201.211 209.459  1.00  0.00     0.004 C 
ENDBRANCH   1  11
TORSDOF 4
ENDMDL
