MODEL 1
REMARK VINA RESULT:    -4.135      0.000      0.000
REMARK INTER + INTRA:          -9.296
REMARK INTER:                  -7.761
REMARK INTRA:                  -1.534
REMARK UNBOUND:                -1.534
REMARK SMILES O=C([O-])CCCCCCCCCCCCCCC(=O)[O-]
REMARK SMILES IDX 10 1 9 2 8 3 7 4 6 5 5 6 4 7 2 8 1 9 3 10 11 11 12 12 13 13
REMARK SMILES IDX 14 14 15 15 16 16 17 17 18 18 19 19 20 20
REMARK H PARENT
REMARK Flexibility Score: inf
ROOT
ATOM      1  C   UNL     1       4.841  12.565   6.285  1.00  0.00     0.000 C 
ENDROOT
BRANCH   1   2
ATOM      2  C   UNL     1       4.534  13.955   6.861  1.00  0.00     0.000 C 
BRANCH   2   3
ATOM      3  C   UNL     1       5.607  14.433   7.857  1.00  0.00     0.000 C 
BRANCH   3   4
ATOM      4  C   UNL     1       6.988  13.811   7.564  1.00  0.00     0.000 C 
BRANCH   4   5
ATOM      5  C   UNL     1       7.558  12.997   8.739  1.00  0.00     0.000 C 
BRANCH   5   6
ATOM      6  C   UNL     1       8.364  11.772   8.282  1.00  0.00     0.006 C 
BRANCH   6   7
ATOM      7  C   UNL     1       8.207  11.543   6.775  1.00  0.00     0.053 C 
BRANCH   7   8
ATOM      8  C   UNL     1       9.281  10.633   6.269  1.00  0.00     0.041 C 
ATOM      9  O   UNL     1       9.780   9.758   7.025  1.00  0.00    -0.550 OA
ATOM     10  O   UNL     1       9.704  10.724   4.950  1.00  0.00    -0.550 OA
ENDBRANCH   7   8
ENDBRANCH   6   7
ENDBRANCH   5   6
ENDBRANCH   4   5
ENDBRANCH   3   4
ENDBRANCH   2   3
ENDBRANCH   1   2
BRANCH   1  11
ATOM     11  C   UNL     1       3.993  11.457   6.932  1.00  0.00     0.000 C 
BRANCH  11  12
ATOM     12  C   UNL     1       4.844  10.309   7.510  1.00  0.00     0.000 C 
BRANCH  12  13
ATOM     13  C   UNL     1       4.840  10.205   9.046  1.00  0.00     0.000 C 
BRANCH  13  14
ATOM     14  C   UNL     1       3.810   9.192   9.576  1.00  0.00     0.000 C 
BRANCH  14  15
ATOM     15  C   UNL     1       4.393   7.776   9.704  1.00  0.00     0.000 C 
BRANCH  15  16
ATOM     16  C   UNL     1       3.812   6.800   8.667  1.00  0.00     0.006 C 
BRANCH  16  17
ATOM     17  C   UNL     1       3.505   5.425   9.278  1.00  0.00     0.053 C 
BRANCH  17  18
ATOM     18  C   UNL     1       2.812   4.528   8.300  1.00  0.00     0.041 C 
ATOM     19  O   UNL     1       2.973   4.692   7.063  1.00  0.00    -0.550 OA
ATOM     20  O   UNL     1       1.961   3.530   8.756  1.00  0.00    -0.550 OA
ENDBRANCH  17  18
ENDBRANCH  16  17
ENDBRANCH  15  16
ENDBRANCH  14  15
ENDBRANCH  13  14
ENDBRANCH  12  13
ENDBRANCH  11  12
ENDBRANCH   1  11
TORSDOF 15
ENDMDL
MODEL 2
REMARK VINA RESULT:    -3.968      3.791      5.994
REMARK INTER + INTRA:          -8.981
REMARK INTER:                  -8.142
REMARK INTRA:                  -0.839
REMARK UNBOUND:                -1.534
REMARK SMILES O=C([O-])CCCCCCCCCCCCCCC(=O)[O-]
REMARK SMILES IDX 10 1 9 2 8 3 7 4 6 5 5 6 4 7 2 8 1 9 3 10 11 11 12 12 13 13
REMARK SMILES IDX 14 14 15 15 16 16 17 17 18 18 19 19 20 20
REMARK H PARENT
REMARK Flexibility Score: inf
ROOT
ATOM      1  C   UNL     1       3.688   6.606  10.051  1.00  0.00     0.000 C 
ENDROOT
BRANCH   1   2
ATOM      2  C   UNL     1       4.114   7.402   8.807  1.00  0.00     0.000 C 
BRANCH   2   3
ATOM      3  C   UNL     1       4.121   8.922   9.052  1.00  0.00     0.000 C 
BRANCH   3   4
ATOM      4  C   UNL     1       5.328   9.611   8.381  1.00  0.00     0.000 C 
BRANCH   4   5
ATOM      5  C   UNL     1       4.986  10.280   7.038  1.00  0.00     0.000 C 
BRANCH   5   6
ATOM      6  C   UNL     1       4.130  11.545   7.202  1.00  0.00     0.006 C 
BRANCH   6   7
ATOM      7  C   UNL     1       4.712  12.710   6.394  1.00  0.00     0.053 C 
BRANCH   7   8
ATOM      8  C   UNL     1       5.431  13.663   7.294  1.00  0.00     0.041 C 
ATOM      9  O   UNL     1       5.893  14.742   6.837  1.00  0.00    -0.550 OA
ATOM     10  O   UNL     1       5.559  13.380   8.647  1.00  0.00    -0.550 OA
ENDBRANCH   7   8
ENDBRANCH   6   7
ENDBRANCH   5   6
ENDBRANCH   4   5
ENDBRANCH   3   4
ENDBRANCH   2   3
ENDBRANCH   1   2
BRANCH   1  11
ATOM     11  C   UNL     1       3.122   5.220   9.700  1.00  0.00     0.000 C 
BRANCH  11  12
ATOM     12  C   UNL     1       3.057   4.965   8.182  1.00  0.00     0.000 C 
BRANCH  12  13
ATOM     13  C   UNL     1       3.918   3.791   7.680  1.00  0.00     0.000 C 
BRANCH  13  14
ATOM     14  C   UNL     1       5.379   3.870   8.159  1.00  0.00     0.000 C 
BRANCH  14  15
ATOM     15  C   UNL     1       6.130   2.543   7.967  1.00  0.00     0.000 C 
BRANCH  15  16
ATOM     16  C   UNL     1       7.479   2.726   7.250  1.00  0.00     0.006 C 
BRANCH  16  17
ATOM     17  C   UNL     1       7.309   3.307   5.839  1.00  0.00     0.053 C 
BRANCH  17  18
ATOM     18  C   UNL     1       8.191   2.616   4.846  1.00  0.00     0.041 C 
ATOM     19  O   UNL     1       8.514   1.412   5.014  1.00  0.00    -0.550 OA
ATOM     20  O   UNL     1       8.684   3.314   3.752  1.00  0.00    -0.550 OA
ENDBRANCH  17  18
ENDBRANCH  16  17
ENDBRANCH  15  16
ENDBRANCH  14  15
ENDBRANCH  13  14
ENDBRANCH  12  13
ENDBRANCH  11  12
ENDBRANCH   1  11
TORSDOF 15
ENDMDL
MODEL 3
REMARK VINA RESULT:    -3.954     14.401     16.907
REMARK INTER + INTRA:          -8.955
REMARK INTER:                  -7.934
REMARK INTRA:                  -1.021
REMARK UNBOUND:                -1.534
REMARK SMILES O=C([O-])CCCCCCCCCCCCCCC(=O)[O-]
REMARK SMILES IDX 10 1 9 2 8 3 7 4 6 5 5 6 4 7 2 8 1 9 3 10 11 11 12 12 13 13
REMARK SMILES IDX 14 14 15 15 16 16 17 17 18 18 19 19 20 20
REMARK H PARENT
REMARK Flexibility Score: inf
ROOT
ATOM      1  C   UNL     1       5.028   6.878  -8.220  1.00  0.00     0.000 C 
ENDROOT
BRANCH   1   2
ATOM      2  C   UNL     1       3.717   6.768  -9.014  1.00  0.00     0.000 C 
BRANCH   2   3
ATOM      3  C   UNL     1       3.394   5.319  -9.424  1.00  0.00     0.000 C 
BRANCH   3   4
ATOM      4  C   UNL     1       4.601   4.378  -9.226  1.00  0.00     0.000 C 
BRANCH   4   5
ATOM      5  C   UNL     1       4.235   3.042  -8.557  1.00  0.00     0.000 C 
BRANCH   5   6
ATOM      6  C   UNL     1       5.458   2.295  -8.005  1.00  0.00     0.006 C 
BRANCH   6   7
ATOM      7  C   UNL     1       5.123   0.827  -7.723  1.00  0.00     0.053 C 
BRANCH   7   8
ATOM      8  C   UNL     1       4.757   0.639  -6.285  1.00  0.00     0.041 C 
ATOM      9  O   UNL     1       5.323   1.322  -5.391  1.00  0.00    -0.550 OA
ATOM     10  O   UNL     1       3.762  -0.263  -5.933  1.00  0.00    -0.550 OA
ENDBRANCH   7   8
ENDBRANCH   6   7
ENDBRANCH   5   6
ENDBRANCH   4   5
ENDBRANCH   3   4
ENDBRANCH   2   3
ENDBRANCH   1   2
BRANCH   1  11
ATOM     11  C   UNL     1       5.173   8.231  -7.503  1.00  0.00     0.000 C 
BRANCH  11  12
ATOM     12  C   UNL     1       4.075   9.238  -7.897  1.00  0.00     0.000 C 
BRANCH  12  13
ATOM     13  C   UNL     1       4.522  10.712  -7.926  1.00  0.00     0.000 C 
BRANCH  13  14
ATOM     14  C   UNL     1       6.034  10.885  -7.694  1.00  0.00     0.000 C 
BRANCH  14  15
ATOM     15  C   UNL     1       6.355  12.103  -6.814  1.00  0.00     0.000 C 
BRANCH  15  16
ATOM     16  C   UNL     1       7.419  11.798  -5.745  1.00  0.00     0.006 C 
BRANCH  16  17
ATOM     17  C   UNL     1       8.026  10.399  -5.920  1.00  0.00     0.053 C 
BRANCH  17  18
ATOM     18  C   UNL     1       8.052   9.642  -4.628  1.00  0.00     0.041 C 
ATOM     19  O   UNL     1       7.382   8.584  -4.498  1.00  0.00    -0.550 OA
ATOM     20  O   UNL     1       8.790  10.124  -3.556  1.00  0.00    -0.550 OA
ENDBRANCH  17  18
ENDBRANCH  16  17
ENDBRANCH  15  16
ENDBRANCH  14  15
ENDBRANCH  13  14
ENDBRANCH  12  13
ENDBRANCH  11  12
ENDBRANCH   1  11
TORSDOF 15
ENDMDL
MODEL 4
REMARK VINA RESULT:    -3.894      3.730      8.069
REMARK INTER + INTRA:          -8.843
REMARK INTER:                  -8.049
REMARK INTRA:                  -0.794
REMARK UNBOUND:                -1.534
REMARK SMILES O=C([O-])CCCCCCCCCCCCCCC(=O)[O-]
REMARK SMILES IDX 10 1 9 2 8 3 7 4 6 5 5 6 4 7 2 8 1 9 3 10 11 11 12 12 13 13
REMARK SMILES IDX 14 14 15 15 16 16 17 17 18 18 19 19 20 20
REMARK H PARENT
REMARK Flexibility Score: inf
ROOT
ATOM      1  C   UNL     1       2.835   4.554   9.356  1.00  0.00     0.000 C 
ENDROOT
BRANCH   1   2
ATOM      2  C   UNL     1       2.627   4.652   7.837  1.00  0.00     0.000 C 
BRANCH   2   3
ATOM      3  C   UNL     1       3.659   3.828   7.045  1.00  0.00     0.000 C 
BRANCH   3   4
ATOM      4  C   UNL     1       4.653   3.097   7.972  1.00  0.00     0.000 C 
BRANCH   4   5
ATOM      5  C   UNL     1       6.110   3.560   7.799  1.00  0.00     0.000 C 
BRANCH   5   6
ATOM      6  C   UNL     1       6.556   3.592   6.330  1.00  0.00     0.006 C 
BRANCH   6   7
ATOM      7  C   UNL     1       8.054   3.297   6.205  1.00  0.00     0.053 C 
BRANCH   7   8
ATOM      8  C   UNL     1       8.325   2.467   4.991  1.00  0.00     0.041 C 
ATOM      9  O   UNL     1       8.262   1.211   5.054  1.00  0.00    -0.550 OA
ATOM     10  O   UNL     1       8.610   3.081   3.779  1.00  0.00    -0.550 OA
ENDBRANCH   7   8
ENDBRANCH   6   7
ENDBRANCH   5   6
ENDBRANCH   4   5
ENDBRANCH   3   4
ENDBRANCH   2   3
ENDBRANCH   1   2
BRANCH   1  11
ATOM     11  C   UNL     1       3.357   5.866   9.967  1.00  0.00     0.000 C 
BRANCH  11  12
ATOM     12  C   UNL     1       4.030   6.784   8.928  1.00  0.00     0.000 C 
BRANCH  12  13
ATOM     13  C   UNL     1       4.603   8.097   9.493  1.00  0.00     0.000 C 
BRANCH  13  14
ATOM     14  C   UNL     1       3.891   9.347   8.945  1.00  0.00     0.000 C 
BRANCH  14  15
ATOM     15  C   UNL     1       4.689  10.028   7.822  1.00  0.00     0.000 C 
BRANCH  15  16
ATOM     16  C   UNL     1       3.958  11.247   7.232  1.00  0.00     0.006 C 
BRANCH  16  17
ATOM     17  C   UNL     1       4.904  12.157   6.436  1.00  0.00     0.053 C 
BRANCH  17  18
ATOM     18  C   UNL     1       5.374  13.319   7.257  1.00  0.00     0.041 C 
ATOM     19  O   UNL     1       5.443  13.224   8.510  1.00  0.00    -0.550 OA
ATOM     20  O   UNL     1       5.703  14.517   6.639  1.00  0.00    -0.550 OA
ENDBRANCH  17  18
ENDBRANCH  16  17
ENDBRANCH  15  16
ENDBRANCH  14  15
ENDBRANCH  13  14
ENDBRANCH  12  13
ENDBRANCH  11  12
ENDBRANCH   1  11
TORSDOF 15
ENDMDL
MODEL 5
REMARK VINA RESULT:    -3.849     15.472     17.318
REMARK INTER + INTRA:          -8.758
REMARK INTER:                  -7.054
REMARK INTRA:                  -1.703
REMARK UNBOUND:                -1.534
REMARK SMILES O=C([O-])CCCCCCCCCCCCCCC(=O)[O-]
REMARK SMILES IDX 10 1 9 2 8 3 7 4 6 5 5 6 4 7 2 8 1 9 3 10 11 11 12 12 13 13
REMARK SMILES IDX 14 14 15 15 16 16 17 17 18 18 19 19 20 20
REMARK H PARENT
REMARK Flexibility Score: inf
ROOT
ATOM      1  C   UNL     1       3.246   7.145  -9.492  1.00  0.00     0.000 C 
ENDROOT
BRANCH   1   2
ATOM      2  C   UNL     1       2.157   6.094  -9.231  1.00  0.00     0.000 C 
BRANCH   2   3
ATOM      3  C   UNL     1       2.696   4.653  -9.309  1.00  0.00     0.000 C 
BRANCH   3   4
ATOM      4  C   UNL     1       4.215   4.616  -9.581  1.00  0.00     0.000 C 
BRANCH   4   5
ATOM      5  C   UNL     1       4.990   3.703  -8.615  1.00  0.00     0.000 C 
BRANCH   5   6
ATOM      6  C   UNL     1       4.158   2.510  -8.123  1.00  0.00     0.006 C 
BRANCH   6   7
ATOM      7  C   UNL     1       5.062   1.357  -7.675  1.00  0.00     0.053 C 
BRANCH   7   8
ATOM      8  C   UNL     1       4.611   0.819  -6.355  1.00  0.00     0.041 C 
ATOM      9  O   UNL     1       3.541   0.159  -6.271  1.00  0.00    -0.550 OA
ATOM     10  O   UNL     1       5.391   1.011  -5.222  1.00  0.00    -0.550 OA
ENDBRANCH   7   8
ENDBRANCH   6   7
ENDBRANCH   5   6
ENDBRANCH   4   5
ENDBRANCH   3   4
ENDBRANCH   2   3
ENDBRANCH   1   2
BRANCH   1  11
ATOM     11  C   UNL     1       3.293   8.231  -8.403  1.00  0.00     0.000 C 
BRANCH  11  12
ATOM     12  C   UNL     1       4.728   8.576  -7.961  1.00  0.00     0.000 C 
BRANCH  12  13
ATOM     13  C   UNL     1       5.484   7.434  -7.256  1.00  0.00     0.000 C 
BRANCH  13  14
ATOM     14  C   UNL     1       6.743   6.987  -8.021  1.00  0.00     0.000 C 
BRANCH  14  15
ATOM     15  C   UNL     1       8.039   7.366  -7.287  1.00  0.00     0.000 C 
BRANCH  15  16
ATOM     16  C   UNL     1       9.092   6.244  -7.329  1.00  0.00     0.006 C 
BRANCH  16  17
ATOM     17  C   UNL     1       8.484   4.897  -7.743  1.00  0.00     0.053 C 
BRANCH  17  18
ATOM     18  C   UNL     1       8.558   3.893  -6.635  1.00  0.00     0.041 C 
ATOM     19  O   UNL     1       9.671   3.434  -6.268  1.00  0.00    -0.550 OA
ATOM     20  O   UNL     1       7.394   3.437  -6.032  1.00  0.00    -0.550 OA
ENDBRANCH  17  18
ENDBRANCH  16  17
ENDBRANCH  15  16
ENDBRANCH  14  15
ENDBRANCH  13  14
ENDBRANCH  12  13
ENDBRANCH  11  12
ENDBRANCH   1  11
TORSDOF 15
ENDMDL
MODEL 6
REMARK VINA RESULT:    -3.803     14.926     17.173
REMARK INTER + INTRA:          -8.671
REMARK INTER:                  -7.333
REMARK INTRA:                  -1.338
REMARK UNBOUND:                -1.534
REMARK SMILES O=C([O-])CCCCCCCCCCCCCCC(=O)[O-]
REMARK SMILES IDX 10 1 9 2 8 3 7 4 6 5 5 6 4 7 2 8 1 9 3 10 11 11 12 12 13 13
REMARK SMILES IDX 14 14 15 15 16 16 17 17 18 18 19 19 20 20
REMARK H PARENT
REMARK Flexibility Score: inf
ROOT
ATOM      1  C   UNL     1       2.019   7.324  -9.271  1.00  0.00     0.000 C 
ENDROOT
BRANCH   1   2
ATOM      2  C   UNL     1       1.872   5.810  -9.491  1.00  0.00     0.000 C 
BRANCH   2   3
ATOM      3  C   UNL     1       3.214   5.128  -9.818  1.00  0.00     0.000 C 
BRANCH   3   4
ATOM      4  C   UNL     1       3.448   3.868  -8.958  1.00  0.00     0.000 C 
BRANCH   4   5
ATOM      5  C   UNL     1       4.570   2.960  -9.491  1.00  0.00     0.000 C 
BRANCH   5   6
ATOM      6  C   UNL     1       5.304   2.200  -8.376  1.00  0.00     0.006 C 
BRANCH   6   7
ATOM      7  C   UNL     1       4.383   1.965  -7.174  1.00  0.00     0.053 C 
BRANCH   7   8
ATOM      8  C   UNL     1       5.174   1.515  -5.988  1.00  0.00     0.041 C 
ATOM      9  O   UNL     1       5.791   2.355  -5.280  1.00  0.00    -0.550 OA
ATOM     10  O   UNL     1       5.199   0.171  -5.639  1.00  0.00    -0.550 OA
ENDBRANCH   7   8
ENDBRANCH   6   7
ENDBRANCH   5   6
ENDBRANCH   4   5
ENDBRANCH   3   4
ENDBRANCH   2   3
ENDBRANCH   1   2
BRANCH   1  11
ATOM     11  C   UNL     1       3.489   7.773  -9.217  1.00  0.00     0.000 C 
BRANCH  11  12
ATOM     12  C   UNL     1       3.845   8.504  -7.908  1.00  0.00     0.000 C 
BRANCH  12  13
ATOM     13  C   UNL     1       5.206   8.121  -7.298  1.00  0.00     0.000 C 
BRANCH  13  14
ATOM     14  C   UNL     1       5.731   6.765  -7.804  1.00  0.00     0.000 C 
BRANCH  14  15
ATOM     15  C   UNL     1       7.266   6.692  -7.796  1.00  0.00     0.000 C 
BRANCH  15  16
ATOM     16  C   UNL     1       7.922   8.048  -7.480  1.00  0.00     0.006 C 
BRANCH  16  17
ATOM     17  C   UNL     1       8.715   8.012  -6.167  1.00  0.00     0.053 C 
BRANCH  17  18
ATOM     18  C   UNL     1       8.229   9.044  -5.197  1.00  0.00     0.041 C 
ATOM     19  O   UNL     1       7.742   8.696  -4.090  1.00  0.00    -0.550 OA
ATOM     20  O   UNL     1       8.283  10.390  -5.532  1.00  0.00    -0.550 OA
ENDBRANCH  17  18
ENDBRANCH  16  17
ENDBRANCH  15  16
ENDBRANCH  14  15
ENDBRANCH  13  14
ENDBRANCH  12  13
ENDBRANCH  11  12
ENDBRANCH   1  11
TORSDOF 15
ENDMDL
MODEL 7
REMARK VINA RESULT:    -3.793      1.979      7.989
REMARK INTER + INTRA:          -8.653
REMARK INTER:                  -7.518
REMARK INTRA:                  -1.135
REMARK UNBOUND:                -1.534
REMARK SMILES O=C([O-])CCCCCCCCCCCCCCC(=O)[O-]
REMARK SMILES IDX 10 1 9 2 8 3 7 4 6 5 5 6 4 7 2 8 1 9 3 10 11 11 12 12 13 13
REMARK SMILES IDX 14 14 15 15 16 16 17 17 18 18 19 19 20 20
REMARK H PARENT
REMARK Flexibility Score: inf
ROOT
ATOM      1  C   UNL     1       3.931   9.488   9.259  1.00  0.00     0.000 C 
ENDROOT
BRANCH   1   2
ATOM      2  C   UNL     1       4.715   8.213   9.604  1.00  0.00     0.000 C 
BRANCH   2   3
ATOM      3  C   UNL     1       4.068   6.944   9.019  1.00  0.00     0.000 C 
BRANCH   3   4
ATOM      4  C   UNL     1       3.324   6.124  10.094  1.00  0.00     0.000 C 
BRANCH   4   5
ATOM      5  C   UNL     1       3.531   4.605   9.961  1.00  0.00     0.000 C 
BRANCH   5   6
ATOM      6  C   UNL     1       2.621   3.968   8.900  1.00  0.00     0.006 C 
BRANCH   6   7
ATOM      7  C   UNL     1       3.420   3.048   7.972  1.00  0.00     0.053 C 
BRANCH   7   8
ATOM      8  C   UNL     1       4.487   3.819   7.262  1.00  0.00     0.041 C 
ATOM      9  O   UNL     1       4.187   4.600   6.321  1.00  0.00    -0.550 OA
ATOM     10  O   UNL     1       5.811   3.705   7.664  1.00  0.00    -0.550 OA
ENDBRANCH   7   8
ENDBRANCH   6   7
ENDBRANCH   5   6
ENDBRANCH   4   5
ENDBRANCH   3   4
ENDBRANCH   2   3
ENDBRANCH   1   2
BRANCH   1  11
ATOM     11  C   UNL     1       4.818  10.571   8.620  1.00  0.00     0.000 C 
BRANCH  11  12
ATOM     12  C   UNL     1       5.229  10.234   7.175  1.00  0.00     0.000 C 
BRANCH  12  13
ATOM     13  C   UNL     1       4.992  11.359   6.150  1.00  0.00     0.000 C 
BRANCH  13  14
ATOM     14  C   UNL     1       4.087  12.481   6.689  1.00  0.00     0.000 C 
BRANCH  14  15
ATOM     15  C   UNL     1       4.664  13.879   6.418  1.00  0.00     0.000 C 
BRANCH  15  16
ATOM     16  C   UNL     1       5.395  14.465   7.639  1.00  0.00     0.006 C 
BRANCH  16  17
ATOM     17  C   UNL     1       6.817  14.927   7.293  1.00  0.00     0.053 C 
BRANCH  17  18
ATOM     18  C   UNL     1       7.825  13.848   7.543  1.00  0.00     0.041 C 
ATOM     19  O   UNL     1       8.936  13.868   6.951  1.00  0.00    -0.550 OA
ATOM     20  O   UNL     1       7.524  12.802   8.405  1.00  0.00    -0.550 OA
ENDBRANCH  17  18
ENDBRANCH  16  17
ENDBRANCH  15  16
ENDBRANCH  14  15
ENDBRANCH  13  14
ENDBRANCH  12  13
ENDBRANCH  11  12
ENDBRANCH   1  11
TORSDOF 15
ENDMDL
MODEL 8
REMARK VINA RESULT:    -3.781      3.929      6.623
REMARK INTER + INTRA:          -8.631
REMARK INTER:                  -7.433
REMARK INTRA:                  -1.198
REMARK UNBOUND:                -1.534
REMARK SMILES O=C([O-])CCCCCCCCCCCCCCC(=O)[O-]
REMARK SMILES IDX 10 1 9 2 8 3 7 4 6 5 5 6 4 7 2 8 1 9 3 10 11 11 12 12 13 13
REMARK SMILES IDX 14 14 15 15 16 16 17 17 18 18 19 19 20 20
REMARK H PARENT
REMARK Flexibility Score: inf
ROOT
ATOM      1  C   UNL     1       4.123   4.901   7.747  1.00  0.00     0.000 C 
ENDROOT
BRANCH   1   2
ATOM      2  C   UNL     1       3.468   5.726   8.865  1.00  0.00     0.000 C 
BRANCH   2   3
ATOM      3  C   UNL     1       4.461   6.678   9.557  1.00  0.00     0.000 C 
BRANCH   3   4
ATOM      4  C   UNL     1       3.880   8.098   9.728  1.00  0.00     0.000 C 
BRANCH   4   5
ATOM      5  C   UNL     1       4.855   9.215   9.319  1.00  0.00     0.000 C 
BRANCH   5   6
ATOM      6  C   UNL     1       4.859   9.481   7.806  1.00  0.00     0.006 C 
BRANCH   6   7
ATOM      7  C   UNL     1       4.371  10.901   7.498  1.00  0.00     0.053 C 
BRANCH   7   8
ATOM      8  C   UNL     1       5.187  11.508   6.401  1.00  0.00     0.041 C 
ATOM      9  O   UNL     1       6.437  11.354   6.378  1.00  0.00    -0.550 OA
ATOM     10  O   UNL     1       4.563  12.212   5.379  1.00  0.00    -0.550 OA
ENDBRANCH   7   8
ENDBRANCH   6   7
ENDBRANCH   5   6
ENDBRANCH   4   5
ENDBRANCH   3   4
ENDBRANCH   2   3
ENDBRANCH   1   2
BRANCH   1  11
ATOM     11  C   UNL     1       3.474   3.516   7.578  1.00  0.00     0.000 C 
BRANCH  11  12
ATOM     12  C   UNL     1       3.934   2.505   8.645  1.00  0.00     0.000 C 
BRANCH  12  13
ATOM     13  C   UNL     1       5.447   2.508   8.938  1.00  0.00     0.000 C 
BRANCH  13  14
ATOM     14  C   UNL     1       6.240   1.574   8.008  1.00  0.00     0.000 C 
BRANCH  14  15
ATOM     15  C   UNL     1       7.624   2.140   7.652  1.00  0.00     0.000 C 
BRANCH  15  16
ATOM     16  C   UNL     1       7.543   3.519   6.974  1.00  0.00     0.006 C 
BRANCH  16  17
ATOM     17  C   UNL     1       7.134   3.413   5.499  1.00  0.00     0.053 C 
BRANCH  17  18
ATOM     18  C   UNL     1       8.292   3.034   4.629  1.00  0.00     0.041 C 
ATOM     19  O   UNL     1       8.928   3.918   3.998  1.00  0.00    -0.550 OA
ATOM     20  O   UNL     1       8.647   1.700   4.489  1.00  0.00    -0.550 OA
ENDBRANCH  17  18
ENDBRANCH  16  17
ENDBRANCH  15  16
ENDBRANCH  14  15
ENDBRANCH  13  14
ENDBRANCH  12  13
ENDBRANCH  11  12
ENDBRANCH   1  11
TORSDOF 15
ENDMDL
MODEL 9
REMARK VINA RESULT:    -3.714      4.158      8.150
REMARK INTER + INTRA:          -8.505
REMARK INTER:                  -7.340
REMARK INTRA:                  -1.165
REMARK UNBOUND:                -1.534
REMARK SMILES O=C([O-])CCCCCCCCCCCCCCC(=O)[O-]
REMARK SMILES IDX 10 1 9 2 8 3 7 4 6 5 5 6 4 7 2 8 1 9 3 10 11 11 12 12 13 13
REMARK SMILES IDX 14 14 15 15 16 16 17 17 18 18 19 19 20 20
REMARK H PARENT
REMARK Flexibility Score: inf
ROOT
ATOM      1  C   UNL     1       3.630   3.475   7.511  1.00  0.00     0.000 C 
ENDROOT
BRANCH   1   2
ATOM      2  C   UNL     1       3.796   2.364   8.558  1.00  0.00     0.000 C 
BRANCH   2   3
ATOM      3  C   UNL     1       5.231   1.806   8.606  1.00  0.00     0.000 C 
BRANCH   3   4
ATOM      4  C   UNL     1       6.273   2.910   8.883  1.00  0.00     0.000 C 
BRANCH   4   5
ATOM      5  C   UNL     1       7.606   2.697   8.145  1.00  0.00     0.000 C 
BRANCH   5   6
ATOM      6  C   UNL     1       7.796   3.661   6.965  1.00  0.00     0.006 C 
BRANCH   6   7
ATOM      7  C   UNL     1       7.471   2.972   5.636  1.00  0.00     0.053 C 
BRANCH   7   8
ATOM      8  C   UNL     1       8.576   2.043   5.243  1.00  0.00     0.041 C 
ATOM      9  O   UNL     1       8.317   0.967   4.643  1.00  0.00    -0.550 OA
ATOM     10  O   UNL     1       9.896   2.385   5.505  1.00  0.00    -0.550 OA
ENDBRANCH   7   8
ENDBRANCH   6   7
ENDBRANCH   5   6
ENDBRANCH   4   5
ENDBRANCH   3   4
ENDBRANCH   2   3
ENDBRANCH   1   2
BRANCH   1  11
ATOM     11  C   UNL     1       2.608   4.542   7.940  1.00  0.00     0.000 C 
BRANCH  11  12
ATOM     12  C   UNL     1       2.575   4.762   9.464  1.00  0.00     0.000 C 
BRANCH  12  13
ATOM     13  C   UNL     1       3.560   5.823   9.991  1.00  0.00     0.000 C 
BRANCH  13  14
ATOM     14  C   UNL     1       4.015   6.812   8.903  1.00  0.00     0.000 C 
BRANCH  14  15
ATOM     15  C   UNL     1       4.462   8.161   9.489  1.00  0.00     0.000 C 
BRANCH  15  16
ATOM     16  C   UNL     1       3.888   9.361   8.716  1.00  0.00     0.006 C 
BRANCH  16  17
ATOM     17  C   UNL     1       4.941  10.027   7.820  1.00  0.00     0.053 C 
BRANCH  17  18
ATOM     18  C   UNL     1       4.630  11.472   7.580  1.00  0.00     0.041 C 
ATOM     19  O   UNL     1       5.209  12.365   8.251  1.00  0.00    -0.550 OA
ATOM     20  O   UNL     1       3.675  11.829   6.639  1.00  0.00    -0.550 OA
ENDBRANCH  17  18
ENDBRANCH  16  17
ENDBRANCH  15  16
ENDBRANCH  14  15
ENDBRANCH  13  14
ENDBRANCH  12  13
ENDBRANCH  11  12
ENDBRANCH   1  11
TORSDOF 15
ENDMDL
