MODEL 1
REMARK VINA RESULT:    -2.964      0.000      0.000
REMARK INTER + INTRA:          -3.340
REMARK INTER:                  -3.311
REMARK INTRA:                  -0.029
REMARK UNBOUND:                -0.029
REMARK SMILES CCCC(=O)[O-]
REMARK SMILES IDX 3 1 4 2 5 3 6 4 2 5 1 6
REMARK H PARENT
REMARK Flexibility Score: inf
ROOT
ATOM      1  C   UNL     1      87.990  77.839  67.140  1.00  0.00     0.052 C 
ENDROOT
BRANCH   1   2
ATOM      2  C   UNL     1      89.131  76.983  67.591  1.00  0.00     0.041 C 
ATOM      3  O   UNL     1      90.254  77.500  67.832  1.00  0.00    -0.550 OA
ATOM      4  O   UNL     1      88.969  75.608  67.699  1.00  0.00    -0.550 OA
ENDBRANCH   1   2
BRANCH   1   5
ATOM      5  C   UNL     1      86.696  77.419  67.842  1.00  0.00     0.003 C 
ATOM      6  C   UNL     1      85.750  76.711  66.876  1.00  0.00     0.004 C 
ENDBRANCH   1   5
TORSDOF 2
ENDMDL
MODEL 2
REMARK VINA RESULT:    -2.935      2.204      2.375
REMARK INTER + INTRA:          -3.307
REMARK INTER:                  -3.301
REMARK INTRA:                  -0.006
REMARK UNBOUND:                -0.029
REMARK SMILES CCCC(=O)[O-]
REMARK SMILES IDX 3 1 4 2 5 3 6 4 2 5 1 6
REMARK H PARENT
REMARK Flexibility Score: inf
ROOT
ATOM      1  C   UNL     1      88.392  75.662  67.773  1.00  0.00     0.052 C 
ENDROOT
BRANCH   1   2
ATOM      2  C   UNL     1      88.691  77.026  67.237  1.00  0.00     0.041 C 
ATOM      3  O   UNL     1      89.883  77.417  67.131  1.00  0.00    -0.550 OA
ATOM      4  O   UNL     1      87.652  77.884  66.901  1.00  0.00    -0.550 OA
ENDBRANCH   1   2
BRANCH   1   5
ATOM      5  C   UNL     1      87.325  74.973  66.918  1.00  0.00     0.003 C 
ATOM      6  C   UNL     1      87.247  73.481  67.231  1.00  0.00     0.004 C 
ENDBRANCH   1   5
TORSDOF 2
ENDMDL
MODEL 3
REMARK VINA RESULT:    -2.918      2.408      3.268
REMARK INTER + INTRA:          -3.288
REMARK INTER:                  -3.234
REMARK INTRA:                  -0.054
REMARK UNBOUND:                -0.029
REMARK SMILES CCCC(=O)[O-]
REMARK SMILES IDX 3 1 4 2 5 3 6 4 2 5 1 6
REMARK H PARENT
REMARK Flexibility Score: inf
ROOT
ATOM      1  C   UNL     1      87.657  75.628  67.099  1.00  0.00     0.052 C 
ENDROOT
BRANCH   1   2
ATOM      2  C   UNL     1      86.471  76.362  67.637  1.00  0.00     0.041 C 
ATOM      3  O   UNL     1      85.772  77.080  66.875  1.00  0.00    -0.550 OA
ATOM      4  O   UNL     1      86.165  76.293  68.990  1.00  0.00    -0.550 OA
ENDBRANCH   1   2
BRANCH   1   5
ATOM      5  C   UNL     1      88.953  76.210  67.671  1.00  0.00     0.003 C 
ATOM      6  C   UNL     1      89.400  77.437  66.882  1.00  0.00     0.004 C 
ENDBRANCH   1   5
TORSDOF 2
ENDMDL
MODEL 4
REMARK VINA RESULT:    -2.891      2.955      3.537
REMARK INTER + INTRA:          -3.258
REMARK INTER:                  -3.233
REMARK INTRA:                  -0.025
REMARK UNBOUND:                -0.029
REMARK SMILES CCCC(=O)[O-]
REMARK SMILES IDX 3 1 4 2 5 3 6 4 2 5 1 6
REMARK H PARENT
REMARK Flexibility Score: inf
ROOT
ATOM      1  C   UNL     1      87.258  75.574  68.082  1.00  0.00     0.052 C 
ENDROOT
BRANCH   1   2
ATOM      2  C   UNL     1      86.315  76.717  67.877  1.00  0.00     0.041 C 
ATOM      3  O   UNL     1      85.553  76.737  66.875  1.00  0.00    -0.550 OA
ATOM      4  O   UNL     1      86.312  77.784  68.766  1.00  0.00    -0.550 OA
ENDBRANCH   1   2
BRANCH   1   5
ATOM      5  C   UNL     1      87.225  74.630  66.878  1.00  0.00     0.003 C 
ATOM      6  C   UNL     1      87.219  73.170  67.322  1.00  0.00     0.004 C 
ENDBRANCH   1   5
TORSDOF 2
ENDMDL
MODEL 5
REMARK VINA RESULT:    -2.882      0.699      1.698
REMARK INTER + INTRA:          -3.248
REMARK INTER:                  -3.208
REMARK INTRA:                  -0.040
REMARK UNBOUND:                -0.029
REMARK SMILES CCCC(=O)[O-]
REMARK SMILES IDX 3 1 4 2 5 3 6 4 2 5 1 6
REMARK H PARENT
REMARK Flexibility Score: inf
ROOT
ATOM      1  C   UNL     1      87.829  77.760  66.906  1.00  0.00     0.052 C 
ENDROOT
BRANCH   1   2
ATOM      2  C   UNL     1      89.115  77.071  67.235  1.00  0.00     0.041 C 
ATOM      3  O   UNL     1      89.104  75.922  67.750  1.00  0.00    -0.550 OA
ATOM      4  O   UNL     1      90.325  77.716  67.017  1.00  0.00    -0.550 OA
ENDBRANCH   1   2
BRANCH   1   5
ATOM      5  C   UNL     1      86.679  77.168  67.725  1.00  0.00     0.003 C 
ATOM      6  C   UNL     1      86.376  78.027  68.950  1.00  0.00     0.004 C 
ENDBRANCH   1   5
TORSDOF 2
ENDMDL
MODEL 6
REMARK VINA RESULT:    -2.803      1.954      2.932
REMARK INTER + INTRA:          -3.160
REMARK INTER:                  -3.116
REMARK INTRA:                  -0.044
REMARK UNBOUND:                -0.029
REMARK SMILES CCCC(=O)[O-]
REMARK SMILES IDX 3 1 4 2 5 3 6 4 2 5 1 6
REMARK H PARENT
REMARK Flexibility Score: inf
ROOT
ATOM      1  C   UNL     1      87.396  76.266  66.975  1.00  0.00     0.052 C 
ENDROOT
BRANCH   1   2
ATOM      2  C   UNL     1      87.119  75.866  68.389  1.00  0.00     0.041 C 
ATOM      3  O   UNL     1      87.835  74.998  68.953  1.00  0.00    -0.550 OA
ATOM      4  O   UNL     1      86.040  76.416  69.068  1.00  0.00    -0.550 OA
ENDBRANCH   1   2
BRANCH   1   5
ATOM      5  C   UNL     1      88.094  77.629  66.930  1.00  0.00     0.003 C 
ATOM      6  C   UNL     1      89.605  77.479  67.085  1.00  0.00     0.004 C 
ENDBRANCH   1   5
TORSDOF 2
ENDMDL
MODEL 7
REMARK VINA RESULT:    -2.786     16.641     17.607
REMARK INTER + INTRA:          -3.141
REMARK INTER:                  -3.122
REMARK INTRA:                  -0.018
REMARK UNBOUND:                -0.029
REMARK SMILES CCCC(=O)[O-]
REMARK SMILES IDX 3 1 4 2 5 3 6 4 2 5 1 6
REMARK H PARENT
REMARK Flexibility Score: inf
ROOT
ATOM      1  C   UNL     1      98.764  82.064  79.762  1.00  0.00     0.052 C 
ENDROOT
BRANCH   1   2
ATOM      2  C   UNL     1      99.635  82.400  80.931  1.00  0.00     0.041 C 
ATOM      3  O   UNL     1      99.272  82.098  82.098  1.00  0.00    -0.550 OA
ATOM      4  O   UNL     1     100.825  83.088  80.737  1.00  0.00    -0.550 OA
ENDBRANCH   1   2
BRANCH   1   5
ATOM      5  C   UNL     1      97.299  82.380  80.077  1.00  0.00     0.003 C 
ATOM      6  C   UNL     1      96.360  81.439  79.328  1.00  0.00     0.004 C 
ENDBRANCH   1   5
TORSDOF 2
ENDMDL
MODEL 8
REMARK VINA RESULT:    -2.723      2.824      3.415
REMARK INTER + INTRA:          -3.070
REMARK INTER:                  -3.065
REMARK INTRA:                  -0.005
REMARK UNBOUND:                -0.029
REMARK SMILES CCCC(=O)[O-]
REMARK SMILES IDX 3 1 4 2 5 3 6 4 2 5 1 6
REMARK H PARENT
REMARK Flexibility Score: inf
ROOT
ATOM      1  C   UNL     1      88.741  75.248  67.973  1.00  0.00     0.052 C 
ENDROOT
BRANCH   1   2
ATOM      2  C   UNL     1      87.522  74.382  68.020  1.00  0.00     0.041 C 
ATOM      3  O   UNL     1      86.902  74.219  69.103  1.00  0.00    -0.550 OA
ATOM      4  O   UNL     1      87.099  73.714  66.877  1.00  0.00    -0.550 OA
ENDBRANCH   1   2
BRANCH   1   5
ATOM      5  C   UNL     1      88.555  76.379  66.958  1.00  0.00     0.003 C 
ATOM      6  C   UNL     1      89.646  77.436  67.105  1.00  0.00     0.004 C 
ENDBRANCH   1   5
TORSDOF 2
ENDMDL
MODEL 9
REMARK VINA RESULT:    -2.670      3.779      4.309
REMARK INTER + INTRA:          -3.011
REMARK INTER:                  -2.987
REMARK INTRA:                  -0.025
REMARK UNBOUND:                -0.029
REMARK SMILES CCCC(=O)[O-]
REMARK SMILES IDX 3 1 4 2 5 3 6 4 2 5 1 6
REMARK H PARENT
REMARK Flexibility Score: inf
ROOT
ATOM      1  C   UNL     1      85.730  75.861  70.681  1.00  0.00     0.052 C 
ENDROOT
BRANCH   1   2
ATOM      2  C   UNL     1      86.332  75.841  69.312  1.00  0.00     0.041 C 
ATOM      3  O   UNL     1      86.156  76.810  68.528  1.00  0.00    -0.550 OA
ATOM      4  O   UNL     1      87.049  74.731  68.883  1.00  0.00    -0.550 OA
ENDBRANCH   1   2
BRANCH   1   5
ATOM      5  C   UNL     1      85.767  74.463  71.303  1.00  0.00     0.003 C 
ATOM      6  C   UNL     1      84.369  74.002  71.704  1.00  0.00     0.004 C 
ENDBRANCH   1   5
TORSDOF 2
ENDMDL
