MODEL 1
REMARK VINA RESULT:    -5.326      0.000      0.000
REMARK INTER + INTRA:          -6.850
REMARK INTER:                  -6.416
REMARK INTRA:                  -0.433
REMARK UNBOUND:                -0.433
REMARK SMILES O=c1c(O)c(-c2ccc(O)cc2O)oc2cc(O)cc(O)c12
REMARK SMILES IDX 5 1 3 2 2 3 1 4 22 5 20 6 19 7 17 8 16 9 15 10 14 11 6 12
REMARK SMILES IDX 8 13 7 14 9 15 11 16 12 17 10 18 13 20 4 22 21 24 18 26
REMARK H PARENT 10 19 13 21 4 23 21 25 18 27
REMARK Flexibility Score: inf
ROOT
ATOM      1  C   UNL     1      52.737  23.038  53.409  1.00  0.00     0.184 A 
ATOM      2  C   UNL     1      51.639  23.862  53.722  1.00  0.00     0.208 A 
ATOM      3  C   UNL     1      50.383  23.556  53.175  1.00  0.00     0.238 A 
ATOM      4  O   UNL     1      49.391  24.281  53.455  1.00  0.00    -0.285 OA
ATOM      5  C   UNL     1      50.250  22.446  52.315  1.00  0.00     0.111 A 
ATOM      6  C   UNL     1      49.022  22.071  51.719  1.00  0.00     0.134 A 
ATOM      7  C   UNL     1      48.972  20.956  50.869  1.00  0.00     0.093 A 
ATOM      8  C   UNL     1      50.126  20.213  50.602  1.00  0.00     0.123 A 
ATOM      9  C   UNL     1      51.340  20.578  51.188  1.00  0.00     0.094 A 
ATOM     10  C   UNL     1      51.410  21.684  52.039  1.00  0.00     0.146 A 
ATOM     11  O   UNL     1      52.577  22.007  52.586  1.00  0.00    -0.451 OA
ENDROOT
BRANCH   1  12
ATOM     12  C   UNL     1      54.087  23.292  53.964  1.00  0.00     0.063 A 
ATOM     13  C   UNL     1      56.162  24.564  53.965  1.00  0.00     0.047 A 
ATOM     14  C   UNL     1      54.900  24.305  53.425  1.00  0.00     0.020 A 
ATOM     15  C   UNL     1      56.624  23.823  55.059  1.00  0.00     0.119 A 
ATOM     16  C   UNL     1      55.818  22.823  55.611  1.00  0.00     0.093 A 
ATOM     17  C   UNL     1      54.551  22.555  55.073  1.00  0.00     0.130 A 
BRANCH  15  18
ATOM     18  O   UNL     1      57.881  24.073  55.606  1.00  0.00    -0.508 OA
ATOM     19  H   UNL     1      57.988  24.407  56.557  1.00  0.00     0.293 HD
ENDBRANCH  15  18
BRANCH  17  20
ATOM     20  O   UNL     1      53.759  21.550  55.629  1.00  0.00    -0.507 OA
ATOM     21  H   UNL     1      54.001  20.571  55.536  1.00  0.00     0.293 HD
ENDBRANCH  17  20
ENDBRANCH   1  12
BRANCH   2  22
ATOM     22  O   UNL     1      51.809  24.979  54.544  1.00  0.00    -0.502 OA
ATOM     23  H   UNL     1      52.678  25.163  55.034  1.00  0.00     0.293 HD
ENDBRANCH   2  22
BRANCH   6  24
ATOM     24  O   UNL     1      47.854  22.794  51.966  1.00  0.00    -0.507 OA
ATOM     25  H   UNL     1      47.777  23.778  51.736  1.00  0.00     0.293 HD
ENDBRANCH   6  24
BRANCH   8  26
ATOM     26  O   UNL     1      50.078  19.106  49.757  1.00  0.00    -0.508 OA
ATOM     27  H   UNL     1      49.899  19.205  48.764  1.00  0.00     0.293 HD
ENDBRANCH   8  26
TORSDOF 6
ENDMDL
MODEL 2
REMARK VINA RESULT:    -5.181      1.756      2.390
REMARK INTER + INTRA:          -6.674
REMARK INTER:                  -6.303
REMARK INTRA:                  -0.372
REMARK UNBOUND:                -0.433
REMARK SMILES O=c1c(O)c(-c2ccc(O)cc2O)oc2cc(O)cc(O)c12
REMARK SMILES IDX 5 1 3 2 2 3 1 4 22 5 20 6 19 7 17 8 16 9 15 10 14 11 6 12
REMARK SMILES IDX 8 13 7 14 9 15 11 16 12 17 10 18 13 20 4 22 21 24 18 26
REMARK H PARENT 10 19 13 21 4 23 21 25 18 27
REMARK Flexibility Score: inf
ROOT
ATOM      1  C   UNL     1      53.815  22.722  54.801  1.00  0.00     0.184 A 
ATOM      2  C   UNL     1      52.558  22.835  55.425  1.00  0.00     0.208 A 
ATOM      3  C   UNL     1      51.413  22.423  54.726  1.00  0.00     0.238 A 
ATOM      4  O   UNL     1      50.284  22.512  55.279  1.00  0.00    -0.285 OA
ATOM      5  C   UNL     1      51.541  21.923  53.414  1.00  0.00     0.111 A 
ATOM      6  C   UNL     1      50.438  21.491  52.639  1.00  0.00     0.134 A 
ATOM      7  C   UNL     1      50.647  21.011  51.337  1.00  0.00     0.093 A 
ATOM      8  C   UNL     1      51.936  20.959  50.796  1.00  0.00     0.123 A 
ATOM      9  C   UNL     1      53.027  21.383  51.556  1.00  0.00     0.094 A 
ATOM     10  C   UNL     1      52.840  21.862  52.856  1.00  0.00     0.146 A 
ATOM     11  O   UNL     1      53.897  22.256  53.558  1.00  0.00    -0.451 OA
ENDROOT
BRANCH   1  12
ATOM     12  C   UNL     1      55.066  23.120  55.486  1.00  0.00     0.063 A 
ATOM     13  C   UNL     1      56.638  22.860  57.326  1.00  0.00     0.047 A 
ATOM     14  C   UNL     1      55.445  22.505  56.693  1.00  0.00     0.020 A 
ATOM     15  C   UNL     1      57.476  23.826  56.757  1.00  0.00     0.119 A 
ATOM     16  C   UNL     1      57.115  24.435  55.552  1.00  0.00     0.093 A 
ATOM     17  C   UNL     1      55.917  24.085  54.911  1.00  0.00     0.130 A 
BRANCH  15  18
ATOM     18  O   UNL     1      58.668  24.188  57.380  1.00  0.00    -0.508 OA
ATOM     19  H   UNL     1      58.815  25.125  57.738  1.00  0.00     0.293 HD
ENDBRANCH  15  18
BRANCH  17  20
ATOM     20  O   UNL     1      55.566  24.705  53.711  1.00  0.00    -0.507 OA
ATOM     21  H   UNL     1      56.236  25.244  53.175  1.00  0.00     0.293 HD
ENDBRANCH  17  20
ENDBRANCH   1  12
BRANCH   2  22
ATOM     22  O   UNL     1      52.458  23.372  56.712  1.00  0.00    -0.502 OA
ATOM     23  H   UNL     1      51.572  23.660  57.110  1.00  0.00     0.293 HD
ENDBRANCH   2  22
BRANCH   6  24
ATOM     24  O   UNL     1      49.140  21.533  53.151  1.00  0.00    -0.507 OA
ATOM     25  H   UNL     1      48.449  22.185  52.800  1.00  0.00     0.293 HD
ENDBRANCH   6  24
BRANCH   8  26
ATOM     26  O   UNL     1      52.144  20.484  49.502  1.00  0.00    -0.508 OA
ATOM     27  H   UNL     1      52.206  19.492  49.306  1.00  0.00     0.293 HD
ENDBRANCH   8  26
TORSDOF 6
ENDMDL
MODEL 3
REMARK VINA RESULT:    -5.045      1.986      3.293
REMARK INTER + INTRA:          -6.511
REMARK INTER:                  -6.066
REMARK INTRA:                  -0.444
REMARK UNBOUND:                -0.433
REMARK SMILES O=c1c(O)c(-c2ccc(O)cc2O)oc2cc(O)cc(O)c12
REMARK SMILES IDX 5 1 3 2 2 3 1 4 22 5 20 6 19 7 17 8 16 9 15 10 14 11 6 12
REMARK SMILES IDX 8 13 7 14 9 15 11 16 12 17 10 18 13 20 4 22 21 24 18 26
REMARK H PARENT 10 19 13 21 4 23 21 25 18 27
REMARK Flexibility Score: inf
ROOT
ATOM      1  C   UNL     1      52.253  22.791  53.971  1.00  0.00     0.184 A 
ATOM      2  C   UNL     1      51.820  22.158  52.790  1.00  0.00     0.208 A 
ATOM      3  C   UNL     1      50.466  21.807  52.666  1.00  0.00     0.238 A 
ATOM      4  O   UNL     1      50.066  21.247  51.610  1.00  0.00    -0.285 OA
ATOM      5  C   UNL     1      49.576  22.080  53.725  1.00  0.00     0.111 A 
ATOM      6  C   UNL     1      48.198  21.756  53.681  1.00  0.00     0.134 A 
ATOM      7  C   UNL     1      47.378  22.055  54.779  1.00  0.00     0.093 A 
ATOM      8  C   UNL     1      47.909  22.667  55.919  1.00  0.00     0.123 A 
ATOM      9  C   UNL     1      49.266  22.989  55.967  1.00  0.00     0.094 A 
ATOM     10  C   UNL     1      50.101  22.702  54.882  1.00  0.00     0.146 A 
ATOM     11  O   UNL     1      51.388  23.023  54.953  1.00  0.00    -0.451 OA
ENDROOT
BRANCH   1  12
ATOM     12  C   UNL     1      53.663  23.204  54.163  1.00  0.00     0.063 A 
ATOM     13  C   UNL     1      55.537  24.642  53.579  1.00  0.00     0.047 A 
ATOM     14  C   UNL     1      54.217  24.233  53.380  1.00  0.00     0.020 A 
ATOM     15  C   UNL     1      56.320  24.038  54.570  1.00  0.00     0.119 A 
ATOM     16  C   UNL     1      55.773  23.024  55.363  1.00  0.00     0.093 A 
ATOM     17  C   UNL     1      54.449  22.605  55.168  1.00  0.00     0.130 A 
BRANCH  15  18
ATOM     18  O   UNL     1      57.638  24.438  54.777  1.00  0.00    -0.508 OA
ATOM     19  H   UNL     1      58.194  24.834  54.029  1.00  0.00     0.293 HD
ENDBRANCH  15  18
BRANCH  17  20
ATOM     20  O   UNL     1      53.919  21.588  55.961  1.00  0.00    -0.507 OA
ATOM     21  H   UNL     1      53.255  20.917  55.593  1.00  0.00     0.293 HD
ENDBRANCH  17  20
ENDBRANCH   1  12
BRANCH   2  22
ATOM     22  O   UNL     1      52.733  21.863  51.775  1.00  0.00    -0.502 OA
ATOM     23  H   UNL     1      53.292  21.018  51.778  1.00  0.00     0.293 HD
ENDBRANCH   2  22
BRANCH   6  24
ATOM     24  O   UNL     1      47.640  21.144  52.558  1.00  0.00    -0.507 OA
ATOM     25  H   UNL     1      47.765  21.521  51.627  1.00  0.00     0.293 HD
ENDBRANCH   6  24
BRANCH   8  26
ATOM     26  O   UNL     1      47.095  22.963  57.011  1.00  0.00    -0.508 OA
ATOM     27  H   UNL     1      47.151  22.432  57.872  1.00  0.00     0.293 HD
ENDBRANCH   8  26
TORSDOF 6
ENDMDL
MODEL 4
REMARK VINA RESULT:    -4.942      2.899      6.650
REMARK INTER + INTRA:          -6.387
REMARK INTER:                  -6.117
REMARK INTRA:                  -0.270
REMARK UNBOUND:                -0.433
REMARK SMILES O=c1c(O)c(-c2ccc(O)cc2O)oc2cc(O)cc(O)c12
REMARK SMILES IDX 5 1 3 2 2 3 1 4 22 5 20 6 19 7 17 8 16 9 15 10 14 11 6 12
REMARK SMILES IDX 8 13 7 14 9 15 11 16 12 17 10 18 13 20 4 22 21 24 18 26
REMARK H PARENT 10 19 13 21 4 23 21 25 18 27
REMARK Flexibility Score: inf
ROOT
ATOM      1  C   UNL     1      49.020  22.714  53.011  1.00  0.00     0.184 A 
ATOM      2  C   UNL     1      48.984  21.618  52.129  1.00  0.00     0.208 A 
ATOM      3  C   UNL     1      50.166  21.231  51.478  1.00  0.00     0.238 A 
ATOM      4  O   UNL     1      50.147  20.246  50.692  1.00  0.00    -0.285 OA
ATOM      5  C   UNL     1      51.355  21.953  51.708  1.00  0.00     0.111 A 
ATOM      6  C   UNL     1      52.588  21.631  51.090  1.00  0.00     0.134 A 
ATOM      7  C   UNL     1      53.726  22.403  51.365  1.00  0.00     0.093 A 
ATOM      8  C   UNL     1      53.655  23.490  52.242  1.00  0.00     0.123 A 
ATOM      9  C   UNL     1      52.442  23.811  52.855  1.00  0.00     0.094 A 
ATOM     10  C   UNL     1      51.297  23.053  52.595  1.00  0.00     0.146 A 
ATOM     11  O   UNL     1      50.156  23.379  53.195  1.00  0.00    -0.451 OA
ENDROOT
BRANCH   1  12
ATOM     12  C   UNL     1      47.814  23.167  53.744  1.00  0.00     0.063 A 
ATOM     13  C   UNL     1      46.061  24.815  54.106  1.00  0.00     0.047 A 
ATOM     14  C   UNL     1      47.213  24.400  53.435  1.00  0.00     0.020 A 
ATOM     15  C   UNL     1      45.486  23.999  55.088  1.00  0.00     0.119 A 
ATOM     16  C   UNL     1      46.069  22.766  55.393  1.00  0.00     0.093 A 
ATOM     17  C   UNL     1      47.227  22.342  54.725  1.00  0.00     0.130 A 
BRANCH  15  18
ATOM     18  O   UNL     1      44.337  24.403  55.763  1.00  0.00    -0.508 OA
ATOM     19  H   UNL     1      43.626  24.965  55.310  1.00  0.00     0.293 HD
ENDBRANCH  15  18
BRANCH  17  20
ATOM     20  O   UNL     1      47.801  21.112  55.045  1.00  0.00    -0.507 OA
ATOM     21  H   UNL     1      47.235  20.297  55.249  1.00  0.00     0.293 HD
ENDBRANCH  17  20
ENDBRANCH   1  12
BRANCH   2  22
ATOM     22  O   UNL     1      47.782  20.947  51.890  1.00  0.00    -0.502 OA
ATOM     23  H   UNL     1      47.543  20.571  50.980  1.00  0.00     0.293 HD
ENDBRANCH   2  22
BRANCH   6  24
ATOM     24  O   UNL     1      52.690  20.554  50.209  1.00  0.00    -0.507 OA
ATOM     25  H   UNL     1      52.434  20.637  49.232  1.00  0.00     0.293 HD
ENDBRANCH   6  24
BRANCH   8  26
ATOM     26  O   UNL     1      54.785  24.258  52.515  1.00  0.00    -0.508 OA
ATOM     27  H   UNL     1      54.746  25.056  53.139  1.00  0.00     0.293 HD
ENDBRANCH   8  26
TORSDOF 6
ENDMDL
MODEL 5
REMARK VINA RESULT:    -4.912      3.407      6.231
REMARK INTER + INTRA:          -6.351
REMARK INTER:                  -5.875
REMARK INTRA:                  -0.476
REMARK UNBOUND:                -0.433
REMARK SMILES O=c1c(O)c(-c2ccc(O)cc2O)oc2cc(O)cc(O)c12
REMARK SMILES IDX 5 1 3 2 2 3 1 4 22 5 20 6 19 7 17 8 16 9 15 10 14 11 6 12
REMARK SMILES IDX 8 13 7 14 9 15 11 16 12 17 10 18 13 20 4 22 21 24 18 26
REMARK H PARENT 10 19 13 21 4 23 21 25 18 27
REMARK Flexibility Score: inf
ROOT
ATOM      1  C   UNL     1      48.453  22.659  53.127  1.00  0.00     0.184 A 
ATOM      2  C   UNL     1      49.804  23.031  53.268  1.00  0.00     0.208 A 
ATOM      3  C   UNL     1      50.767  22.407  52.460  1.00  0.00     0.238 A 
ATOM      4  O   UNL     1      51.978  22.738  52.573  1.00  0.00    -0.285 OA
ATOM      5  C   UNL     1      50.368  21.416  51.541  1.00  0.00     0.111 A 
ATOM      6  C   UNL     1      51.276  20.737  50.692  1.00  0.00     0.134 A 
ATOM      7  C   UNL     1      50.802  19.757  49.807  1.00  0.00     0.093 A 
ATOM      8  C   UNL     1      49.440  19.443  49.757  1.00  0.00     0.123 A 
ATOM      9  C   UNL     1      48.541  20.110  50.590  1.00  0.00     0.094 A 
ATOM     10  C   UNL     1      48.993  21.091  51.478  1.00  0.00     0.146 A 
ATOM     11  O   UNL     1      48.115  21.713  52.257  1.00  0.00    -0.451 OA
ENDROOT
BRANCH   1  12
ATOM     12  C   UNL     1      47.381  23.288  53.934  1.00  0.00     0.063 A 
ATOM     13  C   UNL     1      45.831  25.125  54.317  1.00  0.00     0.047 A 
ATOM     14  C   UNL     1      46.861  24.543  53.573  1.00  0.00     0.020 A 
ATOM     15  C   UNL     1      45.300  24.456  55.426  1.00  0.00     0.119 A 
ATOM     16  C   UNL     1      45.802  23.202  55.785  1.00  0.00     0.093 A 
ATOM     17  C   UNL     1      46.837  22.612  55.045  1.00  0.00     0.130 A 
BRANCH  15  18
ATOM     18  O   UNL     1      44.274  25.026  56.175  1.00  0.00    -0.508 OA
ATOM     19  H   UNL     1      43.781  25.852  55.856  1.00  0.00     0.293 HD
ENDBRANCH  15  18
BRANCH  17  20
ATOM     20  O   UNL     1      47.333  21.363  55.419  1.00  0.00    -0.507 OA
ATOM     21  H   UNL     1      46.726  20.635  55.778  1.00  0.00     0.293 HD
ENDBRANCH  17  20
ENDBRANCH   1  12
BRANCH   2  22
ATOM     22  O   UNL     1      50.174  23.988  54.217  1.00  0.00    -0.502 OA
ATOM     23  H   UNL     1      50.256  23.768  55.204  1.00  0.00     0.293 HD
ENDBRANCH   2  22
BRANCH   6  24
ATOM     24  O   UNL     1      52.641  21.028  50.721  1.00  0.00    -0.507 OA
ATOM     25  H   UNL     1      53.247  20.670  51.449  1.00  0.00     0.293 HD
ENDBRANCH   6  24
BRANCH   8  26
ATOM     26  O   UNL     1      48.968  18.469  48.879  1.00  0.00    -0.508 OA
ATOM     27  H   UNL     1      48.349  18.703  48.111  1.00  0.00     0.293 HD
ENDBRANCH   8  26
TORSDOF 6
ENDMDL
MODEL 6
REMARK VINA RESULT:    -4.863      3.008      5.183
REMARK INTER + INTRA:          -6.292
REMARK INTER:                  -6.156
REMARK INTRA:                  -0.136
REMARK UNBOUND:                -0.433
REMARK SMILES O=c1c(O)c(-c2ccc(O)cc2O)oc2cc(O)cc(O)c12
REMARK SMILES IDX 5 1 3 2 2 3 1 4 22 5 20 6 19 7 17 8 16 9 15 10 14 11 6 12
REMARK SMILES IDX 8 13 7 14 9 15 11 16 12 17 10 18 13 20 4 22 21 24 18 26
REMARK H PARENT 10 19 13 21 4 23 21 25 18 27
REMARK Flexibility Score: inf
ROOT
ATOM      1  C   UNL     1      50.790  22.355  53.093  1.00  0.00     0.184 A 
ATOM      2  C   UNL     1      51.183  23.560  53.704  1.00  0.00     0.208 A 
ATOM      3  C   UNL     1      50.433  24.050  54.784  1.00  0.00     0.238 A 
ATOM      4  O   UNL     1      50.781  25.124  55.344  1.00  0.00    -0.285 OA
ATOM      5  C   UNL     1      49.299  23.338  55.223  1.00  0.00     0.111 A 
ATOM      6  C   UNL     1      48.487  23.764  56.302  1.00  0.00     0.134 A 
ATOM      7  C   UNL     1      47.369  23.002  56.676  1.00  0.00     0.093 A 
ATOM      8  C   UNL     1      47.048  21.826  55.990  1.00  0.00     0.123 A 
ATOM      9  C   UNL     1      47.845  21.401  54.926  1.00  0.00     0.094 A 
ATOM     10  C   UNL     1      48.964  22.145  54.540  1.00  0.00     0.146 A 
ATOM     11  O   UNL     1      49.708  21.715  53.526  1.00  0.00    -0.451 OA
ENDROOT
BRANCH   1  12
ATOM     12  C   UNL     1      51.545  21.771  51.959  1.00  0.00     0.063 A 
ATOM     13  C   UNL     1      53.663  21.157  50.929  1.00  0.00     0.047 A 
ATOM     14  C   UNL     1      52.951  21.732  51.985  1.00  0.00     0.020 A 
ATOM     15  C   UNL     1      52.981  20.603  49.840  1.00  0.00     0.119 A 
ATOM     16  C   UNL     1      51.583  20.625  49.812  1.00  0.00     0.093 A 
ATOM     17  C   UNL     1      50.861  21.202  50.866  1.00  0.00     0.130 A 
BRANCH  15  18
ATOM     18  O   UNL     1      53.681  20.027  48.782  1.00  0.00    -0.508 OA
ATOM     19  H   UNL     1      54.268  20.583  48.171  1.00  0.00     0.293 HD
ENDBRANCH  15  18
BRANCH  17  20
ATOM     20  O   UNL     1      49.467  21.224  50.821  1.00  0.00    -0.507 OA
ATOM     21  H   UNL     1      48.952  22.085  50.681  1.00  0.00     0.293 HD
ENDBRANCH  17  20
ENDBRANCH   1  12
BRANCH   2  22
ATOM     22  O   UNL     1      52.289  24.266  53.220  1.00  0.00    -0.502 OA
ATOM     23  H   UNL     1      53.241  23.961  53.389  1.00  0.00     0.293 HD
ENDBRANCH   2  22
BRANCH   6  24
ATOM     24  O   UNL     1      48.781  24.933  57.005  1.00  0.00    -0.507 OA
ATOM     25  H   UNL     1      49.734  25.249  57.139  1.00  0.00     0.293 HD
ENDBRANCH   6  24
BRANCH   8  26
ATOM     26  O   UNL     1      45.937  21.070  56.359  1.00  0.00    -0.508 OA
ATOM     27  H   UNL     1      45.011  21.279  56.003  1.00  0.00     0.293 HD
ENDBRANCH   8  26
TORSDOF 6
ENDMDL
MODEL 7
REMARK VINA RESULT:    -4.827      1.792      6.647
REMARK INTER + INTRA:          -6.248
REMARK INTER:                  -5.898
REMARK INTRA:                  -0.351
REMARK UNBOUND:                -0.433
REMARK SMILES O=c1c(O)c(-c2ccc(O)cc2O)oc2cc(O)cc(O)c12
REMARK SMILES IDX 5 1 3 2 2 3 1 4 22 5 20 6 19 7 17 8 16 9 15 10 14 11 6 12
REMARK SMILES IDX 8 13 7 14 9 15 11 16 12 17 10 18 13 20 4 22 21 24 18 26
REMARK H PARENT 10 19 13 21 4 23 21 25 18 27
REMARK Flexibility Score: inf
ROOT
ATOM      1  C   UNL     1      51.357  22.311  52.921  1.00  0.00     0.184 A 
ATOM      2  C   UNL     1      51.352  22.104  54.313  1.00  0.00     0.208 A 
ATOM      3  C   UNL     1      52.434  22.575  55.073  1.00  0.00     0.238 A 
ATOM      4  O   UNL     1      52.436  22.403  56.322  1.00  0.00    -0.285 OA
ATOM      5  C   UNL     1      53.505  23.227  54.429  1.00  0.00     0.111 A 
ATOM      6  C   UNL     1      54.635  23.728  55.121  1.00  0.00     0.134 A 
ATOM      7  C   UNL     1      55.664  24.360  54.407  1.00  0.00     0.093 A 
ATOM      8  C   UNL     1      55.586  24.497  53.017  1.00  0.00     0.123 A 
ATOM      9  C   UNL     1      54.475  24.006  52.331  1.00  0.00     0.094 A 
ATOM     10  C   UNL     1      53.437  23.375  53.024  1.00  0.00     0.146 A 
ATOM     11  O   UNL     1      52.389  22.920  52.346  1.00  0.00    -0.451 OA
ENDROOT
BRANCH   1  12
ATOM     12  C   UNL     1      50.240  21.856  52.059  1.00  0.00     0.063 A 
ATOM     13  C   UNL     1      47.879  21.898  51.471  1.00  0.00     0.047 A 
ATOM     14  C   UNL     1      48.929  22.304  52.298  1.00  0.00     0.020 A 
ATOM     15  C   UNL     1      48.127  21.048  50.386  1.00  0.00     0.119 A 
ATOM     16  C   UNL     1      49.429  20.608  50.133  1.00  0.00     0.093 A 
ATOM     17  C   UNL     1      50.488  21.009  50.960  1.00  0.00     0.130 A 
BRANCH  15  18
ATOM     18  O   UNL     1      47.088  20.637  49.554  1.00  0.00    -0.508 OA
ATOM     19  H   UNL     1      46.816  19.663  49.489  1.00  0.00     0.293 HD
ENDBRANCH  15  18
BRANCH  17  20
ATOM     20  O   UNL     1      51.782  20.557  50.700  1.00  0.00    -0.507 OA
ATOM     21  H   UNL     1      52.502  20.564  51.413  1.00  0.00     0.293 HD
ENDBRANCH  17  20
ENDBRANCH   1  12
BRANCH   2  22
ATOM     22  O   UNL     1      50.295  21.419  54.918  1.00  0.00    -0.502 OA
ATOM     23  H   UNL     1      49.772  21.807  55.695  1.00  0.00     0.293 HD
ENDBRANCH   2  22
BRANCH   6  24
ATOM     24  O   UNL     1      54.741  23.605  56.507  1.00  0.00    -0.507 OA
ATOM     25  H   UNL     1      54.636  24.402  57.123  1.00  0.00     0.293 HD
ENDBRANCH   6  24
BRANCH   8  26
ATOM     26  O   UNL     1      56.609  25.124  52.307  1.00  0.00    -0.508 OA
ATOM     27  H   UNL     1      56.424  25.632  51.450  1.00  0.00     0.293 HD
ENDBRANCH   8  26
TORSDOF 6
ENDMDL
MODEL 8
REMARK VINA RESULT:    -4.814      2.773      5.308
REMARK INTER + INTRA:          -6.232
REMARK INTER:                  -6.541
REMARK INTRA:                   0.309
REMARK UNBOUND:                -0.433
REMARK SMILES O=c1c(O)c(-c2ccc(O)cc2O)oc2cc(O)cc(O)c12
REMARK SMILES IDX 5 1 3 2 2 3 1 4 22 5 20 6 19 7 17 8 16 9 15 10 14 11 6 12
REMARK SMILES IDX 8 13 7 14 9 15 11 16 12 17 10 18 13 20 4 22 21 24 18 26
REMARK H PARENT 10 19 13 21 4 23 21 25 18 27
REMARK Flexibility Score: inf
ROOT
ATOM      1  C   UNL     1      51.020  22.043  53.297  1.00  0.00     0.184 A 
ATOM      2  C   UNL     1      51.754  22.423  54.437  1.00  0.00     0.208 A 
ATOM      3  C   UNL     1      51.060  22.870  55.573  1.00  0.00     0.238 A 
ATOM      4  O   UNL     1      51.706  23.205  56.602  1.00  0.00    -0.285 OA
ATOM      5  C   UNL     1      49.652  22.945  55.543  1.00  0.00     0.111 A 
ATOM      6  C   UNL     1      48.878  23.389  56.643  1.00  0.00     0.134 A 
ATOM      7  C   UNL     1      47.480  23.441  56.533  1.00  0.00     0.093 A 
ATOM      8  C   UNL     1      46.844  23.062  55.347  1.00  0.00     0.123 A 
ATOM      9  C   UNL     1      47.603  22.623  54.260  1.00  0.00     0.094 A 
ATOM     10  C   UNL     1      48.997  22.562  54.350  1.00  0.00     0.146 A 
ATOM     11  O   UNL     1      49.694  22.137  53.302  1.00  0.00    -0.451 OA
ENDROOT
BRANCH   1  12
ATOM     12  C   UNL     1      51.686  21.544  52.071  1.00  0.00     0.063 A 
ATOM     13  C   UNL     1      53.661  21.391  50.658  1.00  0.00     0.047 A 
ATOM     14  C   UNL     1      53.024  21.882  51.799  1.00  0.00     0.020 A 
ATOM     15  C   UNL     1      52.976  20.546  49.777  1.00  0.00     0.119 A 
ATOM     16  C   UNL     1      51.649  20.194  50.046  1.00  0.00     0.093 A 
ATOM     17  C   UNL     1      51.001  20.685  51.189  1.00  0.00     0.130 A 
BRANCH  15  18
ATOM     18  O   UNL     1      53.601  20.050  48.636  1.00  0.00    -0.508 OA
ATOM     19  H   UNL     1      53.937  19.096  48.589  1.00  0.00     0.293 HD
ENDBRANCH  15  18
BRANCH  17  20
ATOM     20  O   UNL     1      49.676  20.331  51.440  1.00  0.00    -0.507 OA
ATOM     21  H   UNL     1      49.016  20.170  50.688  1.00  0.00     0.293 HD
ENDBRANCH  17  20
ENDBRANCH   1  12
BRANCH   2  22
ATOM     22  O   UNL     1      53.150  22.376  54.423  1.00  0.00    -0.502 OA
ATOM     23  H   UNL     1      53.689  22.037  55.211  1.00  0.00     0.293 HD
ENDBRANCH   2  22
BRANCH   6  24
ATOM     24  O   UNL     1      49.484  23.775  57.839  1.00  0.00    -0.507 OA
ATOM     25  H   UNL     1      49.004  23.702  58.728  1.00  0.00     0.293 HD
ENDBRANCH   6  24
BRANCH   8  26
ATOM     26  O   UNL     1      45.456  23.115  55.236  1.00  0.00    -0.508 OA
ATOM     27  H   UNL     1      44.994  23.069  54.336  1.00  0.00     0.293 HD
ENDBRANCH   8  26
TORSDOF 6
ENDMDL
MODEL 9
REMARK VINA RESULT:    -4.797      3.108      5.947
REMARK INTER + INTRA:          -6.212
REMARK INTER:                  -5.813
REMARK INTRA:                  -0.398
REMARK UNBOUND:                -0.433
REMARK SMILES O=c1c(O)c(-c2ccc(O)cc2O)oc2cc(O)cc(O)c12
REMARK SMILES IDX 5 1 3 2 2 3 1 4 22 5 20 6 19 7 17 8 16 9 15 10 14 11 6 12
REMARK SMILES IDX 8 13 7 14 9 15 11 16 12 17 10 18 13 20 4 22 21 24 18 26
REMARK H PARENT 10 19 13 21 4 23 21 25 18 27
REMARK Flexibility Score: inf
ROOT
ATOM      1  C   UNL     1      48.921  22.836  54.115  1.00  0.00     0.184 A 
ATOM      2  C   UNL     1      50.323  22.930  54.202  1.00  0.00     0.208 A 
ATOM      3  C   UNL     1      51.105  22.374  53.178  1.00  0.00     0.238 A 
ATOM      4  O   UNL     1      52.361  22.459  53.241  1.00  0.00    -0.285 OA
ATOM      5  C   UNL     1      50.476  21.722  52.098  1.00  0.00     0.111 A 
ATOM      6  C   UNL     1      51.191  21.132  51.027  1.00  0.00     0.134 A 
ATOM      7  C   UNL     1      50.492  20.495  49.991  1.00  0.00     0.093 A 
ATOM      8  C   UNL     1      49.095  20.435  50.006  1.00  0.00     0.123 A 
ATOM      9  C   UNL     1      48.385  21.016  51.059  1.00  0.00     0.094 A 
ATOM     10  C   UNL     1      49.063  21.657  52.100  1.00  0.00     0.146 A 
ATOM     11  O   UNL     1      48.362  22.204  53.087  1.00  0.00    -0.451 OA
ENDROOT
BRANCH   1  12
ATOM     12  C   UNL     1      48.034  23.415  55.151  1.00  0.00     0.063 A 
ATOM     13  C   UNL     1      47.222  23.465  57.445  1.00  0.00     0.047 A 
ATOM     14  C   UNL     1      48.038  22.902  56.461  1.00  0.00     0.020 A 
ATOM     15  C   UNL     1      46.400  24.555  57.139  1.00  0.00     0.119 A 
ATOM     16  C   UNL     1      46.398  25.080  55.843  1.00  0.00     0.093 A 
ATOM     17  C   UNL     1      47.212  24.520  54.848  1.00  0.00     0.130 A 
BRANCH  15  18
ATOM     18  O   UNL     1      45.582  25.124  58.112  1.00  0.00    -0.508 OA
ATOM     19  H   UNL     1      45.720  26.077  58.428  1.00  0.00     0.293 HD
ENDBRANCH  15  18
BRANCH  17  20
ATOM     20  O   UNL     1      47.196  25.050  53.558  1.00  0.00    -0.507 OA
ATOM     21  H   UNL     1      47.808  25.810  53.287  1.00  0.00     0.293 HD
ENDBRANCH  17  20
ENDBRANCH   1  12
BRANCH   2  22
ATOM     22  O   UNL     1      50.919  23.546  55.306  1.00  0.00    -0.502 OA
ATOM     23  H   UNL     1      51.105  24.542  55.335  1.00  0.00     0.293 HD
ENDBRANCH   2  22
BRANCH   6  24
ATOM     24  O   UNL     1      52.585  21.175  50.985  1.00  0.00    -0.507 OA
ATOM     25  H   UNL     1      53.152  20.388  51.278  1.00  0.00     0.293 HD
ENDBRANCH   6  24
BRANCH   8  26
ATOM     26  O   UNL     1      48.399  19.802  48.978  1.00  0.00    -0.508 OA
ATOM     27  H   UNL     1      47.968  20.329  48.227  1.00  0.00     0.293 HD
ENDBRANCH   8  26
TORSDOF 6
ENDMDL
