MODEL 1
REMARK VINA RESULT:    -3.980      0.000      0.000
REMARK INTER + INTRA:          -4.633
REMARK INTER:                  -4.561
REMARK INTRA:                  -0.072
REMARK UNBOUND:                -0.072
REMARK SMILES COc1cc(C=O)ccc1O
REMARK SMILES IDX 3 1 10 2 9 3 8 4 5 5 4 6 2 7 1 8 11 9 6 11 7 12
REMARK H PARENT 11 10
REMARK Flexibility Score: inf
ROOT
ATOM      1  C   UNL     1      11.659  -3.383  20.589  1.00  0.00     0.161 A 
ATOM      2  C   UNL     1      10.659  -2.526  21.071  1.00  0.00     0.157 A 
ATOM      3  C   UNL     1      10.610  -1.193  20.645  1.00  0.00     0.051 A 
ATOM      4  C   UNL     1      11.553  -0.708  19.737  1.00  0.00     0.015 A 
ATOM      5  C   UNL     1      12.561  -1.553  19.245  1.00  0.00     0.018 A 
ATOM      6  C   UNL     1      12.610  -2.889  19.673  1.00  0.00     0.062 A 
ENDROOT
BRANCH   1   7
ATOM      7  O   UNL     1      11.674  -4.713  21.039  1.00  0.00    -0.493 OA
ATOM      8  C   UNL     1      11.388  -5.844  20.223  1.00  0.00     0.278 C 
ENDBRANCH   1   7
BRANCH   2   9
ATOM      9  O   UNL     1       9.716  -3.010  21.977  1.00  0.00    -0.504 OA
ATOM     10  H   UNL     1       9.287  -2.406  22.668  1.00  0.00     0.293 HD
ENDBRANCH   2   9
BRANCH   5  11
ATOM     11  C   UNL     1      13.568  -1.058  18.287  1.00  0.00     0.260 C 
ATOM     12  O   UNL     1      13.260  -0.810  17.090  1.00  0.00    -0.298 OA
ENDBRANCH   5  11
TORSDOF 3
ENDMDL
MODEL 2
REMARK VINA RESULT:    -3.888      1.332      2.924
REMARK INTER + INTRA:          -4.529
REMARK INTER:                  -4.471
REMARK INTRA:                  -0.057
REMARK UNBOUND:                -0.072
REMARK SMILES COc1cc(C=O)ccc1O
REMARK SMILES IDX 3 1 10 2 9 3 8 4 5 5 4 6 2 7 1 8 11 9 6 11 7 12
REMARK H PARENT 11 10
REMARK Flexibility Score: inf
ROOT
ATOM      1  C   UNL     1      10.645  -1.136  20.059  1.00  0.00     0.161 A 
ATOM      2  C   UNL     1      10.817  -2.287  20.842  1.00  0.00     0.157 A 
ATOM      3  C   UNL     1      11.970  -3.069  20.700  1.00  0.00     0.051 A 
ATOM      4  C   UNL     1      12.956  -2.708  19.780  1.00  0.00     0.015 A 
ATOM      5  C   UNL     1      12.799  -1.560  18.988  1.00  0.00     0.018 A 
ATOM      6  C   UNL     1      11.643  -0.777  19.131  1.00  0.00     0.062 A 
ENDROOT
BRANCH   1   7
ATOM      7  O   UNL     1       9.476  -0.379  20.231  1.00  0.00    -0.493 OA
ATOM      8  C   UNL     1       8.801   0.313  19.186  1.00  0.00     0.278 C 
ENDBRANCH   1   7
BRANCH   2   9
ATOM      9  O   UNL     1       9.833  -2.647  21.762  1.00  0.00    -0.504 OA
ATOM     10  H   UNL     1       9.542  -3.611  21.876  1.00  0.00     0.293 HD
ENDBRANCH   2   9
BRANCH   5  11
ATOM     11  C   UNL     1      13.830  -1.163  18.010  1.00  0.00     0.260 C 
ATOM     12  O   UNL     1      13.514  -0.757  16.860  1.00  0.00    -0.298 OA
ENDBRANCH   5  11
TORSDOF 3
ENDMDL
MODEL 3
REMARK VINA RESULT:    -3.533      1.751      2.746
REMARK INTER + INTRA:          -4.121
REMARK INTER:                  -4.084
REMARK INTRA:                  -0.037
REMARK UNBOUND:                -0.072
REMARK SMILES COc1cc(C=O)ccc1O
REMARK SMILES IDX 3 1 10 2 9 3 8 4 5 5 4 6 2 7 1 8 11 9 6 11 7 12
REMARK H PARENT 11 10
REMARK Flexibility Score: inf
ROOT
ATOM      1  C   UNL     1      11.402  -3.480  20.827  1.00  0.00     0.161 A 
ATOM      2  C   UNL     1      12.680  -3.486  20.252  1.00  0.00     0.157 A 
ATOM      3  C   UNL     1      13.178  -2.335  19.630  1.00  0.00     0.051 A 
ATOM      4  C   UNL     1      12.407  -1.172  19.579  1.00  0.00     0.015 A 
ATOM      5  C   UNL     1      11.125  -1.148  20.151  1.00  0.00     0.018 A 
ATOM      6  C   UNL     1      10.627  -2.303  20.774  1.00  0.00     0.062 A 
ENDROOT
BRANCH   1   7
ATOM      7  O   UNL     1      10.938  -4.653  21.442  1.00  0.00    -0.493 OA
ATOM      8  C   UNL     1      10.245  -5.698  20.767  1.00  0.00     0.278 C 
ENDBRANCH   1   7
BRANCH   2   9
ATOM      9  O   UNL     1      13.452  -4.647  20.302  1.00  0.00    -0.504 OA
ATOM     10  H   UNL     1      14.345  -4.669  20.779  1.00  0.00     0.293 HD
ENDBRANCH   2   9
BRANCH   5  11
ATOM     11  C   UNL     1      10.295   0.071  20.107  1.00  0.00     0.260 C 
ATOM     12  O   UNL     1       9.301   0.154  19.336  1.00  0.00    -0.298 OA
ENDBRANCH   5  11
TORSDOF 3
ENDMDL
MODEL 4
REMARK VINA RESULT:    -3.492      1.518      3.921
REMARK INTER + INTRA:          -4.075
REMARK INTER:                  -4.010
REMARK INTRA:                  -0.065
REMARK UNBOUND:                -0.072
REMARK SMILES COc1cc(C=O)ccc1O
REMARK SMILES IDX 3 1 10 2 9 3 8 4 5 5 4 6 2 7 1 8 11 9 6 11 7 12
REMARK H PARENT 11 10
REMARK Flexibility Score: inf
ROOT
ATOM      1  C   UNL     1      12.332  -1.949  19.901  1.00  0.00     0.161 A 
ATOM      2  C   UNL     1      11.244  -1.401  20.596  1.00  0.00     0.157 A 
ATOM      3  C   UNL     1      10.361  -2.235  21.292  1.00  0.00     0.051 A 
ATOM      4  C   UNL     1      10.558  -3.617  21.301  1.00  0.00     0.015 A 
ATOM      5  C   UNL     1      11.642  -4.182  20.611  1.00  0.00     0.018 A 
ATOM      6  C   UNL     1      12.526  -3.345  19.913  1.00  0.00     0.062 A 
ENDROOT
BRANCH   1   7
ATOM      7  O   UNL     1      13.195  -1.080  19.216  1.00  0.00    -0.493 OA
ATOM      8  C   UNL     1      13.624  -1.263  17.870  1.00  0.00     0.278 C 
ENDBRANCH   1   7
BRANCH   2   9
ATOM      9  O   UNL     1      11.048  -0.020  20.588  1.00  0.00    -0.504 OA
ATOM     10  H   UNL     1      10.642   0.462  21.381  1.00  0.00     0.293 HD
ENDBRANCH   2   9
BRANCH   5  11
ATOM     11  C   UNL     1      11.865  -5.641  20.608  1.00  0.00     0.260 C 
ATOM     12  O   UNL     1      10.907  -6.446  20.460  1.00  0.00    -0.298 OA
ENDBRANCH   5  11
TORSDOF 3
ENDMDL
MODEL 5
REMARK VINA RESULT:    -3.330      9.265     11.446
REMARK INTER + INTRA:          -3.889
REMARK INTER:                  -3.820
REMARK INTRA:                  -0.069
REMARK UNBOUND:                -0.072
REMARK SMILES COc1cc(C=O)ccc1O
REMARK SMILES IDX 3 1 10 2 9 3 8 4 5 5 4 6 2 7 1 8 11 9 6 11 7 12
REMARK H PARENT 11 10
REMARK Flexibility Score: inf
ROOT
ATOM      1  C   UNL     1      13.087   8.208  17.835  1.00  0.00     0.161 A 
ATOM      2  C   UNL     1      12.837   6.842  18.022  1.00  0.00     0.157 A 
ATOM      3  C   UNL     1      12.866   6.291  19.310  1.00  0.00     0.051 A 
ATOM      4  C   UNL     1      13.142   7.098  20.415  1.00  0.00     0.015 A 
ATOM      5  C   UNL     1      13.395   8.468  20.245  1.00  0.00     0.018 A 
ATOM      6  C   UNL     1      13.366   9.019  18.954  1.00  0.00     0.062 A 
ENDROOT
BRANCH   1   7
ATOM      7  O   UNL     1      13.049   8.723  16.530  1.00  0.00    -0.493 OA
ATOM      8  C   UNL     1      14.162   9.305  15.859  1.00  0.00     0.278 C 
ENDBRANCH   1   7
BRANCH   2   9
ATOM      9  O   UNL     1      12.561   6.035  16.919  1.00  0.00    -0.504 OA
ATOM     10  H   UNL     1      11.944   6.345  16.177  1.00  0.00     0.293 HD
ENDBRANCH   2   9
BRANCH   5  11
ATOM     11  C   UNL     1      13.690   9.337  21.401  1.00  0.00     0.260 C 
ATOM     12  O   UNL     1      14.871   9.500  21.808  1.00  0.00    -0.298 OA
ENDBRANCH   5  11
TORSDOF 3
ENDMDL
MODEL 6
REMARK VINA RESULT:    -3.228      6.165      7.798
REMARK INTER + INTRA:          -3.772
REMARK INTER:                  -3.702
REMARK INTRA:                  -0.070
REMARK UNBOUND:                -0.072
REMARK SMILES COc1cc(C=O)ccc1O
REMARK SMILES IDX 3 1 10 2 9 3 8 4 5 5 4 6 2 7 1 8 11 9 6 11 7 12
REMARK H PARENT 11 10
REMARK Flexibility Score: inf
ROOT
ATOM      1  C   UNL     1       9.150  -0.390  14.041  1.00  0.00     0.161 A 
ATOM      2  C   UNL     1       8.900   0.595  13.076  1.00  0.00     0.157 A 
ATOM      3  C   UNL     1       7.957   1.600  13.324  1.00  0.00     0.051 A 
ATOM      4  C   UNL     1       7.259   1.628  14.533  1.00  0.00     0.015 A 
ATOM      5  C   UNL     1       7.498   0.649  15.510  1.00  0.00     0.018 A 
ATOM      6  C   UNL     1       8.443  -0.358  15.261  1.00  0.00     0.062 A 
ENDROOT
BRANCH   1   7
ATOM      7  O   UNL     1      10.104  -1.380  13.756  1.00  0.00    -0.493 OA
ATOM      8  C   UNL     1      11.463  -1.338  14.179  1.00  0.00     0.278 C 
ENDBRANCH   1   7
BRANCH   2   9
ATOM      9  O   UNL     1       9.597   0.568  11.868  1.00  0.00    -0.504 OA
ATOM     10  H   UNL     1       9.846  -0.306  11.420  1.00  0.00     0.293 HD
ENDBRANCH   2   9
BRANCH   5  11
ATOM     11  C   UNL     1       6.770   0.662  16.794  1.00  0.00     0.260 C 
ATOM     12  O   UNL     1       7.339   0.332  17.868  1.00  0.00    -0.298 OA
ENDBRANCH   5  11
TORSDOF 3
ENDMDL
MODEL 7
REMARK VINA RESULT:    -3.177      9.336     11.078
REMARK INTER + INTRA:          -3.714
REMARK INTER:                  -3.641
REMARK INTRA:                  -0.073
REMARK UNBOUND:                -0.072
REMARK SMILES COc1cc(C=O)ccc1O
REMARK SMILES IDX 3 1 10 2 9 3 8 4 5 5 4 6 2 7 1 8 11 9 6 11 7 12
REMARK H PARENT 11 10
REMARK Flexibility Score: inf
ROOT
ATOM      1  C   UNL     1      13.406   8.364  20.385  1.00  0.00     0.161 A 
ATOM      2  C   UNL     1      13.145   6.988  20.453  1.00  0.00     0.157 A 
ATOM      3  C   UNL     1      12.871   6.265  19.285  1.00  0.00     0.051 A 
ATOM      4  C   UNL     1      12.859   6.907  18.046  1.00  0.00     0.015 A 
ATOM      5  C   UNL     1      13.118   8.284  17.960  1.00  0.00     0.018 A 
ATOM      6  C   UNL     1      13.392   9.008  19.130  1.00  0.00     0.062 A 
ENDROOT
BRANCH   1   7
ATOM      7  O   UNL     1      13.676   9.054  21.577  1.00  0.00    -0.493 OA
ATOM      8  C   UNL     1      14.980   9.405  22.028  1.00  0.00     0.278 C 
ENDBRANCH   1   7
BRANCH   2   9
ATOM      9  O   UNL     1      13.157   6.345  21.691  1.00  0.00    -0.504 OA
ATOM     10  H   UNL     1      12.631   5.495  21.852  1.00  0.00     0.293 HD
ENDBRANCH   2   9
BRANCH   5  11
ATOM     11  C   UNL     1      13.108   8.980  16.659  1.00  0.00     0.260 C 
ATOM     12  O   UNL     1      14.156   9.078  15.965  1.00  0.00    -0.298 OA
ENDBRANCH   5  11
TORSDOF 3
ENDMDL
MODEL 8
REMARK VINA RESULT:    -3.172      7.024      8.129
REMARK INTER + INTRA:          -3.707
REMARK INTER:                  -3.630
REMARK INTRA:                  -0.077
REMARK UNBOUND:                -0.072
REMARK SMILES COc1cc(C=O)ccc1O
REMARK SMILES IDX 3 1 10 2 9 3 8 4 5 5 4 6 2 7 1 8 11 9 6 11 7 12
REMARK H PARENT 11 10
REMARK Flexibility Score: inf
ROOT
ATOM      1  C   UNL     1       6.685   1.408  15.336  1.00  0.00     0.161 A 
ATOM      2  C   UNL     1       7.290   0.339  16.012  1.00  0.00     0.157 A 
ATOM      3  C   UNL     1       8.393  -0.315  15.450  1.00  0.00     0.051 A 
ATOM      4  C   UNL     1       8.900   0.094  14.215  1.00  0.00     0.015 A 
ATOM      5  C   UNL     1       8.306   1.162  13.525  1.00  0.00     0.018 A 
ATOM      6  C   UNL     1       7.200   1.816  14.089  1.00  0.00     0.062 A 
ENDROOT
BRANCH   1   7
ATOM      7  O   UNL     1       5.581   2.038  15.932  1.00  0.00    -0.493 OA
ATOM      8  C   UNL     1       5.626   3.309  16.574  1.00  0.00     0.278 C 
ENDBRANCH   1   7
BRANCH   2   9
ATOM      9  O   UNL     1       6.785  -0.069  17.246  1.00  0.00    -0.504 OA
ATOM     10  H   UNL     1       7.018   0.420  18.102  1.00  0.00     0.293 HD
ENDBRANCH   2   9
BRANCH   5  11
ATOM     11  C   UNL     1       8.827   1.607  12.218  1.00  0.00     0.260 C 
ATOM     12  O   UNL     1       9.376   0.796  11.426  1.00  0.00    -0.298 OA
ENDBRANCH   5  11
TORSDOF 3
ENDMDL
MODEL 9
REMARK VINA RESULT:    -3.137      6.924      8.581
REMARK INTER + INTRA:          -3.667
REMARK INTER:                  -3.595
REMARK INTRA:                  -0.072
REMARK UNBOUND:                -0.072
REMARK SMILES COc1cc(C=O)ccc1O
REMARK SMILES IDX 3 1 10 2 9 3 8 4 5 5 4 6 2 7 1 8 11 9 6 11 7 12
REMARK H PARENT 11 10
REMARK Flexibility Score: inf
ROOT
ATOM      1  C   UNL     1       7.982   1.065  14.148  1.00  0.00     0.161 A 
ATOM      2  C   UNL     1       8.380   0.062  15.042  1.00  0.00     0.157 A 
ATOM      3  C   UNL     1       7.656  -0.158  16.221  1.00  0.00     0.051 A 
ATOM      4  C   UNL     1       6.534   0.619  16.513  1.00  0.00     0.015 A 
ATOM      5  C   UNL     1       6.122   1.628  15.628  1.00  0.00     0.018 A 
ATOM      6  C   UNL     1       6.848   1.847  14.448  1.00  0.00     0.062 A 
ENDROOT
BRANCH   1   7
ATOM      7  O   UNL     1       8.733   1.255  12.977  1.00  0.00    -0.493 OA
ATOM      8  C   UNL     1       9.560   2.385  12.723  1.00  0.00     0.278 C 
ENDBRANCH   1   7
BRANCH   2   9
ATOM      9  O   UNL     1       9.501  -0.715  14.751  1.00  0.00    -0.504 OA
ATOM     10  H   UNL     1       9.757  -0.940  13.797  1.00  0.00     0.293 HD
ENDBRANCH   2   9
BRANCH   5  11
ATOM     11  C   UNL     1       4.938   2.459  15.921  1.00  0.00     0.260 C 
ATOM     12  O   UNL     1       4.996   3.403  16.753  1.00  0.00    -0.298 OA
ENDBRANCH   5  11
TORSDOF 3
ENDMDL
