MODEL 1
REMARK VINA RESULT:    -5.596      0.000      0.000
REMARK INTER + INTRA:          -7.658
REMARK INTER:                  -7.232
REMARK INTRA:                  -0.426
REMARK UNBOUND:                -0.426
REMARK SMILES CCO[C@H]1O[C@H](CO)[C@@H](O)[C@@H](O)[C@@H]1O
REMARK SMILES IDX 4 1 13 2 11 3 9 4 6 5 5 6 3 7 2 8 1 9 14 10 12 12 7 14 8 15
REMARK SMILES IDX 10 17
REMARK H PARENT 14 11 12 13 8 16 10 18
REMARK Flexibility Score: inf
ROOT
ATOM      1  C   UNL     1      15.793  -0.056  -9.191  1.00  0.00     0.281 C 
ATOM      2  C   UNL     1      16.517  -1.311  -9.727  1.00  0.00     0.202 C 
ATOM      3  C   UNL     1      17.017  -1.107 -11.173  1.00  0.00     0.179 C 
ATOM      4  C   UNL     1      15.930  -0.457 -12.061  1.00  0.00     0.177 C 
ATOM      5  C   UNL     1      15.264   0.742 -11.343  1.00  0.00     0.178 C 
ATOM      6  O   UNL     1      14.760   0.348 -10.075  1.00  0.00    -0.341 OA
ENDROOT
BRANCH   1   7
ATOM      7  O   UNL     1      16.701   1.015  -8.968  1.00  0.00    -0.350 OA
BRANCH   7   8
ATOM      8  C   UNL     1      17.625   0.698  -7.948  1.00  0.00     0.160 C 
ATOM      9  C   UNL     1      16.904   0.680  -6.610  1.00  0.00     0.035 C 
ENDBRANCH   7   8
ENDBRANCH   1   7
BRANCH   2  10
ATOM     10  O   UNL     1      15.622  -2.395  -9.686  1.00  0.00    -0.385 OA
ATOM     11  H   UNL     1      15.387  -2.612 -10.627  1.00  0.00     0.211 HD
ENDBRANCH   2  10
BRANCH   3  12
ATOM     12  O   UNL     1      18.230  -0.393 -11.197  1.00  0.00    -0.387 OA
ATOM     13  H   UNL     1      18.046   0.555 -10.981  1.00  0.00     0.211 HD
ENDBRANCH   3  12
BRANCH   5  14
ATOM     14  C   UNL     1      14.083   1.293 -12.158  1.00  0.00     0.191 C 
BRANCH  14  15
ATOM     15  O   UNL     1      14.535   2.115 -13.203  1.00  0.00    -0.394 OA
ATOM     16  H   UNL     1      15.073   1.546 -13.812  1.00  0.00     0.210 HD
ENDBRANCH  14  15
ENDBRANCH   5  14
BRANCH   4  17
ATOM     17  O   UNL     1      16.499  -0.039 -13.276  1.00  0.00    -0.387 OA
ATOM     18  H   UNL     1      16.609   0.947 -13.217  1.00  0.00     0.211 HD
ENDBRANCH   4  17
TORSDOF 7
ENDMDL
MODEL 2
REMARK VINA RESULT:    -5.594      3.241      5.061
REMARK INTER + INTRA:          -7.655
REMARK INTER:                  -7.220
REMARK INTRA:                  -0.435
REMARK UNBOUND:                -0.426
REMARK SMILES CCO[C@H]1O[C@H](CO)[C@@H](O)[C@@H](O)[C@@H]1O
REMARK SMILES IDX 4 1 13 2 11 3 9 4 6 5 5 6 3 7 2 8 1 9 14 10 12 12 7 14 8 15
REMARK SMILES IDX 10 17
REMARK H PARENT 14 11 12 13 8 16 10 18
REMARK Flexibility Score: inf
ROOT
ATOM      1  C   UNL     1      20.249  -0.078  -9.273  1.00  0.00     0.281 C 
ATOM      2  C   UNL     1      19.565   1.193  -9.820  1.00  0.00     0.202 C 
ATOM      3  C   UNL     1      19.115   1.013 -11.286  1.00  0.00     0.179 C 
ATOM      4  C   UNL     1      20.224   0.357 -12.142  1.00  0.00     0.177 C 
ATOM      5  C   UNL     1      20.845  -0.860 -11.413  1.00  0.00     0.178 C 
ATOM      6  O   UNL     1      21.308  -0.489 -10.123  1.00  0.00    -0.341 OA
ENDROOT
BRANCH   1   7
ATOM      7  O   UNL     1      19.318  -1.138  -9.096  1.00  0.00    -0.350 OA
BRANCH   7   8
ATOM      8  C   UNL     1      18.403  -0.847  -8.060  1.00  0.00     0.160 C 
ATOM      9  C   UNL     1      19.151  -0.786  -6.738  1.00  0.00     0.035 C 
ENDBRANCH   7   8
ENDBRANCH   1   7
BRANCH   2  10
ATOM     10  O   UNL     1      20.473   2.263  -9.735  1.00  0.00    -0.385 OA
ATOM     11  H   UNL     1      21.277   2.002 -10.256  1.00  0.00     0.211 HD
ENDBRANCH   2  10
BRANCH   3  12
ATOM     12  O   UNL     1      17.893   0.318 -11.363  1.00  0.00    -0.387 OA
ATOM     13  H   UNL     1      17.777  -0.022 -12.285  1.00  0.00     0.211 HD
ENDBRANCH   3  12
BRANCH   5  14
ATOM     14  C   UNL     1      22.047  -1.420 -12.191  1.00  0.00     0.191 C 
BRANCH  14  15
ATOM     15  O   UNL     1      21.622  -2.243 -13.247  1.00  0.00    -0.394 OA
ATOM     16  H   UNL     1      22.144  -1.981 -14.050  1.00  0.00     0.210 HD
ENDBRANCH  14  15
ENDBRANCH   5  14
BRANCH   4  17
ATOM     17  O   UNL     1      19.693  -0.039 -13.382  1.00  0.00    -0.387 OA
ATOM     18  H   UNL     1      19.433   0.792 -13.860  1.00  0.00     0.211 HD
ENDBRANCH   4  17
TORSDOF 7
ENDMDL
MODEL 3
REMARK VINA RESULT:    -5.588      1.654      4.267
REMARK INTER + INTRA:          -7.647
REMARK INTER:                  -7.310
REMARK INTRA:                  -0.337
REMARK UNBOUND:                -0.426
REMARK SMILES CCO[C@H]1O[C@H](CO)[C@@H](O)[C@@H](O)[C@@H]1O
REMARK SMILES IDX 4 1 13 2 11 3 9 4 6 5 5 6 3 7 2 8 1 9 14 10 12 12 7 14 8 15
REMARK SMILES IDX 10 17
REMARK H PARENT 14 11 12 13 8 16 10 18
REMARK Flexibility Score: inf
ROOT
ATOM      1  C   UNL     1      16.022  -0.792 -11.771  1.00  0.00     0.281 C 
ATOM      2  C   UNL     1      15.114   0.456 -11.817  1.00  0.00     0.202 C 
ATOM      3  C   UNL     1      15.288   1.336 -10.561  1.00  0.00     0.179 C 
ATOM      4  C   UNL     1      15.291   0.484  -9.270  1.00  0.00     0.177 C 
ATOM      5  C   UNL     1      16.200  -0.761  -9.423  1.00  0.00     0.178 C 
ATOM      6  O   UNL     1      15.827  -1.515 -10.566  1.00  0.00    -0.341 OA
ENDROOT
BRANCH   1   7
ATOM      7  O   UNL     1      17.393  -0.447 -11.924  1.00  0.00    -0.350 OA
BRANCH   7   8
ATOM      8  C   UNL     1      18.143  -1.537 -12.419  1.00  0.00     0.160 C 
ATOM      9  C   UNL     1      19.609  -1.142 -12.491  1.00  0.00     0.035 C 
ENDBRANCH   7   8
ENDBRANCH   1   7
BRANCH   2  10
ATOM     10  O   UNL     1      13.777   0.033 -11.914  1.00  0.00    -0.385 OA
ATOM     11  H   UNL     1      13.677  -0.753 -11.316  1.00  0.00     0.211 HD
ENDBRANCH   2  10
BRANCH   3  12
ATOM     12  O   UNL     1      16.427   2.156 -10.667  1.00  0.00    -0.387 OA
ATOM     13  H   UNL     1      16.203   3.058 -10.326  1.00  0.00     0.211 HD
ENDBRANCH   3  12
BRANCH   5  14
ATOM     14  C   UNL     1      16.086  -1.686  -8.201  1.00  0.00     0.191 C 
BRANCH  14  15
ATOM     15  O   UNL     1      14.871  -1.481  -7.528  1.00  0.00    -0.394 OA
ATOM     16  H   UNL     1      14.143  -1.686  -8.171  1.00  0.00     0.210 HD
ENDBRANCH  14  15
ENDBRANCH   5  14
BRANCH   4  17
ATOM     17  O   UNL     1      15.721   1.268  -8.186  1.00  0.00    -0.387 OA
ATOM     18  H   UNL     1      15.490   2.210  -8.404  1.00  0.00     0.211 HD
ENDBRANCH   4  17
TORSDOF 7
ENDMDL
MODEL 4
REMARK VINA RESULT:    -5.567      3.283      5.604
REMARK INTER + INTRA:          -7.620
REMARK INTER:                  -7.358
REMARK INTRA:                  -0.262
REMARK UNBOUND:                -0.426
REMARK SMILES CCO[C@H]1O[C@H](CO)[C@@H](O)[C@@H](O)[C@@H]1O
REMARK SMILES IDX 4 1 13 2 11 3 9 4 6 5 5 6 3 7 2 8 1 9 14 10 12 12 7 14 8 15
REMARK SMILES IDX 10 17
REMARK H PARENT 14 11 12 13 8 16 10 18
REMARK Flexibility Score: inf
ROOT
ATOM      1  C   UNL     1      19.856   1.370 -11.433  1.00  0.00     0.281 C 
ATOM      2  C   UNL     1      20.304   0.466 -12.602  1.00  0.00     0.202 C 
ATOM      3  C   UNL     1      20.181  -1.031 -12.245  1.00  0.00     0.179 C 
ATOM      4  C   UNL     1      20.748  -1.326 -10.837  1.00  0.00     0.177 C 
ATOM      5  C   UNL     1      20.250  -0.285  -9.804  1.00  0.00     0.178 C 
ATOM      6  O   UNL     1      20.545   1.033 -10.240  1.00  0.00    -0.341 OA
ENDROOT
BRANCH   1   7
ATOM      7  O   UNL     1      18.450   1.300 -11.228  1.00  0.00    -0.350 OA
BRANCH   7   8
ATOM      8  C   UNL     1      17.746   1.835 -12.330  1.00  0.00     0.160 C 
ATOM      9  C   UNL     1      16.442   1.074 -12.504  1.00  0.00     0.035 C 
ENDBRANCH   7   8
ENDBRANCH   1   7
BRANCH   2  10
ATOM     10  O   UNL     1      21.642   0.767 -12.913  1.00  0.00    -0.385 OA
ATOM     11  H   UNL     1      21.735   0.688 -13.899  1.00  0.00     0.211 HD
ENDBRANCH   2  10
BRANCH   3  12
ATOM     12  O   UNL     1      18.857  -1.485 -12.398  1.00  0.00    -0.387 OA
ATOM     13  H   UNL     1      18.715  -1.738 -13.344  1.00  0.00     0.211 HD
ENDBRANCH   3  12
BRANCH   5  14
ATOM     14  C   UNL     1      20.930  -0.484  -8.440  1.00  0.00     0.191 C 
BRANCH  14  15
ATOM     15  O   UNL     1      21.089   0.742  -7.774  1.00  0.00    -0.394 OA
ATOM     16  H   UNL     1      20.243   1.248  -7.888  1.00  0.00     0.210 HD
ENDBRANCH  14  15
ENDBRANCH   5  14
BRANCH   4  17
ATOM     17  O   UNL     1      20.377  -2.621 -10.438  1.00  0.00    -0.387 OA
ATOM     18  H   UNL     1      21.202  -3.175 -10.461  1.00  0.00     0.211 HD
ENDBRANCH   4  17
TORSDOF 7
ENDMDL
MODEL 5
REMARK VINA RESULT:    -5.564      3.420      5.022
REMARK INTER + INTRA:          -7.616
REMARK INTER:                  -7.190
REMARK INTRA:                  -0.426
REMARK UNBOUND:                -0.426
REMARK SMILES CCO[C@H]1O[C@H](CO)[C@@H](O)[C@@H](O)[C@@H]1O
REMARK SMILES IDX 4 1 13 2 11 3 9 4 6 5 5 6 3 7 2 8 1 9 14 10 12 12 7 14 8 15
REMARK SMILES IDX 10 17
REMARK H PARENT 14 11 12 13 8 16 10 18
REMARK Flexibility Score: inf
ROOT
ATOM      1  C   UNL     1      19.221   1.528 -11.490  1.00  0.00     0.281 C 
ATOM      2  C   UNL     1      19.792   1.309 -10.072  1.00  0.00     0.202 C 
ATOM      3  C   UNL     1      20.299  -0.136  -9.877  1.00  0.00     0.179 C 
ATOM      4  C   UNL     1      19.287  -1.170 -10.422  1.00  0.00     0.177 C 
ATOM      5  C   UNL     1      18.768  -0.760 -11.823  1.00  0.00     0.178 C 
ATOM      6  O   UNL     1      18.234   0.556 -11.793  1.00  0.00    -0.341 OA
ENDROOT
BRANCH   1   7
ATOM      7  O   UNL     1      20.247   1.513 -12.474  1.00  0.00    -0.350 OA
BRANCH   7   8
ATOM      8  C   UNL     1      21.142   2.592 -12.296  1.00  0.00     0.160 C 
ATOM      9  C   UNL     1      22.462   2.260 -12.972  1.00  0.00     0.035 C 
ENDBRANCH   7   8
ENDBRANCH   1   7
BRANCH   2  10
ATOM     10  O   UNL     1      18.780   1.582  -9.135  1.00  0.00    -0.385 OA
ATOM     11  H   UNL     1      19.219   2.000  -8.348  1.00  0.00     0.211 HD
ENDBRANCH   2  10
BRANCH   3  12
ATOM     12  O   UNL     1      21.586  -0.302 -10.425  1.00  0.00    -0.387 OA
ATOM     13  H   UNL     1      22.242  -0.359  -9.685  1.00  0.00     0.211 HD
ENDBRANCH   3  12
BRANCH   5  14
ATOM     14  C   UNL     1      17.651  -1.701 -12.300  1.00  0.00     0.191 C 
BRANCH  14  15
ATOM     15  O   UNL     1      18.155  -2.986 -12.562  1.00  0.00    -0.394 OA
ATOM     16  H   UNL     1      17.375  -3.585 -12.689  1.00  0.00     0.210 HD
ENDBRANCH  14  15
ENDBRANCH   5  14
BRANCH   4  17
ATOM     17  O   UNL     1      19.889  -2.438 -10.481  1.00  0.00    -0.387 OA
ATOM     18  H   UNL     1      20.504  -2.499  -9.703  1.00  0.00     0.211 HD
ENDBRANCH   4  17
TORSDOF 7
ENDMDL
MODEL 6
REMARK VINA RESULT:    -5.532      3.133      4.063
REMARK INTER + INTRA:          -7.576
REMARK INTER:                  -7.200
REMARK INTRA:                  -0.376
REMARK UNBOUND:                -0.426
REMARK SMILES CCO[C@H]1O[C@H](CO)[C@@H](O)[C@@H](O)[C@@H]1O
REMARK SMILES IDX 4 1 13 2 11 3 9 4 6 5 5 6 3 7 2 8 1 9 14 10 12 12 7 14 8 15
REMARK SMILES IDX 10 17
REMARK H PARENT 14 11 12 13 8 16 10 18
REMARK Flexibility Score: inf
ROOT
ATOM      1  C   UNL     1      20.164  -0.523 -10.551  1.00  0.00     0.281 C 
ATOM      2  C   UNL     1      20.870  -0.021 -11.830  1.00  0.00     0.202 C 
ATOM      3  C   UNL     1      20.426   1.409 -12.203  1.00  0.00     0.179 C 
ATOM      4  C   UNL     1      18.891   1.569 -12.108  1.00  0.00     0.177 C 
ATOM      5  C   UNL     1      18.344   0.953 -10.796  1.00  0.00     0.178 C 
ATOM      6  O   UNL     1      18.756  -0.400 -10.670  1.00  0.00    -0.341 OA
ENDROOT
BRANCH   1   7
ATOM      7  O   UNL     1      20.624   0.166  -9.396  1.00  0.00    -0.350 OA
BRANCH   7   8
ATOM      8  C   UNL     1      20.861  -0.728  -8.328  1.00  0.00     0.160 C 
ATOM      9  C   UNL     1      19.979  -0.343  -7.151  1.00  0.00     0.035 C 
ENDBRANCH   7   8
ENDBRANCH   1   7
BRANCH   2  10
ATOM     10  O   UNL     1      20.563  -0.899 -12.884  1.00  0.00    -0.385 OA
ATOM     11  H   UNL     1      19.941  -1.583 -12.521  1.00  0.00     0.211 HD
ENDBRANCH   2  10
BRANCH   3  12
ATOM     12  O   UNL     1      21.116   2.372 -11.441  1.00  0.00    -0.387 OA
ATOM     13  H   UNL     1      20.833   3.273 -11.736  1.00  0.00     0.211 HD
ENDBRANCH   3  12
BRANCH   5  14
ATOM     14  C   UNL     1      16.808   0.973 -10.770  1.00  0.00     0.191 C 
BRANCH  14  15
ATOM     15  O   UNL     1      16.326   2.281 -10.595  1.00  0.00    -0.394 OA
ATOM     16  H   UNL     1      15.754   2.488 -11.378  1.00  0.00     0.210 HD
ENDBRANCH  14  15
ENDBRANCH   5  14
BRANCH   4  17
ATOM     17  O   UNL     1      18.550   2.930 -12.184  1.00  0.00    -0.387 OA
ATOM     18  H   UNL     1      18.127   3.070 -13.072  1.00  0.00     0.211 HD
ENDBRANCH   4  17
TORSDOF 7
ENDMDL
MODEL 7
REMARK VINA RESULT:    -5.482      1.865      4.351
REMARK INTER + INTRA:          -7.511
REMARK INTER:                  -7.353
REMARK INTRA:                  -0.157
REMARK UNBOUND:                -0.426
REMARK SMILES CCO[C@H]1O[C@H](CO)[C@@H](O)[C@@H](O)[C@@H]1O
REMARK SMILES IDX 4 1 13 2 11 3 9 4 6 5 5 6 3 7 2 8 1 9 14 10 12 12 7 14 8 15
REMARK SMILES IDX 10 17
REMARK H PARENT 14 11 12 13 8 16 10 18
REMARK Flexibility Score: inf
ROOT
ATOM      1  C   UNL     1      15.309   0.188 -11.205  1.00  0.00     0.281 C 
ATOM      2  C   UNL     1      16.596   1.016 -11.408  1.00  0.00     0.202 C 
ATOM      3  C   UNL     1      17.860   0.203 -11.058  1.00  0.00     0.179 C 
ATOM      4  C   UNL     1      17.690  -0.563  -9.725  1.00  0.00     0.177 C 
ATOM      5  C   UNL     1      16.318  -1.281  -9.664  1.00  0.00     0.178 C 
ATOM      6  O   UNL     1      15.262  -0.361  -9.898  1.00  0.00    -0.341 OA
ENDROOT
BRANCH   1   7
ATOM      7  O   UNL     1      15.192  -0.843 -12.178  1.00  0.00    -0.350 OA
BRANCH   7   8
ATOM      8  C   UNL     1      13.847  -1.026 -12.570  1.00  0.00     0.160 C 
ATOM      9  C   UNL     1      13.657  -2.459 -13.040  1.00  0.00     0.035 C 
ENDBRANCH   7   8
ENDBRANCH   1   7
BRANCH   2  10
ATOM     10  O   UNL     1      16.529   2.156 -10.588  1.00  0.00    -0.385 OA
ATOM     11  H   UNL     1      16.304   1.842  -9.673  1.00  0.00     0.211 HD
ENDBRANCH   2  10
BRANCH   3  12
ATOM     12  O   UNL     1      18.233  -0.643 -12.121  1.00  0.00    -0.387 OA
ATOM     13  H   UNL     1      18.304  -0.103 -12.947  1.00  0.00     0.211 HD
ENDBRANCH   3  12
BRANCH   5  14
ATOM     14  C   UNL     1      16.083  -1.914  -8.284  1.00  0.00     0.191 C 
BRANCH  14  15
ATOM     15  O   UNL     1      14.981  -1.325  -7.642  1.00  0.00    -0.394 OA
ATOM     16  H   UNL     1      15.226  -0.383  -7.447  1.00  0.00     0.210 HD
ENDBRANCH  14  15
ENDBRANCH   5  14
BRANCH   4  17
ATOM     17  O   UNL     1      18.731  -1.495  -9.577  1.00  0.00    -0.387 OA
ATOM     18  H   UNL     1      18.889  -1.595  -8.601  1.00  0.00     0.211 HD
ENDBRANCH   4  17
TORSDOF 7
ENDMDL
MODEL 8
REMARK VINA RESULT:    -5.473      1.584      2.595
REMARK INTER + INTRA:          -7.498
REMARK INTER:                  -7.103
REMARK INTRA:                  -0.395
REMARK UNBOUND:                -0.426
REMARK SMILES CCO[C@H]1O[C@H](CO)[C@@H](O)[C@@H](O)[C@@H]1O
REMARK SMILES IDX 4 1 13 2 11 3 9 4 6 5 5 6 3 7 2 8 1 9 14 10 12 12 7 14 8 15
REMARK SMILES IDX 10 17
REMARK H PARENT 14 11 12 13 8 16 10 18
REMARK Flexibility Score: inf
ROOT
ATOM      1  C   UNL     1      16.117  -1.491 -10.130  1.00  0.00     0.281 C 
ATOM      2  C   UNL     1      17.501  -0.822  -9.985  1.00  0.00     0.202 C 
ATOM      3  C   UNL     1      17.385   0.713  -9.871  1.00  0.00     0.179 C 
ATOM      4  C   UNL     1      16.405   1.286 -10.922  1.00  0.00     0.177 C 
ATOM      5  C   UNL     1      15.099   0.456 -10.980  1.00  0.00     0.178 C 
ATOM      6  O   UNL     1      15.388  -0.916 -11.202  1.00  0.00    -0.341 OA
ENDROOT
BRANCH   1   7
ATOM      7  O   UNL     1      15.369  -1.409  -8.924  1.00  0.00    -0.350 OA
BRANCH   7   8
ATOM      8  C   UNL     1      15.907  -2.257  -7.930  1.00  0.00     0.160 C 
ATOM      9  C   UNL     1      14.924  -3.381  -7.649  1.00  0.00     0.035 C 
ENDBRANCH   7   8
ENDBRANCH   1   7
BRANCH   2  10
ATOM     10  O   UNL     1      18.278  -1.152 -11.109  1.00  0.00    -0.385 OA
ATOM     11  H   UNL     1      19.153  -1.480 -10.771  1.00  0.00     0.211 HD
ENDBRANCH   2  10
BRANCH   3  12
ATOM     12  O   UNL     1      17.055   1.103  -8.558  1.00  0.00    -0.387 OA
ATOM     13  H   UNL     1      16.195   1.592  -8.578  1.00  0.00     0.211 HD
ENDBRANCH   3  12
BRANCH   5  14
ATOM     14  C   UNL     1      14.190   0.929 -12.126  1.00  0.00     0.191 C 
BRANCH  14  15
ATOM     15  O   UNL     1      14.851   1.866 -12.936  1.00  0.00    -0.394 OA
ATOM     16  H   UNL     1      14.328   2.708 -12.895  1.00  0.00     0.210 HD
ENDBRANCH  14  15
ENDBRANCH   5  14
BRANCH   4  17
ATOM     17  O   UNL     1      16.115   2.627 -10.617  1.00  0.00    -0.387 OA
ATOM     18  H   UNL     1      16.270   2.739  -9.642  1.00  0.00     0.211 HD
ENDBRANCH   4  17
TORSDOF 7
ENDMDL
MODEL 9
REMARK VINA RESULT:    -5.471      1.589      3.548
REMARK INTER + INTRA:          -7.496
REMARK INTER:                  -7.127
REMARK INTRA:                  -0.369
REMARK UNBOUND:                -0.426
REMARK SMILES CCO[C@H]1O[C@H](CO)[C@@H](O)[C@@H](O)[C@@H]1O
REMARK SMILES IDX 4 1 13 2 11 3 9 4 6 5 5 6 3 7 2 8 1 9 14 10 12 12 7 14 8 15
REMARK SMILES IDX 10 17
REMARK H PARENT 14 11 12 13 8 16 10 18
REMARK Flexibility Score: inf
ROOT
ATOM      1  C   UNL     1      15.885   0.505 -10.514  1.00  0.00     0.281 C 
ATOM      2  C   UNL     1      15.221   0.035 -11.826  1.00  0.00     0.202 C 
ATOM      3  C   UNL     1      15.673  -1.389 -12.216  1.00  0.00     0.179 C 
ATOM      4  C   UNL     1      17.204  -1.555 -12.075  1.00  0.00     0.177 C 
ATOM      5  C   UNL     1      17.708  -0.970 -10.732  1.00  0.00     0.178 C 
ATOM      6  O   UNL     1      17.296   0.381 -10.589  1.00  0.00    -0.341 OA
ENDROOT
BRANCH   1   7
ATOM      7  O   UNL     1      15.386  -0.208  -9.390  1.00  0.00    -0.350 OA
BRANCH   7   8
ATOM      8  C   UNL     1      15.150   0.658  -8.299  1.00  0.00     0.160 C 
ATOM      9  C   UNL     1      16.125   0.327  -7.181  1.00  0.00     0.035 C 
ENDBRANCH   7   8
ENDBRANCH   1   7
BRANCH   2  10
ATOM     10  O   UNL     1      15.564   0.935 -12.850  1.00  0.00    -0.385 OA
ATOM     11  H   UNL     1      15.368   0.482 -13.711  1.00  0.00     0.211 HD
ENDBRANCH   2  10
BRANCH   3  12
ATOM     12  O   UNL     1      14.956  -2.366 -11.499  1.00  0.00    -0.387 OA
ATOM     13  H   UNL     1      15.456  -3.219 -11.538  1.00  0.00     0.211 HD
ENDBRANCH   3  12
BRANCH   5  14
ATOM     14  C   UNL     1      19.243  -0.996 -10.656  1.00  0.00     0.191 C 
BRANCH  14  15
ATOM     15  O   UNL     1      19.721  -2.315 -10.610  1.00  0.00    -0.394 OA
ATOM     16  H   UNL     1      20.156  -2.499 -11.483  1.00  0.00     0.210 HD
ENDBRANCH  14  15
ENDBRANCH   5  14
BRANCH   4  17
ATOM     17  O   UNL     1      17.544  -2.915 -12.169  1.00  0.00    -0.387 OA
ATOM     18  H   UNL     1      16.690  -3.423 -12.182  1.00  0.00     0.211 HD
ENDBRANCH   4  17
TORSDOF 7
ENDMDL
