MODEL 1
REMARK VINA RESULT:    -4.854      0.000      0.000
REMARK INTER + INTRA:          -6.636
REMARK INTER:                  -6.273
REMARK INTRA:                  -0.363
REMARK UNBOUND:                -0.363
REMARK SMILES CCO[C@@H]1O[C@@H](CO)[C@@H](O)[C@H](O)[C@@H]1O
REMARK SMILES IDX 4 1 13 2 11 3 9 4 6 5 5 6 3 7 2 8 1 9 14 10 12 12 7 14 8 15
REMARK SMILES IDX 10 17
REMARK H PARENT 14 11 12 13 8 16 10 18
REMARK Flexibility Score: inf
ROOT
ATOM      1  C   UNL     1      31.535   2.772  39.179  1.00  0.00     0.281 C 
ATOM      2  C   UNL     1      32.371   1.635  38.554  1.00  0.00     0.202 C 
ATOM      3  C   UNL     1      33.389   1.036  39.551  1.00  0.00     0.179 C 
ATOM      4  C   UNL     1      32.746   0.800  40.936  1.00  0.00     0.177 C 
ATOM      5  C   UNL     1      31.933   2.041  41.375  1.00  0.00     0.178 C 
ATOM      6  O   UNL     1      30.948   2.360  40.406  1.00  0.00    -0.341 OA
ENDROOT
BRANCH   1   7
ATOM      7  O   UNL     1      32.321   3.943  39.338  1.00  0.00    -0.350 OA
BRANCH   7   8
ATOM      8  C   UNL     1      31.495   5.089  39.358  1.00  0.00     0.160 C 
ATOM      9  C   UNL     1      31.497   5.675  40.761  1.00  0.00     0.035 C 
ENDBRANCH   7   8
ENDBRANCH   1   7
BRANCH   2  10
ATOM     10  O   UNL     1      33.023   2.103  37.401  1.00  0.00    -0.385 OA
ATOM     11  H   UNL     1      32.428   1.897  36.633  1.00  0.00     0.211 HD
ENDBRANCH   2  10
BRANCH   3  12
ATOM     12  O   UNL     1      34.559   1.814  39.644  1.00  0.00    -0.387 OA
ATOM     13  H   UNL     1      35.055   1.545  40.457  1.00  0.00     0.211 HD
ENDBRANCH   3  12
BRANCH   5  14
ATOM     14  C   UNL     1      31.233   1.810  42.721  1.00  0.00     0.191 C 
BRANCH  14  15
ATOM     15  O   UNL     1      31.890   0.805  43.443  1.00  0.00    -0.394 OA
ATOM     16  H   UNL     1      32.707   1.225  43.819  1.00  0.00     0.210 HD
ENDBRANCH  14  15
ENDBRANCH   5  14
BRANCH   4  17
ATOM     17  O   UNL     1      31.896  -0.319  40.872  1.00  0.00    -0.387 OA
ATOM     18  H   UNL     1      31.269  -0.249  41.639  1.00  0.00     0.211 HD
ENDBRANCH   4  17
TORSDOF 7
ENDMDL
MODEL 2
REMARK VINA RESULT:    -4.852     10.202     11.257
REMARK INTER + INTRA:          -6.633
REMARK INTER:                  -6.255
REMARK INTRA:                  -0.377
REMARK UNBOUND:                -0.363
REMARK SMILES CCO[C@@H]1O[C@@H](CO)[C@@H](O)[C@H](O)[C@@H]1O
REMARK SMILES IDX 4 1 13 2 11 3 9 4 6 5 5 6 3 7 2 8 1 9 14 10 12 12 7 14 8 15
REMARK SMILES IDX 10 17
REMARK H PARENT 14 11 12 13 8 16 10 18
REMARK Flexibility Score: inf
ROOT
ATOM      1  C   UNL     1      22.415   3.229  40.047  1.00  0.00     0.281 C 
ATOM      2  C   UNL     1      22.312   3.817  41.470  1.00  0.00     0.202 C 
ATOM      3  C   UNL     1      20.934   3.557  42.117  1.00  0.00     0.179 C 
ATOM      4  C   UNL     1      20.474   2.099  41.890  1.00  0.00     0.177 C 
ATOM      5  C   UNL     1      20.679   1.691  40.411  1.00  0.00     0.178 C 
ATOM      6  O   UNL     1      22.034   1.860  40.031  1.00  0.00    -0.341 OA
ENDROOT
BRANCH   1   7
ATOM      7  O   UNL     1      21.653   3.999  39.130  1.00  0.00    -0.350 OA
BRANCH   7   8
ATOM      8  C   UNL     1      22.350   4.138  37.909  1.00  0.00     0.160 C 
ATOM      9  C   UNL     1      21.451   4.839  36.903  1.00  0.00     0.035 C 
ENDBRANCH   7   8
ENDBRANCH   1   7
BRANCH   2  10
ATOM     10  O   UNL     1      22.592   5.194  41.435  1.00  0.00    -0.385 OA
ATOM     11  H   UNL     1      23.574   5.283  41.318  1.00  0.00     0.211 HD
ENDBRANCH   2  10
BRANCH   3  12
ATOM     12  O   UNL     1      19.964   4.483  41.689  1.00  0.00    -0.387 OA
ATOM     13  H   UNL     1      19.180   4.423  42.290  1.00  0.00     0.211 HD
ENDBRANCH   3  12
BRANCH   5  14
ATOM     14  C   UNL     1      20.286   0.227  40.171  1.00  0.00     0.191 C 
BRANCH  14  15
ATOM     15  O   UNL     1      21.412  -0.601  40.274  1.00  0.00    -0.394 OA
ATOM     16  H   UNL     1      21.933  -0.462  39.440  1.00  0.00     0.210 HD
ENDBRANCH  14  15
ENDBRANCH   5  14
BRANCH   4  17
ATOM     17  O   UNL     1      21.214   1.240  42.721  1.00  0.00    -0.387 OA
ATOM     18  H   UNL     1      21.893   1.798  43.183  1.00  0.00     0.211 HD
ENDBRANCH   4  17
TORSDOF 7
ENDMDL
MODEL 3
REMARK VINA RESULT:    -4.631      9.632     11.158
REMARK INTER + INTRA:          -6.347
REMARK INTER:                  -5.896
REMARK INTRA:                  -0.451
REMARK UNBOUND:                -0.363
REMARK SMILES CCO[C@@H]1O[C@@H](CO)[C@@H](O)[C@H](O)[C@@H]1O
REMARK SMILES IDX 4 1 13 2 11 3 9 4 6 5 5 6 3 7 2 8 1 9 14 10 12 12 7 14 8 15
REMARK SMILES IDX 10 17
REMARK H PARENT 14 11 12 13 8 16 10 18
REMARK Flexibility Score: inf
ROOT
ATOM      1  C   UNL     1      22.181   3.359  38.656  1.00  0.00     0.281 C 
ATOM      2  C   UNL     1      20.853   3.989  38.187  1.00  0.00     0.202 C 
ATOM      3  C   UNL     1      20.998   4.737  36.843  1.00  0.00     0.179 C 
ATOM      4  C   UNL     1      21.819   3.912  35.827  1.00  0.00     0.177 C 
ATOM      5  C   UNL     1      23.096   3.347  36.494  1.00  0.00     0.178 C 
ATOM      6  O   UNL     1      22.762   2.567  37.629  1.00  0.00    -0.341 OA
ENDROOT
BRANCH   1   7
ATOM      7  O   UNL     1      23.075   4.360  39.119  1.00  0.00    -0.350 OA
BRANCH   7   8
ATOM      8  C   UNL     1      23.874   3.855  40.169  1.00  0.00     0.160 C 
ATOM      9  C   UNL     1      22.972   3.221  41.217  1.00  0.00     0.035 C 
ENDBRANCH   7   8
ENDBRANCH   1   7
BRANCH   2  10
ATOM     10  O   UNL     1      20.358   4.848  39.182  1.00  0.00    -0.385 OA
ATOM     11  H   UNL     1      19.607   5.354  38.776  1.00  0.00     0.211 HD
ENDBRANCH   2  10
BRANCH   3  12
ATOM     12  O   UNL     1      21.526   6.032  37.012  1.00  0.00    -0.387 OA
ATOM     13  H   UNL     1      21.410   6.535  36.168  1.00  0.00     0.211 HD
ENDBRANCH   3  12
BRANCH   5  14
ATOM     14  C   UNL     1      23.900   2.472  35.523  1.00  0.00     0.191 C 
BRANCH  14  15
ATOM     15  O   UNL     1      23.922   3.054  34.249  1.00  0.00    -0.394 OA
ATOM     16  H   UNL     1      23.830   2.306  33.603  1.00  0.00     0.210 HD
ENDBRANCH  14  15
ENDBRANCH   5  14
BRANCH   4  17
ATOM     17  O   UNL     1      21.034   2.850  35.343  1.00  0.00    -0.387 OA
ATOM     18  H   UNL     1      20.146   3.230  35.113  1.00  0.00     0.211 HD
ENDBRANCH   4  17
TORSDOF 7
ENDMDL
MODEL 4
REMARK VINA RESULT:    -4.622      2.011      2.137
REMARK INTER + INTRA:          -6.336
REMARK INTER:                  -5.935
REMARK INTRA:                  -0.401
REMARK UNBOUND:                -0.363
REMARK SMILES CCO[C@@H]1O[C@@H](CO)[C@@H](O)[C@H](O)[C@@H]1O
REMARK SMILES IDX 4 1 13 2 11 3 9 4 6 5 5 6 3 7 2 8 1 9 14 10 12 12 7 14 8 15
REMARK SMILES IDX 10 17
REMARK H PARENT 14 11 12 13 8 16 10 18
REMARK Flexibility Score: inf
ROOT
ATOM      1  C   UNL     1      32.545   3.745  40.623  1.00  0.00     0.281 C 
ATOM      2  C   UNL     1      31.936   2.835  39.535  1.00  0.00     0.202 C 
ATOM      3  C   UNL     1      32.085   1.334  39.872  1.00  0.00     0.179 C 
ATOM      4  C   UNL     1      31.731   1.052  41.348  1.00  0.00     0.177 C 
ATOM      5  C   UNL     1      32.416   2.083  42.277  1.00  0.00     0.178 C 
ATOM      6  O   UNL     1      32.050   3.404  41.911  1.00  0.00    -0.341 OA
ENDROOT
BRANCH   1   7
ATOM      7  O   UNL     1      33.963   3.705  40.575  1.00  0.00    -0.350 OA
BRANCH   7   8
ATOM      8  C   UNL     1      34.506   4.884  41.132  1.00  0.00     0.160 C 
ATOM      9  C   UNL     1      35.683   4.514  42.021  1.00  0.00     0.035 C 
ENDBRANCH   7   8
ENDBRANCH   1   7
BRANCH   2  10
ATOM     10  O   UNL     1      32.521   3.126  38.292  1.00  0.00    -0.385 OA
ATOM     11  H   UNL     1      33.382   3.584  38.481  1.00  0.00     0.211 HD
ENDBRANCH   2  10
BRANCH   3  12
ATOM     12  O   UNL     1      33.361   0.841  39.537  1.00  0.00    -0.387 OA
ATOM     13  H   UNL     1      33.394   0.683  38.561  1.00  0.00     0.211 HD
ENDBRANCH   3  12
BRANCH   5  14
ATOM     14  C   UNL     1      32.032   1.863  43.746  1.00  0.00     0.191 C 
BRANCH  14  15
ATOM     15  O   UNL     1      31.885   0.495  44.010  1.00  0.00    -0.394 OA
ATOM     16  H   UNL     1      31.019   0.227  43.604  1.00  0.00     0.210 HD
ENDBRANCH  14  15
ENDBRANCH   5  14
BRANCH   4  17
ATOM     17  O   UNL     1      30.336   1.123  41.517  1.00  0.00    -0.387 OA
ATOM     18  H   UNL     1      30.138   2.011  41.915  1.00  0.00     0.211 HD
ENDBRANCH   4  17
TORSDOF 7
ENDMDL
MODEL 5
REMARK VINA RESULT:    -4.581     10.169     11.772
REMARK INTER + INTRA:          -6.283
REMARK INTER:                  -6.064
REMARK INTRA:                  -0.219
REMARK UNBOUND:                -0.363
REMARK SMILES CCO[C@@H]1O[C@@H](CO)[C@@H](O)[C@H](O)[C@@H]1O
REMARK SMILES IDX 4 1 13 2 11 3 9 4 6 5 5 6 3 7 2 8 1 9 14 10 12 12 7 14 8 15
REMARK SMILES IDX 10 17
REMARK H PARENT 14 11 12 13 8 16 10 18
REMARK Flexibility Score: inf
ROOT
ATOM      1  C   UNL     1      20.638   1.286  40.600  1.00  0.00     0.281 C 
ATOM      2  C   UNL     1      20.572   1.968  41.983  1.00  0.00     0.202 C 
ATOM      3  C   UNL     1      21.391   3.278  42.034  1.00  0.00     0.179 C 
ATOM      4  C   UNL     1      21.147   4.141  40.777  1.00  0.00     0.177 C 
ATOM      5  C   UNL     1      21.231   3.274  39.499  1.00  0.00     0.178 C 
ATOM      6  O   UNL     1      20.307   2.200  39.563  1.00  0.00    -0.341 OA
ENDROOT
BRANCH   1   7
ATOM      7  O   UNL     1      21.911   0.694  40.394  1.00  0.00    -0.350 OA
BRANCH   7   8
ATOM      8  C   UNL     1      21.794  -0.445  39.567  1.00  0.00     0.160 C 
ATOM      9  C   UNL     1      22.821  -0.354  38.450  1.00  0.00     0.035 C 
ENDBRANCH   7   8
ENDBRANCH   1   7
BRANCH   2  10
ATOM     10  O   UNL     1      21.005   1.072  42.975  1.00  0.00    -0.385 OA
ATOM     11  H   UNL     1      21.933   0.809  42.737  1.00  0.00     0.211 HD
ENDBRANCH   2  10
BRANCH   3  12
ATOM     12  O   UNL     1      22.762   3.036  42.245  1.00  0.00    -0.387 OA
ATOM     13  H   UNL     1      22.865   2.475  43.053  1.00  0.00     0.211 HD
ENDBRANCH   3  12
BRANCH   5  14
ATOM     14  C   UNL     1      20.932   4.096  38.238  1.00  0.00     0.191 C 
BRANCH  14  15
ATOM     15  O   UNL     1      22.043   4.877  37.893  1.00  0.00    -0.394 OA
ATOM     16  H   UNL     1      22.138   4.800  36.908  1.00  0.00     0.210 HD
ENDBRANCH  14  15
ENDBRANCH   5  14
BRANCH   4  17
ATOM     17  O   UNL     1      19.875   4.736  40.858  1.00  0.00    -0.387 OA
ATOM     18  H   UNL     1      20.009   5.717  40.780  1.00  0.00     0.211 HD
ENDBRANCH   4  17
TORSDOF 7
ENDMDL
MODEL 6
REMARK VINA RESULT:    -4.480     10.184     11.349
REMARK INTER + INTRA:          -6.152
REMARK INTER:                  -5.752
REMARK INTRA:                  -0.400
REMARK UNBOUND:                -0.363
REMARK SMILES CCO[C@@H]1O[C@@H](CO)[C@@H](O)[C@H](O)[C@@H]1O
REMARK SMILES IDX 4 1 13 2 11 3 9 4 6 5 5 6 3 7 2 8 1 9 14 10 12 12 7 14 8 15
REMARK SMILES IDX 10 17
REMARK H PARENT 14 11 12 13 8 16 10 18
REMARK Flexibility Score: inf
ROOT
ATOM      1  C   UNL     1      22.086   2.252  39.416  1.00  0.00     0.281 C 
ATOM      2  C   UNL     1      22.374   3.725  39.776  1.00  0.00     0.202 C 
ATOM      3  C   UNL     1      21.205   4.385  40.541  1.00  0.00     0.179 C 
ATOM      4  C   UNL     1      20.659   3.452  41.645  1.00  0.00     0.177 C 
ATOM      5  C   UNL     1      20.460   2.020  41.095  1.00  0.00     0.178 C 
ATOM      6  O   UNL     1      21.674   1.517  40.561  1.00  0.00    -0.341 OA
ENDROOT
BRANCH   1   7
ATOM      7  O   UNL     1      21.134   2.170  38.367  1.00  0.00    -0.350 OA
BRANCH   7   8
ATOM      8  C   UNL     1      21.585   1.283  37.364  1.00  0.00     0.160 C 
ATOM      9  C   UNL     1      21.794   2.060  36.074  1.00  0.00     0.035 C 
ENDBRANCH   7   8
ENDBRANCH   1   7
BRANCH   2  10
ATOM     10  O   UNL     1      22.676   4.448  38.610  1.00  0.00    -0.385 OA
ATOM     11  H   UNL     1      22.130   4.054  37.880  1.00  0.00     0.211 HD
ENDBRANCH   2  10
BRANCH   3  12
ATOM     12  O   UNL     1      20.185   4.821  39.674  1.00  0.00    -0.387 OA
ATOM     13  H   UNL     1      20.255   4.320  38.823  1.00  0.00     0.211 HD
ENDBRANCH   3  12
BRANCH   5  14
ATOM     14  C   UNL     1      19.976   1.058  42.188  1.00  0.00     0.191 C 
BRANCH  14  15
ATOM     15  O   UNL     1      21.009   0.796  43.097  1.00  0.00    -0.394 OA
ATOM     16  H   UNL     1      20.648   1.017  43.995  1.00  0.00     0.210 HD
ENDBRANCH  14  15
ENDBRANCH   5  14
BRANCH   4  17
ATOM     17  O   UNL     1      21.565   3.420  42.720  1.00  0.00    -0.387 OA
ATOM     18  H   UNL     1      21.029   3.502  43.552  1.00  0.00     0.211 HD
ENDBRANCH   4  17
TORSDOF 7
ENDMDL
MODEL 7
REMARK VINA RESULT:    -4.465      7.907      9.896
REMARK INTER + INTRA:          -6.133
REMARK INTER:                  -5.889
REMARK INTRA:                  -0.244
REMARK UNBOUND:                -0.363
REMARK SMILES CCO[C@@H]1O[C@@H](CO)[C@@H](O)[C@H](O)[C@@H]1O
REMARK SMILES IDX 4 1 13 2 11 3 9 4 6 5 5 6 3 7 2 8 1 9 14 10 12 12 7 14 8 15
REMARK SMILES IDX 10 17
REMARK H PARENT 14 11 12 13 8 16 10 18
REMARK Flexibility Score: inf
ROOT
ATOM      1  C   UNL     1      36.711   7.673  43.707  1.00  0.00     0.281 C 
ATOM      2  C   UNL     1      36.398   8.257  45.101  1.00  0.00     0.202 C 
ATOM      3  C   UNL     1      37.303   9.460  45.452  1.00  0.00     0.179 C 
ATOM      4  C   UNL     1      37.432  10.433  44.259  1.00  0.00     0.177 C 
ATOM      5  C   UNL     1      37.721   9.655  42.953  1.00  0.00     0.178 C 
ATOM      6  O   UNL     1      36.710   8.690  42.714  1.00  0.00    -0.341 OA
ENDROOT
BRANCH   1   7
ATOM      7  O   UNL     1      37.937   6.958  43.727  1.00  0.00    -0.350 OA
BRANCH   7   8
ATOM      8  C   UNL     1      37.860   5.830  42.880  1.00  0.00     0.160 C 
ATOM      9  C   UNL     1      36.482   5.201  43.017  1.00  0.00     0.035 C 
ENDBRANCH   7   8
ENDBRANCH   1   7
BRANCH   2  10
ATOM     10  O   UNL     1      36.511   7.250  46.073  1.00  0.00    -0.385 OA
ATOM     11  H   UNL     1      37.481   7.121  46.240  1.00  0.00     0.211 HD
ENDBRANCH   2  10
BRANCH   3  12
ATOM     12  O   UNL     1      38.563   9.052  45.931  1.00  0.00    -0.387 OA
ATOM     13  H   UNL     1      39.042   9.845  46.279  1.00  0.00     0.211 HD
ENDBRANCH   3  12
BRANCH   5  14
ATOM     14  C   UNL     1      37.793  10.593  41.742  1.00  0.00     0.191 C 
BRANCH  14  15
ATOM     15  O   UNL     1      38.151   9.876  40.593  1.00  0.00    -0.394 OA
ATOM     16  H   UNL     1      37.559   9.080  40.569  1.00  0.00     0.210 HD
ENDBRANCH  14  15
ENDBRANCH   5  14
BRANCH   4  17
ATOM     17  O   UNL     1      36.236  11.160  44.118  1.00  0.00    -0.387 OA
ATOM     18  H   UNL     1      36.201  11.808  44.869  1.00  0.00     0.211 HD
ENDBRANCH   4  17
TORSDOF 7
ENDMDL
MODEL 8
REMARK VINA RESULT:    -4.456      1.733      3.473
REMARK INTER + INTRA:          -6.121
REMARK INTER:                  -5.655
REMARK INTRA:                  -0.466
REMARK UNBOUND:                -0.363
REMARK SMILES CCO[C@@H]1O[C@@H](CO)[C@@H](O)[C@H](O)[C@@H]1O
REMARK SMILES IDX 4 1 13 2 11 3 9 4 6 5 5 6 3 7 2 8 1 9 14 10 12 12 7 14 8 15
REMARK SMILES IDX 10 17
REMARK H PARENT 14 11 12 13 8 16 10 18
REMARK Flexibility Score: inf
ROOT
ATOM      1  C   UNL     1      32.935   0.376  39.651  1.00  0.00     0.281 C 
ATOM      2  C   UNL     1      33.877   1.547  39.301  1.00  0.00     0.202 C 
ATOM      3  C   UNL     1      33.237   2.924  39.586  1.00  0.00     0.179 C 
ATOM      4  C   UNL     1      32.525   2.939  40.958  1.00  0.00     0.177 C 
ATOM      5  C   UNL     1      31.650   1.674  41.127  1.00  0.00     0.178 C 
ATOM      6  O   UNL     1      32.434   0.502  40.975  1.00  0.00    -0.341 OA
ENDROOT
BRANCH   1   7
ATOM      7  O   UNL     1      31.888   0.273  38.698  1.00  0.00    -0.350 OA
BRANCH   7   8
ATOM      8  C   UNL     1      31.574  -1.083  38.460  1.00  0.00     0.160 C 
ATOM      9  C   UNL     1      32.850  -1.834  38.114  1.00  0.00     0.035 C 
ENDBRANCH   7   8
ENDBRANCH   1   7
BRANCH   2  10
ATOM     10  O   UNL     1      34.271   1.453  37.956  1.00  0.00    -0.385 OA
ATOM     11  H   UNL     1      33.441   1.349  37.421  1.00  0.00     0.211 HD
ENDBRANCH   2  10
BRANCH   3  12
ATOM     12  O   UNL     1      32.378   3.335  38.548  1.00  0.00    -0.387 OA
ATOM     13  H   UNL     1      32.073   2.534  38.054  1.00  0.00     0.211 HD
ENDBRANCH   3  12
BRANCH   5  14
ATOM     14  C   UNL     1      30.979   1.633  42.507  1.00  0.00     0.191 C 
BRANCH  14  15
ATOM     15  O   UNL     1      31.756   0.886  43.402  1.00  0.00    -0.394 OA
ATOM     16  H   UNL     1      32.598   1.397  43.529  1.00  0.00     0.210 HD
ENDBRANCH  14  15
ENDBRANCH   5  14
BRANCH   4  17
ATOM     17  O   UNL     1      33.486   2.985  41.983  1.00  0.00    -0.387 OA
ATOM     18  H   UNL     1      34.366   3.135  41.548  1.00  0.00     0.211 HD
ENDBRANCH   4  17
TORSDOF 7
ENDMDL
MODEL 9
REMARK VINA RESULT:    -4.415      9.440     11.040
REMARK INTER + INTRA:          -6.068
REMARK INTER:                  -5.665
REMARK INTRA:                  -0.403
REMARK UNBOUND:                -0.363
REMARK SMILES CCO[C@@H]1O[C@@H](CO)[C@@H](O)[C@H](O)[C@@H]1O
REMARK SMILES IDX 4 1 13 2 11 3 9 4 6 5 5 6 3 7 2 8 1 9 14 10 12 12 7 14 8 15
REMARK SMILES IDX 10 17
REMARK H PARENT 14 11 12 13 8 16 10 18
REMARK Flexibility Score: inf
ROOT
ATOM      1  C   UNL     1      20.984   2.761  40.529  1.00  0.00     0.281 C 
ATOM      2  C   UNL     1      21.632   4.067  41.035  1.00  0.00     0.202 C 
ATOM      3  C   UNL     1      23.099   4.214  40.573  1.00  0.00     0.179 C 
ATOM      4  C   UNL     1      23.258   3.846  39.081  1.00  0.00     0.177 C 
ATOM      5  C   UNL     1      22.520   2.522  38.768  1.00  0.00     0.178 C 
ATOM      6  O   UNL     1      21.151   2.618  39.125  1.00  0.00    -0.341 OA
ENDROOT
BRANCH   1   7
ATOM      7  O   UNL     1      21.495   1.641  41.236  1.00  0.00    -0.350 OA
BRANCH   7   8
ATOM      8  C   UNL     1      20.467   0.701  41.473  1.00  0.00     0.160 C 
ATOM      9  C   UNL     1      19.875   0.952  42.852  1.00  0.00     0.035 C 
ENDBRANCH   7   8
ENDBRANCH   1   7
BRANCH   2  10
ATOM     10  O   UNL     1      21.544   4.128  42.436  1.00  0.00    -0.385 OA
ATOM     11  H   UNL     1      20.596   4.323  42.655  1.00  0.00     0.211 HD
ENDBRANCH   2  10
BRANCH   3  12
ATOM     12  O   UNL     1      23.987   3.485  41.388  1.00  0.00    -0.387 OA
ATOM     13  H   UNL     1      23.463   2.852  41.940  1.00  0.00     0.211 HD
ENDBRANCH   3  12
BRANCH   5  14
ATOM     14  C   UNL     1      22.610   2.164  37.279  1.00  0.00     0.191 C 
BRANCH  14  15
ATOM     15  O   UNL     1      23.619   2.914  36.660  1.00  0.00    -0.394 OA
ATOM     16  H   UNL     1      24.207   3.241  37.390  1.00  0.00     0.210 HD
ENDBRANCH  14  15
ENDBRANCH   5  14
BRANCH   4  17
ATOM     17  O   UNL     1      22.728   4.878  38.286  1.00  0.00    -0.387 OA
ATOM     18  H   UNL     1      21.748   4.725  38.229  1.00  0.00     0.211 HD
ENDBRANCH   4  17
TORSDOF 7
ENDMDL
