MODEL 1
REMARK VINA RESULT:    -4.827      0.000      0.000
REMARK INTER + INTRA:          -9.685
REMARK INTER:                  -8.213
REMARK INTRA:                  -1.473
REMARK UNBOUND:                -1.473
REMARK SMILES CCCCCCCCCCCCCC(=O)[O-]
REMARK SMILES IDX 8 1 9 2 10 3 11 4 12 5 13 6 14 7 15 8 16 9 7 10 6 11 5 12
REMARK SMILES IDX 4 13 3 14 2 15 1 16
REMARK H PARENT
REMARK Flexibility Score: inf
ROOT
ATOM      1  C   UNL     1      99.612  92.143  88.905  1.00  0.00     0.000 C 
ENDROOT
BRANCH   1   2
ATOM      2  C   UNL     1      99.640  90.719  89.480  1.00  0.00     0.000 C 
BRANCH   2   3
ATOM      3  C   UNL     1      98.452  90.483  90.421  1.00  0.00     0.000 C 
BRANCH   3   4
ATOM      4  C   UNL     1      98.896  90.521  91.890  1.00  0.00     0.000 C 
BRANCH   4   5
ATOM      5  C   UNL     1      99.483  89.181  92.371  1.00  0.00     0.006 C 
BRANCH   5   6
ATOM      6  C   UNL     1     101.016  89.166  92.482  1.00  0.00     0.053 C 
BRANCH   6   7
ATOM      7  C   UNL     1     101.634  88.154  91.566  1.00  0.00     0.041 C 
ATOM      8  O   UNL     1     102.824  87.779  91.747  1.00  0.00    -0.550 OA
ATOM      9  O   UNL     1     100.889  87.603  90.533  1.00  0.00    -0.550 OA
ENDBRANCH   6   7
ENDBRANCH   5   6
ENDBRANCH   4   5
ENDBRANCH   3   4
ENDBRANCH   2   3
ENDBRANCH   1   2
BRANCH   1  10
ATOM     10  C   UNL     1      98.422  92.377  87.960  1.00  0.00     0.000 C 
BRANCH  10  11
ATOM     11  C   UNL     1      98.631  91.743  86.576  1.00  0.00    -0.000 C 
BRANCH  11  12
ATOM     12  C   UNL     1     100.009  92.105  86.009  1.00  0.00    -0.000 C 
BRANCH  12  13
ATOM     13  C   UNL     1     100.854  90.844  85.772  1.00  0.00    -0.000 C 
BRANCH  13  14
ATOM     14  C   UNL     1     100.001  89.571  85.664  1.00  0.00    -0.000 C 
BRANCH  14  15
ATOM     15  C   UNL     1     100.504  88.444  86.579  1.00  0.00    -0.003 C 
ATOM     16  C   UNL     1      99.340  87.722  87.251  1.00  0.00     0.004 C 
ENDBRANCH  14  15
ENDBRANCH  13  14
ENDBRANCH  12  13
ENDBRANCH  11  12
ENDBRANCH  10  11
ENDBRANCH   1  10
TORSDOF 12
ENDMDL
MODEL 2
REMARK VINA RESULT:    -4.626      1.187      3.467
REMARK INTER + INTRA:          -9.345
REMARK INTER:                  -7.728
REMARK INTRA:                  -1.616
REMARK UNBOUND:                -1.473
REMARK SMILES CCCCCCCCCCCCCC(=O)[O-]
REMARK SMILES IDX 8 1 9 2 10 3 11 4 12 5 13 6 14 7 15 8 16 9 7 10 6 11 5 12
REMARK SMILES IDX 4 13 3 14 2 15 1 16
REMARK H PARENT
REMARK Flexibility Score: inf
ROOT
ATOM      1  C   UNL     1      99.508  89.659  85.493  1.00  0.00     0.000 C 
ENDROOT
BRANCH   1   2
ATOM      2  C   UNL     1     100.096  88.343  86.027  1.00  0.00     0.000 C 
BRANCH   2   3
ATOM      3  C   UNL     1      99.699  88.119  87.491  1.00  0.00     0.000 C 
BRANCH   3   4
ATOM      4  C   UNL     1     100.907  88.296  88.423  1.00  0.00     0.000 C 
BRANCH   4   5
ATOM      5  C   UNL     1     100.791  87.468  89.716  1.00  0.00     0.006 C 
BRANCH   5   6
ATOM      6  C   UNL     1     101.776  87.883  90.821  1.00  0.00     0.053 C 
BRANCH   6   7
ATOM      7  C   UNL     1     101.090  88.078  92.138  1.00  0.00     0.041 C 
ATOM      8  O   UNL     1     100.461  87.125  92.672  1.00  0.00    -0.550 OA
ATOM      9  O   UNL     1     101.171  89.300  92.791  1.00  0.00    -0.550 OA
ENDBRANCH   6   7
ENDBRANCH   5   6
ENDBRANCH   4   5
ENDBRANCH   3   4
ENDBRANCH   2   3
ENDBRANCH   1   2
BRANCH   1  10
ATOM     10  C   UNL     1     100.511  90.822  85.549  1.00  0.00     0.000 C 
BRANCH  10  11
ATOM     11  C   UNL     1      99.893  92.112  86.109  1.00  0.00    -0.000 C 
BRANCH  11  12
ATOM     12  C   UNL     1      98.504  91.843  86.701  1.00  0.00    -0.000 C 
BRANCH  12  13
ATOM     13  C   UNL     1      98.410  92.363  88.143  1.00  0.00    -0.000 C 
BRANCH  13  14
ATOM     14  C   UNL     1      99.721  92.183  88.924  1.00  0.00    -0.000 C 
BRANCH  14  15
ATOM     15  C   UNL     1      99.622  91.092  90.001  1.00  0.00    -0.003 C 
ATOM     16  C   UNL     1      98.169  90.712  90.266  1.00  0.00     0.004 C 
ENDBRANCH  14  15
ENDBRANCH  13  14
ENDBRANCH  12  13
ENDBRANCH  11  12
ENDBRANCH  10  11
ENDBRANCH   1  10
TORSDOF 12
ENDMDL
MODEL 3
REMARK VINA RESULT:    -4.586      1.055      4.025
REMARK INTER + INTRA:          -9.275
REMARK INTER:                  -7.622
REMARK INTRA:                  -1.653
REMARK UNBOUND:                -1.473
REMARK SMILES CCCCCCCCCCCCCC(=O)[O-]
REMARK SMILES IDX 8 1 9 2 10 3 11 4 12 5 13 6 14 7 15 8 16 9 7 10 6 11 5 12
REMARK SMILES IDX 4 13 3 14 2 15 1 16
REMARK H PARENT
REMARK Flexibility Score: inf
ROOT
ATOM      1  C   UNL     1     100.344  91.979  86.309  1.00  0.00     0.000 C 
ENDROOT
BRANCH   1   2
ATOM      2  C   UNL     1     101.103  90.686  85.977  1.00  0.00     0.000 C 
BRANCH   2   3
ATOM      3  C   UNL     1     100.130  89.561  85.601  1.00  0.00     0.000 C 
BRANCH   3   4
ATOM      4  C   UNL     1     100.511  88.247  86.299  1.00  0.00     0.000 C 
BRANCH   4   5
ATOM      5  C   UNL     1     101.095  88.467  87.707  1.00  0.00     0.006 C 
BRANCH   5   6
ATOM      6  C   UNL     1     100.360  87.704  88.821  1.00  0.00     0.053 C 
BRANCH   6   7
ATOM      7  C   UNL     1     101.170  87.633  90.079  1.00  0.00     0.041 C 
ATOM      8  O   UNL     1     102.425  87.736  90.032  1.00  0.00    -0.550 OA
ATOM      9  O   UNL     1     100.538  87.485  91.306  1.00  0.00    -0.550 OA
ENDBRANCH   6   7
ENDBRANCH   5   6
ENDBRANCH   4   5
ENDBRANCH   3   4
ENDBRANCH   2   3
ENDBRANCH   1   2
BRANCH   1  10
ATOM     10  C   UNL     1      98.865  91.729  86.644  1.00  0.00     0.000 C 
BRANCH  10  11
ATOM     11  C   UNL     1      98.438  92.386  87.967  1.00  0.00    -0.000 C 
BRANCH  11  12
ATOM     12  C   UNL     1      99.587  92.376  88.981  1.00  0.00    -0.000 C 
BRANCH  12  13
ATOM     13  C   UNL     1      99.554  91.102  89.838  1.00  0.00    -0.000 C 
BRANCH  13  14
ATOM     14  C   UNL     1      98.128  90.573  90.058  1.00  0.00    -0.000 C 
BRANCH  14  15
ATOM     15  C   UNL     1      97.874  90.144  91.510  1.00  0.00    -0.003 C 
ATOM     16  C   UNL     1      99.072  90.469  92.397  1.00  0.00     0.004 C 
ENDBRANCH  14  15
ENDBRANCH  13  14
ENDBRANCH  12  13
ENDBRANCH  11  12
ENDBRANCH  10  11
ENDBRANCH   1  10
TORSDOF 12
ENDMDL
MODEL 4
REMARK VINA RESULT:    -4.583      1.898      3.665
REMARK INTER + INTRA:          -9.272
REMARK INTER:                  -7.938
REMARK INTRA:                  -1.333
REMARK UNBOUND:                -1.473
REMARK SMILES CCCCCCCCCCCCCC(=O)[O-]
REMARK SMILES IDX 8 1 9 2 10 3 11 4 12 5 13 6 14 7 15 8 16 9 7 10 6 11 5 12
REMARK SMILES IDX 4 13 3 14 2 15 1 16
REMARK H PARENT
REMARK Flexibility Score: inf
ROOT
ATOM      1  C   UNL     1     101.310  88.667  87.563  1.00  0.00     0.000 C 
ENDROOT
BRANCH   1   2
ATOM      2  C   UNL     1     100.379  88.445  88.764  1.00  0.00     0.000 C 
BRANCH   2   3
ATOM      3  C   UNL     1     100.927  87.350  89.688  1.00  0.00     0.000 C 
BRANCH   3   4
ATOM      4  C   UNL     1     101.625  87.961  90.912  1.00  0.00     0.000 C 
BRANCH   4   5
ATOM      5  C   UNL     1     100.879  89.184  91.476  1.00  0.00     0.006 C 
BRANCH   5   6
ATOM      6  C   UNL     1      99.624  88.837  92.293  1.00  0.00     0.053 C 
BRANCH   6   7
ATOM      7  C   UNL     1      98.618  89.947  92.274  1.00  0.00     0.041 C 
ATOM      8  O   UNL     1      97.878  90.115  91.267  1.00  0.00    -0.550 OA
ATOM      9  O   UNL     1      98.474  90.775  93.378  1.00  0.00    -0.550 OA
ENDBRANCH   6   7
ENDBRANCH   5   6
ENDBRANCH   4   5
ENDBRANCH   3   4
ENDBRANCH   2   3
ENDBRANCH   1   2
BRANCH   1  10
ATOM     10  C   UNL     1     100.637  88.330  86.222  1.00  0.00     0.000 C 
BRANCH  10  11
ATOM     11  C   UNL     1     100.027  89.563  85.538  1.00  0.00    -0.000 C 
BRANCH  11  12
ATOM     12  C   UNL     1     100.902  90.802  85.759  1.00  0.00    -0.000 C 
BRANCH  12  13
ATOM     13  C   UNL     1     100.040  92.056  85.965  1.00  0.00    -0.000 C 
BRANCH  13  14
ATOM     14  C   UNL     1      98.690  91.744  86.630  1.00  0.00    -0.000 C 
BRANCH  14  15
ATOM     15  C   UNL     1      98.509  92.471  87.971  1.00  0.00    -0.003 C 
ATOM     16  C   UNL     1      99.646  92.138  88.933  1.00  0.00     0.004 C 
ENDBRANCH  14  15
ENDBRANCH  13  14
ENDBRANCH  12  13
ENDBRANCH  11  12
ENDBRANCH  10  11
ENDBRANCH   1  10
TORSDOF 12
ENDMDL
MODEL 5
REMARK VINA RESULT:    -4.523      1.895      5.148
REMARK INTER + INTRA:          -9.169
REMARK INTER:                  -7.838
REMARK INTRA:                  -1.331
REMARK UNBOUND:                -1.473
REMARK SMILES CCCCCCCCCCCCCC(=O)[O-]
REMARK SMILES IDX 8 1 9 2 10 3 11 4 12 5 13 6 14 7 15 8 16 9 7 10 6 11 5 12
REMARK SMILES IDX 4 13 3 14 2 15 1 16
REMARK H PARENT
REMARK Flexibility Score: inf
ROOT
ATOM      1  C   UNL     1      99.599  92.120  89.001  1.00  0.00     0.000 C 
ENDROOT
BRANCH   1   2
ATOM      2  C   UNL     1      98.300  92.355  88.214  1.00  0.00     0.000 C 
BRANCH   2   3
ATOM      3  C   UNL     1      98.486  92.004  86.732  1.00  0.00     0.000 C 
BRANCH   3   4
ATOM      4  C   UNL     1      99.973  92.006  86.348  1.00  0.00     0.000 C 
BRANCH   4   5
ATOM      5  C   UNL     1     100.409  90.709  85.643  1.00  0.00     0.006 C 
BRANCH   5   6
ATOM      6  C   UNL     1     100.985  89.640  86.586  1.00  0.00     0.053 C 
BRANCH   6   7
ATOM      7  C   UNL     1     100.102  88.433  86.670  1.00  0.00     0.041 C 
ATOM      8  O   UNL     1      98.984  88.504  87.247  1.00  0.00    -0.550 OA
ATOM      9  O   UNL     1     100.499  87.238  86.085  1.00  0.00    -0.550 OA
ENDBRANCH   6   7
ENDBRANCH   5   6
ENDBRANCH   4   5
ENDBRANCH   3   4
ENDBRANCH   2   3
ENDBRANCH   1   2
BRANCH   1  10
ATOM     10  C   UNL     1      99.545  90.850  89.866  1.00  0.00     0.000 C 
BRANCH  10  11
ATOM     11  C   UNL     1      98.190  90.668  90.569  1.00  0.00    -0.000 C 
BRANCH  11  12
ATOM     12  C   UNL     1      98.362  89.962  91.918  1.00  0.00    -0.000 C 
BRANCH  12  13
ATOM     13  C   UNL     1      99.847  89.719  92.227  1.00  0.00    -0.000 C 
BRANCH  13  14
ATOM     14  C   UNL     1     100.217  88.227  92.227  1.00  0.00    -0.000 C 
BRANCH  14  15
ATOM     15  C   UNL     1     101.702  87.987  91.919  1.00  0.00    -0.003 C 
ATOM     16  C   UNL     1     101.923  87.753  90.428  1.00  0.00     0.004 C 
ENDBRANCH  14  15
ENDBRANCH  13  14
ENDBRANCH  12  13
ENDBRANCH  11  12
ENDBRANCH  10  11
ENDBRANCH   1  10
TORSDOF 12
ENDMDL
MODEL 6
REMARK VINA RESULT:    -4.504      1.071      1.580
REMARK INTER + INTRA:          -9.137
REMARK INTER:                  -7.613
REMARK INTRA:                  -1.524
REMARK UNBOUND:                -1.473
REMARK SMILES CCCCCCCCCCCCCC(=O)[O-]
REMARK SMILES IDX 8 1 9 2 10 3 11 4 12 5 13 6 14 7 15 8 16 9 7 10 6 11 5 12
REMARK SMILES IDX 4 13 3 14 2 15 1 16
REMARK H PARENT
REMARK Flexibility Score: inf
ROOT
ATOM      1  C   UNL     1      99.571  92.652  88.408  1.00  0.00     0.000 C 
ENDROOT
BRANCH   1   2
ATOM      2  C   UNL     1      98.626  91.646  89.084  1.00  0.00     0.000 C 
BRANCH   2   3
ATOM      3  C   UNL     1      99.418  90.602  89.882  1.00  0.00     0.000 C 
BRANCH   3   4
ATOM      4  C   UNL     1      98.859  90.459  91.306  1.00  0.00     0.000 C 
BRANCH   4   5
ATOM      5  C   UNL     1      99.459  89.262  92.065  1.00  0.00     0.006 C 
BRANCH   5   6
ATOM      6  C   UNL     1     100.493  88.457  91.260  1.00  0.00     0.053 C 
BRANCH   6   7
ATOM      7  C   UNL     1     101.509  87.804  92.147  1.00  0.00     0.041 C 
ATOM      8  O   UNL     1     101.161  87.313  93.254  1.00  0.00    -0.550 OA
ATOM      9  O   UNL     1     102.832  87.710  91.737  1.00  0.00    -0.550 OA
ENDBRANCH   6   7
ENDBRANCH   5   6
ENDBRANCH   4   5
ENDBRANCH   3   4
ENDBRANCH   2   3
ENDBRANCH   1   2
BRANCH   1  10
ATOM     10  C   UNL     1     100.448  92.005  87.324  1.00  0.00     0.000 C 
BRANCH  10  11
ATOM     11  C   UNL     1      99.822  92.093  85.924  1.00  0.00    -0.000 C 
BRANCH  11  12
ATOM     12  C   UNL     1      99.830  90.725  85.233  1.00  0.00    -0.000 C 
BRANCH  12  13
ATOM     13  C   UNL     1      98.719  89.821  85.789  1.00  0.00    -0.000 C 
BRANCH  13  14
ATOM     14  C   UNL     1      99.269  88.590  86.525  1.00  0.00    -0.000 C 
BRANCH  14  15
ATOM     15  C   UNL     1     100.783  88.413  86.329  1.00  0.00    -0.003 C 
ATOM     16  C   UNL     1     101.512  88.397  87.669  1.00  0.00     0.004 C 
ENDBRANCH  14  15
ENDBRANCH  13  14
ENDBRANCH  12  13
ENDBRANCH  11  12
ENDBRANCH  10  11
ENDBRANCH   1  10
TORSDOF 12
ENDMDL
MODEL 7
REMARK VINA RESULT:    -4.144     10.197     12.346
REMARK INTER + INTRA:          -8.525
REMARK INTER:                  -7.337
REMARK INTRA:                  -1.188
REMARK UNBOUND:                -1.473
REMARK SMILES CCCCCCCCCCCCCC(=O)[O-]
REMARK SMILES IDX 8 1 9 2 10 3 11 4 12 5 13 6 14 7 15 8 16 9 7 10 6 11 5 12
REMARK SMILES IDX 4 13 3 14 2 15 1 16
REMARK H PARENT
REMARK Flexibility Score: inf
ROOT
ATOM      1  C   UNL     1     104.163  96.991  97.478  1.00  0.00     0.000 C 
ENDROOT
BRANCH   1   2
ATOM      2  C   UNL     1     105.365  97.022  96.522  1.00  0.00     0.000 C 
BRANCH   2   3
ATOM      3  C   UNL     1     105.000  97.717  95.204  1.00  0.00     0.000 C 
BRANCH   3   4
ATOM      4  C   UNL     1     103.531  98.164  95.206  1.00  0.00     0.000 C 
BRANCH   4   5
ATOM      5  C   UNL     1     103.341  99.594  94.667  1.00  0.00     0.006 C 
BRANCH   5   6
ATOM      6  C   UNL     1     102.911 100.618  95.729  1.00  0.00     0.053 C 
BRANCH   6   7
ATOM      7  C   UNL     1     101.485 100.425  96.148  1.00  0.00     0.041 C 
ATOM      8  O   UNL     1     100.579 100.317  95.279  1.00  0.00    -0.550 OA
ATOM      9  O   UNL     1     101.161 100.333  97.494  1.00  0.00    -0.550 OA
ENDBRANCH   6   7
ENDBRANCH   5   6
ENDBRANCH   4   5
ENDBRANCH   3   4
ENDBRANCH   2   3
ENDBRANCH   1   2
BRANCH   1  10
ATOM     10  C   UNL     1     103.988  95.627  98.165  1.00  0.00     0.000 C 
BRANCH  10  11
ATOM     11  C   UNL     1     102.650  95.507  98.912  1.00  0.00    -0.000 C 
BRANCH  11  12
ATOM     12  C   UNL     1     101.715  96.668  98.553  1.00  0.00    -0.000 C 
BRANCH  12  13
ATOM     13  C   UNL     1     100.430  96.154  97.888  1.00  0.00    -0.000 C 
BRANCH  13  14
ATOM     14  C   UNL     1      99.969  97.043  96.723  1.00  0.00    -0.000 C 
BRANCH  14  15
ATOM     15  C   UNL     1      99.174  96.265  95.664  1.00  0.00    -0.003 C 
ATOM     16  C   UNL     1      98.069  97.129  95.062  1.00  0.00     0.004 C 
ENDBRANCH  14  15
ENDBRANCH  13  14
ENDBRANCH  12  13
ENDBRANCH  11  12
ENDBRANCH  10  11
ENDBRANCH   1  10
TORSDOF 12
ENDMDL
MODEL 8
REMARK VINA RESULT:    -4.117     10.359     12.162
REMARK INTER + INTRA:          -8.478
REMARK INTER:                  -7.149
REMARK INTRA:                  -1.329
REMARK UNBOUND:                -1.473
REMARK SMILES CCCCCCCCCCCCCC(=O)[O-]
REMARK SMILES IDX 8 1 9 2 10 3 11 4 12 5 13 6 14 7 15 8 16 9 7 10 6 11 5 12
REMARK SMILES IDX 4 13 3 14 2 15 1 16
REMARK H PARENT
REMARK Flexibility Score: inf
ROOT
ATOM      1  C   UNL     1     102.844  97.121  99.173  1.00  0.00     0.000 C 
ENDROOT
BRANCH   1   2
ATOM      2  C   UNL     1     103.386  95.788  98.637  1.00  0.00     0.000 C 
BRANCH   2   3
ATOM      3  C   UNL     1     104.533  96.020  97.646  1.00  0.00     0.000 C 
BRANCH   3   4
ATOM      4  C   UNL     1     104.638  97.504  97.264  1.00  0.00     0.000 C 
BRANCH   4   5
ATOM      5  C   UNL     1     104.363  97.758  95.771  1.00  0.00     0.006 C 
BRANCH   5   6
ATOM      6  C   UNL     1     103.037  98.482  95.487  1.00  0.00     0.053 C 
BRANCH   6   7
ATOM      7  C   UNL     1     103.239  99.945  95.237  1.00  0.00     0.041 C 
ATOM      8  O   UNL     1     103.377 100.740  96.205  1.00  0.00    -0.550 OA
ATOM      9  O   UNL     1     103.308 100.426  93.937  1.00  0.00    -0.550 OA
ENDBRANCH   6   7
ENDBRANCH   5   6
ENDBRANCH   4   5
ENDBRANCH   3   4
ENDBRANCH   2   3
ENDBRANCH   1   2
BRANCH   1  10
ATOM     10  C   UNL     1     101.377  97.364  98.784  1.00  0.00     0.000 C 
BRANCH  10  11
ATOM     11  C   UNL     1     100.749  96.163  98.060  1.00  0.00    -0.000 C 
BRANCH  11  12
ATOM     12  C   UNL     1      99.932  96.619  96.845  1.00  0.00    -0.000 C 
BRANCH  12  13
ATOM     13  C   UNL     1      98.836  95.599  96.504  1.00  0.00    -0.000 C 
BRANCH  13  14
ATOM     14  C   UNL     1      98.750  94.457  97.529  1.00  0.00    -0.000 C 
BRANCH  14  15
ATOM     15  C   UNL     1      97.370  94.367  98.198  1.00  0.00    -0.003 C 
ATOM     16  C   UNL     1      97.052  95.641  98.975  1.00  0.00     0.004 C 
ENDBRANCH  14  15
ENDBRANCH  13  14
ENDBRANCH  12  13
ENDBRANCH  11  12
ENDBRANCH  10  11
ENDBRANCH   1  10
TORSDOF 12
ENDMDL
MODEL 9
REMARK VINA RESULT:    -4.071     10.141     12.062
REMARK INTER + INTRA:          -8.400
REMARK INTER:                  -7.123
REMARK INTRA:                  -1.278
REMARK UNBOUND:                -1.473
REMARK SMILES CCCCCCCCCCCCCC(=O)[O-]
REMARK SMILES IDX 8 1 9 2 10 3 11 4 12 5 13 6 14 7 15 8 16 9 7 10 6 11 5 12
REMARK SMILES IDX 4 13 3 14 2 15 1 16
REMARK H PARENT
REMARK Flexibility Score: inf
ROOT
ATOM      1  C   UNL     1     104.364  96.960  97.407  1.00  0.00     0.000 C 
ENDROOT
BRANCH   1   2
ATOM      2  C   UNL     1     104.187  95.571  98.039  1.00  0.00     0.000 C 
BRANCH   2   3
ATOM      3  C   UNL     1     102.853  95.476  98.790  1.00  0.00     0.000 C 
BRANCH   3   4
ATOM      4  C   UNL     1     102.027  96.758  98.609  1.00  0.00     0.000 C 
BRANCH   4   5
ATOM      5  C   UNL     1     100.608  96.485  98.079  1.00  0.00     0.006 C 
BRANCH   5   6
ATOM      6  C   UNL     1     100.376  96.943  96.630  1.00  0.00     0.053 C 
BRANCH   6   7
ATOM      7  C   UNL     1      99.212  96.241  96.000  1.00  0.00     0.041 C 
ATOM      8  O   UNL     1      98.936  95.055  96.325  1.00  0.00    -0.550 OA
ATOM      9  O   UNL     1      98.414  96.905  95.079  1.00  0.00    -0.550 OA
ENDBRANCH   6   7
ENDBRANCH   5   6
ENDBRANCH   4   5
ENDBRANCH   3   4
ENDBRANCH   2   3
ENDBRANCH   1   2
BRANCH   1  10
ATOM     10  C   UNL     1     105.562  97.025  96.446  1.00  0.00     0.000 C 
BRANCH  10  11
ATOM     11  C   UNL     1     105.174  97.532  95.048  1.00  0.00    -0.000 C 
BRANCH  11  12
ATOM     12  C   UNL     1     103.901  98.384  95.108  1.00  0.00    -0.000 C 
BRANCH  12  13
ATOM     13  C   UNL     1     104.241  99.870  95.295  1.00  0.00    -0.000 C 
BRANCH  13  14
ATOM     14  C   UNL     1     105.575 100.260  94.639  1.00  0.00    -0.000 C 
BRANCH  14  15
ATOM     15  C   UNL     1     106.531 100.961  95.616  1.00  0.00    -0.003 C 
ATOM     16  C   UNL     1     106.097 100.743  97.062  1.00  0.00     0.004 C 
ENDBRANCH  14  15
ENDBRANCH  13  14
ENDBRANCH  12  13
ENDBRANCH  11  12
ENDBRANCH  10  11
ENDBRANCH   1  10
TORSDOF 12
ENDMDL
