MODEL 1
REMARK VINA RESULT:    13.917      0.000      0.000
REMARK INTER + INTRA:          29.133
REMARK INTER:                  30.189
REMARK INTRA:                  -1.057
REMARK UNBOUND:                -1.057
REMARK SMILES CCCCCCCCCCCCCCCCCCCCCC(=O)[O-]
REMARK SMILES IDX 12 1 11 2 10 3 9 4 8 5 7 6 6 7 5 8 4 9 3 10 2 11 1 12 13 13
REMARK SMILES IDX 14 14 15 15 16 16 17 17 18 18 19 19 20 20 21 21 22 22 23 23
REMARK SMILES IDX 24 24
REMARK H PARENT
REMARK Flexibility Score: inf
ROOT
ATOM      1  C   UNL     1     -29.158  21.243 -10.954  1.00  0.00     0.000 C 
ENDROOT
BRANCH   1   2
ATOM      2  C   UNL     1     -28.893  22.074 -12.223  1.00  0.00     0.000 C 
BRANCH   2   3
ATOM      3  C   UNL     1     -27.412  22.077 -12.639  1.00  0.00     0.000 C 
BRANCH   3   4
ATOM      4  C   UNL     1     -26.555  23.036 -11.792  1.00  0.00    -0.000 C 
BRANCH   4   5
ATOM      5  C   UNL     1     -25.627  22.355 -10.764  1.00  0.00    -0.000 C 
BRANCH   5   6
ATOM      6  C   UNL     1     -25.866  22.760  -9.296  1.00  0.00    -0.000 C 
BRANCH   6   7
ATOM      7  C   UNL     1     -26.966  21.961  -8.571  1.00  0.00    -0.000 C 
BRANCH   7   8
ATOM      8  C   UNL     1     -26.455  20.933  -7.542  1.00  0.00    -0.000 C 
BRANCH   8   9
ATOM      9  C   UNL     1     -24.936  20.973  -7.278  1.00  0.00    -0.000 C 
BRANCH   9  10
ATOM     10  C   UNL     1     -24.530  21.377  -5.846  1.00  0.00    -0.000 C 
BRANCH  10  11
ATOM     11  C   UNL     1     -23.233  22.200  -5.748  1.00  0.00    -0.003 C 
ATOM     12  C   UNL     1     -22.457  22.249  -7.065  1.00  0.00     0.004 C 
ENDBRANCH  10  11
ENDBRANCH   9  10
ENDBRANCH   8   9
ENDBRANCH   7   8
ENDBRANCH   6   7
ENDBRANCH   5   6
ENDBRANCH   4   5
ENDBRANCH   3   4
ENDBRANCH   2   3
ENDBRANCH   1   2
BRANCH   1  13
ATOM     13  C   UNL     1     -30.616  21.247 -10.458  1.00  0.00     0.000 C 
BRANCH  13  14
ATOM     14  C   UNL     1     -31.463  22.363 -11.091  1.00  0.00     0.000 C 
BRANCH  14  15
ATOM     15  C   UNL     1     -32.830  22.472 -10.400  1.00  0.00     0.000 C 
BRANCH  15  16
ATOM     16  C   UNL     1     -33.342  21.119  -9.871  1.00  0.00     0.000 C 
BRANCH  16  17
ATOM     17  C   UNL     1     -33.036  19.912 -10.777  1.00  0.00     0.000 C 
BRANCH  17  18
ATOM     18  C   UNL     1     -32.735  18.630  -9.980  1.00  0.00     0.000 C 
BRANCH  18  19
ATOM     19  C   UNL     1     -32.050  17.548 -10.831  1.00  0.00     0.000 C 
BRANCH  19  20
ATOM     20  C   UNL     1     -30.530  17.495 -10.615  1.00  0.00     0.006 C 
BRANCH  20  21
ATOM     21  C   UNL     1     -29.887  16.415 -11.490  1.00  0.00     0.053 C 
BRANCH  21  22
ATOM     22  C   UNL     1     -29.383  17.009 -12.769  1.00  0.00     0.041 C 
ATOM     23  O   UNL     1     -29.017  18.214 -12.807  1.00  0.00    -0.550 OA
ATOM     24  O   UNL     1     -29.372  16.248 -13.932  1.00  0.00    -0.550 OA
ENDBRANCH  21  22
ENDBRANCH  20  21
ENDBRANCH  19  20
ENDBRANCH  18  19
ENDBRANCH  17  18
ENDBRANCH  16  17
ENDBRANCH  15  16
ENDBRANCH  14  15
ENDBRANCH  13  14
ENDBRANCH   1  13
TORSDOF 20
ENDMDL
MODEL 2
REMARK VINA RESULT:    14.443     13.810     17.399
REMARK INTER + INTRA:          30.272
REMARK INTER:                  29.429
REMARK INTRA:                   0.843
REMARK UNBOUND:                -1.057
REMARK SMILES CCCCCCCCCCCCCCCCCCCCCC(=O)[O-]
REMARK SMILES IDX 12 1 11 2 10 3 9 4 8 5 7 6 6 7 5 8 4 9 3 10 2 11 1 12 13 13
REMARK SMILES IDX 14 14 15 15 16 16 17 17 18 18 19 19 20 20 21 21 22 22 23 23
REMARK SMILES IDX 24 24
REMARK H PARENT
REMARK Flexibility Score: inf
ROOT
ATOM      1  C   UNL     1     -22.351   9.897 -15.714  1.00  0.00     0.000 C 
ENDROOT
BRANCH   1   2
ATOM      2  C   UNL     1     -21.361   8.848 -16.253  1.00  0.00     0.000 C 
BRANCH   2   3
ATOM      3  C   UNL     1     -21.812   8.227 -17.586  1.00  0.00     0.000 C 
BRANCH   3   4
ATOM      4  C   UNL     1     -20.953   7.019 -18.004  1.00  0.00    -0.000 C 
BRANCH   4   5
ATOM      5  C   UNL     1     -21.362   6.349 -19.332  1.00  0.00    -0.000 C 
BRANCH   5   6
ATOM      6  C   UNL     1     -20.517   5.124 -19.735  1.00  0.00    -0.000 C 
BRANCH   6   7
ATOM      7  C   UNL     1     -20.336   4.067 -18.630  1.00  0.00    -0.000 C 
BRANCH   7   8
ATOM      8  C   UNL     1     -19.268   2.994 -18.923  1.00  0.00    -0.000 C 
BRANCH   8   9
ATOM      9  C   UNL     1     -17.869   3.289 -18.346  1.00  0.00    -0.000 C 
BRANCH   9  10
ATOM     10  C   UNL     1     -16.741   3.411 -19.390  1.00  0.00    -0.000 C 
BRANCH  10  11
ATOM     11  C   UNL     1     -15.340   3.662 -18.804  1.00  0.00    -0.003 C 
ATOM     12  C   UNL     1     -14.231   3.584 -19.854  1.00  0.00     0.004 C 
ENDBRANCH  10  11
ENDBRANCH   9  10
ENDBRANCH   8   9
ENDBRANCH   7   8
ENDBRANCH   6   7
ENDBRANCH   5   6
ENDBRANCH   4   5
ENDBRANCH   3   4
ENDBRANCH   2   3
ENDBRANCH   1   2
BRANCH   1  13
ATOM     13  C   UNL     1     -23.459  10.322 -16.696  1.00  0.00     0.000 C 
BRANCH  13  14
ATOM     14  C   UNL     1     -24.032   9.145 -17.501  1.00  0.00     0.000 C 
BRANCH  14  15
ATOM     15  C   UNL     1     -23.866   9.380 -19.010  1.00  0.00     0.000 C 
BRANCH  15  16
ATOM     16  C   UNL     1     -23.500  10.837 -19.351  1.00  0.00     0.000 C 
BRANCH  16  17
ATOM     17  C   UNL     1     -24.584  11.613 -20.124  1.00  0.00     0.000 C 
BRANCH  17  18
ATOM     18  C   UNL     1     -25.133  12.814 -19.334  1.00  0.00     0.000 C 
BRANCH  18  19
ATOM     19  C   UNL     1     -24.034  13.806 -18.919  1.00  0.00     0.000 C 
BRANCH  19  20
ATOM     20  C   UNL     1     -23.435  14.564 -20.114  1.00  0.00     0.006 C 
BRANCH  20  21
ATOM     21  C   UNL     1     -21.905  14.491 -20.100  1.00  0.00     0.053 C 
BRANCH  21  22
ATOM     22  C   UNL     1     -21.320  15.826 -19.757  1.00  0.00     0.041 C 
ATOM     23  O   UNL     1     -22.069  16.768 -19.382  1.00  0.00    -0.550 OA
ATOM     24  O   UNL     1     -19.956  16.047 -19.906  1.00  0.00    -0.550 OA
ENDBRANCH  21  22
ENDBRANCH  20  21
ENDBRANCH  19  20
ENDBRANCH  18  19
ENDBRANCH  17  18
ENDBRANCH  16  17
ENDBRANCH  15  16
ENDBRANCH  14  15
ENDBRANCH  13  14
ENDBRANCH   1  13
TORSDOF 20
ENDMDL
MODEL 3
REMARK VINA RESULT:    14.920      0.740      1.302
REMARK INTER + INTRA:          31.307
REMARK INTER:                  31.866
REMARK INTRA:                  -0.559
REMARK UNBOUND:                -1.057
REMARK SMILES CCCCCCCCCCCCCCCCCCCCCC(=O)[O-]
REMARK SMILES IDX 12 1 11 2 10 3 9 4 8 5 7 6 6 7 5 8 4 9 3 10 2 11 1 12 13 13
REMARK SMILES IDX 14 14 15 15 16 16 17 17 18 18 19 19 20 20 21 21 22 22 23 23
REMARK SMILES IDX 24 24
REMARK H PARENT
REMARK Flexibility Score: inf
ROOT
ATOM      1  C   UNL     1     -30.460  21.469 -10.871  1.00  0.00     0.000 C 
ENDROOT
BRANCH   1   2
ATOM      2  C   UNL     1     -29.710  20.975 -12.121  1.00  0.00     0.000 C 
BRANCH   2   3
ATOM      3  C   UNL     1     -28.467  21.821 -12.448  1.00  0.00     0.000 C 
BRANCH   3   4
ATOM      4  C   UNL     1     -27.558  22.044 -11.225  1.00  0.00    -0.000 C 
BRANCH   4   5
ATOM      5  C   UNL     1     -26.283  22.871 -11.495  1.00  0.00    -0.000 C 
BRANCH   5   6
ATOM      6  C   UNL     1     -25.353  23.058 -10.280  1.00  0.00    -0.000 C 
BRANCH   6   7
ATOM      7  C   UNL     1     -26.002  22.766  -8.913  1.00  0.00    -0.000 C 
BRANCH   7   8
ATOM      8  C   UNL     1     -25.833  21.319  -8.408  1.00  0.00    -0.000 C 
BRANCH   8   9
ATOM      9  C   UNL     1     -24.489  21.023  -7.712  1.00  0.00    -0.000 C 
BRANCH   9  10
ATOM     10  C   UNL     1     -24.474  21.260  -6.188  1.00  0.00    -0.000 C 
BRANCH  10  11
ATOM     11  C   UNL     1     -23.229  21.994  -5.660  1.00  0.00    -0.003 C 
ATOM     12  C   UNL     1     -22.767  23.125  -6.580  1.00  0.00     0.004 C 
ENDBRANCH  10  11
ENDBRANCH   9  10
ENDBRANCH   8   9
ENDBRANCH   7   8
ENDBRANCH   6   7
ENDBRANCH   5   6
ENDBRANCH   4   5
ENDBRANCH   3   4
ENDBRANCH   2   3
ENDBRANCH   1   2
BRANCH   1  13
ATOM     13  C   UNL     1     -31.361  22.699 -11.087  1.00  0.00     0.000 C 
BRANCH  13  14
ATOM     14  C   UNL     1     -32.615  22.691 -10.197  1.00  0.00     0.000 C 
BRANCH  14  15
ATOM     15  C   UNL     1     -32.912  21.274  -9.684  1.00  0.00     0.000 C 
BRANCH  15  16
ATOM     16  C   UNL     1     -33.135  20.260 -10.822  1.00  0.00     0.000 C 
BRANCH  16  17
ATOM     17  C   UNL     1     -33.244  18.792 -10.369  1.00  0.00     0.000 C 
BRANCH  17  18
ATOM     18  C   UNL     1     -31.885  18.071 -10.354  1.00  0.00     0.000 C 
BRANCH  18  19
ATOM     19  C   UNL     1     -32.020  16.545 -10.497  1.00  0.00     0.000 C 
BRANCH  19  20
ATOM     20  C   UNL     1     -30.809  15.904 -11.193  1.00  0.00     0.006 C 
BRANCH  20  21
ATOM     21  C   UNL     1     -29.647  16.897 -11.298  1.00  0.00     0.053 C 
BRANCH  21  22
ATOM     22  C   UNL     1     -29.330  17.182 -12.733  1.00  0.00     0.041 C 
ATOM     23  O   UNL     1     -29.423  16.268 -13.596  1.00  0.00    -0.550 OA
ATOM     24  O   UNL     1     -28.874  18.441 -13.107  1.00  0.00    -0.550 OA
ENDBRANCH  21  22
ENDBRANCH  20  21
ENDBRANCH  19  20
ENDBRANCH  18  19
ENDBRANCH  17  18
ENDBRANCH  16  17
ENDBRANCH  15  16
ENDBRANCH  14  15
ENDBRANCH  13  14
ENDBRANCH   1  13
TORSDOF 20
ENDMDL
MODEL 4
REMARK VINA RESULT:    14.973      0.866      1.939
REMARK INTER + INTRA:          31.423
REMARK INTER:                  32.315
REMARK INTRA:                  -0.892
REMARK UNBOUND:                -1.057
REMARK SMILES CCCCCCCCCCCCCCCCCCCCCC(=O)[O-]
REMARK SMILES IDX 12 1 11 2 10 3 9 4 8 5 7 6 6 7 5 8 4 9 3 10 2 11 1 12 13 13
REMARK SMILES IDX 14 14 15 15 16 16 17 17 18 18 19 19 20 20 21 21 22 22 23 23
REMARK SMILES IDX 24 24
REMARK H PARENT
REMARK Flexibility Score: inf
ROOT
ATOM      1  C   UNL     1     -31.519  22.485 -11.456  1.00  0.00     0.000 C 
ENDROOT
BRANCH   1   2
ATOM      2  C   UNL     1     -30.001  22.511 -11.200  1.00  0.00     0.000 C 
BRANCH   2   3
ATOM      3  C   UNL     1     -29.313  21.176 -11.534  1.00  0.00     0.000 C 
BRANCH   3   4
ATOM      4  C   UNL     1     -28.485  21.239 -12.831  1.00  0.00    -0.000 C 
BRANCH   4   5
ATOM      5  C   UNL     1     -27.048  21.777 -12.668  1.00  0.00    -0.000 C 
BRANCH   5   6
ATOM      6  C   UNL     1     -26.892  22.937 -11.666  1.00  0.00    -0.000 C 
BRANCH   6   7
ATOM      7  C   UNL     1     -25.610  22.893 -10.813  1.00  0.00    -0.000 C 
BRANCH   7   8
ATOM      8  C   UNL     1     -25.841  22.715  -9.299  1.00  0.00    -0.000 C 
BRANCH   8   9
ATOM      9  C   UNL     1     -25.301  21.398  -8.706  1.00  0.00    -0.000 C 
BRANCH   9  10
ATOM     10  C   UNL     1     -24.827  21.485  -7.240  1.00  0.00    -0.000 C 
BRANCH  10  11
ATOM     11  C   UNL     1     -23.316  21.717  -7.061  1.00  0.00    -0.003 C 
ATOM     12  C   UNL     1     -22.973  22.426  -5.750  1.00  0.00     0.004 C 
ENDBRANCH  10  11
ENDBRANCH   9  10
ENDBRANCH   8   9
ENDBRANCH   7   8
ENDBRANCH   6   7
ENDBRANCH   5   6
ENDBRANCH   4   5
ENDBRANCH   3   4
ENDBRANCH   2   3
ENDBRANCH   1   2
BRANCH   1  13
ATOM     13  C   UNL     1     -32.397  22.849 -10.243  1.00  0.00     0.000 C 
BRANCH  13  14
ATOM     14  C   UNL     1     -33.082  21.628  -9.610  1.00  0.00     0.000 C 
BRANCH  14  15
ATOM     15  C   UNL     1     -32.779  20.352 -10.410  1.00  0.00     0.000 C 
BRANCH  15  16
ATOM     16  C   UNL     1     -33.602  19.139  -9.936  1.00  0.00     0.000 C 
BRANCH  16  17
ATOM     17  C   UNL     1     -33.323  17.830 -10.697  1.00  0.00     0.000 C 
BRANCH  17  18
ATOM     18  C   UNL     1     -31.982  17.187 -10.303  1.00  0.00     0.000 C 
BRANCH  18  19
ATOM     19  C   UNL     1     -30.797  18.159 -10.428  1.00  0.00     0.000 C 
BRANCH  19  20
ATOM     20  C   UNL     1     -29.485  17.452 -10.805  1.00  0.00     0.006 C 
BRANCH  20  21
ATOM     21  C   UNL     1     -29.744  16.292 -11.771  1.00  0.00     0.053 C 
BRANCH  21  22
ATOM     22  C   UNL     1     -29.361  16.677 -13.166  1.00  0.00     0.041 C 
ATOM     23  O   UNL     1     -29.045  17.868 -13.431  1.00  0.00    -0.550 OA
ATOM     24  O   UNL     1     -29.409  15.734 -14.186  1.00  0.00    -0.550 OA
ENDBRANCH  21  22
ENDBRANCH  20  21
ENDBRANCH  19  20
ENDBRANCH  18  19
ENDBRANCH  17  18
ENDBRANCH  16  17
ENDBRANCH  15  16
ENDBRANCH  14  15
ENDBRANCH  13  14
ENDBRANCH   1  13
TORSDOF 20
ENDMDL
MODEL 5
REMARK VINA RESULT:    15.004      3.053      7.830
REMARK INTER + INTRA:          31.490
REMARK INTER:                  32.997
REMARK INTRA:                  -1.507
REMARK UNBOUND:                -1.057
REMARK SMILES CCCCCCCCCCCCCCCCCCCCCC(=O)[O-]
REMARK SMILES IDX 12 1 11 2 10 3 9 4 8 5 7 6 6 7 5 8 4 9 3 10 2 11 1 12 13 13
REMARK SMILES IDX 14 14 15 15 16 16 17 17 18 18 19 19 20 20 21 21 22 22 23 23
REMARK SMILES IDX 24 24
REMARK H PARENT
REMARK Flexibility Score: inf
ROOT
ATOM      1  C   UNL     1     -30.500  22.072 -10.961  1.00  0.00     0.000 C 
ENDROOT
BRANCH   1   2
ATOM      2  C   UNL     1     -31.714  23.011 -10.839  1.00  0.00     0.000 C 
BRANCH   2   3
ATOM      3  C   UNL     1     -33.030  22.259 -10.575  1.00  0.00     0.000 C 
BRANCH   3   4
ATOM      4  C   UNL     1     -32.833  20.992  -9.721  1.00  0.00    -0.000 C 
BRANCH   4   5
ATOM      5  C   UNL     1     -33.384  19.691 -10.340  1.00  0.00    -0.000 C 
BRANCH   5   6
ATOM      6  C   UNL     1     -32.317  18.659 -10.754  1.00  0.00    -0.000 C 
BRANCH   6   7
ATOM      7  C   UNL     1     -30.859  19.109 -10.540  1.00  0.00    -0.000 C 
BRANCH   7   8
ATOM      8  C   UNL     1     -29.811  17.981 -10.616  1.00  0.00    -0.000 C 
BRANCH   8   9
ATOM      9  C   UNL     1     -30.391  16.555 -10.702  1.00  0.00    -0.000 C 
BRANCH   9  10
ATOM     10  C   UNL     1     -30.106  15.810 -12.022  1.00  0.00    -0.000 C 
BRANCH  10  11
ATOM     11  C   UNL     1     -29.433  16.660 -13.114  1.00  0.00    -0.003 C 
ATOM     12  C   UNL     1     -29.403  15.967 -14.477  1.00  0.00     0.004 C 
ENDBRANCH  10  11
ENDBRANCH   9  10
ENDBRANCH   8   9
ENDBRANCH   7   8
ENDBRANCH   6   7
ENDBRANCH   5   6
ENDBRANCH   4   5
ENDBRANCH   3   4
ENDBRANCH   2   3
ENDBRANCH   1   2
BRANCH   1  13
ATOM     13  C   UNL     1     -29.516  22.413 -12.096  1.00  0.00     0.000 C 
BRANCH  13  14
ATOM     14  C   UNL     1     -28.588  21.243 -12.459  1.00  0.00     0.000 C 
BRANCH  14  15
ATOM     15  C   UNL     1     -27.136  21.722 -12.610  1.00  0.00     0.000 C 
BRANCH  15  16
ATOM     16  C   UNL     1     -26.792  22.893 -11.670  1.00  0.00     0.000 C 
BRANCH  16  17
ATOM     17  C   UNL     1     -25.499  22.710 -10.854  1.00  0.00     0.000 C 
BRANCH  17  18
ATOM     18  C   UNL     1     -25.702  22.970  -9.351  1.00  0.00     0.000 C 
BRANCH  18  19
ATOM     19  C   UNL     1     -26.094  21.700  -8.577  1.00  0.00     0.000 C 
BRANCH  19  20
ATOM     20  C   UNL     1     -24.883  20.982  -7.961  1.00  0.00     0.006 C 
BRANCH  20  21
ATOM     21  C   UNL     1     -24.613  21.483  -6.538  1.00  0.00     0.053 C 
BRANCH  21  22
ATOM     22  C   UNL     1     -23.210  21.993  -6.421  1.00  0.00     0.041 C 
ATOM     23  O   UNL     1     -22.825  22.550  -5.357  1.00  0.00    -0.550 OA
ATOM     24  O   UNL     1     -22.345  21.906  -7.506  1.00  0.00    -0.550 OA
ENDBRANCH  21  22
ENDBRANCH  20  21
ENDBRANCH  19  20
ENDBRANCH  18  19
ENDBRANCH  17  18
ENDBRANCH  16  17
ENDBRANCH  15  16
ENDBRANCH  14  15
ENDBRANCH  13  14
ENDBRANCH   1  13
TORSDOF 20
ENDMDL
MODEL 6
REMARK VINA RESULT:    16.337      1.300      2.493
REMARK INTER + INTRA:          34.381
REMARK INTER:                  34.896
REMARK INTRA:                  -0.515
REMARK UNBOUND:                -1.057
REMARK SMILES CCCCCCCCCCCCCCCCCCCCCC(=O)[O-]
REMARK SMILES IDX 12 1 11 2 10 3 9 4 8 5 7 6 6 7 5 8 4 9 3 10 2 11 1 12 13 13
REMARK SMILES IDX 14 14 15 15 16 16 17 17 18 18 19 19 20 20 21 21 22 22 23 23
REMARK SMILES IDX 24 24
REMARK H PARENT
REMARK Flexibility Score: inf
ROOT
ATOM      1  C   UNL     1     -32.628  22.500 -10.739  1.00  0.00     0.000 C 
ENDROOT
BRANCH   1   2
ATOM      2  C   UNL     1     -31.114  22.759 -10.836  1.00  0.00     0.000 C 
BRANCH   2   3
ATOM      3  C   UNL     1     -30.304  21.485 -11.132  1.00  0.00     0.000 C 
BRANCH   3   4
ATOM      4  C   UNL     1     -28.843  21.581 -10.655  1.00  0.00    -0.000 C 
BRANCH   4   5
ATOM      5  C   UNL     1     -28.548  20.902  -9.301  1.00  0.00    -0.000 C 
BRANCH   5   6
ATOM      6  C   UNL     1     -27.863  21.801  -8.253  1.00  0.00    -0.000 C 
BRANCH   6   7
ATOM      7  C   UNL     1     -26.334  21.638  -8.156  1.00  0.00    -0.000 C 
BRANCH   7   8
ATOM      8  C   UNL     1     -25.859  20.375  -7.411  1.00  0.00    -0.000 C 
BRANCH   8   9
ATOM      9  C   UNL     1     -24.448  20.470  -6.796  1.00  0.00    -0.000 C 
BRANCH   9  10
ATOM     10  C   UNL     1     -24.316  21.444  -5.607  1.00  0.00    -0.000 C 
BRANCH  10  11
ATOM     11  C   UNL     1     -23.333  22.608  -5.829  1.00  0.00    -0.003 C 
ATOM     12  C   UNL     1     -22.223  22.270  -6.825  1.00  0.00     0.004 C 
ENDBRANCH  10  11
ENDBRANCH   9  10
ENDBRANCH   8   9
ENDBRANCH   7   8
ENDBRANCH   6   7
ENDBRANCH   5   6
ENDBRANCH   4   5
ENDBRANCH   3   4
ENDBRANCH   2   3
ENDBRANCH   1   2
BRANCH   1  13
ATOM     13  C   UNL     1     -33.058  21.529  -9.623  1.00  0.00     0.000 C 
BRANCH  13  14
ATOM     14  C   UNL     1     -33.658  20.221 -10.162  1.00  0.00     0.000 C 
BRANCH  14  15
ATOM     15  C   UNL     1     -32.575  19.141 -10.306  1.00  0.00     0.000 C 
BRANCH  15  16
ATOM     16  C   UNL     1     -33.155  17.714 -10.345  1.00  0.00     0.000 C 
BRANCH  16  17
ATOM     17  C   UNL     1     -32.171  16.603  -9.934  1.00  0.00     0.000 C 
BRANCH  17  18
ATOM     18  C   UNL     1     -31.760  15.706 -11.114  1.00  0.00     0.000 C 
BRANCH  18  19
ATOM     19  C   UNL     1     -30.234  15.619 -11.291  1.00  0.00     0.000 C 
BRANCH  19  20
ATOM     20  C   UNL     1     -29.491  16.786 -10.623  1.00  0.00     0.006 C 
BRANCH  20  21
ATOM     21  C   UNL     1     -29.724  18.094 -11.386  1.00  0.00     0.053 C 
BRANCH  21  22
ATOM     22  C   UNL     1     -29.162  18.000 -12.771  1.00  0.00     0.041 C 
ATOM     23  O   UNL     1     -29.298  16.940 -13.439  1.00  0.00    -0.550 OA
ATOM     24  O   UNL     1     -28.438  19.062 -13.301  1.00  0.00    -0.550 OA
ENDBRANCH  21  22
ENDBRANCH  20  21
ENDBRANCH  19  20
ENDBRANCH  18  19
ENDBRANCH  17  18
ENDBRANCH  16  17
ENDBRANCH  15  16
ENDBRANCH  14  15
ENDBRANCH  13  14
ENDBRANCH   1  13
TORSDOF 20
ENDMDL
MODEL 7
REMARK VINA RESULT:    16.362      6.571     10.466
REMARK INTER + INTRA:          34.434
REMARK INTER:                  35.543
REMARK INTRA:                  -1.109
REMARK UNBOUND:                -1.057
REMARK SMILES CCCCCCCCCCCCCCCCCCCCCC(=O)[O-]
REMARK SMILES IDX 12 1 11 2 10 3 9 4 8 5 7 6 6 7 5 8 4 9 3 10 2 11 1 12 13 13
REMARK SMILES IDX 14 14 15 15 16 16 17 17 18 18 19 19 20 20 21 21 22 22 23 23
REMARK SMILES IDX 24 24
REMARK H PARENT
REMARK Flexibility Score: inf
ROOT
ATOM      1  C   UNL     1     -28.437  13.882 -15.027  1.00  0.00     0.000 C 
ENDROOT
BRANCH   1   2
ATOM      2  C   UNL     1     -28.553  15.382 -14.699  1.00  0.00     0.000 C 
BRANCH   2   3
ATOM      3  C   UNL     1     -29.488  15.666 -13.511  1.00  0.00     0.000 C 
BRANCH   3   4
ATOM      4  C   UNL     1     -29.384  17.115 -13.001  1.00  0.00    -0.000 C 
BRANCH   4   5
ATOM      5  C   UNL     1     -29.485  17.283 -11.470  1.00  0.00    -0.000 C 
BRANCH   5   6
ATOM      6  C   UNL     1     -30.525  16.379 -10.779  1.00  0.00    -0.000 C 
BRANCH   6   7
ATOM      7  C   UNL     1     -31.864  17.065 -10.446  1.00  0.00    -0.000 C 
BRANCH   7   8
ATOM      8  C   UNL     1     -31.909  18.579 -10.729  1.00  0.00    -0.000 C 
BRANCH   8   9
ATOM      9  C   UNL     1     -33.278  19.248 -10.494  1.00  0.00    -0.000 C 
BRANCH   9  10
ATOM     10  C   UNL     1     -33.219  20.728 -10.062  1.00  0.00    -0.000 C 
BRANCH  10  11
ATOM     11  C   UNL     1     -32.141  21.567 -10.771  1.00  0.00    -0.003 C 
ATOM     12  C   UNL     1     -32.001  22.974 -10.188  1.00  0.00     0.004 C 
ENDBRANCH  10  11
ENDBRANCH   9  10
ENDBRANCH   8   9
ENDBRANCH   7   8
ENDBRANCH   6   7
ENDBRANCH   5   6
ENDBRANCH   4   5
ENDBRANCH   3   4
ENDBRANCH   2   3
ENDBRANCH   1   2
BRANCH   1  13
ATOM     13  C   UNL     1     -27.002  13.322 -15.043  1.00  0.00     0.000 C 
BRANCH  13  14
ATOM     14  C   UNL     1     -26.053  14.127 -15.945  1.00  0.00     0.000 C 
BRANCH  14  15
ATOM     15  C   UNL     1     -25.305  13.202 -16.917  1.00  0.00     0.000 C 
BRANCH  15  16
ATOM     16  C   UNL     1     -24.881  13.916 -18.214  1.00  0.00     0.000 C 
BRANCH  16  17
ATOM     17  C   UNL     1     -24.563  12.980 -19.395  1.00  0.00     0.000 C 
BRANCH  17  18
ATOM     18  C   UNL     1     -23.527  11.900 -19.037  1.00  0.00     0.000 C 
BRANCH  18  19
ATOM     19  C   UNL     1     -24.007  10.480 -19.380  1.00  0.00     0.000 C 
BRANCH  19  20
ATOM     20  C   UNL     1     -23.427   9.414 -18.437  1.00  0.00     0.006 C 
BRANCH  20  21
ATOM     21  C   UNL     1     -23.711   9.763 -16.972  1.00  0.00     0.053 C 
BRANCH  21  22
ATOM     22  C   UNL     1     -22.444   9.751 -16.175  1.00  0.00     0.041 C 
ATOM     23  O   UNL     1     -21.585   8.847 -16.364  1.00  0.00    -0.550 OA
ATOM     24  O   UNL     1     -22.236  10.703 -15.184  1.00  0.00    -0.550 OA
ENDBRANCH  21  22
ENDBRANCH  20  21
ENDBRANCH  19  20
ENDBRANCH  18  19
ENDBRANCH  17  18
ENDBRANCH  16  17
ENDBRANCH  15  16
ENDBRANCH  14  15
ENDBRANCH  13  14
ENDBRANCH   1  13
TORSDOF 20
ENDMDL
MODEL 8
REMARK VINA RESULT:    16.383      5.560      9.126
REMARK INTER + INTRA:          34.482
REMARK INTER:                  35.706
REMARK INTRA:                  -1.224
REMARK UNBOUND:                -1.057
REMARK SMILES CCCCCCCCCCCCCCCCCCCCCC(=O)[O-]
REMARK SMILES IDX 12 1 11 2 10 3 9 4 8 5 7 6 6 7 5 8 4 9 3 10 2 11 1 12 13 13
REMARK SMILES IDX 14 14 15 15 16 16 17 17 18 18 19 19 20 20 21 21 22 22 23 23
REMARK SMILES IDX 24 24
REMARK H PARENT
REMARK Flexibility Score: inf
ROOT
ATOM      1  C   UNL     1     -29.314  17.170 -13.120  1.00  0.00     0.000 C 
ENDROOT
BRANCH   1   2
ATOM      2  C   UNL     1     -29.517  17.356 -11.605  1.00  0.00     0.000 C 
BRANCH   2   3
ATOM      3  C   UNL     1     -30.495  16.333 -11.001  1.00  0.00     0.000 C 
BRANCH   3   4
ATOM      4  C   UNL     1     -31.854  16.954 -10.628  1.00  0.00    -0.000 C 
BRANCH   4   5
ATOM      5  C   UNL     1     -31.843  18.483 -10.420  1.00  0.00    -0.000 C 
BRANCH   5   6
ATOM      6  C   UNL     1     -33.131  19.213 -10.851  1.00  0.00    -0.000 C 
BRANCH   6   7
ATOM      7  C   UNL     1     -33.789  20.075  -9.757  1.00  0.00    -0.000 C 
BRANCH   7   8
ATOM      8  C   UNL     1     -33.124  21.446  -9.521  1.00  0.00    -0.000 C 
BRANCH   8   9
ATOM      9  C   UNL     1     -32.804  22.246 -10.799  1.00  0.00    -0.000 C 
BRANCH   9  10
ATOM     10  C   UNL     1     -31.302  22.430 -11.098  1.00  0.00    -0.000 C 
BRANCH  10  11
ATOM     11  C   UNL     1     -30.371  21.443 -10.371  1.00  0.00    -0.003 C 
ATOM     12  C   UNL     1     -29.322  20.821 -11.293  1.00  0.00     0.004 C 
ENDBRANCH  10  11
ENDBRANCH   9  10
ENDBRANCH   8   9
ENDBRANCH   7   8
ENDBRANCH   6   7
ENDBRANCH   5   6
ENDBRANCH   4   5
ENDBRANCH   3   4
ENDBRANCH   2   3
ENDBRANCH   1   2
BRANCH   1  13
ATOM     13  C   UNL     1     -29.716  15.790 -13.673  1.00  0.00     0.000 C 
BRANCH  13  14
ATOM     14  C   UNL     1     -28.790  15.299 -14.797  1.00  0.00     0.000 C 
BRANCH  14  15
ATOM     15  C   UNL     1     -28.306  13.868 -14.522  1.00  0.00     0.000 C 
BRANCH  15  16
ATOM     16  C   UNL     1     -27.270  13.379 -15.553  1.00  0.00     0.000 C 
BRANCH  16  17
ATOM     17  C   UNL     1     -25.800  13.561 -15.130  1.00  0.00     0.000 C 
BRANCH  17  18
ATOM     18  C   UNL     1     -25.111  12.230 -14.783  1.00  0.00     0.000 C 
BRANCH  18  19
ATOM     19  C   UNL     1     -24.225  11.704 -15.925  1.00  0.00     0.000 C 
BRANCH  19  20
ATOM     20  C   UNL     1     -24.254  10.172 -16.042  1.00  0.00     0.006 C 
BRANCH  20  21
ATOM     21  C   UNL     1     -23.038   9.658 -16.818  1.00  0.00     0.053 C 
BRANCH  21  22
ATOM     22  C   UNL     1     -21.851   9.539 -15.914  1.00  0.00     0.041 C 
ATOM     23  O   UNL     1     -20.815  10.223 -16.135  1.00  0.00    -0.550 OA
ATOM     24  O   UNL     1     -21.866   8.630 -14.863  1.00  0.00    -0.550 OA
ENDBRANCH  21  22
ENDBRANCH  20  21
ENDBRANCH  19  20
ENDBRANCH  18  19
ENDBRANCH  17  18
ENDBRANCH  16  17
ENDBRANCH  15  16
ENDBRANCH  14  15
ENDBRANCH  13  14
ENDBRANCH   1  13
TORSDOF 20
ENDMDL
