MODEL 1
REMARK VINA RESULT:    -5.525      0.000      0.000
REMARK INTER + INTRA:          -8.517
REMARK INTER:                  -7.948
REMARK INTRA:                  -0.569
REMARK UNBOUND:                -0.569
REMARK SMILES O=C(CO)[C@H](O)[C@H](O)[C@@H](O)CO
REMARK SMILES IDX 7 1 9 2 11 3 12 4 10 6 5 8 2 9 1 10 3 11 4 12 6 14 8 16
REMARK H PARENT 12 5 10 7 4 13 6 15 8 17
REMARK Flexibility Score: inf
ROOT
ATOM      1  C   UNL     1     -24.586 -14.305  20.756  1.00  0.00     0.181 C 
ENDROOT
BRANCH   1   2
ATOM      2  C   UNL     1     -25.413 -14.631  19.477  1.00  0.00     0.171 C 
BRANCH   2   3
ATOM      3  C   UNL     1     -25.812 -13.405  18.639  1.00  0.00     0.190 C 
BRANCH   3   4
ATOM      4  O   UNL     1     -26.837 -12.687  19.269  1.00  0.00    -0.394 OA
ATOM      5  H   UNL     1     -26.799 -11.768  18.896  1.00  0.00     0.210 HD
ENDBRANCH   3   4
ENDBRANCH   2   3
BRANCH   2   6
ATOM      6  O   UNL     1     -26.580 -15.333  19.821  1.00  0.00    -0.388 OA
ATOM      7  H   UNL     1     -27.242 -14.663  20.132  1.00  0.00     0.211 HD
ENDBRANCH   2   6
ENDBRANCH   1   2
BRANCH   1   8
ATOM      8  C   UNL     1     -23.704 -15.478  21.283  1.00  0.00     0.214 C 
BRANCH   8   9
ATOM      9  C   UNL     1     -23.197 -15.193  22.685  1.00  0.00     0.189 C 
ATOM     10  O   UNL     1     -22.761 -14.079  22.940  1.00  0.00    -0.294 OA
BRANCH   9  11
ATOM     11  C   UNL     1     -23.239 -16.242  23.771  1.00  0.00     0.234 C 
BRANCH  11  12
ATOM     12  O   UNL     1     -24.289 -16.001  24.671  1.00  0.00    -0.388 OA
ATOM     13  H   UNL     1     -23.917 -15.434  25.396  1.00  0.00     0.211 HD
ENDBRANCH  11  12
ENDBRANCH   9  11
ENDBRANCH   8   9
BRANCH   8  14
ATOM     14  O   UNL     1     -22.638 -15.757  20.405  1.00  0.00    -0.382 OA
ATOM     15  H   UNL     1     -22.923 -16.496  19.807  1.00  0.00     0.211 HD
ENDBRANCH   8  14
ENDBRANCH   1   8
BRANCH   1  16
ATOM     16  O   UNL     1     -25.428 -13.795  21.764  1.00  0.00    -0.387 OA
ATOM     17  H   UNL     1     -25.680 -12.869  21.517  1.00  0.00     0.211 HD
ENDBRANCH   1  16
TORSDOF 10
ENDMDL
MODEL 2
REMARK VINA RESULT:    -5.402      2.400      3.854
REMARK INTER + INTRA:          -8.339
REMARK INTER:                  -7.688
REMARK INTRA:                  -0.651
REMARK UNBOUND:                -0.569
REMARK SMILES O=C(CO)[C@H](O)[C@H](O)[C@@H](O)CO
REMARK SMILES IDX 7 1 9 2 11 3 12 4 10 6 5 8 2 9 1 10 3 11 4 12 6 14 8 16
REMARK H PARENT 12 5 10 7 4 13 6 15 8 17
REMARK Flexibility Score: inf
ROOT
ATOM      1  C   UNL     1     -25.774 -13.225  18.438  1.00  0.00     0.181 C 
ENDROOT
BRANCH   1   2
ATOM      2  C   UNL     1     -26.769 -13.605  17.301  1.00  0.00     0.171 C 
BRANCH   2   3
ATOM      3  C   UNL     1     -26.413 -13.035  15.918  1.00  0.00     0.190 C 
BRANCH   3   4
ATOM      4  O   UNL     1     -27.341 -12.060  15.530  1.00  0.00    -0.394 OA
ATOM      5  H   UNL     1     -28.226 -12.510  15.520  1.00  0.00     0.210 HD
ENDBRANCH   3   4
ENDBRANCH   2   3
BRANCH   2   6
ATOM      6  O   UNL     1     -28.068 -13.186  17.634  1.00  0.00    -0.388 OA
ATOM      7  H   UNL     1     -28.351 -13.713  18.426  1.00  0.00     0.211 HD
ENDBRANCH   2   6
ENDBRANCH   1   2
BRANCH   1   8
ATOM      8  C   UNL     1     -25.779 -14.190  19.663  1.00  0.00     0.214 C 
BRANCH   8   9
ATOM      9  C   UNL     1     -24.520 -15.036  19.698  1.00  0.00     0.189 C 
ATOM     10  O   UNL     1     -23.795 -14.974  20.680  1.00  0.00    -0.294 OA
BRANCH   9  11
ATOM     11  C   UNL     1     -24.157 -15.966  18.564  1.00  0.00     0.234 C 
BRANCH  11  12
ATOM     12  O   UNL     1     -25.193 -16.875  18.301  1.00  0.00    -0.388 OA
ATOM     13  H   UNL     1     -26.035 -16.438  18.591  1.00  0.00     0.211 HD
ENDBRANCH  11  12
ENDBRANCH   9  11
ENDBRANCH   8   9
BRANCH   8  14
ATOM     14  O   UNL     1     -26.934 -14.997  19.680  1.00  0.00    -0.382 OA
ATOM     15  H   UNL     1     -27.648 -14.517  19.185  1.00  0.00     0.211 HD
ENDBRANCH   8  14
ENDBRANCH   1   8
BRANCH   1  16
ATOM     16  O   UNL     1     -25.971 -11.887  18.831  1.00  0.00    -0.387 OA
ATOM     17  H   UNL     1     -25.407 -11.712  19.627  1.00  0.00     0.211 HD
ENDBRANCH   1  16
TORSDOF 10
ENDMDL
MODEL 3
REMARK VINA RESULT:    -5.371      1.770      3.262
REMARK INTER + INTRA:          -8.295
REMARK INTER:                  -7.440
REMARK INTRA:                  -0.854
REMARK UNBOUND:                -0.569
REMARK SMILES O=C(CO)[C@H](O)[C@H](O)[C@@H](O)CO
REMARK SMILES IDX 7 1 9 2 11 3 12 4 10 6 5 8 2 9 1 10 3 11 4 12 6 14 8 16
REMARK H PARENT 12 5 10 7 4 13 6 15 8 17
REMARK Flexibility Score: inf
ROOT
ATOM      1  C   UNL     1     -25.733 -14.294  18.538  1.00  0.00     0.181 C 
ENDROOT
BRANCH   1   2
ATOM      2  C   UNL     1     -26.544 -13.010  18.191  1.00  0.00     0.171 C 
BRANCH   2   3
ATOM      3  C   UNL     1     -26.671 -12.717  16.687  1.00  0.00     0.190 C 
BRANCH   3   4
ATOM      4  O   UNL     1     -27.653 -13.530  16.105  1.00  0.00    -0.394 OA
ATOM      5  H   UNL     1     -28.511 -13.275  16.533  1.00  0.00     0.210 HD
ENDBRANCH   3   4
ENDBRANCH   2   3
BRANCH   2   6
ATOM      6  O   UNL     1     -25.969 -11.891  18.815  1.00  0.00    -0.388 OA
ATOM      7  H   UNL     1     -26.471 -11.093  18.503  1.00  0.00     0.211 HD
ENDBRANCH   2   6
ENDBRANCH   1   2
BRANCH   1   8
ATOM      8  C   UNL     1     -24.901 -14.208  19.854  1.00  0.00     0.214 C 
BRANCH   8   9
ATOM      9  C   UNL     1     -24.113 -15.485  20.087  1.00  0.00     0.189 C 
ATOM     10  O   UNL     1     -24.341 -16.456  19.381  1.00  0.00    -0.294 OA
BRANCH   9  11
ATOM     11  C   UNL     1     -23.043 -15.573  21.150  1.00  0.00     0.234 C 
BRANCH  11  12
ATOM     12  O   UNL     1     -22.930 -14.367  21.860  1.00  0.00    -0.388 OA
ATOM     13  H   UNL     1     -23.843 -13.981  21.910  1.00  0.00     0.211 HD
ENDBRANCH  11  12
ENDBRANCH   9  11
ENDBRANCH   8   9
BRANCH   8  14
ATOM     14  O   UNL     1     -25.717 -13.906  20.961  1.00  0.00    -0.382 OA
ATOM     15  H   UNL     1     -25.484 -12.992  21.270  1.00  0.00     0.211 HD
ENDBRANCH   8  14
ENDBRANCH   1   8
BRANCH   1  16
ATOM     16  O   UNL     1     -24.933 -14.676  17.443  1.00  0.00    -0.387 OA
ATOM     17  H   UNL     1     -24.515 -13.861  17.065  1.00  0.00     0.211 HD
ENDBRANCH   1  16
TORSDOF 10
ENDMDL
MODEL 4
REMARK VINA RESULT:    -5.267      1.194      1.997
REMARK INTER + INTRA:          -8.145
REMARK INTER:                  -7.397
REMARK INTRA:                  -0.748
REMARK UNBOUND:                -0.569
REMARK SMILES O=C(CO)[C@H](O)[C@H](O)[C@@H](O)CO
REMARK SMILES IDX 7 1 9 2 11 3 12 4 10 6 5 8 2 9 1 10 3 11 4 12 6 14 8 16
REMARK H PARENT 12 5 10 7 4 13 6 15 8 17
REMARK Flexibility Score: inf
ROOT
ATOM      1  C   UNL     1     -24.386 -15.321  20.061  1.00  0.00     0.181 C 
ENDROOT
BRANCH   1   2
ATOM      2  C   UNL     1     -25.565 -14.888  19.140  1.00  0.00     0.171 C 
BRANCH   2   3
ATOM      3  C   UNL     1     -25.618 -13.384  18.826  1.00  0.00     0.190 C 
BRANCH   3   4
ATOM      4  O   UNL     1     -26.748 -12.796  19.408  1.00  0.00    -0.394 OA
ATOM      5  H   UNL     1     -26.441 -11.937  19.800  1.00  0.00     0.210 HD
ENDBRANCH   3   4
ENDBRANCH   2   3
BRANCH   2   6
ATOM      6  O   UNL     1     -26.791 -15.266  19.713  1.00  0.00    -0.388 OA
ATOM      7  H   UNL     1     -26.775 -16.254  19.810  1.00  0.00     0.211 HD
ENDBRANCH   2   6
ENDBRANCH   1   2
BRANCH   1   8
ATOM      8  C   UNL     1     -24.168 -14.419  21.314  1.00  0.00     0.214 C 
BRANCH   8   9
ATOM      9  C   UNL     1     -23.380 -15.152  22.385  1.00  0.00     0.189 C 
ATOM     10  O   UNL     1     -22.829 -16.204  22.096  1.00  0.00    -0.294 OA
BRANCH   9  11
ATOM     11  C   UNL     1     -23.244 -14.601  23.785  1.00  0.00     0.234 C 
BRANCH  11  12
ATOM     12  O   UNL     1     -23.164 -13.200  23.775  1.00  0.00    -0.388 OA
ATOM     13  H   UNL     1     -23.302 -12.901  24.712  1.00  0.00     0.211 HD
ENDBRANCH  11  12
ENDBRANCH   9  11
ENDBRANCH   8   9
BRANCH   8  14
ATOM     14  O   UNL     1     -25.390 -13.938  21.822  1.00  0.00    -0.382 OA
ATOM     15  H   UNL     1     -26.111 -14.545  21.508  1.00  0.00     0.211 HD
ENDBRANCH   8  14
ENDBRANCH   1   8
BRANCH   1  16
ATOM     16  O   UNL     1     -23.203 -15.456  19.308  1.00  0.00    -0.387 OA
ATOM     17  H   UNL     1     -22.721 -14.590  19.330  1.00  0.00     0.211 HD
ENDBRANCH   1  16
TORSDOF 10
ENDMDL
MODEL 5
REMARK VINA RESULT:    -5.224      0.979      4.744
REMARK INTER + INTRA:          -8.083
REMARK INTER:                  -7.291
REMARK INTRA:                  -0.792
REMARK UNBOUND:                -0.569
REMARK SMILES O=C(CO)[C@H](O)[C@H](O)[C@@H](O)CO
REMARK SMILES IDX 7 1 9 2 11 3 12 4 10 6 5 8 2 9 1 10 3 11 4 12 6 14 8 16
REMARK H PARENT 12 5 10 7 4 13 6 15 8 17
REMARK Flexibility Score: inf
ROOT
ATOM      1  C   UNL     1     -23.303 -14.677  21.300  1.00  0.00     0.181 C 
ENDROOT
BRANCH   1   2
ATOM      2  C   UNL     1     -23.039 -14.641  22.834  1.00  0.00     0.171 C 
BRANCH   2   3
ATOM      3  C   UNL     1     -23.386 -15.942  23.577  1.00  0.00     0.190 C 
BRANCH   3   4
ATOM      4  O   UNL     1     -24.346 -15.705  24.570  1.00  0.00    -0.394 OA
ATOM      5  H   UNL     1     -23.845 -15.398  25.370  1.00  0.00     0.210 HD
ENDBRANCH   3   4
ENDBRANCH   2   3
BRANCH   2   6
ATOM      6  O   UNL     1     -23.758 -13.588  23.424  1.00  0.00    -0.388 OA
ATOM      7  H   UNL     1     -24.622 -13.518  22.941  1.00  0.00     0.211 HD
ENDBRANCH   2   6
ENDBRANCH   1   2
BRANCH   1   8
ATOM      8  C   UNL     1     -24.778 -14.982  20.895  1.00  0.00     0.214 C 
BRANCH   8   9
ATOM      9  C   UNL     1     -24.982 -14.810  19.400  1.00  0.00     0.189 C 
ATOM     10  O   UNL     1     -24.473 -15.621  18.639  1.00  0.00    -0.294 OA
BRANCH   9  11
ATOM     11  C   UNL     1     -25.813 -13.682  18.838  1.00  0.00     0.234 C 
BRANCH  11  12
ATOM     12  O   UNL     1     -27.169 -13.836  19.166  1.00  0.00    -0.388 OA
ATOM     13  H   UNL     1     -27.589 -12.943  19.061  1.00  0.00     0.211 HD
ENDBRANCH  11  12
ENDBRANCH   9  11
ENDBRANCH   8   9
BRANCH   8  14
ATOM     14  O   UNL     1     -25.687 -14.192  21.625  1.00  0.00    -0.382 OA
ATOM     15  H   UNL     1     -25.218 -13.856  22.433  1.00  0.00     0.211 HD
ENDBRANCH   8  14
ENDBRANCH   1   8
BRANCH   1  16
ATOM     16  O   UNL     1     -22.400 -15.557  20.670  1.00  0.00    -0.387 OA
ATOM     17  H   UNL     1     -21.533 -15.505  21.149  1.00  0.00     0.211 HD
ENDBRANCH   1  16
TORSDOF 10
ENDMDL
MODEL 6
REMARK VINA RESULT:    -5.193      1.731      2.910
REMARK INTER + INTRA:          -8.039
REMARK INTER:                  -7.301
REMARK INTRA:                  -0.738
REMARK UNBOUND:                -0.569
REMARK SMILES O=C(CO)[C@H](O)[C@H](O)[C@@H](O)CO
REMARK SMILES IDX 7 1 9 2 11 3 12 4 10 6 5 8 2 9 1 10 3 11 4 12 6 14 8 16
REMARK H PARENT 12 5 10 7 4 13 6 15 8 17
REMARK Flexibility Score: inf
ROOT
ATOM      1  C   UNL     1     -23.791 -15.660  20.499  1.00  0.00     0.181 C 
ENDROOT
BRANCH   1   2
ATOM      2  C   UNL     1     -24.675 -15.737  19.218  1.00  0.00     0.171 C 
BRANCH   2   3
ATOM      3  C   UNL     1     -24.089 -16.594  18.083  1.00  0.00     0.190 C 
BRANCH   3   4
ATOM      4  O   UNL     1     -23.215 -15.838  17.292  1.00  0.00    -0.394 OA
ATOM      5  H   UNL     1     -23.739 -15.059  16.970  1.00  0.00     0.210 HD
ENDBRANCH   3   4
ENDBRANCH   2   3
BRANCH   2   6
ATOM      6  O   UNL     1     -24.919 -14.447  18.720  1.00  0.00    -0.388 OA
ATOM      7  H   UNL     1     -25.904 -14.347  18.640  1.00  0.00     0.211 HD
ENDBRANCH   2   6
ENDBRANCH   1   2
BRANCH   1   8
ATOM      8  C   UNL     1     -24.044 -14.410  21.396  1.00  0.00     0.214 C 
BRANCH   8   9
ATOM      9  C   UNL     1     -23.489 -14.619  22.794  1.00  0.00     0.189 C 
ATOM     10  O   UNL     1     -23.090 -15.730  23.110  1.00  0.00    -0.294 OA
BRANCH   9  11
ATOM     11  C   UNL     1     -23.397 -13.485  23.787  1.00  0.00     0.234 C 
BRANCH  11  12
ATOM     12  O   UNL     1     -22.068 -13.248  24.168  1.00  0.00    -0.388 OA
ATOM     13  H   UNL     1     -21.532 -13.231  23.332  1.00  0.00     0.211 HD
ENDBRANCH  11  12
ENDBRANCH   9  11
ENDBRANCH   8   9
BRANCH   8  14
ATOM     14  O   UNL     1     -25.411 -14.074  21.438  1.00  0.00    -0.382 OA
ATOM     15  H   UNL     1     -25.578 -13.389  20.740  1.00  0.00     0.211 HD
ENDBRANCH   8  14
ENDBRANCH   1   8
BRANCH   1  16
ATOM     16  O   UNL     1     -22.429 -15.787  20.159  1.00  0.00    -0.387 OA
ATOM     17  H   UNL     1     -21.951 -16.173  20.937  1.00  0.00     0.211 HD
ENDBRANCH   1  16
TORSDOF 10
ENDMDL
MODEL 7
REMARK VINA RESULT:    -5.130      2.806      3.838
REMARK INTER + INTRA:          -7.949
REMARK INTER:                  -7.028
REMARK INTRA:                  -0.920
REMARK UNBOUND:                -0.569
REMARK SMILES O=C(CO)[C@H](O)[C@H](O)[C@@H](O)CO
REMARK SMILES IDX 7 1 9 2 11 3 12 4 10 6 5 8 2 9 1 10 3 11 4 12 6 14 8 16
REMARK H PARENT 12 5 10 7 4 13 6 15 8 17
REMARK Flexibility Score: inf
ROOT
ATOM      1  C   UNL     1     -25.462 -15.008  19.420  1.00  0.00     0.181 C 
ENDROOT
BRANCH   1   2
ATOM      2  C   UNL     1     -25.317 -13.908  18.326  1.00  0.00     0.171 C 
BRANCH   2   3
ATOM      3  C   UNL     1     -26.324 -12.751  18.442  1.00  0.00     0.190 C 
BRANCH   3   4
ATOM      4  O   UNL     1     -27.539 -13.089  17.833  1.00  0.00    -0.394 OA
ATOM      5  H   UNL     1     -27.327 -13.790  17.163  1.00  0.00     0.210 HD
ENDBRANCH   3   4
ENDBRANCH   2   3
BRANCH   2   6
ATOM      6  O   UNL     1     -25.438 -14.477  17.048  1.00  0.00    -0.388 OA
ATOM      7  H   UNL     1     -25.012 -13.849  16.408  1.00  0.00     0.211 HD
ENDBRANCH   2   6
ENDBRANCH   1   2
BRANCH   1   8
ATOM      8  C   UNL     1     -24.766 -16.362  19.083  1.00  0.00     0.214 C 
BRANCH   8   9
ATOM      9  C   UNL     1     -23.260 -16.197  18.998  1.00  0.00     0.189 C 
ATOM     10  O   UNL     1     -22.653 -15.797  19.981  1.00  0.00    -0.294 OA
BRANCH   9  11
ATOM     11  C   UNL     1     -22.495 -16.536  17.740  1.00  0.00     0.234 C 
BRANCH  11  12
ATOM     12  O   UNL     1     -22.874 -15.706  16.674  1.00  0.00    -0.388 OA
ATOM     13  H   UNL     1     -23.052 -16.301  15.900  1.00  0.00     0.211 HD
ENDBRANCH  11  12
ENDBRANCH   9  11
ENDBRANCH   8   9
BRANCH   8  14
ATOM     14  O   UNL     1     -25.283 -16.928  17.901  1.00  0.00    -0.382 OA
ATOM     15  H   UNL     1     -26.234 -17.160  18.065  1.00  0.00     0.211 HD
ENDBRANCH   8  14
ENDBRANCH   1   8
BRANCH   1  16
ATOM     16  O   UNL     1     -26.819 -15.191  19.751  1.00  0.00    -0.387 OA
ATOM     17  H   UNL     1     -27.333 -15.286  18.908  1.00  0.00     0.211 HD
ENDBRANCH   1  16
TORSDOF 10
ENDMDL
MODEL 8
REMARK VINA RESULT:    -5.039      1.896      4.664
REMARK INTER + INTRA:          -7.817
REMARK INTER:                  -7.092
REMARK INTRA:                  -0.725
REMARK UNBOUND:                -0.569
REMARK SMILES O=C(CO)[C@H](O)[C@H](O)[C@@H](O)CO
REMARK SMILES IDX 7 1 9 2 11 3 12 4 10 6 5 8 2 9 1 10 3 11 4 12 6 14 8 16
REMARK H PARENT 12 5 10 7 4 13 6 15 8 17
REMARK Flexibility Score: inf
ROOT
ATOM      1  C   UNL     1     -23.243 -14.975  21.493  1.00  0.00     0.181 C 
ENDROOT
BRANCH   1   2
ATOM      2  C   UNL     1     -23.561 -13.896  22.570  1.00  0.00     0.171 C 
BRANCH   2   3
ATOM      3  C   UNL     1     -22.914 -14.147  23.942  1.00  0.00     0.190 C 
BRANCH   3   4
ATOM      4  O   UNL     1     -21.967 -13.157  24.233  1.00  0.00    -0.394 OA
ATOM      5  H   UNL     1     -22.466 -12.416  24.665  1.00  0.00     0.210 HD
ENDBRANCH   3   4
ENDBRANCH   2   3
BRANCH   2   6
ATOM      6  O   UNL     1     -24.950 -13.783  22.747  1.00  0.00    -0.388 OA
ATOM      7  H   UNL     1     -25.097 -13.308  23.606  1.00  0.00     0.211 HD
ENDBRANCH   2   6
ENDBRANCH   1   2
BRANCH   1   8
ATOM      8  C   UNL     1     -24.326 -15.131  20.381  1.00  0.00     0.214 C 
BRANCH   8   9
ATOM      9  C   UNL     1     -23.761 -15.839  19.163  1.00  0.00     0.189 C 
ATOM     10  O   UNL     1     -22.626 -16.290  19.216  1.00  0.00    -0.294 OA
BRANCH   9  11
ATOM     11  C   UNL     1     -24.574 -16.018  17.903  1.00  0.00     0.234 C 
BRANCH  11  12
ATOM     12  O   UNL     1     -24.976 -14.781  17.376  1.00  0.00    -0.388 OA
ATOM     13  H   UNL     1     -25.658 -14.977  16.682  1.00  0.00     0.211 HD
ENDBRANCH  11  12
ENDBRANCH   9  11
ENDBRANCH   8   9
BRANCH   8  14
ATOM     14  O   UNL     1     -24.888 -13.888  20.031  1.00  0.00    -0.382 OA
ATOM     15  H   UNL     1     -25.874 -14.000  19.994  1.00  0.00     0.211 HD
ENDBRANCH   8  14
ENDBRANCH   1   8
BRANCH   1  16
ATOM     16  O   UNL     1     -22.952 -16.208  22.109  1.00  0.00    -0.387 OA
ATOM     17  H   UNL     1     -23.679 -16.844  21.888  1.00  0.00     0.211 HD
ENDBRANCH   1  16
TORSDOF 10
ENDMDL
MODEL 9
REMARK VINA RESULT:    -4.972      2.154      4.840
REMARK INTER + INTRA:          -7.722
REMARK INTER:                  -6.844
REMARK INTRA:                  -0.878
REMARK UNBOUND:                -0.569
REMARK SMILES O=C(CO)[C@H](O)[C@H](O)[C@@H](O)CO
REMARK SMILES IDX 7 1 9 2 11 3 12 4 10 6 5 8 2 9 1 10 3 11 4 12 6 14 8 16
REMARK H PARENT 12 5 10 7 4 13 6 15 8 17
REMARK Flexibility Score: inf
ROOT
ATOM      1  C   UNL     1     -23.564 -16.498  20.159  1.00  0.00     0.181 C 
ENDROOT
BRANCH   1   2
ATOM      2  C   UNL     1     -23.262 -17.950  19.683  1.00  0.00     0.171 C 
BRANCH   2   3
ATOM      3  C   UNL     1     -22.406 -18.780  20.655  1.00  0.00     0.190 C 
BRANCH   3   4
ATOM      4  O   UNL     1     -22.809 -18.564  21.979  1.00  0.00    -0.394 OA
ATOM      5  H   UNL     1     -23.736 -18.213  21.931  1.00  0.00     0.210 HD
ENDBRANCH   3   4
ENDBRANCH   2   3
BRANCH   2   6
ATOM      6  O   UNL     1     -22.620 -17.927  18.434  1.00  0.00    -0.388 OA
ATOM      7  H   UNL     1     -23.280 -17.591  17.773  1.00  0.00     0.211 HD
ENDBRANCH   2   6
ENDBRANCH   1   2
BRANCH   1   8
ATOM      8  C   UNL     1     -24.403 -15.643  19.161  1.00  0.00     0.214 C 
BRANCH   8   9
ATOM      9  C   UNL     1     -25.111 -14.505  19.876  1.00  0.00     0.189 C 
ATOM     10  O   UNL     1     -24.907 -14.342  21.071  1.00  0.00    -0.294 OA
BRANCH   9  11
ATOM     11  C   UNL     1     -26.037 -13.563  19.144  1.00  0.00     0.234 C 
BRANCH  11  12
ATOM     12  O   UNL     1     -27.347 -14.063  19.108  1.00  0.00    -0.388 OA
ATOM     13  H   UNL     1     -27.456 -14.632  19.914  1.00  0.00     0.211 HD
ENDBRANCH  11  12
ENDBRANCH   9  11
ENDBRANCH   8   9
BRANCH   8  14
ATOM     14  O   UNL     1     -25.318 -16.437  18.443  1.00  0.00    -0.382 OA
ATOM     15  H   UNL     1     -25.588 -15.933  17.632  1.00  0.00     0.211 HD
ENDBRANCH   8  14
ENDBRANCH   1   8
BRANCH   1  16
ATOM     16  O   UNL     1     -22.369 -15.846  20.523  1.00  0.00    -0.387 OA
ATOM     17  H   UNL     1     -21.797 -15.774  19.716  1.00  0.00     0.211 HD
ENDBRANCH   1  16
TORSDOF 10
ENDMDL
