MODEL 1
REMARK VINA RESULT:    -7.073      0.000      0.000
REMARK INTER + INTRA:          -8.818
REMARK INTER:                  -8.520
REMARK INTRA:                  -0.297
REMARK UNBOUND:                -0.297
REMARK SMILES O=c1c(O)c(-c2ccc(O)c(O)c2)oc2cc(O)cc(O)c12
REMARK SMILES IDX 5 1 3 2 2 3 1 4 22 5 20 6 19 7 17 8 16 9 15 10 14 11 6 12
REMARK SMILES IDX 7 13 8 14 9 15 13 16 11 17 10 18 12 20 4 22 21 24 18 26
REMARK H PARENT 10 19 12 21 4 23 21 25 18 27
REMARK Flexibility Score: inf
ROOT
ATOM      1  C   UNL     1     114.175 115.665 135.978  1.00  0.00     0.180 A 
ATOM      2  C   UNL     1     114.170 116.333 137.216  1.00  0.00     0.208 A 
ATOM      3  C   UNL     1     115.391 116.565 137.869  1.00  0.00     0.238 A 
ATOM      4  O   UNL     1     115.374 117.115 139.002  1.00  0.00    -0.285 OA
ATOM      5  C   UNL     1     116.602 116.142 137.271  1.00  0.00     0.111 A 
ATOM      6  C   UNL     1     117.899 116.361 137.825  1.00  0.00     0.134 A 
ATOM      7  C   UNL     1     119.018 115.785 137.212  1.00  0.00     0.093 A 
ATOM      8  C   UNL     1     118.895 115.054 136.031  1.00  0.00     0.123 A 
ATOM      9  C   UNL     1     117.638 114.883 135.449  1.00  0.00     0.094 A 
ATOM     10  C   UNL     1     116.499 115.416 136.056  1.00  0.00     0.146 A 
ATOM     11  O   UNL     1     115.321 115.222 135.475  1.00  0.00    -0.452 OA
ENDROOT
BRANCH   1  12
ATOM     12  C   UNL     1     112.932 115.406 135.218  1.00  0.00     0.025 A 
ATOM     13  C   UNL     1     112.091 114.326 135.538  1.00  0.00     0.016 A 
ATOM     14  C   UNL     1     110.909 114.114 134.823  1.00  0.00     0.051 A 
ATOM     15  C   UNL     1     110.541 114.982 133.790  1.00  0.00     0.157 A 
ATOM     16  C   UNL     1     112.548 116.288 134.195  1.00  0.00     0.062 A 
ATOM     17  C   UNL     1     111.363 116.077 133.476  1.00  0.00     0.158 A 
BRANCH  15  18
ATOM     18  O   UNL     1     109.357 114.744 133.094  1.00  0.00    -0.504 OA
ATOM     19  H   UNL     1     108.642 115.454 132.990  1.00  0.00     0.293 HD
ENDBRANCH  15  18
BRANCH  17  20
ATOM     20  O   UNL     1     111.000 116.952 132.453  1.00  0.00    -0.504 OA
ATOM     21  H   UNL     1     111.602 117.713 132.166  1.00  0.00     0.293 HD
ENDBRANCH  17  20
ENDBRANCH   1  12
BRANCH   2  22
ATOM     22  O   UNL     1     112.961 116.723 137.798  1.00  0.00    -0.502 OA
ATOM     23  H   UNL     1     112.675 117.693 137.859  1.00  0.00     0.293 HD
ENDBRANCH   2  22
BRANCH   6  24
ATOM     24  O   UNL     1     118.143 117.153 138.951  1.00  0.00    -0.507 OA
ATOM     25  H   UNL     1     117.595 117.133 139.797  1.00  0.00     0.293 HD
ENDBRANCH   6  24
BRANCH   8  26
ATOM     26  O   UNL     1     120.033 114.507 135.440  1.00  0.00    -0.508 OA
ATOM     27  H   UNL     1     120.458 113.658 135.794  1.00  0.00     0.293 HD
ENDBRANCH   8  26
TORSDOF 6
ENDMDL
MODEL 2
REMARK VINA RESULT:    -6.919      5.714      8.868
REMARK INTER + INTRA:          -8.631
REMARK INTER:                  -8.313
REMARK INTRA:                  -0.318
REMARK UNBOUND:                -0.297
REMARK SMILES O=c1c(O)c(-c2ccc(O)c(O)c2)oc2cc(O)cc(O)c12
REMARK SMILES IDX 5 1 3 2 2 3 1 4 22 5 20 6 19 7 17 8 16 9 15 10 14 11 6 12
REMARK SMILES IDX 7 13 8 14 9 15 13 16 11 17 10 18 12 20 4 22 21 24 18 26
REMARK H PARENT 10 19 12 21 4 23 21 25 18 27
REMARK Flexibility Score: inf
ROOT
ATOM      1  C   UNL     1     116.792 120.817 141.076  1.00  0.00     0.180 A 
ATOM      2  C   UNL     1     118.154 120.788 140.727  1.00  0.00     0.208 A 
ATOM      3  C   UNL     1     118.608 119.800 139.838  1.00  0.00     0.238 A 
ATOM      4  O   UNL     1     119.837 119.747 139.572  1.00  0.00    -0.285 OA
ATOM      5  C   UNL     1     117.694 118.864 139.298  1.00  0.00     0.111 A 
ATOM      6  C   UNL     1     118.038 117.846 138.359  1.00  0.00     0.134 A 
ATOM      7  C   UNL     1     117.079 116.893 137.992  1.00  0.00     0.093 A 
ATOM      8  C   UNL     1     115.774 116.960 138.479  1.00  0.00     0.123 A 
ATOM      9  C   UNL     1     115.412 117.986 139.353  1.00  0.00     0.094 A 
ATOM     10  C   UNL     1     116.355 118.930 139.764  1.00  0.00     0.146 A 
ATOM     11  O   UNL     1     115.972 119.885 140.604  1.00  0.00    -0.452 OA
ENDROOT
BRANCH   1  12
ATOM     12  C   UNL     1     116.234 121.842 141.987  1.00  0.00     0.025 A 
ATOM     13  C   UNL     1     116.132 121.614 143.370  1.00  0.00     0.016 A 
ATOM     14  C   UNL     1     115.625 122.605 144.214  1.00  0.00     0.051 A 
ATOM     15  C   UNL     1     115.226 123.841 143.695  1.00  0.00     0.157 A 
ATOM     16  C   UNL     1     115.854 123.092 141.472  1.00  0.00     0.062 A 
ATOM     17  C   UNL     1     115.344 124.088 142.317  1.00  0.00     0.158 A 
BRANCH  15  18
ATOM     18  O   UNL     1     114.723 124.810 144.562  1.00  0.00    -0.504 OA
ATOM     19  H   UNL     1     113.728 124.963 144.678  1.00  0.00     0.293 HD
ENDBRANCH  15  18
BRANCH  17  20
ATOM     20  O   UNL     1     114.956 125.321 141.793  1.00  0.00    -0.504 OA
ATOM     21  H   UNL     1     114.976 125.504 140.797  1.00  0.00     0.293 HD
ENDBRANCH  17  20
ENDBRANCH   1  12
BRANCH   2  22
ATOM     22  O   UNL     1     119.042 121.709 141.288  1.00  0.00    -0.502 OA
ATOM     23  H   UNL     1     119.849 122.061 140.787  1.00  0.00     0.293 HD
ENDBRANCH   2  22
BRANCH   6  24
ATOM     24  O   UNL     1     119.287 117.744 137.740  1.00  0.00    -0.507 OA
ATOM     25  H   UNL     1     119.624 118.364 137.021  1.00  0.00     0.293 HD
ENDBRANCH   6  24
BRANCH   8  26
ATOM     26  O   UNL     1     114.842 116.003 138.080  1.00  0.00    -0.508 OA
ATOM     27  H   UNL     1     113.857 116.100 138.298  1.00  0.00     0.293 HD
ENDBRANCH   8  26
TORSDOF 6
ENDMDL
MODEL 3
REMARK VINA RESULT:    -6.610      1.794      2.596
REMARK INTER + INTRA:          -8.260
REMARK INTER:                  -8.035
REMARK INTRA:                  -0.225
REMARK UNBOUND:                -0.297
REMARK SMILES O=c1c(O)c(-c2ccc(O)c(O)c2)oc2cc(O)cc(O)c12
REMARK SMILES IDX 5 1 3 2 2 3 1 4 22 5 20 6 19 7 17 8 16 9 15 10 14 11 6 12
REMARK SMILES IDX 7 13 8 14 9 15 13 16 11 17 10 18 12 20 4 22 21 24 18 26
REMARK H PARENT 10 19 12 21 4 23 21 25 18 27
REMARK Flexibility Score: inf
ROOT
ATOM      1  C   UNL     1     115.730 115.258 135.062  1.00  0.00     0.180 A 
ATOM      2  C   UNL     1     116.345 115.548 136.293  1.00  0.00     0.208 A 
ATOM      3  C   UNL     1     117.741 115.437 136.399  1.00  0.00     0.238 A 
ATOM      4  O   UNL     1     118.279 115.647 137.518  1.00  0.00    -0.285 OA
ATOM      5  C   UNL     1     118.505 115.053 135.271  1.00  0.00     0.111 A 
ATOM      6  C   UNL     1     119.929 114.948 135.256  1.00  0.00     0.134 A 
ATOM      7  C   UNL     1     120.570 114.434 134.122  1.00  0.00     0.093 A 
ATOM      8  C   UNL     1     119.847 114.083 132.983  1.00  0.00     0.123 A 
ATOM      9  C   UNL     1     118.460 114.237 132.967  1.00  0.00     0.094 A 
ATOM     10  C   UNL     1     117.788 114.714 134.095  1.00  0.00     0.146 A 
ATOM     11  O   UNL     1     116.467 114.836 134.041  1.00  0.00    -0.452 OA
ENDROOT
BRANCH   1  12
ATOM     12  C   UNL     1     114.267 115.375 134.866  1.00  0.00     0.025 A 
ATOM     13  C   UNL     1     113.374 114.467 135.460  1.00  0.00     0.016 A 
ATOM     14  C   UNL     1     111.996 114.611 135.281  1.00  0.00     0.051 A 
ATOM     15  C   UNL     1     111.487 115.670 134.521  1.00  0.00     0.157 A 
ATOM     16  C   UNL     1     113.753 116.449 134.121  1.00  0.00     0.062 A 
ATOM     17  C   UNL     1     112.370 116.596 133.940  1.00  0.00     0.158 A 
BRANCH  15  18
ATOM     18  O   UNL     1     110.108 115.786 134.359  1.00  0.00    -0.504 OA
ATOM     19  H   UNL     1     109.545 115.033 133.982  1.00  0.00     0.293 HD
ENDBRANCH  15  18
BRANCH  17  20
ATOM     20  O   UNL     1     111.870 117.658 133.187  1.00  0.00    -0.504 OA
ATOM     21  H   UNL     1     111.097 117.536 132.545  1.00  0.00     0.293 HD
ENDBRANCH  17  20
ENDBRANCH   1  12
BRANCH   2  22
ATOM     22  O   UNL     1     115.569 115.905 137.399  1.00  0.00    -0.502 OA
ATOM     23  H   UNL     1     114.753 116.501 137.321  1.00  0.00     0.293 HD
ENDBRANCH   2  22
BRANCH   6  24
ATOM     24  O   UNL     1     120.753 115.358 136.307  1.00  0.00    -0.507 OA
ATOM     25  H   UNL     1     121.229 114.734 136.940  1.00  0.00     0.293 HD
ENDBRANCH   6  24
BRANCH   8  26
ATOM     26  O   UNL     1     120.520 113.588 131.867  1.00  0.00    -0.508 OA
ATOM     27  H   UNL     1     121.382 114.007 131.539  1.00  0.00     0.293 HD
ENDBRANCH   8  26
TORSDOF 6
ENDMDL
MODEL 4
REMARK VINA RESULT:    -6.535      7.443     10.243
REMARK INTER + INTRA:          -8.169
REMARK INTER:                  -7.874
REMARK INTRA:                  -0.295
REMARK UNBOUND:                -0.297
REMARK SMILES O=c1c(O)c(-c2ccc(O)c(O)c2)oc2cc(O)cc(O)c12
REMARK SMILES IDX 5 1 3 2 2 3 1 4 22 5 20 6 19 7 17 8 16 9 15 10 14 11 6 12
REMARK SMILES IDX 7 13 8 14 9 15 13 16 11 17 10 18 12 20 4 22 21 24 18 26
REMARK H PARENT 10 19 12 21 4 23 21 25 18 27
REMARK Flexibility Score: inf
ROOT
ATOM      1  C   UNL     1     115.986 121.981 141.573  1.00  0.00     0.180 A 
ATOM      2  C   UNL     1     115.688 121.938 142.947  1.00  0.00     0.208 A 
ATOM      3  C   UNL     1     115.117 123.066 143.556  1.00  0.00     0.238 A 
ATOM      4  O   UNL     1     114.903 123.040 144.796  1.00  0.00    -0.285 OA
ATOM      5  C   UNL     1     114.836 124.218 142.782  1.00  0.00     0.111 A 
ATOM      6  C   UNL     1     114.220 125.403 143.288  1.00  0.00     0.134 A 
ATOM      7  C   UNL     1     114.109 126.529 142.462  1.00  0.00     0.093 A 
ATOM      8  C   UNL     1     114.530 126.492 141.134  1.00  0.00     0.123 A 
ATOM      9  C   UNL     1     115.079 125.319 140.612  1.00  0.00     0.094 A 
ATOM     10  C   UNL     1     115.235 124.191 141.421  1.00  0.00     0.146 A 
ATOM     11  O   UNL     1     115.771 123.099 140.889  1.00  0.00    -0.452 OA
ENDROOT
BRANCH   1  12
ATOM     12  C   UNL     1     116.566 120.824 140.856  1.00  0.00     0.025 A 
ATOM     13  C   UNL     1     117.947 120.734 140.608  1.00  0.00     0.016 A 
ATOM     14  C   UNL     1     118.476 119.621 139.951  1.00  0.00     0.051 A 
ATOM     15  C   UNL     1     117.641 118.575 139.544  1.00  0.00     0.157 A 
ATOM     16  C   UNL     1     115.733 119.762 140.466  1.00  0.00     0.062 A 
ATOM     17  C   UNL     1     116.262 118.644 139.805  1.00  0.00     0.158 A 
BRANCH  15  18
ATOM     18  O   UNL     1     118.198 117.478 138.889  1.00  0.00    -0.504 OA
ATOM     19  H   UNL     1     117.891 116.530 139.072  1.00  0.00     0.293 HD
ENDBRANCH  15  18
BRANCH  17  20
ATOM     20  O   UNL     1     115.424 117.602 139.410  1.00  0.00    -0.504 OA
ATOM     21  H   UNL     1     115.156 116.865 140.050  1.00  0.00     0.293 HD
ENDBRANCH  17  20
ENDBRANCH   1  12
BRANCH   2  22
ATOM     22  O   UNL     1     115.994 120.798 143.695  1.00  0.00    -0.502 OA
ATOM     23  H   UNL     1     115.490 119.925 143.587  1.00  0.00     0.293 HD
ENDBRANCH   2  22
BRANCH   6  24
ATOM     24  O   UNL     1     113.682 125.516 144.573  1.00  0.00    -0.507 OA
ATOM     25  H   UNL     1     113.559 124.747 145.213  1.00  0.00     0.293 HD
ENDBRANCH   6  24
BRANCH   8  26
ATOM     26  O   UNL     1     114.390 127.627 140.337  1.00  0.00    -0.508 OA
ATOM     27  H   UNL     1     113.511 127.853 139.886  1.00  0.00     0.293 HD
ENDBRANCH   8  26
TORSDOF 6
ENDMDL
MODEL 5
REMARK VINA RESULT:    -6.490      8.846     11.119
REMARK INTER + INTRA:          -8.115
REMARK INTER:                  -8.437
REMARK INTRA:                   0.322
REMARK UNBOUND:                -0.297
REMARK SMILES O=c1c(O)c(-c2ccc(O)c(O)c2)oc2cc(O)cc(O)c12
REMARK SMILES IDX 5 1 3 2 2 3 1 4 22 5 20 6 19 7 17 8 16 9 15 10 14 11 6 12
REMARK SMILES IDX 7 13 8 14 9 15 13 16 11 17 10 18 12 20 4 22 21 24 18 26
REMARK H PARENT 10 19 12 21 4 23 21 25 18 27
REMARK Flexibility Score: inf
ROOT
ATOM      1  C   UNL     1     113.760 123.352 143.479  1.00  0.00     0.180 A 
ATOM      2  C   UNL     1     115.048 123.179 144.018  1.00  0.00     0.208 A 
ATOM      3  C   UNL     1     116.009 122.478 143.272  1.00  0.00     0.238 A 
ATOM      4  O   UNL     1     117.142 122.280 143.783  1.00  0.00    -0.285 OA
ATOM      5  C   UNL     1     115.677 121.973 141.992  1.00  0.00     0.111 A 
ATOM      6  C   UNL     1     116.585 121.283 141.133  1.00  0.00     0.134 A 
ATOM      7  C   UNL     1     116.112 120.713 139.944  1.00  0.00     0.093 A 
ATOM      8  C   UNL     1     114.783 120.864 139.552  1.00  0.00     0.123 A 
ATOM      9  C   UNL     1     113.900 121.588 140.356  1.00  0.00     0.094 A 
ATOM     10  C   UNL     1     114.334 122.137 141.565  1.00  0.00     0.146 A 
ATOM     11  O   UNL     1     113.460 122.809 142.305  1.00  0.00    -0.452 OA
ENDROOT
BRANCH   1  12
ATOM     12  C   UNL     1     112.701 124.099 144.194  1.00  0.00     0.025 A 
ATOM     13  C   UNL     1     113.016 125.057 145.174  1.00  0.00     0.016 A 
ATOM     14  C   UNL     1     112.001 125.769 145.819  1.00  0.00     0.051 A 
ATOM     15  C   UNL     1     110.660 125.547 145.487  1.00  0.00     0.157 A 
ATOM     16  C   UNL     1     111.355 123.895 143.848  1.00  0.00     0.062 A 
ATOM     17  C   UNL     1     110.335 124.608 144.494  1.00  0.00     0.158 A 
BRANCH  15  18
ATOM     18  O   UNL     1     109.670 126.271 146.149  1.00  0.00    -0.504 OA
ATOM     19  H   UNL     1     109.810 127.231 146.442  1.00  0.00     0.293 HD
ENDBRANCH  15  18
BRANCH  17  20
ATOM     20  O   UNL     1     109.001 124.387 144.152  1.00  0.00    -0.504 OA
ATOM     21  H   UNL     1     108.673 124.495 143.201  1.00  0.00     0.293 HD
ENDBRANCH  17  20
ENDBRANCH   1  12
BRANCH   2  22
ATOM     22  O   UNL     1     115.347 123.667 145.292  1.00  0.00    -0.502 OA
ATOM     23  H   UNL     1     116.284 123.646 145.676  1.00  0.00     0.293 HD
ENDBRANCH   2  22
BRANCH   6  24
ATOM     24  O   UNL     1     117.953 121.154 141.386  1.00  0.00    -0.507 OA
ATOM     25  H   UNL     1     118.361 121.056 142.303  1.00  0.00     0.293 HD
ENDBRANCH   6  24
BRANCH   8  26
ATOM     26  O   UNL     1     114.351 120.297 138.354  1.00  0.00    -0.508 OA
ATOM     27  H   UNL     1     115.000 119.864 137.709  1.00  0.00     0.293 HD
ENDBRANCH   8  26
TORSDOF 6
ENDMDL
MODEL 6
REMARK VINA RESULT:    -6.461      9.011     10.490
REMARK INTER + INTRA:          -8.080
REMARK INTER:                  -7.887
REMARK INTRA:                  -0.193
REMARK UNBOUND:                -0.297
REMARK SMILES O=c1c(O)c(-c2ccc(O)c(O)c2)oc2cc(O)cc(O)c12
REMARK SMILES IDX 5 1 3 2 2 3 1 4 22 5 20 6 19 7 17 8 16 9 15 10 14 11 6 12
REMARK SMILES IDX 7 13 8 14 9 15 13 16 11 17 10 18 12 20 4 22 21 24 18 26
REMARK H PARENT 10 19 12 21 4 23 21 25 18 27
REMARK Flexibility Score: inf
ROOT
ATOM      1  C   UNL     1     111.344 123.626 141.515  1.00  0.00     0.180 A 
ATOM      2  C   UNL     1     110.529 123.917 142.623  1.00  0.00     0.208 A 
ATOM      3  C   UNL     1     111.132 124.131 143.873  1.00  0.00     0.238 A 
ATOM      4  O   UNL     1     110.393 124.339 144.872  1.00  0.00    -0.285 OA
ATOM      5  C   UNL     1     112.541 124.067 143.997  1.00  0.00     0.111 A 
ATOM      6  C   UNL     1     113.259 124.307 145.207  1.00  0.00     0.134 A 
ATOM      7  C   UNL     1     114.642 124.088 145.243  1.00  0.00     0.093 A 
ATOM      8  C   UNL     1     115.340 123.702 144.100  1.00  0.00     0.123 A 
ATOM      9  C   UNL     1     114.655 123.522 142.897  1.00  0.00     0.094 A 
ATOM     10  C   UNL     1     113.271 123.698 142.838  1.00  0.00     0.146 A 
ATOM     11  O   UNL     1     112.657 123.507 141.676  1.00  0.00    -0.452 OA
ENDROOT
BRANCH   1  12
ATOM     12  C   UNL     1     110.785 123.412 140.161  1.00  0.00     0.025 A 
ATOM     13  C   UNL     1     110.136 124.446 139.466  1.00  0.00     0.016 A 
ATOM     14  C   UNL     1     109.637 124.229 138.179  1.00  0.00     0.051 A 
ATOM     15  C   UNL     1     109.791 122.983 137.561  1.00  0.00     0.157 A 
ATOM     16  C   UNL     1     110.957 122.169 139.530  1.00  0.00     0.062 A 
ATOM     17  C   UNL     1     110.457 121.948 138.238  1.00  0.00     0.158 A 
BRANCH  15  18
ATOM     18  O   UNL     1     109.281 122.796 136.277  1.00  0.00    -0.504 OA
ATOM     19  H   UNL     1     109.797 122.299 135.561  1.00  0.00     0.293 HD
ENDBRANCH  15  18
BRANCH  17  20
ATOM     20  O   UNL     1     110.621 120.706 137.626  1.00  0.00    -0.504 OA
ATOM     21  H   UNL     1     111.502 120.432 137.209  1.00  0.00     0.293 HD
ENDBRANCH  17  20
ENDBRANCH   1  12
BRANCH   2  22
ATOM     22  O   UNL     1     109.140 123.955 142.483  1.00  0.00    -0.502 OA
ATOM     23  H   UNL     1     108.681 123.848 141.586  1.00  0.00     0.293 HD
ENDBRANCH   2  22
BRANCH   6  24
ATOM     24  O   UNL     1     112.672 124.784 146.382  1.00  0.00    -0.507 OA
ATOM     25  H   UNL     1     111.684 124.753 146.584  1.00  0.00     0.293 HD
ENDBRANCH   6  24
BRANCH   8  26
ATOM     26  O   UNL     1     116.719 123.508 144.169  1.00  0.00    -0.508 OA
ATOM     27  H   UNL     1     117.366 124.137 143.709  1.00  0.00     0.293 HD
ENDBRANCH   8  26
TORSDOF 6
ENDMDL
MODEL 7
REMARK VINA RESULT:    -6.444      6.870      9.657
REMARK INTER + INTRA:          -8.060
REMARK INTER:                  -7.752
REMARK INTRA:                  -0.307
REMARK UNBOUND:                -0.297
REMARK SMILES O=c1c(O)c(-c2ccc(O)c(O)c2)oc2cc(O)cc(O)c12
REMARK SMILES IDX 5 1 3 2 2 3 1 4 22 5 20 6 19 7 17 8 16 9 15 10 14 11 6 12
REMARK SMILES IDX 7 13 8 14 9 15 13 16 11 17 10 18 12 20 4 22 21 24 18 26
REMARK H PARENT 10 19 12 21 4 23 21 25 18 27
REMARK Flexibility Score: inf
ROOT
ATOM      1  C   UNL     1     115.920 122.177 141.396  1.00  0.00     0.180 A 
ATOM      2  C   UNL     1     115.082 121.339 140.639  1.00  0.00     0.208 A 
ATOM      3  C   UNL     1     115.650 120.265 139.935  1.00  0.00     0.238 A 
ATOM      4  O   UNL     1     114.902 119.551 139.217  1.00  0.00    -0.285 OA
ATOM      5  C   UNL     1     117.044 120.032 140.009  1.00  0.00     0.111 A 
ATOM      6  C   UNL     1     117.719 118.949 139.369  1.00  0.00     0.134 A 
ATOM      7  C   UNL     1     119.118 118.891 139.404  1.00  0.00     0.093 A 
ATOM      8  C   UNL     1     119.861 119.838 140.109  1.00  0.00     0.123 A 
ATOM      9  C   UNL     1     119.207 120.867 140.787  1.00  0.00     0.094 A 
ATOM     10  C   UNL     1     117.815 120.972 140.742  1.00  0.00     0.146 A 
ATOM     11  O   UNL     1     117.232 121.972 141.392  1.00  0.00    -0.452 OA
ENDROOT
BRANCH   1  12
ATOM     12  C   UNL     1     115.393 123.314 142.184  1.00  0.00     0.025 A 
ATOM     13  C   UNL     1     115.377 124.619 141.663  1.00  0.00     0.016 A 
ATOM     14  C   UNL     1     114.852 125.674 142.414  1.00  0.00     0.051 A 
ATOM     15  C   UNL     1     114.324 125.441 143.688  1.00  0.00     0.157 A 
ATOM     16  C   UNL     1     114.842 123.080 143.454  1.00  0.00     0.062 A 
ATOM     17  C   UNL     1     114.315 124.137 144.211  1.00  0.00     0.158 A 
BRANCH  15  18
ATOM     18  O   UNL     1     113.809 126.513 144.415  1.00  0.00    -0.504 OA
ATOM     19  H   UNL     1     113.085 127.117 144.043  1.00  0.00     0.293 HD
ENDBRANCH  15  18
BRANCH  17  20
ATOM     20  O   UNL     1     113.783 123.895 145.476  1.00  0.00    -0.504 OA
ATOM     21  H   UNL     1     113.678 124.636 146.159  1.00  0.00     0.293 HD
ENDBRANCH  17  20
ENDBRANCH   1  12
BRANCH   2  22
ATOM     22  O   UNL     1     113.712 121.600 140.563  1.00  0.00    -0.502 OA
ATOM     23  H   UNL     1     113.106 121.135 139.897  1.00  0.00     0.293 HD
ENDBRANCH   2  22
BRANCH   6  24
ATOM     24  O   UNL     1     117.068 117.899 138.716  1.00  0.00    -0.507 OA
ATOM     25  H   UNL     1     117.503 117.029 138.451  1.00  0.00     0.293 HD
ENDBRANCH   6  24
BRANCH   8  26
ATOM     26  O   UNL     1     121.251 119.740 140.134  1.00  0.00    -0.508 OA
ATOM     27  H   UNL     1     121.723 118.858 139.975  1.00  0.00     0.293 HD
ENDBRANCH   8  26
TORSDOF 6
ENDMDL
MODEL 8
REMARK VINA RESULT:    -6.423      7.717     11.001
REMARK INTER + INTRA:          -8.034
REMARK INTER:                  -8.060
REMARK INTRA:                   0.025
REMARK UNBOUND:                -0.297
REMARK SMILES O=c1c(O)c(-c2ccc(O)c(O)c2)oc2cc(O)cc(O)c12
REMARK SMILES IDX 5 1 3 2 2 3 1 4 22 5 20 6 19 7 17 8 16 9 15 10 14 11 6 12
REMARK SMILES IDX 7 13 8 14 9 15 13 16 11 17 10 18 12 20 4 22 21 24 18 26
REMARK H PARENT 10 19 12 21 4 23 21 25 18 27
REMARK Flexibility Score: inf
ROOT
ATOM      1  C   UNL     1     115.093 122.089 142.241  1.00  0.00     0.180 A 
ATOM      2  C   UNL     1     115.236 122.420 143.601  1.00  0.00     0.208 A 
ATOM      3  C   UNL     1     114.223 123.161 144.230  1.00  0.00     0.238 A 
ATOM      4  O   UNL     1     114.381 123.500 145.432  1.00  0.00    -0.285 OA
ATOM      5  C   UNL     1     113.075 123.549 143.498  1.00  0.00     0.111 A 
ATOM      6  C   UNL     1     111.969 124.267 144.046  1.00  0.00     0.134 A 
ATOM      7  C   UNL     1     110.947 124.712 143.199  1.00  0.00     0.093 A 
ATOM      8  C   UNL     1     110.956 124.408 141.838  1.00  0.00     0.123 A 
ATOM      9  C   UNL     1     112.003 123.655 141.303  1.00  0.00     0.094 A 
ATOM     10  C   UNL     1     113.055 123.229 142.116  1.00  0.00     0.146 A 
ATOM     11  O   UNL     1     114.036 122.524 141.565  1.00  0.00    -0.452 OA
ENDROOT
BRANCH   1  12
ATOM     12  C   UNL     1     116.106 121.290 141.515  1.00  0.00     0.025 A 
ATOM     13  C   UNL     1     115.741 120.173 140.743  1.00  0.00     0.016 A 
ATOM     14  C   UNL     1     116.711 119.448 140.046  1.00  0.00     0.051 A 
ATOM     15  C   UNL     1     118.055 119.833 140.097  1.00  0.00     0.157 A 
ATOM     16  C   UNL     1     117.453 121.686 141.547  1.00  0.00     0.062 A 
ATOM     17  C   UNL     1     118.429 120.959 140.848  1.00  0.00     0.158 A 
BRANCH  15  18
ATOM     18  O   UNL     1     119.000 119.088 139.393  1.00  0.00    -0.504 OA
ATOM     19  H   UNL     1     119.963 119.016 139.698  1.00  0.00     0.293 HD
ENDBRANCH  15  18
BRANCH  17  20
ATOM     20  O   UNL     1     119.765 121.354 140.898  1.00  0.00    -0.504 OA
ATOM     21  H   UNL     1     120.069 122.245 140.526  1.00  0.00     0.293 HD
ENDBRANCH  17  20
ENDBRANCH   1  12
BRANCH   2  22
ATOM     22  O   UNL     1     116.386 122.045 144.298  1.00  0.00    -0.502 OA
ATOM     23  H   UNL     1     116.353 121.481 145.139  1.00  0.00     0.293 HD
ENDBRANCH   2  22
BRANCH   6  24
ATOM     24  O   UNL     1     111.816 124.544 145.408  1.00  0.00    -0.507 OA
ATOM     25  H   UNL     1     111.766 125.470 145.804  1.00  0.00     0.293 HD
ENDBRANCH   6  24
BRANCH   8  26
ATOM     26  O   UNL     1     109.914 124.854 141.027  1.00  0.00    -0.508 OA
ATOM     27  H   UNL     1     109.545 124.282 140.276  1.00  0.00     0.293 HD
ENDBRANCH   8  26
TORSDOF 6
ENDMDL
MODEL 9
REMARK VINA RESULT:    -6.342      7.235     10.123
REMARK INTER + INTRA:          -7.937
REMARK INTER:                  -7.654
REMARK INTRA:                  -0.283
REMARK UNBOUND:                -0.297
REMARK SMILES O=c1c(O)c(-c2ccc(O)c(O)c2)oc2cc(O)cc(O)c12
REMARK SMILES IDX 5 1 3 2 2 3 1 4 22 5 20 6 19 7 17 8 16 9 15 10 14 11 6 12
REMARK SMILES IDX 7 13 8 14 9 15 13 16 11 17 10 18 12 20 4 22 21 24 18 26
REMARK H PARENT 10 19 12 21 4 23 21 25 18 27
REMARK Flexibility Score: inf
ROOT
ATOM      1  C   UNL     1     116.094 121.995 140.986  1.00  0.00     0.180 A 
ATOM      2  C   UNL     1     116.001 123.176 140.229  1.00  0.00     0.208 A 
ATOM      3  C   UNL     1     115.510 124.340 140.841  1.00  0.00     0.238 A 
ATOM      4  O   UNL     1     115.379 125.380 140.144  1.00  0.00    -0.285 OA
ATOM      5  C   UNL     1     115.134 124.314 142.206  1.00  0.00     0.111 A 
ATOM      6  C   UNL     1     114.662 125.445 142.938  1.00  0.00     0.134 A 
ATOM      7  C   UNL     1     114.194 125.273 144.247  1.00  0.00     0.093 A 
ATOM      8  C   UNL     1     114.243 124.028 144.871  1.00  0.00     0.123 A 
ATOM      9  C   UNL     1     114.757 122.927 144.184  1.00  0.00     0.094 A 
ATOM     10  C   UNL     1     115.198 123.059 142.866  1.00  0.00     0.146 A 
ATOM     11  O   UNL     1     115.671 121.985 142.245  1.00  0.00    -0.452 OA
ENDROOT
BRANCH   1  12
ATOM     12  C   UNL     1     116.624 120.735 140.418  1.00  0.00     0.025 A 
ATOM     13  C   UNL     1     118.001 120.549 140.209  1.00  0.00     0.016 A 
ATOM     14  C   UNL     1     118.481 119.342 139.694  1.00  0.00     0.051 A 
ATOM     15  C   UNL     1     117.599 118.299 139.394  1.00  0.00     0.157 A 
ATOM     16  C   UNL     1     115.742 119.678 140.136  1.00  0.00     0.062 A 
ATOM     17  C   UNL     1     116.222 118.466 139.618  1.00  0.00     0.158 A 
BRANCH  15  18
ATOM     18  O   UNL     1     118.107 117.107 138.880  1.00  0.00    -0.504 OA
ATOM     19  H   UNL     1     118.695 116.492 139.430  1.00  0.00     0.293 HD
ENDBRANCH  15  18
BRANCH  17  20
ATOM     20  O   UNL     1     115.336 117.429 139.329  1.00  0.00    -0.504 OA
ATOM     21  H   UNL     1     115.544 116.469 139.576  1.00  0.00     0.293 HD
ENDBRANCH  17  20
ENDBRANCH   1  12
BRANCH   2  22
ATOM     22  O   UNL     1     116.359 123.175 138.878  1.00  0.00    -0.502 OA
ATOM     23  H   UNL     1     116.648 124.015 138.391  1.00  0.00     0.293 HD
ENDBRANCH   2  22
BRANCH   6  24
ATOM     24  O   UNL     1     114.657 126.751 142.440  1.00  0.00    -0.507 OA
ATOM     25  H   UNL     1     114.285 127.022 141.542  1.00  0.00     0.293 HD
ENDBRANCH   6  24
BRANCH   8  26
ATOM     26  O   UNL     1     113.783 123.897 146.181  1.00  0.00    -0.508 OA
ATOM     27  H   UNL     1     113.132 124.562 146.582  1.00  0.00     0.293 HD
ENDBRANCH   8  26
TORSDOF 6
ENDMDL
