MODEL 1
REMARK VINA RESULT:     0.125      0.000      0.000
REMARK INTER + INTRA:           0.057
REMARK INTER:                   0.146
REMARK INTRA:                  -0.090
REMARK UNBOUND:                -0.090
REMARK SMILES O=C([O-])CCC(=O)[O-]
REMARK SMILES IDX 4 1 2 2 1 3 3 4 5 5 6 6 7 7 8 8
REMARK H PARENT
REMARK Flexibility Score: inf
ROOT
ATOM      1  C   UNL     1     103.957 103.217 106.570  1.00  0.00     0.059 C 
ENDROOT
BRANCH   1   2
ATOM      2  C   UNL     1     103.563 102.106 107.495  1.00  0.00     0.042 C 
ATOM      3  O   UNL     1     103.535 100.917 107.083  1.00  0.00    -0.550 OA
ATOM      4  O   UNL     1     103.269 102.381 108.825  1.00  0.00    -0.550 OA
ENDBRANCH   1   2
BRANCH   1   5
ATOM      5  C   UNL     1     103.464 104.576 107.077  1.00  0.00     0.059 C 
BRANCH   5   6
ATOM      6  C   UNL     1     104.597 105.535 107.275  1.00  0.00     0.042 C 
ATOM      7  O   UNL     1     105.787 105.122 107.274  1.00  0.00    -0.550 OA
ATOM      8  O   UNL     1     104.341 106.893 107.421  1.00  0.00    -0.550 OA
ENDBRANCH   5   6
ENDBRANCH   1   5
TORSDOF 3
ENDMDL
MODEL 2
REMARK VINA RESULT:     0.127      4.616      6.320
REMARK INTER + INTRA:           0.060
REMARK INTER:                   0.152
REMARK INTRA:                  -0.092
REMARK UNBOUND:                -0.090
REMARK SMILES O=C([O-])CCC(=O)[O-]
REMARK SMILES IDX 4 1 2 2 1 3 3 4 5 5 6 6 7 7 8 8
REMARK H PARENT
REMARK Flexibility Score: inf
ROOT
ATOM      1  C   UNL     1     104.046 105.043 101.758  1.00  0.00     0.059 C 
ENDROOT
BRANCH   1   2
ATOM      2  C   UNL     1     104.388 106.180 102.672  1.00  0.00     0.042 C 
ATOM      3  O   UNL     1     104.361 107.365 102.248  1.00  0.00    -0.550 OA
ATOM      4  O   UNL     1     104.698 105.932 104.003  1.00  0.00    -0.550 OA
ENDBRANCH   1   2
BRANCH   1   5
ATOM      5  C   UNL     1     104.548 103.705 102.310  1.00  0.00     0.059 C 
BRANCH   5   6
ATOM      6  C   UNL     1     103.424 102.738 102.520  1.00  0.00     0.042 C 
ATOM      7  O   UNL     1     102.231 103.141 102.518  1.00  0.00    -0.550 OA
ATOM      8  O   UNL     1     103.692 101.384 102.677  1.00  0.00    -0.550 OA
ENDBRANCH   5   6
ENDBRANCH   1   5
TORSDOF 3
ENDMDL
MODEL 3
REMARK VINA RESULT:     0.129      4.595      5.054
REMARK INTER + INTRA:           0.061
REMARK INTER:                   0.156
REMARK INTRA:                  -0.095
REMARK UNBOUND:                -0.090
REMARK SMILES O=C([O-])CCC(=O)[O-]
REMARK SMILES IDX 4 1 2 2 1 3 3 4 5 5 6 6 7 7 8 8
REMARK H PARENT
REMARK Flexibility Score: inf
ROOT
ATOM      1  C   UNL     1     104.551 103.695 102.301  1.00  0.00     0.059 C 
ENDROOT
BRANCH   1   2
ATOM      2  C   UNL     1     103.423 102.734 102.520  1.00  0.00     0.042 C 
ATOM      3  O   UNL     1     102.232 103.143 102.518  1.00  0.00    -0.550 OA
ATOM      4  O   UNL     1     103.685 101.380 102.684  1.00  0.00    -0.550 OA
ENDBRANCH   1   2
BRANCH   1   5
ATOM      5  C   UNL     1     104.049 105.044 101.775  1.00  0.00     0.059 C 
BRANCH   5   6
ATOM      6  C   UNL     1     104.381 106.161 102.716  1.00  0.00     0.042 C 
ATOM      7  O   UNL     1     104.364 107.355 102.316  1.00  0.00    -0.550 OA
ATOM      8  O   UNL     1     104.670 105.885 104.047  1.00  0.00    -0.550 OA
ENDBRANCH   5   6
ENDBRANCH   1   5
TORSDOF 3
ENDMDL
MODEL 4
REMARK VINA RESULT:     0.132      1.153      4.128
REMARK INTER + INTRA:           0.065
REMARK INTER:                   0.151
REMARK INTRA:                  -0.086
REMARK UNBOUND:                -0.090
REMARK SMILES O=C([O-])CCC(=O)[O-]
REMARK SMILES IDX 4 1 2 2 1 3 3 4 5 5 6 6 7 7 8 8
REMARK H PARENT
REMARK Flexibility Score: inf
ROOT
ATOM      1  C   UNL     1     104.013 105.042 106.549  1.00  0.00     0.059 C 
ENDROOT
BRANCH   1   2
ATOM      2  C   UNL     1     104.403 106.159 107.468  1.00  0.00     0.042 C 
ATOM      3  O   UNL     1     104.400 107.350 107.058  1.00  0.00    -0.550 OA
ATOM      4  O   UNL     1     104.731 105.888 108.791  1.00  0.00    -0.550 OA
ENDBRANCH   1   2
BRANCH   1   5
ATOM      5  C   UNL     1     104.506 103.687 107.067  1.00  0.00     0.059 C 
BRANCH   5   6
ATOM      6  C   UNL     1     103.375 102.720 107.242  1.00  0.00     0.042 C 
ATOM      7  O   UNL     1     102.182 103.119 107.184  1.00  0.00    -0.550 OA
ATOM      8  O   UNL     1     103.639 101.369 107.430  1.00  0.00    -0.550 OA
ENDBRANCH   5   6
ENDBRANCH   1   5
TORSDOF 3
ENDMDL
MODEL 5
REMARK VINA RESULT:     0.247      9.116      9.501
REMARK INTER + INTRA:           0.200
REMARK INTER:                   0.305
REMARK INTRA:                  -0.105
REMARK UNBOUND:                -0.090
REMARK SMILES O=C([O-])CCC(=O)[O-]
REMARK SMILES IDX 4 1 2 2 1 3 3 4 5 5 6 6 7 7 8 8
REMARK H PARENT
REMARK Flexibility Score: inf
ROOT
ATOM      1  C   UNL     1     103.961 103.227  97.004  1.00  0.00     0.059 C 
ENDROOT
BRANCH   1   2
ATOM      2  C   UNL     1     103.625 102.180  98.021  1.00  0.00     0.042 C 
ATOM      3  O   UNL     1     103.592 100.964  97.693  1.00  0.00    -0.550 OA
ATOM      4  O   UNL     1     103.389 102.543  99.341  1.00  0.00    -0.550 OA
ENDBRANCH   1   2
BRANCH   1   5
ATOM      5  C   UNL     1     103.448 104.609  97.427  1.00  0.00     0.059 C 
BRANCH   5   6
ATOM      6  C   UNL     1     104.576 105.538  97.755  1.00  0.00     0.042 C 
ATOM      7  O   UNL     1     105.760 105.112  97.796  1.00  0.00    -0.550 OA
ATOM      8  O   UNL     1     104.323 106.886  97.978  1.00  0.00    -0.550 OA
ENDBRANCH   5   6
ENDBRANCH   1   5
TORSDOF 3
ENDMDL
MODEL 6
REMARK VINA RESULT:     0.252      9.122     10.268
REMARK INTER + INTRA:           0.207
REMARK INTER:                   0.311
REMARK INTRA:                  -0.104
REMARK UNBOUND:                -0.090
REMARK SMILES O=C([O-])CCC(=O)[O-]
REMARK SMILES IDX 4 1 2 2 1 3 3 4 5 5 6 6 7 7 8 8
REMARK H PARENT
REMARK Flexibility Score: inf
ROOT
ATOM      1  C   UNL     1     103.437 104.602  97.423  1.00  0.00     0.059 C 
ENDROOT
BRANCH   1   2
ATOM      2  C   UNL     1     104.546 105.551  97.758  1.00  0.00     0.042 C 
ATOM      3  O   UNL     1     105.733 105.138  97.841  1.00  0.00    -0.550 OA
ATOM      4  O   UNL     1     104.274 106.902  97.936  1.00  0.00    -0.550 OA
ENDBRANCH   1   2
BRANCH   1   5
ATOM      5  C   UNL     1     103.976 103.227  97.013  1.00  0.00     0.059 C 
BRANCH   5   6
ATOM      6  C   UNL     1     103.605 102.170  98.008  1.00  0.00     0.042 C 
ATOM      7  O   UNL     1     103.570 100.959  97.665  1.00  0.00    -0.550 OA
ATOM      8  O   UNL     1     103.335 102.519  99.325  1.00  0.00    -0.550 OA
ENDBRANCH   5   6
ENDBRANCH   1   5
TORSDOF 3
ENDMDL
MODEL 7
REMARK VINA RESULT:     1.936      3.197      4.241
REMARK INTER + INTRA:           2.186
REMARK INTER:                   2.225
REMARK INTRA:                  -0.038
REMARK UNBOUND:                -0.090
REMARK SMILES O=C([O-])CCC(=O)[O-]
REMARK SMILES IDX 4 1 2 2 1 3 3 4 5 5 6 6 7 7 8 8
REMARK H PARENT
REMARK Flexibility Score: inf
ROOT
ATOM      1  C   UNL     1     103.321 103.299 104.364  1.00  0.00     0.059 C 
ENDROOT
BRANCH   1   2
ATOM      2  C   UNL     1     103.608 102.853 102.963  1.00  0.00     0.042 C 
ATOM      3  O   UNL     1     103.827 103.703 102.059  1.00  0.00    -0.550 OA
ATOM      4  O   UNL     1     103.676 101.498 102.665  1.00  0.00    -0.550 OA
ENDBRANCH   1   2
BRANCH   1   5
ATOM      5  C   UNL     1     103.281 102.114 105.336  1.00  0.00     0.059 C 
BRANCH   5   6
ATOM      6  C   UNL     1     103.564 102.545 106.742  1.00  0.00     0.042 C 
ATOM      7  O   UNL     1     103.622 101.693 107.668  1.00  0.00    -0.550 OA
ATOM      8  O   UNL     1     103.803 103.884 107.024  1.00  0.00    -0.550 OA
ENDBRANCH   5   6
ENDBRANCH   1   5
TORSDOF 3
ENDMDL
