MODEL 1
REMARK VINA RESULT:    -3.836      0.000      0.000
REMARK INTER + INTRA:          -4.454
REMARK INTER:                  -4.397
REMARK INTRA:                  -0.057
REMARK UNBOUND:                -0.057
REMARK SMILES CC(C)[C@H]([NH3+])C(=O)[O-]
REMARK SMILES IDX 4 1 5 2 6 6 7 7 8 8 2 9 1 10 3 11
REMARK H PARENT 5 3 5 4 5 5
REMARK Flexibility Score: inf
ROOT
ATOM      1  C   UNL     1     -36.990  17.311 -29.796  1.00  0.00     0.230 C 
ENDROOT
BRANCH   1   2
ATOM      2  N   UNL     1     -37.094  15.845 -29.776  1.00  0.00    -0.350 N 
ATOM      3  H   UNL     1     -37.269  15.512 -28.799  1.00  0.00     0.345 HD
ATOM      4  H   UNL     1     -37.901  15.544 -30.370  1.00  0.00     0.345 HD
ATOM      5  H   UNL     1     -36.225  15.395 -30.142  1.00  0.00     0.345 HD
ENDBRANCH   1   2
BRANCH   1   6
ATOM      6  C   UNL     1     -36.503  17.833 -28.464  1.00  0.00     0.099 C 
ATOM      7  O   UNL     1     -37.268  17.863 -27.464  1.00  0.00    -0.544 OA
ATOM      8  O   UNL     1     -35.206  18.316 -28.345  1.00  0.00    -0.544 OA
ENDBRANCH   1   6
BRANCH   1   9
ATOM      9  C   UNL     1     -38.321  17.980 -30.256  1.00  0.00     0.047 C 
ATOM     10  C   UNL     1     -38.124  19.355 -30.917  1.00  0.00     0.014 C 
ATOM     11  C   UNL     1     -39.116  17.056 -31.190  1.00  0.00     0.014 C 
ENDBRANCH   1   9
TORSDOF 3
ENDMDL
MODEL 2
REMARK VINA RESULT:    -3.781      2.800      3.421
REMARK INTER + INTRA:          -4.391
REMARK INTER:                  -4.348
REMARK INTRA:                  -0.044
REMARK UNBOUND:                -0.057
REMARK SMILES CC(C)[C@H]([NH3+])C(=O)[O-]
REMARK SMILES IDX 4 1 5 2 6 6 7 7 8 8 2 9 1 10 3 11
REMARK H PARENT 5 3 5 4 5 5
REMARK Flexibility Score: inf
ROOT
ATOM      1  C   UNL     1     -38.050  18.845 -30.344  1.00  0.00     0.230 C 
ENDROOT
BRANCH   1   2
ATOM      2  N   UNL     1     -38.333  19.638 -31.549  1.00  0.00    -0.350 N 
ATOM      3  H   UNL     1     -37.668  20.443 -31.612  1.00  0.00     0.345 HD
ATOM      4  H   UNL     1     -38.200  19.041 -32.398  1.00  0.00     0.345 HD
ATOM      5  H   UNL     1     -39.313  20.001 -31.548  1.00  0.00     0.345 HD
ENDBRANCH   1   2
BRANCH   1   6
ATOM      6  C   UNL     1     -38.268  17.373 -30.606  1.00  0.00     0.099 C 
ATOM      7  O   UNL     1     -39.214  16.982 -31.339  1.00  0.00    -0.544 OA
ATOM      8  O   UNL     1     -37.436  16.435 -30.007  1.00  0.00    -0.544 OA
ENDBRANCH   1   6
BRANCH   1   9
ATOM      9  C   UNL     1     -38.848  19.363 -29.110  1.00  0.00     0.047 C 
ATOM     10  C   UNL     1     -38.178  19.044 -27.762  1.00  0.00     0.014 C 
ATOM     11  C   UNL     1     -39.125  20.870 -29.216  1.00  0.00     0.014 C 
ENDBRANCH   1   9
TORSDOF 3
ENDMDL
MODEL 3
REMARK VINA RESULT:    -3.769      2.314      3.365
REMARK INTER + INTRA:          -4.377
REMARK INTER:                  -4.319
REMARK INTRA:                  -0.058
REMARK UNBOUND:                -0.057
REMARK SMILES CC(C)[C@H]([NH3+])C(=O)[O-]
REMARK SMILES IDX 4 1 5 2 6 6 7 7 8 8 2 9 1 10 3 11
REMARK H PARENT 5 3 5 4 5 5
REMARK Flexibility Score: inf
ROOT
ATOM      1  C   UNL     1     -37.474  17.157 -29.704  1.00  0.00     0.230 C 
ENDROOT
BRANCH   1   2
ATOM      2  N   UNL     1     -37.059  15.782 -30.015  1.00  0.00    -0.350 N 
ATOM      3  H   UNL     1     -37.862  15.125 -29.876  1.00  0.00     0.345 HD
ATOM      4  H   UNL     1     -36.764  15.724 -31.017  1.00  0.00     0.345 HD
ATOM      5  H   UNL     1     -36.260  15.478 -29.415  1.00  0.00     0.345 HD
ENDBRANCH   1   2
BRANCH   1   6
ATOM      6  C   UNL     1     -38.425  17.682 -30.756  1.00  0.00     0.099 C 
ATOM      7  O   UNL     1     -38.376  18.884 -31.127  1.00  0.00    -0.544 OA
ATOM      8  O   UNL     1     -39.385  16.838 -31.300  1.00  0.00    -0.544 OA
ENDBRANCH   1   6
BRANCH   1   9
ATOM      9  C   UNL     1     -36.251  18.094 -29.476  1.00  0.00     0.047 C 
ATOM     10  C   UNL     1     -36.050  18.500 -28.006  1.00  0.00     0.014 C 
ATOM     11  C   UNL     1     -34.960  17.473 -30.031  1.00  0.00     0.014 C 
ENDBRANCH   1   9
TORSDOF 3
ENDMDL
MODEL 4
REMARK VINA RESULT:    -3.744     18.227     18.689
REMARK INTER + INTRA:          -4.348
REMARK INTER:                  -4.406
REMARK INTRA:                   0.058
REMARK UNBOUND:                -0.057
REMARK SMILES CC(C)[C@H]([NH3+])C(=O)[O-]
REMARK SMILES IDX 4 1 5 2 6 6 7 7 8 8 2 9 1 10 3 11
REMARK H PARENT 5 3 5 4 5 5
REMARK Flexibility Score: inf
ROOT
ATOM      1  C   UNL     1     -52.987  22.567 -38.438  1.00  0.00     0.230 C 
ENDROOT
BRANCH   1   2
ATOM      2  N   UNL     1     -54.121  22.847 -39.332  1.00  0.00    -0.350 N 
ATOM      3  H   UNL     1     -54.990  23.002 -38.770  1.00  0.00     0.345 HD
ATOM      4  H   UNL     1     -53.928  23.719 -39.877  1.00  0.00     0.345 HD
ATOM      5  H   UNL     1     -54.281  22.063 -40.003  1.00  0.00     0.345 HD
ENDBRANCH   1   2
BRANCH   1   6
ATOM      6  C   UNL     1     -53.400  22.702 -36.990  1.00  0.00     0.099 C 
ATOM      7  O   UNL     1     -54.055  23.704 -36.597  1.00  0.00    -0.544 OA
ATOM      8  O   UNL     1     -53.027  21.727 -36.073  1.00  0.00    -0.544 OA
ENDBRANCH   1   6
BRANCH   1   9
ATOM      9  C   UNL     1     -51.741  23.432 -38.793  1.00  0.00     0.047 C 
ATOM     10  C   UNL     1     -50.995  22.953 -40.050  1.00  0.00     0.014 C 
ATOM     11  C   UNL     1     -52.114  24.916 -38.936  1.00  0.00     0.014 C 
ENDBRANCH   1   9
TORSDOF 3
ENDMDL
MODEL 5
REMARK VINA RESULT:    -3.743      2.814      3.290
REMARK INTER + INTRA:          -4.347
REMARK INTER:                  -4.273
REMARK INTRA:                  -0.074
REMARK UNBOUND:                -0.057
REMARK SMILES CC(C)[C@H]([NH3+])C(=O)[O-]
REMARK SMILES IDX 4 1 5 2 6 6 7 7 8 8 2 9 1 10 3 11
REMARK H PARENT 5 3 5 4 5 5
REMARK Flexibility Score: inf
ROOT
ATOM      1  C   UNL     1     -37.768  19.033 -30.347  1.00  0.00     0.230 C 
ENDROOT
BRANCH   1   2
ATOM      2  N   UNL     1     -38.311  19.756 -31.507  1.00  0.00    -0.350 N 
ATOM      3  H   UNL     1     -39.332  19.550 -31.611  1.00  0.00     0.345 HD
ATOM      4  H   UNL     1     -38.203  20.786 -31.358  1.00  0.00     0.345 HD
ATOM      5  H   UNL     1     -37.816  19.494 -32.388  1.00  0.00     0.345 HD
ENDBRANCH   1   2
BRANCH   1   6
ATOM      6  C   UNL     1     -38.143  17.570 -30.403  1.00  0.00     0.099 C 
ATOM      7  O   UNL     1     -37.548  16.724 -29.685  1.00  0.00    -0.544 OA
ATOM      8  O   UNL     1     -39.133  17.145 -31.280  1.00  0.00    -0.544 OA
ENDBRANCH   1   6
BRANCH   1   9
ATOM      9  C   UNL     1     -38.173  19.708 -29.002  1.00  0.00     0.047 C 
ATOM     10  C   UNL     1     -37.774  21.191 -28.911  1.00  0.00     0.014 C 
ATOM     11  C   UNL     1     -39.676  19.550 -28.728  1.00  0.00     0.014 C 
ENDBRANCH   1   9
TORSDOF 3
ENDMDL
MODEL 6
REMARK VINA RESULT:    -3.741      2.914      3.362
REMARK INTER + INTRA:          -4.345
REMARK INTER:                  -4.290
REMARK INTRA:                  -0.055
REMARK UNBOUND:                -0.057
REMARK SMILES CC(C)[C@H]([NH3+])C(=O)[O-]
REMARK SMILES IDX 4 1 5 2 6 6 7 7 8 8 2 9 1 10 3 11
REMARK H PARENT 5 3 5 4 5 5
REMARK Flexibility Score: inf
ROOT
ATOM      1  C   UNL     1     -38.396  19.354 -28.608  1.00  0.00     0.230 C 
ENDROOT
BRANCH   1   2
ATOM      2  N   UNL     1     -38.040  18.686 -27.347  1.00  0.00    -0.350 N 
ATOM      3  H   UNL     1     -37.280  17.986 -27.515  1.00  0.00     0.345 HD
ATOM      4  H   UNL     1     -37.682  19.395 -26.665  1.00  0.00     0.345 HD
ATOM      5  H   UNL     1     -38.864  18.203 -26.924  1.00  0.00     0.345 HD
ENDBRANCH   1   2
BRANCH   1   6
ATOM      6  C   UNL     1     -39.721  20.070 -28.481  1.00  0.00     0.099 C 
ATOM      7  O   UNL     1     -40.712  19.501 -27.952  1.00  0.00    -0.544 OA
ATOM      8  O   UNL     1     -39.858  21.359 -28.980  1.00  0.00    -0.544 OA
ENDBRANCH   1   6
BRANCH   1   9
ATOM      9  C   UNL     1     -38.355  18.370 -29.816  1.00  0.00     0.047 C 
ATOM     10  C   UNL     1     -38.266  19.073 -31.181  1.00  0.00     0.014 C 
ATOM     11  C   UNL     1     -37.211  17.355 -29.671  1.00  0.00     0.014 C 
ENDBRANCH   1   9
TORSDOF 3
ENDMDL
MODEL 7
REMARK VINA RESULT:    -3.723      3.937      4.525
REMARK INTER + INTRA:          -4.324
REMARK INTER:                  -4.266
REMARK INTRA:                  -0.058
REMARK UNBOUND:                -0.057
REMARK SMILES CC(C)[C@H]([NH3+])C(=O)[O-]
REMARK SMILES IDX 4 1 5 2 6 6 7 7 8 8 2 9 1 10 3 11
REMARK H PARENT 5 3 5 4 5 5
REMARK Flexibility Score: inf
ROOT
ATOM      1  C   UNL     1     -39.470  20.909 -29.306  1.00  0.00     0.230 C 
ENDROOT
BRANCH   1   2
ATOM      2  N   UNL     1     -40.105  22.157 -28.858  1.00  0.00    -0.350 N 
ATOM      3  H   UNL     1     -40.587  22.005 -27.942  1.00  0.00     0.345 HD
ATOM      4  H   UNL     1     -39.373  22.892 -28.722  1.00  0.00     0.345 HD
ATOM      5  H   UNL     1     -40.799  22.505 -29.558  1.00  0.00     0.345 HD
ENDBRANCH   1   2
BRANCH   1   6
ATOM      6  C   UNL     1     -39.782  19.777 -28.354  1.00  0.00     0.099 C 
ATOM      7  O   UNL     1     -40.973  19.500 -28.050  1.00  0.00    -0.544 OA
ATOM      8  O   UNL     1     -38.745  19.050 -27.782  1.00  0.00    -0.544 OA
ENDBRANCH   1   6
BRANCH   1   9
ATOM      9  C   UNL     1     -37.941  21.090 -29.546  1.00  0.00     0.047 C 
ATOM     10  C   UNL     1     -37.541  21.049 -31.031  1.00  0.00     0.014 C 
ATOM     11  C   UNL     1     -37.424  22.383 -28.897  1.00  0.00     0.014 C 
ENDBRANCH   1   9
TORSDOF 3
ENDMDL
MODEL 8
REMARK VINA RESULT:    -3.721      3.996      4.600
REMARK INTER + INTRA:          -4.322
REMARK INTER:                  -4.276
REMARK INTRA:                  -0.046
REMARK UNBOUND:                -0.057
REMARK SMILES CC(C)[C@H]([NH3+])C(=O)[O-]
REMARK SMILES IDX 4 1 5 2 6 6 7 7 8 8 2 9 1 10 3 11
REMARK H PARENT 5 3 5 4 5 5
REMARK Flexibility Score: inf
ROOT
ATOM      1  C   UNL     1     -38.867  21.160 -29.049  1.00  0.00     0.230 C 
ENDROOT
BRANCH   1   2
ATOM      2  N   UNL     1     -40.063  22.012 -29.125  1.00  0.00    -0.350 N 
ATOM      3  H   UNL     1     -39.881  22.928 -28.653  1.00  0.00     0.345 HD
ATOM      4  H   UNL     1     -40.291  22.205 -30.128  1.00  0.00     0.345 HD
ATOM      5  H   UNL     1     -40.889  21.554 -28.679  1.00  0.00     0.345 HD
ENDBRANCH   1   2
BRANCH   1   6
ATOM      6  C   UNL     1     -38.036  21.286 -30.305  1.00  0.00     0.099 C 
ATOM      7  O   UNL     1     -36.907  21.844 -30.278  1.00  0.00    -0.544 OA
ATOM      8  O   UNL     1     -38.534  20.812 -31.512  1.00  0.00    -0.544 OA
ENDBRANCH   1   6
BRANCH   1   9
ATOM      9  C   UNL     1     -39.230  19.682 -28.712  1.00  0.00     0.047 C 
ATOM     10  C   UNL     1     -38.172  18.968 -27.853  1.00  0.00     0.014 C 
ATOM     11  C   UNL     1     -40.607  19.585 -28.039  1.00  0.00     0.014 C 
ENDBRANCH   1   9
TORSDOF 3
ENDMDL
MODEL 9
REMARK VINA RESULT:    -3.689      2.313      3.205
REMARK INTER + INTRA:          -4.285
REMARK INTER:                  -4.222
REMARK INTRA:                  -0.063
REMARK UNBOUND:                -0.057
REMARK SMILES CC(C)[C@H]([NH3+])C(=O)[O-]
REMARK SMILES IDX 4 1 5 2 6 6 7 7 8 8 2 9 1 10 3 11
REMARK H PARENT 5 3 5 4 5 5
REMARK Flexibility Score: inf
ROOT
ATOM      1  C   UNL     1     -38.503  17.861 -30.191  1.00  0.00     0.230 C 
ENDROOT
BRANCH   1   2
ATOM      2  N   UNL     1     -38.911  17.114 -31.390  1.00  0.00    -0.350 N 
ATOM      3  H   UNL     1     -38.469  17.534 -32.240  1.00  0.00     0.345 HD
ATOM      4  H   UNL     1     -38.585  16.123 -31.312  1.00  0.00     0.345 HD
ATOM      5  H   UNL     1     -39.949  17.115 -31.506  1.00  0.00     0.345 HD
ENDBRANCH   1   2
BRANCH   1   6
ATOM      6  C   UNL     1     -38.439  19.344 -30.477  1.00  0.00     0.099 C 
ATOM      7  O   UNL     1     -37.801  19.782 -31.471  1.00  0.00    -0.544 OA
ATOM      8  O   UNL     1     -39.065  20.240 -29.620  1.00  0.00    -0.544 OA
ENDBRANCH   1   6
BRANCH   1   9
ATOM      9  C   UNL     1     -37.178  17.307 -29.586  1.00  0.00     0.047 C 
ATOM     10  C   UNL     1     -36.866  17.850 -28.181  1.00  0.00     0.014 C 
ATOM     11  C   UNL     1     -37.172  15.770 -29.569  1.00  0.00     0.014 C 
ENDBRANCH   1   9
TORSDOF 3
ENDMDL
