MODEL 1
REMARK VINA RESULT:    14.588      0.000      0.000
REMARK INTER + INTRA:          27.711
REMARK INTER:                  28.233
REMARK INTRA:                  -0.522
REMARK UNBOUND:                -0.522
REMARK SMILES CCCCCCCCCCCCCCCCCC(=O)[O-]
REMARK SMILES IDX 10 1 11 2 12 3 13 4 14 5 15 6 16 7 17 8 18 9 19 10 20 11
REMARK SMILES IDX 9 12 8 13 7 14 6 15 5 16 4 17 3 18 2 19 1 20
REMARK H PARENT
REMARK Flexibility Score: inf
ROOT
ATOM      1  C   UNL     1       5.044  19.988  50.886  1.00  0.00     0.000 C 
ENDROOT
BRANCH   1   2
ATOM      2  C   UNL     1       6.203  19.656  49.934  1.00  0.00     0.000 C 
BRANCH   2   3
ATOM      3  C   UNL     1       5.746  18.698  48.827  1.00  0.00     0.000 C 
BRANCH   3   4
ATOM      4  C   UNL     1       6.753  17.553  48.638  1.00  0.00     0.000 C 
BRANCH   4   5
ATOM      5  C   UNL     1       6.638  16.887  47.258  1.00  0.00     0.000 C 
BRANCH   5   6
ATOM      6  C   UNL     1       7.997  16.423  46.710  1.00  0.00     0.000 C 
BRANCH   6   7
ATOM      7  C   UNL     1       7.893  15.176  45.813  1.00  0.00     0.006 C 
BRANCH   7   8
ATOM      8  C   UNL     1       9.039  15.041  44.796  1.00  0.00     0.053 C 
BRANCH   8   9
ATOM      9  C   UNL     1       9.130  13.664  44.211  1.00  0.00     0.041 C 
ATOM     10  O   UNL     1       9.008  12.652  44.950  1.00  0.00    -0.550 OA
ATOM     11  O   UNL     1       9.314  13.498  42.843  1.00  0.00    -0.550 OA
ENDBRANCH   8   9
ENDBRANCH   7   8
ENDBRANCH   6   7
ENDBRANCH   5   6
ENDBRANCH   4   5
ENDBRANCH   3   4
ENDBRANCH   2   3
ENDBRANCH   1   2
BRANCH   1  12
ATOM     12  C   UNL     1       5.526  20.436  52.275  1.00  0.00     0.000 C 
BRANCH  12  13
ATOM     13  C   UNL     1       4.367  20.629  53.268  1.00  0.00    -0.000 C 
BRANCH  13  14
ATOM     14  C   UNL     1       4.762  21.497  54.474  1.00  0.00    -0.000 C 
BRANCH  14  15
ATOM     15  C   UNL     1       5.664  20.749  55.473  1.00  0.00    -0.000 C 
BRANCH  15  16
ATOM     16  C   UNL     1       6.978  21.494  55.757  1.00  0.00    -0.000 C 
BRANCH  16  17
ATOM     17  C   UNL     1       8.219  20.662  55.390  1.00  0.00    -0.000 C 
BRANCH  17  18
ATOM     18  C   UNL     1       9.484  21.132  56.125  1.00  0.00    -0.000 C 
BRANCH  18  19
ATOM     19  C   UNL     1      10.635  20.120  56.031  1.00  0.00    -0.003 C 
ATOM     20  C   UNL     1      11.828  20.712  55.287  1.00  0.00     0.004 C 
ENDBRANCH  18  19
ENDBRANCH  17  18
ENDBRANCH  16  17
ENDBRANCH  15  16
ENDBRANCH  14  15
ENDBRANCH  13  14
ENDBRANCH  12  13
ENDBRANCH   1  12
TORSDOF 16
ENDMDL
MODEL 2
REMARK VINA RESULT:    15.428      0.910      1.805
REMARK INTER + INTRA:          29.337
REMARK INTER:                  30.039
REMARK INTRA:                  -0.702
REMARK UNBOUND:                -0.522
REMARK SMILES CCCCCCCCCCCCCCCCCC(=O)[O-]
REMARK SMILES IDX 10 1 11 2 12 3 13 4 14 5 15 6 16 7 17 8 18 9 19 10 20 11
REMARK SMILES IDX 9 12 8 13 7 14 6 15 5 16 4 17 3 18 2 19 1 20
REMARK H PARENT
REMARK Flexibility Score: inf
ROOT
ATOM      1  C   UNL     1       5.827  19.315  50.156  1.00  0.00     0.000 C 
ENDROOT
BRANCH   1   2
ATOM      2  C   UNL     1       5.265  19.235  48.729  1.00  0.00     0.000 C 
BRANCH   2   3
ATOM      3  C   UNL     1       6.004  18.172  47.907  1.00  0.00     0.000 C 
BRANCH   3   4
ATOM      4  C   UNL     1       5.571  18.215  46.433  1.00  0.00     0.000 C 
BRANCH   4   5
ATOM      5  C   UNL     1       6.237  17.116  45.591  1.00  0.00     0.000 C 
BRANCH   5   6
ATOM      6  C   UNL     1       6.679  15.909  46.434  1.00  0.00     0.000 C 
BRANCH   6   7
ATOM      7  C   UNL     1       8.129  15.475  46.154  1.00  0.00     0.006 C 
BRANCH   7   8
ATOM      8  C   UNL     1       8.433  15.240  44.664  1.00  0.00     0.053 C 
BRANCH   8   9
ATOM      9  C   UNL     1       9.111  13.927  44.415  1.00  0.00     0.041 C 
ATOM     10  O   UNL     1      10.146  13.875  43.700  1.00  0.00    -0.550 OA
ATOM     11  O   UNL     1       8.622  12.766  45.002  1.00  0.00    -0.550 OA
ENDBRANCH   8   9
ENDBRANCH   7   8
ENDBRANCH   6   7
ENDBRANCH   5   6
ENDBRANCH   4   5
ENDBRANCH   3   4
ENDBRANCH   2   3
ENDBRANCH   1   2
BRANCH   1  12
ATOM     12  C   UNL     1       5.461  20.629  50.866  1.00  0.00     0.000 C 
BRANCH  12  13
ATOM     13  C   UNL     1       5.499  20.501  52.398  1.00  0.00    -0.000 C 
BRANCH  13  14
ATOM     14  C   UNL     1       4.102  20.289  53.007  1.00  0.00    -0.000 C 
BRANCH  14  15
ATOM     15  C   UNL     1       3.903  21.068  54.319  1.00  0.00    -0.000 C 
BRANCH  15  16
ATOM     16  C   UNL     1       5.139  21.892  54.713  1.00  0.00    -0.000 C 
BRANCH  16  17
ATOM     17  C   UNL     1       5.942  21.243  55.854  1.00  0.00    -0.000 C 
BRANCH  17  18
ATOM     18  C   UNL     1       7.427  21.636  55.827  1.00  0.00    -0.000 C 
BRANCH  18  19
ATOM     19  C   UNL     1       8.359  20.450  56.125  1.00  0.00    -0.003 C 
ATOM     20  C   UNL     1       9.809  20.796  55.799  1.00  0.00     0.004 C 
ENDBRANCH  18  19
ENDBRANCH  17  18
ENDBRANCH  16  17
ENDBRANCH  15  16
ENDBRANCH  14  15
ENDBRANCH  13  14
ENDBRANCH  12  13
ENDBRANCH   1  12
TORSDOF 16
ENDMDL
MODEL 3
REMARK VINA RESULT:    16.104      4.484      9.892
REMARK INTER + INTRA:          30.645
REMARK INTER:                  31.183
REMARK INTRA:                  -0.538
REMARK UNBOUND:                -0.522
REMARK SMILES CCCCCCCCCCCCCCCCCC(=O)[O-]
REMARK SMILES IDX 10 1 11 2 12 3 13 4 14 5 15 6 16 7 17 8 18 9 19 10 20 11
REMARK SMILES IDX 9 12 8 13 7 14 6 15 5 16 4 17 3 18 2 19 1 20
REMARK H PARENT
REMARK Flexibility Score: inf
ROOT
ATOM      1  C   UNL     1       5.406  20.556  51.267  1.00  0.00     0.000 C 
ENDROOT
BRANCH   1   2
ATOM      2  C   UNL     1       4.627  21.437  52.256  1.00  0.00     0.000 C 
BRANCH   2   3
ATOM      3  C   UNL     1       4.545  20.772  53.635  1.00  0.00     0.000 C 
BRANCH   3   4
ATOM      4  C   UNL     1       5.934  20.327  54.118  1.00  0.00     0.000 C 
BRANCH   4   5
ATOM      5  C   UNL     1       6.196  20.698  55.585  1.00  0.00     0.000 C 
BRANCH   5   6
ATOM      6  C   UNL     1       7.444  21.580  55.759  1.00  0.00     0.000 C 
BRANCH   6   7
ATOM      7  C   UNL     1       8.714  20.773  56.082  1.00  0.00     0.006 C 
BRANCH   7   8
ATOM      8  C   UNL     1       9.998  21.620  56.125  1.00  0.00     0.053 C 
BRANCH   8   9
ATOM      9  C   UNL     1      11.234  20.804  55.898  1.00  0.00     0.041 C 
ATOM     10  O   UNL     1      12.312  21.365  55.571  1.00  0.00    -0.550 OA
ATOM     11  O   UNL     1      11.205  19.427  56.081  1.00  0.00    -0.550 OA
ENDBRANCH   8   9
ENDBRANCH   7   8
ENDBRANCH   6   7
ENDBRANCH   5   6
ENDBRANCH   4   5
ENDBRANCH   3   4
ENDBRANCH   2   3
ENDBRANCH   1   2
BRANCH   1  12
ATOM     12  C   UNL     1       4.496  19.884  50.226  1.00  0.00     0.000 C 
BRANCH  12  13
ATOM     13  C   UNL     1       5.256  19.483  48.950  1.00  0.00    -0.000 C 
BRANCH  13  14
ATOM     14  C   UNL     1       5.914  18.097  49.069  1.00  0.00    -0.000 C 
BRANCH  14  15
ATOM     15  C   UNL     1       6.920  17.820  47.937  1.00  0.00    -0.000 C 
BRANCH  15  16
ATOM     16  C   UNL     1       7.801  16.592  48.216  1.00  0.00    -0.000 C 
BRANCH  16  17
ATOM     17  C   UNL     1       8.713  16.237  47.029  1.00  0.00    -0.000 C 
BRANCH  17  18
ATOM     18  C   UNL     1       8.017  15.333  45.999  1.00  0.00    -0.000 C 
BRANCH  18  19
ATOM     19  C   UNL     1       9.012  14.570  45.112  1.00  0.00    -0.003 C 
ATOM     20  C   UNL     1       9.084  15.182  43.716  1.00  0.00     0.004 C 
ENDBRANCH  18  19
ENDBRANCH  17  18
ENDBRANCH  16  17
ENDBRANCH  15  16
ENDBRANCH  14  15
ENDBRANCH  13  14
ENDBRANCH  12  13
ENDBRANCH   1  12
TORSDOF 16
ENDMDL
MODEL 4
REMARK VINA RESULT:    16.225      4.591     10.533
REMARK INTER + INTRA:          30.880
REMARK INTER:                  30.830
REMARK INTRA:                   0.050
REMARK UNBOUND:                -0.522
REMARK SMILES CCCCCCCCCCCCCCCCCC(=O)[O-]
REMARK SMILES IDX 10 1 11 2 12 3 13 4 14 5 15 6 16 7 17 8 18 9 19 10 20 11
REMARK SMILES IDX 9 12 8 13 7 14 6 15 5 16 4 17 3 18 2 19 1 20
REMARK H PARENT
REMARK Flexibility Score: inf
ROOT
ATOM      1  C   UNL     1       5.998  18.755  49.819  1.00  0.00     0.000 C 
ENDROOT
BRANCH   1   2
ATOM      2  C   UNL     1       5.193  19.931  50.392  1.00  0.00     0.000 C 
BRANCH   2   3
ATOM      3  C   UNL     1       5.268  19.954  51.923  1.00  0.00     0.000 C 
BRANCH   3   4
ATOM      4  C   UNL     1       4.531  21.176  52.494  1.00  0.00     0.000 C 
BRANCH   4   5
ATOM      5  C   UNL     1       4.063  20.960  53.941  1.00  0.00     0.000 C 
BRANCH   5   6
ATOM      6  C   UNL     1       4.919  21.729  54.961  1.00  0.00     0.000 C 
BRANCH   6   7
ATOM      7  C   UNL     1       6.189  20.967  55.381  1.00  0.00     0.006 C 
BRANCH   7   8
ATOM      8  C   UNL     1       7.229  21.839  56.106  1.00  0.00     0.053 C 
BRANCH   8   9
ATOM      9  C   UNL     1       8.611  21.262  56.039  1.00  0.00     0.041 C 
ATOM     10  O   UNL     1       9.610  22.022  55.937  1.00  0.00    -0.550 OA
ATOM     11  O   UNL     1       8.799  19.888  56.125  1.00  0.00    -0.550 OA
ENDBRANCH   8   9
ENDBRANCH   7   8
ENDBRANCH   6   7
ENDBRANCH   5   6
ENDBRANCH   4   5
ENDBRANCH   3   4
ENDBRANCH   2   3
ENDBRANCH   1   2
BRANCH   1  12
ATOM     12  C   UNL     1       5.632  18.440  48.360  1.00  0.00     0.000 C 
BRANCH  12  13
ATOM     13  C   UNL     1       6.783  17.761  47.597  1.00  0.00    -0.000 C 
BRANCH  13  14
ATOM     14  C   UNL     1       6.304  17.041  46.325  1.00  0.00    -0.000 C 
BRANCH  14  15
ATOM     15  C   UNL     1       7.047  15.716  46.078  1.00  0.00    -0.000 C 
BRANCH  15  16
ATOM     16  C   UNL     1       8.542  15.803  46.421  1.00  0.00    -0.000 C 
BRANCH  16  17
ATOM     17  C   UNL     1       9.444  15.524  45.206  1.00  0.00    -0.000 C 
BRANCH  17  18
ATOM     18  C   UNL     1       8.951  14.336  44.365  1.00  0.00    -0.000 C 
BRANCH  18  19
ATOM     19  C   UNL     1       8.217  13.280  45.206  1.00  0.00    -0.003 C 
ATOM     20  C   UNL     1       8.928  11.932  45.137  1.00  0.00     0.004 C 
ENDBRANCH  18  19
ENDBRANCH  17  18
ENDBRANCH  16  17
ENDBRANCH  15  16
ENDBRANCH  14  15
ENDBRANCH  13  14
ENDBRANCH  12  13
ENDBRANCH   1  12
TORSDOF 16
ENDMDL
