MODEL 1
REMARK VINA RESULT:    -5.211      0.000      0.000
REMARK INTER + INTRA:          -5.778
REMARK INTER:                  -5.516
REMARK INTRA:                  -0.262
REMARK UNBOUND:                -0.262
REMARK SMILES O=c1cc(-c2ccccc2)oc2ccccc12
REMARK SMILES IDX 4 1 3 2 2 3 1 4 17 5 16 6 15 7 14 8 13 9 12 10 11 11 5 12
REMARK SMILES IDX 8 13 7 14 9 15 6 16 10 17
REMARK H PARENT
REMARK Flexibility Score: inf
ROOT
ATOM      1  C   UNL     1     129.410 124.164 132.800  1.00  0.00     0.138 A 
ATOM      2  C   UNL     1     129.539 125.467 133.323  1.00  0.00     0.100 A 
ATOM      3  C   UNL     1     128.393 126.192 133.658  1.00  0.00     0.193 A 
ATOM      4  O   UNL     1     128.509 127.357 134.125  1.00  0.00    -0.289 OA
ATOM      5  C   UNL     1     127.131 125.612 133.469  1.00  0.00     0.065 A 
ATOM      6  C   UNL     1     125.937 126.286 133.785  1.00  0.00     0.016 A 
ATOM      7  C   UNL     1     124.703 125.661 133.575  1.00  0.00     0.001 A 
ATOM      8  C   UNL     1     124.652 124.365 133.054  1.00  0.00     0.004 A 
ATOM      9  C   UNL     1     125.833 123.688 132.738  1.00  0.00     0.048 A 
ATOM     10  C   UNL     1     127.072 124.304 132.942  1.00  0.00     0.138 A 
ATOM     11  O   UNL     1     128.189 123.651 132.638  1.00  0.00    -0.456 OA
ENDROOT
BRANCH   1  12
ATOM     12  C   UNL     1     130.585 123.321 132.417  1.00  0.00     0.017 A 
ATOM     13  C   UNL     1     132.858 121.812 131.693  1.00  0.00     0.000 A 
ATOM     14  C   UNL     1     131.629 121.179 131.877  1.00  0.00     0.001 A 
ATOM     15  C   UNL     1     132.962 123.192 131.865  1.00  0.00     0.001 A 
ATOM     16  C   UNL     1     130.500 121.921 132.237  1.00  0.00     0.012 A 
ATOM     17  C   UNL     1     131.839 123.941 132.224  1.00  0.00     0.012 A 
ENDBRANCH   1  12
TORSDOF 1
ENDMDL
MODEL 2
REMARK VINA RESULT:    -5.106     10.116     13.082
REMARK INTER + INTRA:          -5.667
REMARK INTER:                  -5.408
REMARK INTRA:                  -0.259
REMARK UNBOUND:                -0.262
REMARK SMILES O=c1cc(-c2ccccc2)oc2ccccc12
REMARK SMILES IDX 4 1 3 2 2 3 1 4 17 5 16 6 15 7 14 8 13 9 12 10 11 11 5 12
REMARK SMILES IDX 8 13 7 14 9 15 6 16 10 17
REMARK H PARENT
REMARK Flexibility Score: inf
ROOT
ATOM      1  C   UNL     1     130.089 135.709 132.749  1.00  0.00     0.138 A 
ATOM      2  C   UNL     1     129.948 134.416 133.293  1.00  0.00     0.100 A 
ATOM      3  C   UNL     1     131.087 133.680 133.628  1.00  0.00     0.193 A 
ATOM      4  O   UNL     1     130.960 132.524 134.114  1.00  0.00    -0.289 OA
ATOM      5  C   UNL     1     132.355 134.239 133.417  1.00  0.00     0.065 A 
ATOM      6  C   UNL     1     133.542 133.553 133.732  1.00  0.00     0.016 A 
ATOM      7  C   UNL     1     134.783 134.157 133.501  1.00  0.00     0.001 A 
ATOM      8  C   UNL     1     134.847 135.444 132.959  1.00  0.00     0.004 A 
ATOM      9  C   UNL     1     133.673 136.133 132.644  1.00  0.00     0.048 A 
ATOM     10  C   UNL     1     132.427 135.538 132.870  1.00  0.00     0.138 A 
ATOM     11  O   UNL     1     131.316 136.201 132.567  1.00  0.00    -0.456 OA
ENDROOT
BRANCH   1  12
ATOM     12  C   UNL     1     128.923 136.563 132.364  1.00  0.00     0.017 A 
ATOM     13  C   UNL     1     126.667 138.091 131.627  1.00  0.00     0.000 A 
ATOM     14  C   UNL     1     127.871 138.725 131.932  1.00  0.00     0.001 A 
ATOM     15  C   UNL     1     126.579 136.700 131.687  1.00  0.00     0.001 A 
ATOM     16  C   UNL     1     128.991 137.973 132.298  1.00  0.00     0.012 A 
ATOM     17  C   UNL     1     127.694 135.941 132.051  1.00  0.00     0.012 A 
ENDBRANCH   1  12
TORSDOF 1
ENDMDL
MODEL 3
REMARK VINA RESULT:    -5.051      2.510      5.545
REMARK INTER + INTRA:          -5.609
REMARK INTER:                  -5.359
REMARK INTRA:                  -0.250
REMARK UNBOUND:                -0.262
REMARK SMILES O=c1cc(-c2ccccc2)oc2ccccc12
REMARK SMILES IDX 4 1 3 2 2 3 1 4 17 5 16 6 15 7 14 8 13 9 12 10 11 11 5 12
REMARK SMILES IDX 8 13 7 14 9 15 6 16 10 17
REMARK H PARENT
REMARK Flexibility Score: inf
ROOT
ATOM      1  C   UNL     1     127.547 126.335 133.260  1.00  0.00     0.138 A 
ATOM      2  C   UNL     1     126.241 125.821 133.125  1.00  0.00     0.100 A 
ATOM      3  C   UNL     1     126.025 124.447 133.248  1.00  0.00     0.193 A 
ATOM      4  O   UNL     1     124.857 123.988 133.127  1.00  0.00    -0.289 OA
ATOM      5  C   UNL     1     127.110 123.598 133.506  1.00  0.00     0.065 A 
ATOM      6  C   UNL     1     126.962 122.206 133.641  1.00  0.00     0.016 A 
ATOM      7  C   UNL     1     128.080 121.404 133.897  1.00  0.00     0.001 A 
ATOM      8  C   UNL     1     129.346 121.984 134.020  1.00  0.00     0.004 A 
ATOM      9  C   UNL     1     129.503 123.366 133.887  1.00  0.00     0.048 A 
ATOM     10  C   UNL     1     128.391 124.177 133.630  1.00  0.00     0.138 A 
ATOM     11  O   UNL     1     128.550 125.490 133.505  1.00  0.00    -0.456 OA
ENDROOT
BRANCH   1  12
ATOM     12  C   UNL     1     127.865 127.792 133.142  1.00  0.00     0.017 A 
ATOM     13  C   UNL     1     128.529 130.531 132.994  1.00  0.00     0.000 A 
ATOM     14  C   UNL     1     127.580 129.995 132.125  1.00  0.00     0.001 A 
ATOM     15  C   UNL     1     129.149 129.713 133.938  1.00  0.00     0.001 A 
ATOM     16  C   UNL     1     127.248 128.639 132.193  1.00  0.00     0.012 A 
ATOM     17  C   UNL     1     128.822 128.356 134.013  1.00  0.00     0.012 A 
ENDBRANCH   1  12
TORSDOF 1
ENDMDL
MODEL 4
REMARK VINA RESULT:    -4.988      7.130      8.982
REMARK INTER + INTRA:          -5.542
REMARK INTER:                  -5.314
REMARK INTRA:                  -0.228
REMARK UNBOUND:                -0.262
REMARK SMILES O=c1cc(-c2ccccc2)oc2ccccc12
REMARK SMILES IDX 4 1 3 2 2 3 1 4 17 5 16 6 15 7 14 8 13 9 12 10 11 11 5 12
REMARK SMILES IDX 8 13 7 14 9 15 6 16 10 17
REMARK H PARENT
REMARK Flexibility Score: inf
ROOT
ATOM      1  C   UNL     1     131.744 132.439 132.982  1.00  0.00     0.138 A 
ATOM      2  C   UNL     1     130.403 132.853 133.125  1.00  0.00     0.100 A 
ATOM      3  C   UNL     1     129.391 131.895 133.206  1.00  0.00     0.193 A 
ATOM      4  O   UNL     1     128.192 132.266 133.334  1.00  0.00    -0.289 OA
ATOM      5  C   UNL     1     129.722 130.534 133.145  1.00  0.00     0.065 A 
ATOM      6  C   UNL     1     128.752 129.518 133.221  1.00  0.00     0.016 A 
ATOM      7  C   UNL     1     129.137 128.175 133.153  1.00  0.00     0.001 A 
ATOM      8  C   UNL     1     130.486 127.838 133.012  1.00  0.00     0.004 A 
ATOM      9  C   UNL     1     131.457 128.840 132.937  1.00  0.00     0.048 A 
ATOM     10  C   UNL     1     131.082 130.187 133.001  1.00  0.00     0.138 A 
ATOM     11  O   UNL     1     132.013 131.133 132.929  1.00  0.00    -0.456 OA
ENDROOT
BRANCH   1  12
ATOM     12  C   UNL     1     132.887 133.399 132.888  1.00  0.00     0.017 A 
ATOM     13  C   UNL     1     135.075 135.180 132.799  1.00  0.00     0.000 A 
ATOM     14  C   UNL     1     134.169 135.133 131.740  1.00  0.00     0.001 A 
ATOM     15  C   UNL     1     134.898 134.346 133.903  1.00  0.00     0.001 A 
ATOM     16  C   UNL     1     133.084 134.252 131.779  1.00  0.00     0.012 A 
ATOM     17  C   UNL     1     133.816 133.463 133.949  1.00  0.00     0.012 A 
ENDBRANCH   1  12
TORSDOF 1
ENDMDL
MODEL 5
REMARK VINA RESULT:    -4.963      3.593      6.111
REMARK INTER + INTRA:          -5.515
REMARK INTER:                  -5.287
REMARK INTRA:                  -0.228
REMARK UNBOUND:                -0.262
REMARK SMILES O=c1cc(-c2ccccc2)oc2ccccc12
REMARK SMILES IDX 4 1 3 2 2 3 1 4 17 5 16 6 15 7 14 8 13 9 12 10 11 11 5 12
REMARK SMILES IDX 8 13 7 14 9 15 6 16 10 17
REMARK H PARENT
REMARK Flexibility Score: inf
ROOT
ATOM      1  C   UNL     1     127.885 127.299 133.150  1.00  0.00     0.138 A 
ATOM      2  C   UNL     1     129.193 126.955 133.547  1.00  0.00     0.100 A 
ATOM      3  C   UNL     1     130.169 127.951 133.641  1.00  0.00     0.193 A 
ATOM      4  O   UNL     1     131.339 127.643 133.996  1.00  0.00    -0.289 OA
ATOM      5  C   UNL     1     129.831 129.277 133.339  1.00  0.00     0.065 A 
ATOM      6  C   UNL     1     130.765 130.327 133.414  1.00  0.00     0.016 A 
ATOM      7  C   UNL     1     130.376 131.634 133.100  1.00  0.00     0.001 A 
ATOM      8  C   UNL     1     129.059 131.901 132.714  1.00  0.00     0.004 A 
ATOM      9  C   UNL     1     128.125 130.864 132.638  1.00  0.00     0.048 A 
ATOM     10  C   UNL     1     128.504 129.553 132.948  1.00  0.00     0.138 A 
ATOM     11  O   UNL     1     127.609 128.574 132.873  1.00  0.00    -0.456 OA
ENDROOT
BRANCH   1  12
ATOM     12  C   UNL     1     126.782 126.295 133.024  1.00  0.00     0.017 A 
ATOM     13  C   UNL     1     124.749 124.364 132.708  1.00  0.00     0.000 A 
ATOM     14  C   UNL     1     124.676 125.291 133.746  1.00  0.00     0.001 A 
ATOM     15  C   UNL     1     125.828 124.392 131.824  1.00  0.00     0.001 A 
ATOM     16  C   UNL     1     125.680 126.250 133.908  1.00  0.00     0.012 A 
ATOM     17  C   UNL     1     126.836 125.347 131.979  1.00  0.00     0.012 A 
ENDBRANCH   1  12
TORSDOF 1
ENDMDL
MODEL 6
REMARK VINA RESULT:    -4.943     17.309     19.046
REMARK INTER + INTRA:          -5.494
REMARK INTER:                  -5.240
REMARK INTRA:                  -0.254
REMARK UNBOUND:                -0.262
REMARK SMILES O=c1cc(-c2ccccc2)oc2ccccc12
REMARK SMILES IDX 4 1 3 2 2 3 1 4 17 5 16 6 15 7 14 8 13 9 12 10 11 11 5 12
REMARK SMILES IDX 8 13 7 14 9 15 6 16 10 17
REMARK H PARENT
REMARK Flexibility Score: inf
ROOT
ATOM      1  C   UNL     1     138.976 135.021 120.687  1.00  0.00     0.138 A 
ATOM      2  C   UNL     1     139.561 133.753 120.885  1.00  0.00     0.100 A 
ATOM      3  C   UNL     1     139.141 132.959 121.955  1.00  0.00     0.193 A 
ATOM      4  O   UNL     1     139.665 131.826 122.131  1.00  0.00    -0.289 OA
ATOM      5  C   UNL     1     138.144 133.436 122.817  1.00  0.00     0.065 A 
ATOM      6  C   UNL     1     137.676 132.688 123.912  1.00  0.00     0.016 A 
ATOM      7  C   UNL     1     136.678 133.211 124.743  1.00  0.00     0.001 A 
ATOM      8  C   UNL     1     136.143 134.476 124.486  1.00  0.00     0.004 A 
ATOM      9  C   UNL     1     136.602 135.226 123.399  1.00  0.00     0.048 A 
ATOM     10  C   UNL     1     137.600 134.713 122.564  1.00  0.00     0.138 A 
ATOM     11  O   UNL     1     138.029 135.433 121.533  1.00  0.00    -0.456 OA
ENDROOT
BRANCH   1  12
ATOM     12  C   UNL     1     139.367 135.933 119.567  1.00  0.00     0.017 A 
ATOM     13  C   UNL     1     140.087 137.730 117.514  1.00  0.00     0.000 A 
ATOM     14  C   UNL     1     140.125 136.356 117.284  1.00  0.00     0.001 A 
ATOM     15  C   UNL     1     139.692 138.216 118.760  1.00  0.00     0.001 A 
ATOM     16  C   UNL     1     139.770 135.460 118.298  1.00  0.00     0.012 A 
ATOM     17  C   UNL     1     139.335 137.328 119.779  1.00  0.00     0.012 A 
ENDBRANCH   1  12
TORSDOF 1
ENDMDL
MODEL 7
REMARK VINA RESULT:    -4.938      3.313      5.591
REMARK INTER + INTRA:          -5.490
REMARK INTER:                  -5.246
REMARK INTRA:                  -0.243
REMARK UNBOUND:                -0.262
REMARK SMILES O=c1cc(-c2ccccc2)oc2ccccc12
REMARK SMILES IDX 4 1 3 2 2 3 1 4 17 5 16 6 15 7 14 8 13 9 12 10 11 11 5 12
REMARK SMILES IDX 8 13 7 14 9 15 6 16 10 17
REMARK H PARENT
REMARK Flexibility Score: inf
ROOT
ATOM      1  C   UNL     1     129.545 127.900 133.515  1.00  0.00     0.138 A 
ATOM      2  C   UNL     1     128.135 127.869 133.520  1.00  0.00     0.100 A 
ATOM      3  C   UNL     1     127.473 126.649 133.675  1.00  0.00     0.193 A 
ATOM      4  O   UNL     1     126.212 126.622 133.679  1.00  0.00    -0.289 OA
ATOM      5  C   UNL     1     128.221 125.472 133.823  1.00  0.00     0.065 A 
ATOM      6  C   UNL     1     127.617 124.212 133.982  1.00  0.00     0.016 A 
ATOM      7  C   UNL     1     128.411 123.068 134.125  1.00  0.00     0.001 A 
ATOM      8  C   UNL     1     129.804 123.175 134.111  1.00  0.00     0.004 A 
ATOM      9  C   UNL     1     130.412 124.423 133.953  1.00  0.00     0.048 A 
ATOM     10  C   UNL     1     129.628 125.573 133.808  1.00  0.00     0.138 A 
ATOM     11  O   UNL     1     130.216 126.755 133.659  1.00  0.00    -0.456 OA
ENDROOT
BRANCH   1  12
ATOM     12  C   UNL     1     130.331 129.163 133.354  1.00  0.00     0.017 A 
ATOM     13  C   UNL     1     131.869 131.500 132.984  1.00  0.00     0.000 A 
ATOM     14  C   UNL     1     130.825 131.490 133.908  1.00  0.00     0.001 A 
ATOM     15  C   UNL     1     132.154 130.352 132.244  1.00  0.00     0.001 A 
ATOM     16  C   UNL     1     130.059 130.335 134.095  1.00  0.00     0.012 A 
ATOM     17  C   UNL     1     131.393 129.194 132.425  1.00  0.00     0.012 A 
ENDBRANCH   1  12
TORSDOF 1
ENDMDL
MODEL 8
REMARK VINA RESULT:    -4.937      1.260      6.404
REMARK INTER + INTRA:          -5.488
REMARK INTER:                  -5.225
REMARK INTRA:                  -0.263
REMARK UNBOUND:                -0.262
REMARK SMILES O=c1cc(-c2ccccc2)oc2ccccc12
REMARK SMILES IDX 4 1 3 2 2 3 1 4 17 5 16 6 15 7 14 8 13 9 12 10 11 11 5 12
REMARK SMILES IDX 8 13 7 14 9 15 6 16 10 17
REMARK H PARENT
REMARK Flexibility Score: inf
ROOT
ATOM      1  C   UNL     1     128.282 123.312 132.759  1.00  0.00     0.138 A 
ATOM      2  C   UNL     1     128.161 121.916 132.602  1.00  0.00     0.100 A 
ATOM      3  C   UNL     1     129.291 121.157 132.292  1.00  0.00     0.193 A 
ATOM      4  O   UNL     1     129.181 119.908 132.152  1.00  0.00    -0.289 OA
ATOM      5  C   UNL     1     130.530 121.794 132.141  1.00  0.00     0.065 A 
ATOM      6  C   UNL     1     131.706 121.089 131.828  1.00  0.00     0.016 A 
ATOM      7  C   UNL     1     132.918 121.775 131.687  1.00  0.00     0.001 A 
ATOM      8  C   UNL     1     132.963 123.162 131.858  1.00  0.00     0.004 A 
ATOM      9  C   UNL     1     131.800 123.870 132.169  1.00  0.00     0.048 A 
ATOM     10  C   UNL     1     130.583 123.194 132.310  1.00  0.00     0.138 A 
ATOM     11  O   UNL     1     129.481 123.877 132.606  1.00  0.00    -0.456 OA
ENDROOT
BRANCH   1  12
ATOM     12  C   UNL     1     127.123 124.198 133.091  1.00  0.00     0.017 A 
ATOM     13  C   UNL     1     124.875 125.797 133.689  1.00  0.00     0.000 A 
ATOM     14  C   UNL     1     126.161 126.296 133.892  1.00  0.00     0.001 A 
ATOM     15  C   UNL     1     124.701 124.507 133.190  1.00  0.00     0.001 A 
ATOM     16  C   UNL     1     127.278 125.508 133.598  1.00  0.00     0.012 A 
ATOM     17  C   UNL     1     125.812 123.713 132.893  1.00  0.00     0.012 A 
ENDBRANCH   1  12
TORSDOF 1
ENDMDL
MODEL 9
REMARK VINA RESULT:    -4.867      3.943      5.903
REMARK INTER + INTRA:          -5.414
REMARK INTER:                  -5.180
REMARK INTRA:                  -0.234
REMARK UNBOUND:                -0.262
REMARK SMILES O=c1cc(-c2ccccc2)oc2ccccc12
REMARK SMILES IDX 4 1 3 2 2 3 1 4 17 5 16 6 15 7 14 8 13 9 12 10 11 11 5 12
REMARK SMILES IDX 8 13 7 14 9 15 6 16 10 17
REMARK H PARENT
REMARK Flexibility Score: inf
ROOT
ATOM      1  C   UNL     1     130.460 128.518 133.243  1.00  0.00     0.138 A 
ATOM      2  C   UNL     1     131.192 127.342 133.503  1.00  0.00     0.100 A 
ATOM      3  C   UNL     1     130.521 126.122 133.611  1.00  0.00     0.193 A 
ATOM      4  O   UNL     1     131.177 125.070 133.844  1.00  0.00    -0.289 OA
ATOM      5  C   UNL     1     129.128 126.085 133.457  1.00  0.00     0.065 A 
ATOM      6  C   UNL     1     128.392 124.890 133.553  1.00  0.00     0.016 A 
ATOM      7  C   UNL     1     127.002 124.909 133.392  1.00  0.00     0.001 A 
ATOM      8  C   UNL     1     126.342 126.114 133.134  1.00  0.00     0.004 A 
ATOM      9  C   UNL     1     127.066 127.305 133.037  1.00  0.00     0.048 A 
ATOM     10  C   UNL     1     128.456 127.297 133.198  1.00  0.00     0.138 A 
ATOM     11  O   UNL     1     129.135 128.436 133.103  1.00  0.00    -0.456 OA
ENDROOT
BRANCH   1  12
ATOM     12  C   UNL     1     131.100 129.864 133.113  1.00  0.00     0.017 A 
ATOM     13  C   UNL     1     132.253 132.435 132.945  1.00  0.00     0.000 A 
ATOM     14  C   UNL     1     132.643 131.435 132.055  1.00  0.00     0.001 A 
ATOM     15  C   UNL     1     131.291 132.164 133.918  1.00  0.00     0.001 A 
ATOM     16  C   UNL     1     132.076 130.159 132.134  1.00  0.00     0.012 A 
ATOM     17  C   UNL     1     130.719 130.892 134.003  1.00  0.00     0.012 A 
ENDBRANCH   1  12
TORSDOF 1
ENDMDL
