MODEL 1
REMARK VINA RESULT:    -3.298      0.000      0.000
REMARK INTER + INTRA:          -5.748
REMARK INTER:                  -5.034
REMARK INTRA:                  -0.714
REMARK UNBOUND:                -0.714
REMARK SMILES O=C([O-])CCCCCCCCC(=O)[O-]
REMARK SMILES IDX 7 1 6 2 5 3 4 4 2 5 1 6 3 7 8 8 9 9 10 10 11 11 12 12 13 13
REMARK SMILES IDX 14 14
REMARK H PARENT
REMARK Flexibility Score: inf
ROOT
ATOM      1  C   UNL     1     -92.910 146.772 240.785  1.00  0.00     0.000 C 
ENDROOT
BRANCH   1   2
ATOM      2  C   UNL     1     -93.741 146.971 239.505  1.00  0.00     0.000 C 
BRANCH   2   3
ATOM      3  C   UNL     1     -94.458 148.331 239.475  1.00  0.00     0.006 C 
BRANCH   3   4
ATOM      4  C   UNL     1     -95.445 148.454 238.305  1.00  0.00     0.053 C 
BRANCH   4   5
ATOM      5  C   UNL     1     -94.817 149.200 237.171  1.00  0.00     0.041 C 
ATOM      6  O   UNL     1     -94.275 148.573 236.223  1.00  0.00    -0.550 OA
ATOM      7  O   UNL     1     -94.873 150.587 237.135  1.00  0.00    -0.550 OA
ENDBRANCH   4   5
ENDBRANCH   3   4
ENDBRANCH   2   3
ENDBRANCH   1   2
BRANCH   1   8
ATOM      8  C   UNL     1     -93.598 147.353 242.031  1.00  0.00     0.000 C 
BRANCH   8   9
ATOM      9  C   UNL     1     -94.642 146.400 242.632  1.00  0.00     0.000 C 
BRANCH   9  10
ATOM     10  C   UNL     1     -96.038 147.035 242.616  1.00  0.00     0.006 C 
BRANCH  10  11
ATOM     11  C   UNL     1     -95.951 148.556 242.773  1.00  0.00     0.053 C 
BRANCH  11  12
ATOM     12  C   UNL     1     -97.132 149.071 243.535  1.00  0.00     0.041 C 
ATOM     13  O   UNL     1     -97.239 148.840 244.769  1.00  0.00    -0.550 OA
ATOM     14  O   UNL     1     -98.089 149.846 242.895  1.00  0.00    -0.550 OA
ENDBRANCH  11  12
ENDBRANCH  10  11
ENDBRANCH   9  10
ENDBRANCH   8   9
ENDBRANCH   1   8
TORSDOF 9
ENDMDL
MODEL 2
REMARK VINA RESULT:    -3.257      1.688      5.468
REMARK INTER + INTRA:          -5.685
REMARK INTER:                  -4.922
REMARK INTRA:                  -0.763
REMARK UNBOUND:                -0.714
REMARK SMILES O=C([O-])CCCCCCCCC(=O)[O-]
REMARK SMILES IDX 7 1 6 2 5 3 4 4 2 5 1 6 3 7 8 8 9 9 10 10 11 11 12 12 13 13
REMARK SMILES IDX 14 14
REMARK H PARENT
REMARK Flexibility Score: inf
ROOT
ATOM      1  C   UNL     1     -95.242 145.114 242.925  1.00  0.00     0.000 C 
ENDROOT
BRANCH   1   2
ATOM      2  C   UNL     1     -96.294 146.133 243.397  1.00  0.00     0.000 C 
BRANCH   2   3
ATOM      3  C   UNL     1     -96.451 147.311 242.421  1.00  0.00     0.006 C 
BRANCH   3   4
ATOM      4  C   UNL     1     -96.248 148.673 243.099  1.00  0.00     0.053 C 
BRANCH   4   5
ATOM      5  C   UNL     1     -97.458 149.043 243.897  1.00  0.00     0.041 C 
ATOM      6  O   UNL     1     -97.435 148.970 245.154  1.00  0.00    -0.550 OA
ATOM      7  O   UNL     1     -98.596 149.514 243.256  1.00  0.00    -0.550 OA
ENDBRANCH   4   5
ENDBRANCH   3   4
ENDBRANCH   2   3
ENDBRANCH   1   2
BRANCH   1   8
ATOM      8  C   UNL     1     -93.836 145.726 242.816  1.00  0.00     0.000 C 
BRANCH   8   9
ATOM      9  C   UNL     1     -92.917 144.940 241.867  1.00  0.00     0.000 C 
BRANCH   9  10
ATOM     10  C   UNL     1     -92.413 145.833 240.727  1.00  0.00     0.006 C 
BRANCH  10  11
ATOM     11  C   UNL     1     -93.113 147.195 240.745  1.00  0.00     0.053 C 
BRANCH  11  12
ATOM     12  C   UNL     1     -93.909 147.391 239.494  1.00  0.00     0.041 C 
ATOM     13  O   UNL     1     -93.741 146.623 238.510  1.00  0.00    -0.550 OA
ATOM     14  O   UNL     1     -94.869 148.392 239.429  1.00  0.00    -0.550 OA
ENDBRANCH  11  12
ENDBRANCH  10  11
ENDBRANCH   9  10
ENDBRANCH   8   9
ENDBRANCH   1   8
TORSDOF 9
ENDMDL
MODEL 3
REMARK VINA RESULT:    -3.248      1.855      2.405
REMARK INTER + INTRA:          -5.671
REMARK INTER:                  -4.856
REMARK INTRA:                  -0.815
REMARK UNBOUND:                -0.714
REMARK SMILES O=C([O-])CCCCCCCCC(=O)[O-]
REMARK SMILES IDX 7 1 6 2 5 3 4 4 2 5 1 6 3 7 8 8 9 9 10 10 11 11 12 12 13 13
REMARK SMILES IDX 14 14
REMARK H PARENT
REMARK Flexibility Score: inf
ROOT
ATOM      1  C   UNL     1     -93.099 144.925 241.700  1.00  0.00     0.000 C 
ENDROOT
BRANCH   1   2
ATOM      2  C   UNL     1     -91.897 145.451 240.895  1.00  0.00     0.000 C 
BRANCH   2   3
ATOM      3  C   UNL     1     -92.075 145.259 239.379  1.00  0.00     0.006 C 
BRANCH   3   4
ATOM      4  C   UNL     1     -93.539 145.387 238.934  1.00  0.00     0.053 C 
BRANCH   4   5
ATOM      5  C   UNL     1     -93.670 146.434 237.874  1.00  0.00     0.041 C 
ATOM      6  O   UNL     1     -93.113 146.276 236.755  1.00  0.00    -0.550 OA
ATOM      7  O   UNL     1     -94.447 147.562 238.103  1.00  0.00    -0.550 OA
ENDBRANCH   4   5
ENDBRANCH   3   4
ENDBRANCH   2   3
ENDBRANCH   1   2
BRANCH   1   8
ATOM      8  C   UNL     1     -93.688 145.989 242.641  1.00  0.00     0.000 C 
BRANCH   8   9
ATOM      9  C   UNL     1     -93.556 147.415 242.083  1.00  0.00     0.000 C 
BRANCH   9  10
ATOM     10  C   UNL     1     -94.910 147.936 241.587  1.00  0.00     0.006 C 
BRANCH  10  11
ATOM     11  C   UNL     1     -96.066 147.255 242.326  1.00  0.00     0.053 C 
BRANCH  11  12
ATOM     12  C   UNL     1     -96.666 148.187 243.331  1.00  0.00     0.041 C 
ATOM     13  O   UNL     1     -96.989 147.764 244.473  1.00  0.00    -0.550 OA
ATOM     14  O   UNL     1     -96.823 149.532 243.026  1.00  0.00    -0.550 OA
ENDBRANCH  11  12
ENDBRANCH  10  11
ENDBRANCH   9  10
ENDBRANCH   8   9
ENDBRANCH   1   8
TORSDOF 9
ENDMDL
MODEL 4
REMARK VINA RESULT:    -3.242      1.559      2.308
REMARK INTER + INTRA:          -5.663
REMARK INTER:                  -4.700
REMARK INTRA:                  -0.963
REMARK UNBOUND:                -0.714
REMARK SMILES O=C([O-])CCCCCCCCC(=O)[O-]
REMARK SMILES IDX 7 1 6 2 5 3 4 4 2 5 1 6 3 7 8 8 9 9 10 10 11 11 12 12 13 13
REMARK SMILES IDX 14 14
REMARK H PARENT
REMARK Flexibility Score: inf
ROOT
ATOM      1  C   UNL     1     -93.686 147.345 242.100  1.00  0.00     0.000 C 
ENDROOT
BRANCH   1   2
ATOM      2  C   UNL     1     -92.922 146.820 240.872  1.00  0.00     0.000 C 
BRANCH   2   3
ATOM      3  C   UNL     1     -93.769 146.865 239.589  1.00  0.00     0.006 C 
BRANCH   3   4
ATOM      4  C   UNL     1     -94.451 148.224 239.378  1.00  0.00     0.053 C 
BRANCH   4   5
ATOM      5  C   UNL     1     -95.888 148.032 239.006  1.00  0.00     0.041 C 
ATOM      6  O   UNL     1     -96.471 148.876 238.275  1.00  0.00    -0.550 OA
ATOM      7  O   UNL     1     -96.569 146.897 239.425  1.00  0.00    -0.550 OA
ENDBRANCH   4   5
ENDBRANCH   3   4
ENDBRANCH   2   3
ENDBRANCH   1   2
BRANCH   1   8
ATOM      8  C   UNL     1     -94.751 146.355 242.600  1.00  0.00     0.000 C 
BRANCH   8   9
ATOM      9  C   UNL     1     -96.087 147.037 242.935  1.00  0.00     0.000 C 
BRANCH   9  10
ATOM     10  C   UNL     1     -96.003 148.550 242.704  1.00  0.00     0.006 C 
BRANCH  10  11
ATOM     11  C   UNL     1     -97.116 149.284 243.459  1.00  0.00     0.053 C 
BRANCH  11  12
ATOM     12  C   UNL     1     -98.283 149.535 242.556  1.00  0.00     0.041 C 
ATOM     13  O   UNL     1     -98.135 149.502 241.306  1.00  0.00    -0.550 OA
ATOM     14  O   UNL     1     -99.543 149.758 243.094  1.00  0.00    -0.550 OA
ENDBRANCH  11  12
ENDBRANCH  10  11
ENDBRANCH   9  10
ENDBRANCH   8   9
ENDBRANCH   1   8
TORSDOF 9
ENDMDL
MODEL 5
REMARK VINA RESULT:    -3.233      0.689      5.428
REMARK INTER + INTRA:          -5.649
REMARK INTER:                  -4.858
REMARK INTRA:                  -0.791
REMARK UNBOUND:                -0.714
REMARK SMILES O=C([O-])CCCCCCCCC(=O)[O-]
REMARK SMILES IDX 7 1 6 2 5 3 4 4 2 5 1 6 3 7 8 8 9 9 10 10 11 11 12 12 13 13
REMARK SMILES IDX 14 14
REMARK H PARENT
REMARK Flexibility Score: inf
ROOT
ATOM      1  C   UNL     1     -93.475 147.237 241.856  1.00  0.00     0.000 C 
ENDROOT
BRANCH   1   2
ATOM      2  C   UNL     1     -94.590 146.433 242.546  1.00  0.00     0.000 C 
BRANCH   2   3
ATOM      3  C   UNL     1     -95.948 147.154 242.505  1.00  0.00     0.006 C 
BRANCH   3   4
ATOM      4  C   UNL     1     -95.828 148.657 242.795  1.00  0.00     0.053 C 
BRANCH   4   5
ATOM      5  C   UNL     1     -97.059 149.152 243.487  1.00  0.00     0.041 C 
ATOM      6  O   UNL     1     -97.921 149.814 242.850  1.00  0.00    -0.550 OA
ATOM      7  O   UNL     1     -97.277 148.844 244.823  1.00  0.00    -0.550 OA
ENDBRANCH   4   5
ENDBRANCH   3   4
ENDBRANCH   2   3
ENDBRANCH   1   2
BRANCH   1   8
ATOM      8  C   UNL     1     -92.959 146.554 240.578  1.00  0.00     0.000 C 
BRANCH   8   9
ATOM      9  C   UNL     1     -93.833 146.851 239.350  1.00  0.00     0.000 C 
BRANCH   9  10
ATOM     10  C   UNL     1     -94.333 148.300 239.371  1.00  0.00     0.006 C 
BRANCH  10  11
ATOM     11  C   UNL     1     -95.734 148.408 238.759  1.00  0.00     0.053 C 
BRANCH  11  12
ATOM     12  C   UNL     1     -95.683 149.151 237.462  1.00  0.00     0.041 C 
ATOM     13  O   UNL     1     -96.471 148.850 236.528  1.00  0.00    -0.550 OA
ATOM     14  O   UNL     1     -94.797 150.209 237.301  1.00  0.00    -0.550 OA
ENDBRANCH  11  12
ENDBRANCH  10  11
ENDBRANCH   9  10
ENDBRANCH   8   9
ENDBRANCH   1   8
TORSDOF 9
ENDMDL
MODEL 6
REMARK VINA RESULT:    -3.228      1.559      4.854
REMARK INTER + INTRA:          -5.640
REMARK INTER:                  -4.675
REMARK INTRA:                  -0.965
REMARK UNBOUND:                -0.714
REMARK SMILES O=C([O-])CCCCCCCCC(=O)[O-]
REMARK SMILES IDX 7 1 6 2 5 3 4 4 2 5 1 6 3 7 8 8 9 9 10 10 11 11 12 12 13 13
REMARK SMILES IDX 14 14
REMARK H PARENT
REMARK Flexibility Score: inf
ROOT
ATOM      1  C   UNL     1     -94.694 146.406 242.644  1.00  0.00     0.000 C 
ENDROOT
BRANCH   1   2
ATOM      2  C   UNL     1     -96.079 147.033 242.878  1.00  0.00     0.000 C 
BRANCH   2   3
ATOM      3  C   UNL     1     -96.067 148.563 242.721  1.00  0.00     0.006 C 
BRANCH   3   4
ATOM      4  C   UNL     1     -97.201 149.247 243.496  1.00  0.00     0.053 C 
BRANCH   4   5
ATOM      5  C   UNL     1     -98.367 149.502 242.595  1.00  0.00     0.041 C 
ATOM      6  O   UNL     1     -99.502 149.751 243.081  1.00  0.00    -0.550 OA
ATOM      7  O   UNL     1     -98.192 149.514 241.217  1.00  0.00    -0.550 OA
ENDBRANCH   4   5
ENDBRANCH   3   4
ENDBRANCH   2   3
ENDBRANCH   1   2
BRANCH   1   8
ATOM      8  C   UNL     1     -93.691 147.401 242.038  1.00  0.00     0.000 C 
BRANCH   8   9
ATOM      9  C   UNL     1     -92.905 146.809 240.858  1.00  0.00     0.000 C 
BRANCH   9  10
ATOM     10  C   UNL     1     -93.742 146.834 239.574  1.00  0.00     0.006 C 
BRANCH  10  11
ATOM     11  C   UNL     1     -94.428 148.192 239.391  1.00  0.00     0.053 C 
BRANCH  11  12
ATOM     12  C   UNL     1     -95.861 148.006 239.004  1.00  0.00     0.041 C 
ATOM     13  O   UNL     1     -96.480 146.964 239.347  1.00  0.00    -0.550 OA
ATOM     14  O   UNL     1     -96.529 149.004 238.307  1.00  0.00    -0.550 OA
ENDBRANCH  11  12
ENDBRANCH  10  11
ENDBRANCH   9  10
ENDBRANCH   8   9
ENDBRANCH   1   8
TORSDOF 9
ENDMDL
MODEL 7
REMARK VINA RESULT:    -3.222      3.260      4.693
REMARK INTER + INTRA:          -5.631
REMARK INTER:                  -5.431
REMARK INTRA:                  -0.200
REMARK UNBOUND:                -0.714
REMARK SMILES O=C([O-])CCCCCCCCC(=O)[O-]
REMARK SMILES IDX 7 1 6 2 5 3 4 4 2 5 1 6 3 7 8 8 9 9 10 10 11 11 12 12 13 13
REMARK SMILES IDX 14 14
REMARK H PARENT
REMARK Flexibility Score: inf
ROOT
ATOM      1  C   UNL     1     -96.239 147.743 243.151  1.00  0.00     0.000 C 
ENDROOT
BRANCH   1   2
ATOM      2  C   UNL     1     -95.368 147.978 241.905  1.00  0.00     0.000 C 
BRANCH   2   3
ATOM      3  C   UNL     1     -93.921 147.492 242.097  1.00  0.00     0.006 C 
BRANCH   3   4
ATOM      4  C   UNL     1     -93.172 147.321 240.768  1.00  0.00     0.053 C 
BRANCH   4   5
ATOM      5  C   UNL     1     -92.847 145.879 240.536  1.00  0.00     0.041 C 
ATOM      6  O   UNL     1     -92.547 145.133 241.506  1.00  0.00    -0.550 OA
ATOM      7  O   UNL     1     -92.922 145.346 239.256  1.00  0.00    -0.550 OA
ENDBRANCH   4   5
ENDBRANCH   3   4
ENDBRANCH   2   3
ENDBRANCH   1   2
BRANCH   1   8
ATOM      8  C   UNL     1     -96.976 149.014 243.603  1.00  0.00     0.000 C 
BRANCH   8   9
ATOM      9  C   UNL     1     -98.106 148.723 244.603  1.00  0.00     0.000 C 
BRANCH   9  10
ATOM     10  C   UNL     1     -97.654 149.012 246.040  1.00  0.00     0.006 C 
BRANCH  10  11
ATOM     11  C   UNL     1     -98.699 149.848 246.786  1.00  0.00     0.053 C 
BRANCH  11  12
ATOM     12  C   UNL     1     -98.033 150.797 247.731  1.00  0.00     0.041 C 
ATOM     13  O   UNL     1     -98.559 151.913 247.984  1.00  0.00    -0.550 OA
ATOM     14  O   UNL     1     -96.856 150.430 248.371  1.00  0.00    -0.550 OA
ENDBRANCH  11  12
ENDBRANCH  10  11
ENDBRANCH   9  10
ENDBRANCH   8   9
ENDBRANCH   1   8
TORSDOF 9
ENDMDL
MODEL 8
REMARK VINA RESULT:    -3.186      2.112      3.067
REMARK INTER + INTRA:          -5.577
REMARK INTER:                  -4.902
REMARK INTRA:                  -0.675
REMARK UNBOUND:                -0.714
REMARK SMILES O=C([O-])CCCCCCCCC(=O)[O-]
REMARK SMILES IDX 7 1 6 2 5 3 4 4 2 5 1 6 3 7 8 8 9 9 10 10 11 11 12 12 13 13
REMARK SMILES IDX 14 14
REMARK H PARENT
REMARK Flexibility Score: inf
ROOT
ATOM      1  C   UNL     1     -95.330 146.563 242.666  1.00  0.00     0.000 C 
ENDROOT
BRANCH   1   2
ATOM      2  C   UNL     1     -93.832 146.247 242.510  1.00  0.00     0.000 C 
BRANCH   2   3
ATOM      3  C   UNL     1     -93.186 147.015 241.346  1.00  0.00     0.006 C 
BRANCH   3   4
ATOM      4  C   UNL     1     -92.762 146.095 240.192  1.00  0.00     0.053 C 
BRANCH   4   5
ATOM      5  C   UNL     1     -93.659 146.295 239.011  1.00  0.00     0.041 C 
ATOM      6  O   UNL     1     -93.932 145.327 238.252  1.00  0.00    -0.550 OA
ATOM      7  O   UNL     1     -94.232 147.537 238.775  1.00  0.00    -0.550 OA
ENDBRANCH   4   5
ENDBRANCH   3   4
ENDBRANCH   2   3
ENDBRANCH   1   2
BRANCH   1   8
ATOM      8  C   UNL     1     -95.723 147.894 242.004  1.00  0.00     0.000 C 
BRANCH   8   9
ATOM      9  C   UNL     1     -95.913 149.030 243.020  1.00  0.00     0.000 C 
BRANCH   9  10
ATOM     10  C   UNL     1     -97.366 149.518 243.033  1.00  0.00     0.006 C 
BRANCH  10  11
ATOM     11  C   UNL     1     -98.267 148.543 243.798  1.00  0.00     0.053 C 
BRANCH  11  12
ATOM     12  C   UNL     1     -97.748 148.330 245.185  1.00  0.00     0.041 C 
ATOM     13  O   UNL     1     -97.705 149.290 245.999  1.00  0.00    -0.550 OA
ATOM     14  O   UNL     1     -97.357 147.063 245.594  1.00  0.00    -0.550 OA
ENDBRANCH  11  12
ENDBRANCH  10  11
ENDBRANCH   9  10
ENDBRANCH   8   9
ENDBRANCH   1   8
TORSDOF 9
ENDMDL
MODEL 9
REMARK VINA RESULT:    -3.184      2.808      3.911
REMARK INTER + INTRA:          -5.574
REMARK INTER:                  -5.006
REMARK INTRA:                  -0.568
REMARK UNBOUND:                -0.714
REMARK SMILES O=C([O-])CCCCCCCCC(=O)[O-]
REMARK SMILES IDX 7 1 6 2 5 3 4 4 2 5 1 6 3 7 8 8 9 9 10 10 11 11 12 12 13 13
REMARK SMILES IDX 14 14
REMARK H PARENT
REMARK Flexibility Score: inf
ROOT
ATOM      1  C   UNL     1     -96.007 147.181 242.858  1.00  0.00     0.000 C 
ENDROOT
BRANCH   1   2
ATOM      2  C   UNL     1     -94.809 146.318 242.426  1.00  0.00     0.000 C 
BRANCH   2   3
ATOM      3  C   UNL     1     -93.584 147.163 242.039  1.00  0.00     0.006 C 
BRANCH   3   4
ATOM      4  C   UNL     1     -93.285 147.117 240.534  1.00  0.00     0.053 C 
BRANCH   4   5
ATOM      5  C   UNL     1     -92.591 145.840 240.181  1.00  0.00     0.041 C 
ATOM      6  O   UNL     1     -91.859 145.261 241.027  1.00  0.00    -0.550 OA
ATOM      7  O   UNL     1     -92.789 145.262 238.934  1.00  0.00    -0.550 OA
ENDBRANCH   4   5
ENDBRANCH   3   4
ENDBRANCH   2   3
ENDBRANCH   1   2
BRANCH   1   8
ATOM      8  C   UNL     1     -95.726 148.687 242.730  1.00  0.00     0.000 C 
BRANCH   8   9
ATOM      9  C   UNL     1     -96.927 149.554 243.139  1.00  0.00     0.000 C 
BRANCH   9  10
ATOM     10  C   UNL     1     -98.178 148.693 243.348  1.00  0.00     0.006 C 
BRANCH  10  11
ATOM     11  C   UNL     1     -98.856 149.024 244.682  1.00  0.00     0.053 C 
BRANCH  11  12
ATOM     12  C   UNL     1     -97.956 148.678 245.826  1.00  0.00     0.041 C 
ATOM     13  O   UNL     1     -97.632 149.560 246.665  1.00  0.00    -0.550 OA
ATOM     14  O   UNL     1     -97.513 147.373 245.993  1.00  0.00    -0.550 OA
ENDBRANCH  11  12
ENDBRANCH  10  11
ENDBRANCH   9  10
ENDBRANCH   8   9
ENDBRANCH   1   8
TORSDOF 9
ENDMDL
