MODEL 1
REMARK VINA RESULT:    -7.267      0.000      0.000
REMARK INTER + INTRA:          -8.599
REMARK INTER:                  -8.967
REMARK INTRA:                   0.368
REMARK UNBOUND:                 0.368
REMARK SMILES Oc1cc(O)c2cc(O)c(-c3cc(O)c(O)c(O)c3)[o+]c2c1
REMARK SMILES IDX 10 1 20 2 21 3 22 4 2 5 3 6 4 7 6 8 7 9 8 10 11 11 12 12
REMARK SMILES IDX 13 13 19 14 15 15 17 16 14 17 16 19 18 21 9 23 1 25 5 27
REMARK H PARENT 14 18 16 20 18 22 9 24 1 26 5 28
REMARK Flexibility Score: inf
ROOT
ATOM      1  C   UNL     1       9.650  13.081  23.352  1.00  0.00     0.402 A 
ATOM      2  O   UNL     1       9.782  11.758  23.368  1.00  0.00    -0.202 OA
ATOM      3  C   UNL     1       9.415  11.000  24.396  1.00  0.00     0.368 A 
ATOM      4  C   UNL     1       9.592   9.615  24.318  1.00  0.00     0.162 A 
ATOM      5  C   UNL     1       9.211   8.794  25.379  1.00  0.00     0.128 A 
ATOM      6  C   UNL     1       8.648   9.359  26.530  1.00  0.00     0.093 A 
ATOM      7  C   UNL     1       8.459  10.743  26.632  1.00  0.00     0.136 A 
ATOM      8  C   UNL     1       8.847  11.581  25.555  1.00  0.00     0.125 A 
ATOM      9  C   UNL     1       8.708  12.979  25.574  1.00  0.00     0.078 A 
ATOM     10  C   UNL     1       9.119  13.739  24.476  1.00  0.00     0.223 A 
ENDROOT
BRANCH   1  11
ATOM     11  C   UNL     1      10.088  13.814  22.143  1.00  0.00     0.091 A 
ATOM     12  C   UNL     1      10.344  13.104  20.960  1.00  0.00     0.068 A 
ATOM     13  C   UNL     1      10.741  13.772  19.797  1.00  0.00     0.162 A 
ATOM     14  C   UNL     1      10.201  15.215  22.137  1.00  0.00     0.068 A 
ATOM     15  C   UNL     1      10.873  15.171  19.802  1.00  0.00     0.200 A 
ATOM     16  C   UNL     1      10.597  15.893  20.975  1.00  0.00     0.162 A 
BRANCH  13  17
ATOM     17  O   UNL     1      10.999  13.028  18.647  1.00  0.00    -0.504 OA
ATOM     18  H   UNL     1      10.958  12.015  18.638  1.00  0.00     0.293 HD
ENDBRANCH  13  17
BRANCH  15  19
ATOM     19  O   UNL     1      11.272  15.829  18.638  1.00  0.00    -0.502 OA
ATOM     20  H   UNL     1      11.362  15.349  17.750  1.00  0.00     0.293 HD
ENDBRANCH  15  19
BRANCH  16  21
ATOM     21  O   UNL     1      10.712  17.282  20.983  1.00  0.00    -0.504 OA
ATOM     22  H   UNL     1      10.621  17.828  20.132  1.00  0.00     0.293 HD
ENDBRANCH  16  21
ENDBRANCH   1  11
BRANCH  10  23
ATOM     23  O   UNL     1       9.027  15.131  24.515  1.00  0.00    -0.500 OA
ATOM     24  H   UNL     1       8.658  15.663  23.735  1.00  0.00     0.294 HD
ENDBRANCH  10  23
BRANCH   5  25
ATOM     25  O   UNL     1       9.397   7.417  25.283  1.00  0.00    -0.507 OA
ATOM     26  H   UNL     1       9.566   6.967  24.391  1.00  0.00     0.293 HD
ENDBRANCH   5  25
BRANCH   7  27
ATOM     27  O   UNL     1       7.887  11.229  27.811  1.00  0.00    -0.507 OA
ATOM     28  H   UNL     1       7.481  12.147  27.912  1.00  0.00     0.293 HD
ENDBRANCH   7  27
TORSDOF 7
ENDMDL
MODEL 2
REMARK VINA RESULT:    -6.858      3.901      6.169
REMARK INTER + INTRA:          -8.094
REMARK INTER:                  -8.163
REMARK INTRA:                   0.069
REMARK UNBOUND:                 0.368
REMARK SMILES Oc1cc(O)c2cc(O)c(-c3cc(O)c(O)c(O)c3)[o+]c2c1
REMARK SMILES IDX 10 1 20 2 21 3 22 4 2 5 3 6 4 7 6 8 7 9 8 10 11 11 12 12
REMARK SMILES IDX 13 13 19 14 15 15 17 16 14 17 16 19 18 21 9 23 1 25 5 27
REMARK H PARENT 14 18 16 20 18 22 9 24 1 26 5 28
REMARK Flexibility Score: inf
ROOT
ATOM      1  C   UNL     1       9.800  17.136  22.925  1.00  0.00     0.402 A 
ATOM      2  O   UNL     1      10.041  16.827  24.195  1.00  0.00    -0.202 OA
ATOM      3  C   UNL     1       9.794  17.653  25.207  1.00  0.00     0.368 A 
ATOM      4  C   UNL     1      10.080  17.236  26.511  1.00  0.00     0.162 A 
ATOM      5  C   UNL     1       9.826  18.080  27.592  1.00  0.00     0.128 A 
ATOM      6  C   UNL     1       9.283  19.351  27.372  1.00  0.00     0.093 A 
ATOM      7  C   UNL     1       8.987  19.791  26.076  1.00  0.00     0.136 A 
ATOM      8  C   UNL     1       9.245  18.937  24.974  1.00  0.00     0.125 A 
ATOM      9  C   UNL     1       8.993  19.298  23.640  1.00  0.00     0.078 A 
ATOM     10  C   UNL     1       9.279  18.404  22.605  1.00  0.00     0.223 A 
ENDROOT
BRANCH   1  11
ATOM     11  C   UNL     1      10.110  16.127  21.887  1.00  0.00     0.091 A 
ATOM     12  C   UNL     1       9.746  14.788  22.096  1.00  0.00     0.068 A 
ATOM     13  C   UNL     1      10.008  13.816  21.126  1.00  0.00     0.162 A 
ATOM     14  C   UNL     1      10.712  16.489  20.669  1.00  0.00     0.068 A 
ATOM     15  C   UNL     1      10.630  14.179  19.919  1.00  0.00     0.200 A 
ATOM     16  C   UNL     1      10.978  15.521  19.691  1.00  0.00     0.162 A 
BRANCH  13  17
ATOM     17  O   UNL     1       9.643  12.494  21.379  1.00  0.00    -0.504 OA
ATOM     18  H   UNL     1       9.688  11.776  20.665  1.00  0.00     0.293 HD
ENDBRANCH  13  17
BRANCH  15  19
ATOM     19  O   UNL     1      10.891  13.202  18.957  1.00  0.00    -0.502 OA
ATOM     20  H   UNL     1      10.736  12.217  19.133  1.00  0.00     0.293 HD
ENDBRANCH  15  19
BRANCH  16  21
ATOM     21  O   UNL     1      11.581  15.891  18.489  1.00  0.00    -0.504 OA
ATOM     22  H   UNL     1      11.360  16.768  18.031  1.00  0.00     0.293 HD
ENDBRANCH  16  21
ENDBRANCH   1  11
BRANCH  10  23
ATOM     23  O   UNL     1       9.075  18.781  21.277  1.00  0.00    -0.500 OA
ATOM     24  H   UNL     1       9.250  19.728  20.960  1.00  0.00     0.294 HD
ENDBRANCH  10  23
BRANCH   5  25
ATOM     25  O   UNL     1      10.119  17.647  28.883  1.00  0.00    -0.507 OA
ATOM     26  H   UNL     1       9.502  17.848  29.662  1.00  0.00     0.293 HD
ENDBRANCH   5  25
BRANCH   7  27
ATOM     27  O   UNL     1       8.442  21.071  25.941  1.00  0.00    -0.507 OA
ATOM     28  H   UNL     1       7.769  21.333  25.235  1.00  0.00     0.293 HD
ENDBRANCH   7  27
TORSDOF 7
ENDMDL
MODEL 3
REMARK VINA RESULT:    -6.746      1.693      7.363
REMARK INTER + INTRA:          -7.956
REMARK INTER:                  -7.789
REMARK INTRA:                  -0.167
REMARK UNBOUND:                 0.368
REMARK SMILES Oc1cc(O)c2cc(O)c(-c3cc(O)c(O)c(O)c3)[o+]c2c1
REMARK SMILES IDX 10 1 20 2 21 3 22 4 2 5 3 6 4 7 6 8 7 9 8 10 11 11 12 12
REMARK SMILES IDX 13 13 19 14 15 15 17 16 14 17 16 19 18 21 9 23 1 25 5 27
REMARK H PARENT 14 18 16 20 18 22 9 24 1 26 5 28
REMARK Flexibility Score: inf
ROOT
ATOM      1  C   UNL     1       9.644  12.977  23.760  1.00  0.00     0.402 A 
ATOM      2  O   UNL     1       9.118  14.137  24.142  1.00  0.00    -0.202 OA
ATOM      3  C   UNL     1       9.334  15.282  23.503  1.00  0.00     0.368 A 
ATOM      4  C   UNL     1       8.735  16.452  23.980  1.00  0.00     0.162 A 
ATOM      5  C   UNL     1       8.940  17.667  23.327  1.00  0.00     0.128 A 
ATOM      6  C   UNL     1       9.750  17.717  22.187  1.00  0.00     0.093 A 
ATOM      7  C   UNL     1      10.361  16.560  21.688  1.00  0.00     0.136 A 
ATOM      8  C   UNL     1      10.157  15.323  22.351  1.00  0.00     0.125 A 
ATOM      9  C   UNL     1      10.738  14.115  21.931  1.00  0.00     0.078 A 
ATOM     10  C   UNL     1      10.494  12.935  22.639  1.00  0.00     0.223 A 
ENDROOT
BRANCH   1  11
ATOM     11  C   UNL     1       9.321  11.767  24.550  1.00  0.00     0.091 A 
ATOM     12  C   UNL     1       9.533  11.772  25.936  1.00  0.00     0.068 A 
ATOM     13  C   UNL     1       9.220  10.651  26.712  1.00  0.00     0.162 A 
ATOM     14  C   UNL     1       8.752  10.631  23.950  1.00  0.00     0.068 A 
ATOM     15  C   UNL     1       8.671   9.509  26.104  1.00  0.00     0.200 A 
ATOM     16  C   UNL     1       8.433   9.503  24.719  1.00  0.00     0.162 A 
BRANCH  13  17
ATOM     17  O   UNL     1       9.460  10.692  28.085  1.00  0.00    -0.504 OA
ATOM     18  H   UNL     1      10.337  11.022  28.470  1.00  0.00     0.293 HD
ENDBRANCH  13  17
BRANCH  15  19
ATOM     19  O   UNL     1       8.363   8.394  26.884  1.00  0.00    -0.502 OA
ATOM     20  H   UNL     1       8.007   8.478  27.829  1.00  0.00     0.293 HD
ENDBRANCH  15  19
BRANCH  16  21
ATOM     21  O   UNL     1       7.875   8.379  24.112  1.00  0.00    -0.504 OA
ATOM     22  H   UNL     1       7.872   7.474  24.570  1.00  0.00     0.293 HD
ENDBRANCH  16  21
ENDBRANCH   1  11
BRANCH  10  23
ATOM     23  O   UNL     1      11.112  11.746  22.252  1.00  0.00    -0.500 OA
ATOM     24  H   UNL     1      12.043  11.735  21.852  1.00  0.00     0.294 HD
ENDBRANCH  10  23
BRANCH   5  25
ATOM     25  O   UNL     1       8.335  18.821  23.819  1.00  0.00    -0.507 OA
ATOM     26  H   UNL     1       8.272  19.003  24.815  1.00  0.00     0.293 HD
ENDBRANCH   5  25
BRANCH   7  27
ATOM     27  O   UNL     1      11.152  16.693  20.543  1.00  0.00    -0.507 OA
ATOM     28  H   UNL     1      11.651  15.933  20.104  1.00  0.00     0.293 HD
ENDBRANCH   7  27
TORSDOF 7
ENDMDL
MODEL 4
REMARK VINA RESULT:    -6.435      1.183      6.835
REMARK INTER + INTRA:          -7.572
REMARK INTER:                  -7.887
REMARK INTRA:                   0.314
REMARK UNBOUND:                 0.368
REMARK SMILES Oc1cc(O)c2cc(O)c(-c3cc(O)c(O)c(O)c3)[o+]c2c1
REMARK SMILES IDX 10 1 20 2 21 3 22 4 2 5 3 6 4 7 6 8 7 9 8 10 11 11 12 12
REMARK SMILES IDX 13 13 19 14 15 15 17 16 14 17 16 19 18 21 9 23 1 25 5 27
REMARK H PARENT 14 18 16 20 18 22 9 24 1 26 5 28
REMARK Flexibility Score: inf
ROOT
ATOM      1  C   UNL     1       9.621  13.199  24.087  1.00  0.00     0.402 A 
ATOM      2  O   UNL     1       9.980  13.231  22.807  1.00  0.00    -0.202 OA
ATOM      3  C   UNL     1      10.216  14.357  22.143  1.00  0.00     0.368 A 
ATOM      4  C   UNL     1      10.591  14.288  20.797  1.00  0.00     0.162 A 
ATOM      5  C   UNL     1      10.849  15.454  20.077  1.00  0.00     0.128 A 
ATOM      6  C   UNL     1      10.731  16.701  20.703  1.00  0.00     0.093 A 
ATOM      7  C   UNL     1      10.358  16.797  22.049  1.00  0.00     0.136 A 
ATOM      8  C   UNL     1      10.093  15.613  22.785  1.00  0.00     0.125 A 
ATOM      9  C   UNL     1       9.701  15.613  24.134  1.00  0.00     0.078 A 
ATOM     10  C   UNL     1       9.452  14.405  24.791  1.00  0.00     0.223 A 
ENDROOT
BRANCH   1  11
ATOM     11  C   UNL     1       9.396  11.879  24.719  1.00  0.00     0.091 A 
ATOM     12  C   UNL     1       9.304  10.735  23.913  1.00  0.00     0.068 A 
ATOM     13  C   UNL     1       9.111   9.472  24.483  1.00  0.00     0.162 A 
ATOM     14  C   UNL     1       9.329  11.738  26.116  1.00  0.00     0.068 A 
ATOM     15  C   UNL     1       9.023   9.339  25.879  1.00  0.00     0.200 A 
ATOM     16  C   UNL     1       9.137  10.476  26.696  1.00  0.00     0.162 A 
BRANCH  13  17
ATOM     17  O   UNL     1       9.011   8.362  23.645  1.00  0.00    -0.504 OA
ATOM     18  H   UNL     1       9.280   7.433  23.946  1.00  0.00     0.293 HD
ENDBRANCH  13  17
BRANCH  15  19
ATOM     19  O   UNL     1       8.827   8.076  26.439  1.00  0.00    -0.502 OA
ATOM     20  H   UNL     1       7.964   7.560  26.320  1.00  0.00     0.293 HD
ENDBRANCH  15  19
BRANCH  16  21
ATOM     21  O   UNL     1       9.064  10.349  28.083  1.00  0.00    -0.504 OA
ATOM     22  H   UNL     1       9.889  10.167  28.643  1.00  0.00     0.293 HD
ENDBRANCH  16  21
ENDBRANCH   1  11
BRANCH  10  23
ATOM     23  O   UNL     1       9.014  14.407  26.116  1.00  0.00    -0.500 OA
ATOM     24  H   UNL     1       8.437  15.155  26.485  1.00  0.00     0.294 HD
ENDBRANCH  10  23
BRANCH   5  25
ATOM     25  O   UNL     1      11.220  15.365  18.737  1.00  0.00    -0.507 OA
ATOM     26  H   UNL     1      11.747  14.574  18.385  1.00  0.00     0.293 HD
ENDBRANCH   5  25
BRANCH   7  27
ATOM     27  O   UNL     1      10.267  18.077  22.602  1.00  0.00    -0.507 OA
ATOM     28  H   UNL     1      10.910  18.830  22.403  1.00  0.00     0.293 HD
ENDBRANCH   7  27
TORSDOF 7
ENDMDL
MODEL 5
REMARK VINA RESULT:    -6.190      1.823      3.560
REMARK INTER + INTRA:          -7.270
REMARK INTER:                  -7.491
REMARK INTRA:                   0.221
REMARK UNBOUND:                 0.368
REMARK SMILES Oc1cc(O)c2cc(O)c(-c3cc(O)c(O)c(O)c3)[o+]c2c1
REMARK SMILES IDX 10 1 20 2 21 3 22 4 2 5 3 6 4 7 6 8 7 9 8 10 11 11 12 12
REMARK SMILES IDX 13 13 19 14 15 15 17 16 14 17 16 19 18 21 9 23 1 25 5 27
REMARK H PARENT 14 18 16 20 18 22 9 24 1 26 5 28
REMARK Flexibility Score: inf
ROOT
ATOM      1  C   UNL     1       9.455  13.019  24.306  1.00  0.00     0.402 A 
ATOM      2  O   UNL     1       9.052  12.800  25.554  1.00  0.00    -0.202 OA
ATOM      3  C   UNL     1       8.896  11.585  26.068  1.00  0.00     0.368 A 
ATOM      4  C   UNL     1       8.469  11.455  27.393  1.00  0.00     0.162 A 
ATOM      5  C   UNL     1       8.302  10.192  27.960  1.00  0.00     0.128 A 
ATOM      6  C   UNL     1       8.560   9.047  27.199  1.00  0.00     0.093 A 
ATOM      7  C   UNL     1       8.989   9.149  25.869  1.00  0.00     0.136 A 
ATOM      8  C   UNL     1       9.159  10.432  25.289  1.00  0.00     0.125 A 
ATOM      9  C   UNL     1       9.572  10.631  23.961  1.00  0.00     0.078 A 
ATOM     10  C   UNL     1       9.712  11.927  23.457  1.00  0.00     0.223 A 
ENDROOT
BRANCH   1  11
ATOM     11  C   UNL     1       9.600  14.421  23.852  1.00  0.00     0.091 A 
ATOM     12  C   UNL     1       9.985  15.408  24.773  1.00  0.00     0.068 A 
ATOM     13  C   UNL     1      10.149  16.737  24.370  1.00  0.00     0.162 A 
ATOM     14  C   UNL     1       9.415  14.778  22.506  1.00  0.00     0.068 A 
ATOM     15  C   UNL     1       9.942  17.093  23.026  1.00  0.00     0.200 A 
ATOM     16  C   UNL     1       9.578  16.108  22.092  1.00  0.00     0.162 A 
BRANCH  13  17
ATOM     17  O   UNL     1      10.518  17.689  25.319  1.00  0.00    -0.504 OA
ATOM     18  H   UNL     1      11.475  18.009  25.419  1.00  0.00     0.293 HD
ENDBRANCH  13  17
BRANCH  15  19
ATOM     19  O   UNL     1      10.105  18.422  22.633  1.00  0.00    -0.502 OA
ATOM     20  H   UNL     1       9.408  18.912  22.085  1.00  0.00     0.293 HD
ENDBRANCH  15  19
BRANCH  16  21
ATOM     21  O   UNL     1       9.386  16.452  20.755  1.00  0.00    -0.504 OA
ATOM     22  H   UNL     1       8.794  17.230  20.486  1.00  0.00     0.293 HD
ENDBRANCH  16  21
ENDBRANCH   1  11
BRANCH  10  23
ATOM     23  O   UNL     1      10.073  12.124  22.124  1.00  0.00    -0.500 OA
ATOM     24  H   UNL     1      10.777  11.551  21.673  1.00  0.00     0.294 HD
ENDBRANCH  10  23
BRANCH   5  25
ATOM     25  O   UNL     1       7.875  10.085  29.282  1.00  0.00    -0.507 OA
ATOM     26  H   UNL     1       7.801  10.898  29.883  1.00  0.00     0.293 HD
ENDBRANCH   5  25
BRANCH   7  27
ATOM     27  O   UNL     1       9.230   7.958  25.178  1.00  0.00    -0.507 OA
ATOM     28  H   UNL     1       8.715   7.658  24.364  1.00  0.00     0.293 HD
ENDBRANCH   7  27
TORSDOF 7
ENDMDL
MODEL 6
REMARK VINA RESULT:    -6.135      3.568      7.056
REMARK INTER + INTRA:          -7.202
REMARK INTER:                  -7.438
REMARK INTRA:                   0.236
REMARK UNBOUND:                 0.368
REMARK SMILES Oc1cc(O)c2cc(O)c(-c3cc(O)c(O)c(O)c3)[o+]c2c1
REMARK SMILES IDX 10 1 20 2 21 3 22 4 2 5 3 6 4 7 6 8 7 9 8 10 11 11 12 12
REMARK SMILES IDX 13 13 19 14 15 15 17 16 14 17 16 19 18 21 9 23 1 25 5 27
REMARK H PARENT 14 18 16 20 18 22 9 24 1 26 5 28
REMARK Flexibility Score: inf
ROOT
ATOM      1  C   UNL     1       9.982  16.306  24.205  1.00  0.00     0.402 A 
ATOM      2  O   UNL     1      10.416  16.634  22.991  1.00  0.00    -0.202 OA
ATOM      3  C   UNL     1      10.436  15.785  21.970  1.00  0.00     0.368 A 
ATOM      4  C   UNL     1      10.909  16.223  20.729  1.00  0.00     0.162 A 
ATOM      5  C   UNL     1      10.937  15.355  19.638  1.00  0.00     0.128 A 
ATOM      6  C   UNL     1      10.491  14.037  19.785  1.00  0.00     0.093 A 
ATOM      7  C   UNL     1      10.012  13.573  21.016  1.00  0.00     0.136 A 
ATOM      8  C   UNL     1       9.984  14.453  22.129  1.00  0.00     0.125 A 
ATOM      9  C   UNL     1       9.533  14.072  23.403  1.00  0.00     0.078 A 
ATOM     10  C   UNL     1       9.539  14.994  24.454  1.00  0.00     0.223 A 
ENDROOT
BRANCH   1  11
ATOM     11  C   UNL     1      10.000  17.345  25.260  1.00  0.00     0.091 A 
ATOM     12  C   UNL     1       9.832  18.692  24.905  1.00  0.00     0.068 A 
ATOM     13  C   UNL     1       9.826  19.693  25.881  1.00  0.00     0.162 A 
ATOM     14  C   UNL     1      10.127  17.008  26.618  1.00  0.00     0.068 A 
ATOM     15  C   UNL     1       9.974  19.353  27.236  1.00  0.00     0.200 A 
ATOM     16  C   UNL     1      10.120  18.004  27.604  1.00  0.00     0.162 A 
BRANCH  13  17
ATOM     17  O   UNL     1       9.670  21.021  25.484  1.00  0.00    -0.504 OA
ATOM     18  H   UNL     1      10.451  21.585  25.168  1.00  0.00     0.293 HD
ENDBRANCH  13  17
BRANCH  15  19
ATOM     19  O   UNL     1       9.969  20.358  28.204  1.00  0.00    -0.502 OA
ATOM     20  H   UNL     1       9.167  20.959  28.353  1.00  0.00     0.293 HD
ENDBRANCH  15  19
BRANCH  16  21
ATOM     21  O   UNL     1      10.253  17.658  28.948  1.00  0.00    -0.504 OA
ATOM     22  H   UNL     1      10.719  16.804  29.233  1.00  0.00     0.293 HD
ENDBRANCH  16  21
ENDBRANCH   1  11
BRANCH  10  23
ATOM     23  O   UNL     1       9.139  14.602  25.731  1.00  0.00    -0.500 OA
ATOM     24  H   UNL     1       8.420  13.902  25.873  1.00  0.00     0.294 HD
ENDBRANCH  10  23
BRANCH   5  25
ATOM     25  O   UNL     1      11.413  15.811  18.411  1.00  0.00    -0.507 OA
ATOM     26  H   UNL     1      11.857  16.718  18.318  1.00  0.00     0.293 HD
ENDBRANCH   5  25
BRANCH   7  27
ATOM     27  O   UNL     1       9.580  12.245  21.080  1.00  0.00    -0.507 OA
ATOM     28  H   UNL     1      10.194  11.450  21.180  1.00  0.00     0.293 HD
ENDBRANCH   7  27
TORSDOF 7
ENDMDL
MODEL 7
REMARK VINA RESULT:    -5.923     15.133     16.311
REMARK INTER + INTRA:          -6.940
REMARK INTER:                  -6.732
REMARK INTRA:                  -0.208
REMARK UNBOUND:                 0.368
REMARK SMILES Oc1cc(O)c2cc(O)c(-c3cc(O)c(O)c(O)c3)[o+]c2c1
REMARK SMILES IDX 10 1 20 2 21 3 22 4 2 5 3 6 4 7 6 8 7 9 8 10 11 11 12 12
REMARK SMILES IDX 13 13 19 14 15 15 17 16 14 17 16 19 18 21 9 23 1 25 5 27
REMARK H PARENT 14 18 16 20 18 22 9 24 1 26 5 28
REMARK Flexibility Score: inf
ROOT
ATOM      1  C   UNL     1      23.699   7.721  28.972  1.00  0.00     0.402 A 
ATOM      2  O   UNL     1      22.996   6.931  29.777  1.00  0.00    -0.202 OA
ATOM      3  C   UNL     1      22.949   5.609  29.644  1.00  0.00     0.368 A 
ATOM      4  C   UNL     1      22.182   4.861  30.543  1.00  0.00     0.162 A 
ATOM      5  C   UNL     1      22.118   3.473  30.430  1.00  0.00     0.128 A 
ATOM      6  C   UNL     1      22.824   2.823  29.410  1.00  0.00     0.093 A 
ATOM      7  C   UNL     1      23.599   3.549  28.497  1.00  0.00     0.136 A 
ATOM      8  C   UNL     1      23.665   4.962  28.608  1.00  0.00     0.125 A 
ATOM      9  C   UNL     1      24.406   5.772  27.732  1.00  0.00     0.078 A 
ATOM     10  C   UNL     1      24.419   7.159  27.901  1.00  0.00     0.223 A 
ENDROOT
BRANCH   1  11
ATOM     11  C   UNL     1      23.680   9.179  29.229  1.00  0.00     0.091 A 
ATOM     12  C   UNL     1      23.092  10.038  28.289  1.00  0.00     0.068 A 
ATOM     13  C   UNL     1      23.041  11.417  28.513  1.00  0.00     0.162 A 
ATOM     14  C   UNL     1      24.188   9.719  30.423  1.00  0.00     0.068 A 
ATOM     15  C   UNL     1      23.570  11.955  29.699  1.00  0.00     0.200 A 
ATOM     16  C   UNL     1      24.141  11.100  30.658  1.00  0.00     0.162 A 
BRANCH  13  17
ATOM     17  O   UNL     1      22.461  12.238  27.547  1.00  0.00    -0.504 OA
ATOM     18  H   UNL     1      21.502  12.560  27.617  1.00  0.00     0.293 HD
ENDBRANCH  13  17
BRANCH  15  19
ATOM     19  O   UNL     1      23.518  13.333  29.914  1.00  0.00    -0.502 OA
ATOM     20  H   UNL     1      23.930  13.996  29.269  1.00  0.00     0.293 HD
ENDBRANCH  15  19
BRANCH  16  21
ATOM     21  O   UNL     1      24.654  11.625  31.843  1.00  0.00    -0.504 OA
ATOM     22  H   UNL     1      24.134  12.300  32.394  1.00  0.00     0.293 HD
ENDBRANCH  16  21
ENDBRANCH   1  11
BRANCH  10  23
ATOM     23  O   UNL     1      25.113   7.968  27.001  1.00  0.00    -0.500 OA
ATOM     24  H   UNL     1      24.695   8.279  26.132  1.00  0.00     0.294 HD
ENDBRANCH  10  23
BRANCH   5  25
ATOM     25  O   UNL     1      21.348   2.746  31.334  1.00  0.00    -0.507 OA
ATOM     26  H   UNL     1      20.376   2.977  31.508  1.00  0.00     0.293 HD
ENDBRANCH   5  25
BRANCH   7  27
ATOM     27  O   UNL     1      24.277   2.827  27.511  1.00  0.00    -0.507 OA
ATOM     28  H   UNL     1      24.441   3.159  26.573  1.00  0.00     0.293 HD
ENDBRANCH   7  27
TORSDOF 7
ENDMDL
MODEL 8
REMARK VINA RESULT:    -5.880      3.448      7.579
REMARK INTER + INTRA:          -6.888
REMARK INTER:                  -6.932
REMARK INTRA:                   0.044
REMARK UNBOUND:                 0.368
REMARK SMILES Oc1cc(O)c2cc(O)c(-c3cc(O)c(O)c(O)c3)[o+]c2c1
REMARK SMILES IDX 10 1 20 2 21 3 22 4 2 5 3 6 4 7 6 8 7 9 8 10 11 11 12 12
REMARK SMILES IDX 13 13 19 14 15 15 17 16 14 17 16 19 18 21 9 23 1 25 5 27
REMARK H PARENT 14 18 16 20 18 22 9 24 1 26 5 28
REMARK Flexibility Score: inf
ROOT
ATOM      1  C   UNL     1       9.766  16.177  23.452  1.00  0.00     0.402 A 
ATOM      2  O   UNL     1       9.966  16.956  24.511  1.00  0.00    -0.202 OA
ATOM      3  C   UNL     1       9.898  18.283  24.464  1.00  0.00     0.368 A 
ATOM      4  C   UNL     1      10.121  19.017  25.633  1.00  0.00     0.162 A 
ATOM      5  C   UNL     1      10.052  20.410  25.615  1.00  0.00     0.128 A 
ATOM      6  C   UNL     1       9.757  21.077  24.420  1.00  0.00     0.093 A 
ATOM      7  C   UNL     1       9.528  20.365  23.236  1.00  0.00     0.136 A 
ATOM      8  C   UNL     1       9.600  18.948  23.251  1.00  0.00     0.125 A 
ATOM      9  C   UNL     1       9.398  18.153  22.111  1.00  0.00     0.078 A 
ATOM     10  C   UNL     1       9.491  16.761  22.201  1.00  0.00     0.223 A 
ENDROOT
BRANCH   1  11
ATOM     11  C   UNL     1       9.860  14.710  23.633  1.00  0.00     0.091 A 
ATOM     12  C   UNL     1       9.217  14.108  24.725  1.00  0.00     0.068 A 
ATOM     13  C   UNL     1       9.272  12.723  24.911  1.00  0.00     0.162 A 
ATOM     14  C   UNL     1      10.533  13.899  22.703  1.00  0.00     0.068 A 
ATOM     15  C   UNL     1       9.965  11.918  23.991  1.00  0.00     0.200 A 
ATOM     16  C   UNL     1      10.592  12.510  22.881  1.00  0.00     0.162 A 
BRANCH  13  17
ATOM     17  O   UNL     1       8.632  12.165  26.017  1.00  0.00    -0.504 OA
ATOM     18  H   UNL     1       7.749  11.673  25.939  1.00  0.00     0.293 HD
ENDBRANCH  13  17
BRANCH  15  19
ATOM     19  O   UNL     1      10.017  10.537  24.186  1.00  0.00    -0.502 OA
ATOM     20  H   UNL     1      10.246   9.895  23.437  1.00  0.00     0.293 HD
ENDBRANCH  15  19
BRANCH  16  21
ATOM     21  O   UNL     1      11.268  11.716  21.956  1.00  0.00    -0.504 OA
ATOM     22  H   UNL     1      12.161  11.996  21.567  1.00  0.00     0.293 HD
ENDBRANCH  16  21
ENDBRANCH   1  11
BRANCH  10  23
ATOM     23  O   UNL     1       9.340  15.974  21.060  1.00  0.00    -0.500 OA
ATOM     24  H   UNL     1       9.979  16.044  20.276  1.00  0.00     0.294 HD
ENDBRANCH  10  23
BRANCH   5  25
ATOM     25  O   UNL     1      10.279  21.123  26.789  1.00  0.00    -0.507 OA
ATOM     26  H   UNL     1      10.243  22.136  26.809  1.00  0.00     0.293 HD
ENDBRANCH   5  25
BRANCH   7  27
ATOM     27  O   UNL     1       9.235  21.105  22.087  1.00  0.00    -0.507 OA
ATOM     28  H   UNL     1       9.720  21.006  21.207  1.00  0.00     0.293 HD
ENDBRANCH   7  27
TORSDOF 7
ENDMDL
MODEL 9
REMARK VINA RESULT:    -5.787      2.059      3.620
REMARK INTER + INTRA:          -6.772
REMARK INTER:                  -6.917
REMARK INTRA:                   0.144
REMARK UNBOUND:                 0.368
REMARK SMILES Oc1cc(O)c2cc(O)c(-c3cc(O)c(O)c(O)c3)[o+]c2c1
REMARK SMILES IDX 10 1 20 2 21 3 22 4 2 5 3 6 4 7 6 8 7 9 8 10 11 11 12 12
REMARK SMILES IDX 13 13 19 14 15 15 17 16 14 17 16 19 18 21 9 23 1 25 5 27
REMARK H PARENT 14 18 16 20 18 22 9 24 1 26 5 28
REMARK Flexibility Score: inf
ROOT
ATOM      1  C   UNL     1       9.779  14.029  23.862  1.00  0.00     0.402 A 
ATOM      2  O   UNL     1       9.253  13.528  24.976  1.00  0.00    -0.202 OA
ATOM      3  C   UNL     1       9.136  12.224  25.204  1.00  0.00     0.368 A 
ATOM      4  C   UNL     1       8.572  11.792  26.408  1.00  0.00     0.162 A 
ATOM      5  C   UNL     1       8.441  10.430  26.678  1.00  0.00     0.128 A 
ATOM      6  C   UNL     1       8.877   9.489  25.737  1.00  0.00     0.093 A 
ATOM      7  C   UNL     1       9.447   9.895  24.524  1.00  0.00     0.136 A 
ATOM      8  C   UNL     1       9.579  11.280  24.247  1.00  0.00     0.125 A 
ATOM      9  C   UNL     1      10.126  11.780  23.053  1.00  0.00     0.078 A 
ATOM     10  C   UNL     1      10.219  13.159  22.848  1.00  0.00     0.223 A 
ENDROOT
BRANCH   1  11
ATOM     11  C   UNL     1       9.862  15.502  23.728  1.00  0.00     0.091 A 
ATOM     12  C   UNL     1       9.590  16.098  22.488  1.00  0.00     0.068 A 
ATOM     13  C   UNL     1       9.642  17.487  22.336  1.00  0.00     0.162 A 
ATOM     14  C   UNL     1      10.153  16.322  24.831  1.00  0.00     0.068 A 
ATOM     15  C   UNL     1       9.955  18.302  23.437  1.00  0.00     0.200 A 
ATOM     16  C   UNL     1      10.207  17.715  24.689  1.00  0.00     0.162 A 
BRANCH  13  17
ATOM     17  O   UNL     1       9.379  18.040  21.083  1.00  0.00    -0.504 OA
ATOM     18  H   UNL     1       8.622  17.709  20.495  1.00  0.00     0.293 HD
ENDBRANCH  13  17
BRANCH  15  19
ATOM     19  O   UNL     1      10.008  19.687  23.276  1.00  0.00    -0.502 OA
ATOM     20  H   UNL     1       9.594  20.154  22.478  1.00  0.00     0.293 HD
ENDBRANCH  15  19
BRANCH  16  21
ATOM     21  O   UNL     1      10.503  18.519  25.789  1.00  0.00    -0.504 OA
ATOM     22  H   UNL     1      11.067  19.357  25.699  1.00  0.00     0.293 HD
ENDBRANCH  16  21
ENDBRANCH   1  11
BRANCH  10  23
ATOM     23  O   UNL     1      10.715  13.655  21.642  1.00  0.00    -0.500 OA
ATOM     24  H   UNL     1      11.626  14.095  21.581  1.00  0.00     0.294 HD
ENDBRANCH  10  23
BRANCH   5  25
ATOM     25  O   UNL     1       7.875  10.020  27.883  1.00  0.00    -0.507 OA
ATOM     26  H   UNL     1       8.361  10.139  28.764  1.00  0.00     0.293 HD
ENDBRANCH   5  25
BRANCH   7  27
ATOM     27  O   UNL     1       9.861   8.894  23.641  1.00  0.00    -0.507 OA
ATOM     28  H   UNL     1      10.788   8.830  23.247  1.00  0.00     0.293 HD
ENDBRANCH   7  27
TORSDOF 7
ENDMDL
