MODEL 1
REMARK VINA RESULT:    -3.054      0.000      0.000
REMARK INTER + INTRA:          -6.500
REMARK INTER:                  -5.197
REMARK INTRA:                  -1.303
REMARK UNBOUND:                -1.303
REMARK SMILES CCCCCCCCCCCCCC(=O)[O-]
REMARK SMILES IDX 8 1 9 2 10 3 11 4 12 5 13 6 14 7 15 8 16 9 7 10 6 11 5 12
REMARK SMILES IDX 4 13 3 14 2 15 1 16
REMARK H PARENT
REMARK Flexibility Score: inf
ROOT
ATOM      1  C   UNL     1      10.650  31.715 -10.334  1.00  0.00     0.000 C 
ENDROOT
BRANCH   1   2
ATOM      2  C   UNL     1      11.414  32.859 -11.022  1.00  0.00     0.000 C 
BRANCH   2   3
ATOM      3  C   UNL     1      12.932  32.627 -11.046  1.00  0.00     0.000 C 
BRANCH   3   4
ATOM      4  C   UNL     1      13.390  31.603  -9.996  1.00  0.00     0.000 C 
BRANCH   4   5
ATOM      5  C   UNL     1      13.925  32.304  -8.742  1.00  0.00     0.006 C 
BRANCH   5   6
ATOM      6  C   UNL     1      15.375  31.901  -8.463  1.00  0.00     0.053 C 
BRANCH   6   7
ATOM      7  C   UNL     1      16.290  32.496  -9.485  1.00  0.00     0.041 C 
ATOM      8  O   UNL     1      16.872  31.757 -10.323  1.00  0.00    -0.550 OA
ATOM      9  O   UNL     1      16.466  33.872  -9.543  1.00  0.00    -0.550 OA
ENDBRANCH   6   7
ENDBRANCH   5   6
ENDBRANCH   4   5
ENDBRANCH   3   4
ENDBRANCH   2   3
ENDBRANCH   1   2
BRANCH   1  10
ATOM     10  C   UNL     1       9.687  32.221  -9.237  1.00  0.00     0.000 C 
BRANCH  10  11
ATOM     11  C   UNL     1       8.945  31.093  -8.494  1.00  0.00    -0.000 C 
BRANCH  11  12
ATOM     12  C   UNL     1       8.876  29.754  -9.250  1.00  0.00    -0.000 C 
BRANCH  12  13
ATOM     13  C   UNL     1       9.280  28.518  -8.423  1.00  0.00    -0.000 C 
BRANCH  13  14
ATOM     14  C   UNL     1      10.462  28.734  -7.455  1.00  0.00    -0.000 C 
BRANCH  14  15
ATOM     15  C   UNL     1      11.836  28.875  -8.131  1.00  0.00    -0.003 C 
ATOM     16  C   UNL     1      11.868  28.291  -9.542  1.00  0.00     0.004 C 
ENDBRANCH  14  15
ENDBRANCH  13  14
ENDBRANCH  12  13
ENDBRANCH  11  12
ENDBRANCH  10  11
ENDBRANCH   1  10
TORSDOF 12
ENDMDL
MODEL 2
REMARK VINA RESULT:    -2.910      1.350      2.219
REMARK INTER + INTRA:          -6.255
REMARK INTER:                  -5.193
REMARK INTRA:                  -1.061
REMARK UNBOUND:                -1.303
REMARK SMILES CCCCCCCCCCCCCC(=O)[O-]
REMARK SMILES IDX 8 1 9 2 10 3 11 4 12 5 13 6 14 7 15 8 16 9 7 10 6 11 5 12
REMARK SMILES IDX 4 13 3 14 2 15 1 16
REMARK H PARENT
REMARK Flexibility Score: inf
ROOT
ATOM      1  C   UNL     1      12.585  31.394 -10.072  1.00  0.00     0.000 C 
ENDROOT
BRANCH   1   2
ATOM      2  C   UNL     1      13.574  32.181 -10.949  1.00  0.00     0.000 C 
BRANCH   2   3
ATOM      3  C   UNL     1      13.169  33.652 -11.125  1.00  0.00     0.000 C 
BRANCH   3   4
ATOM      4  C   UNL     1      14.377  34.602 -11.121  1.00  0.00     0.000 C 
BRANCH   4   5
ATOM      5  C   UNL     1      15.693  33.817 -11.088  1.00  0.00     0.006 C 
BRANCH   5   6
ATOM      6  C   UNL     1      16.401  33.988  -9.741  1.00  0.00     0.053 C 
BRANCH   6   7
ATOM      7  C   UNL     1      16.117  32.823  -8.847  1.00  0.00     0.041 C 
ATOM      8  O   UNL     1      15.179  32.880  -8.009  1.00  0.00    -0.550 OA
ATOM      9  O   UNL     1      16.860  31.656  -8.970  1.00  0.00    -0.550 OA
ENDBRANCH   6   7
ENDBRANCH   5   6
ENDBRANCH   4   5
ENDBRANCH   3   4
ENDBRANCH   2   3
ENDBRANCH   1   2
BRANCH   1  10
ATOM     10  C   UNL     1      11.170  32.012 -10.075  1.00  0.00     0.000 C 
BRANCH  10  11
ATOM     11  C   UNL     1      10.202  31.344 -11.070  1.00  0.00    -0.000 C 
BRANCH  11  12
ATOM     12  C   UNL     1       9.128  30.448 -10.428  1.00  0.00    -0.000 C 
BRANCH  12  13
ATOM     13  C   UNL     1       9.565  28.992 -10.168  1.00  0.00    -0.000 C 
BRANCH  13  14
ATOM     14  C   UNL     1       9.479  28.534  -8.698  1.00  0.00    -0.000 C 
BRANCH  14  15
ATOM     15  C   UNL     1      10.474  29.219  -7.747  1.00  0.00    -0.003 C 
ATOM     16  C   UNL     1      11.903  28.701  -7.905  1.00  0.00     0.004 C 
ENDBRANCH  14  15
ENDBRANCH  13  14
ENDBRANCH  12  13
ENDBRANCH  11  12
ENDBRANCH  10  11
ENDBRANCH   1  10
TORSDOF 12
ENDMDL
MODEL 3
REMARK VINA RESULT:    -2.885      2.799      5.997
REMARK INTER + INTRA:          -6.212
REMARK INTER:                  -5.134
REMARK INTRA:                  -1.077
REMARK UNBOUND:                -1.303
REMARK SMILES CCCCCCCCCCCCCC(=O)[O-]
REMARK SMILES IDX 8 1 9 2 10 3 11 4 12 5 13 6 14 7 15 8 16 9 7 10 6 11 5 12
REMARK SMILES IDX 4 13 3 14 2 15 1 16
REMARK H PARENT
REMARK Flexibility Score: inf
ROOT
ATOM      1  C   UNL     1      12.483  31.065 -10.987  1.00  0.00     0.000 C 
ENDROOT
BRANCH   1   2
ATOM      2  C   UNL     1      10.950  31.074 -11.122  1.00  0.00     0.000 C 
BRANCH   2   3
ATOM      3  C   UNL     1      10.288  32.175 -10.281  1.00  0.00     0.000 C 
BRANCH   3   4
ATOM      4  C   UNL     1       8.967  31.718  -9.643  1.00  0.00     0.000 C 
BRANCH   4   5
ATOM      5  C   UNL     1       9.221  30.957  -8.336  1.00  0.00     0.006 C 
BRANCH   5   6
ATOM      6  C   UNL     1       9.065  29.448  -8.540  1.00  0.00     0.053 C 
BRANCH   6   7
ATOM      7  C   UNL     1      10.371  28.752  -8.325  1.00  0.00     0.041 C 
ATOM      8  O   UNL     1      10.831  27.979  -9.206  1.00  0.00    -0.550 OA
ATOM      9  O   UNL     1      11.105  28.992  -7.170  1.00  0.00    -0.550 OA
ENDBRANCH   6   7
ENDBRANCH   5   6
ENDBRANCH   4   5
ENDBRANCH   3   4
ENDBRANCH   2   3
ENDBRANCH   1   2
BRANCH   1  10
ATOM     10  C   UNL     1      12.947  30.942  -9.520  1.00  0.00     0.000 C 
BRANCH  10  11
ATOM     11  C   UNL     1      13.670  32.196  -8.990  1.00  0.00    -0.000 C 
BRANCH  11  12
ATOM     12  C   UNL     1      14.999  31.920  -8.264  1.00  0.00    -0.000 C 
BRANCH  12  13
ATOM     13  C   UNL     1      16.262  32.094  -9.130  1.00  0.00    -0.000 C 
BRANCH  13  14
ATOM     14  C   UNL     1      15.999  32.393 -10.620  1.00  0.00    -0.000 C 
BRANCH  14  15
ATOM     15  C   UNL     1      15.970  33.887 -10.986  1.00  0.00    -0.003 C 
ATOM     16  C   UNL     1      16.524  34.782  -9.880  1.00  0.00     0.004 C 
ENDBRANCH  14  15
ENDBRANCH  13  14
ENDBRANCH  12  13
ENDBRANCH  11  12
ENDBRANCH  10  11
ENDBRANCH   1  10
TORSDOF 12
ENDMDL
MODEL 4
REMARK VINA RESULT:    -2.439     19.155     20.556
REMARK INTER + INTRA:          -5.454
REMARK INTER:                  -5.030
REMARK INTRA:                  -0.424
REMARK UNBOUND:                -1.303
REMARK SMILES CCCCCCCCCCCCCC(=O)[O-]
REMARK SMILES IDX 8 1 9 2 10 3 11 4 12 5 13 6 14 7 15 8 16 9 7 10 6 11 5 12
REMARK SMILES IDX 4 13 3 14 2 15 1 16
REMARK H PARENT
REMARK Flexibility Score: inf
ROOT
ATOM      1  C   UNL     1      27.433  24.951  -0.079  1.00  0.00     0.000 C 
ENDROOT
BRANCH   1   2
ATOM      2  C   UNL     1      28.141  25.895   0.908  1.00  0.00     0.000 C 
BRANCH   2   3
ATOM      3  C   UNL     1      28.012  25.432   2.367  1.00  0.00     0.000 C 
BRANCH   3   4
ATOM      4  C   UNL     1      29.121  25.999   3.268  1.00  0.00     0.000 C 
BRANCH   4   5
ATOM      5  C   UNL     1      29.125  27.531   3.235  1.00  0.00     0.006 C 
BRANCH   5   6
ATOM      6  C   UNL     1      28.853  28.111   4.625  1.00  0.00     0.053 C 
BRANCH   6   7
ATOM      7  C   UNL     1      28.666  29.592   4.549  1.00  0.00     0.041 C 
ATOM      8  O   UNL     1      28.279  30.129   3.476  1.00  0.00    -0.550 OA
ATOM      9  O   UNL     1      28.873  30.379   5.674  1.00  0.00    -0.550 OA
ENDBRANCH   6   7
ENDBRANCH   5   6
ENDBRANCH   4   5
ENDBRANCH   3   4
ENDBRANCH   2   3
ENDBRANCH   1   2
BRANCH   1  10
ATOM     10  C   UNL     1      28.247  24.727  -1.372  1.00  0.00     0.000 C 
BRANCH  10  11
ATOM     11  C   UNL     1      27.888  23.426  -2.115  1.00  0.00    -0.000 C 
BRANCH  11  12
ATOM     12  C   UNL     1      28.808  23.081  -3.300  1.00  0.00    -0.000 C 
BRANCH  12  13
ATOM     13  C   UNL     1      28.905  21.580  -3.634  1.00  0.00    -0.000 C 
BRANCH  13  14
ATOM     14  C   UNL     1      29.008  20.643  -2.413  1.00  0.00    -0.000 C 
BRANCH  14  15
ATOM     15  C   UNL     1      27.891  19.591  -2.308  1.00  0.00    -0.003 C 
ATOM     16  C   UNL     1      28.259  18.420  -1.398  1.00  0.00     0.004 C 
ENDBRANCH  14  15
ENDBRANCH  13  14
ENDBRANCH  12  13
ENDBRANCH  11  12
ENDBRANCH  10  11
ENDBRANCH   1  10
TORSDOF 12
ENDMDL
MODEL 5
REMARK VINA RESULT:    -2.409     18.786     20.816
REMARK INTER + INTRA:          -5.402
REMARK INTER:                  -4.873
REMARK INTRA:                  -0.528
REMARK UNBOUND:                -1.303
REMARK SMILES CCCCCCCCCCCCCC(=O)[O-]
REMARK SMILES IDX 8 1 9 2 10 3 11 4 12 5 13 6 14 7 15 8 16 9 7 10 6 11 5 12
REMARK SMILES IDX 4 13 3 14 2 15 1 16
REMARK H PARENT
REMARK Flexibility Score: inf
ROOT
ATOM      1  C   UNL     1      26.944  24.749  -1.053  1.00  0.00     0.000 C 
ENDROOT
BRANCH   1   2
ATOM      2  C   UNL     1      28.279  24.801  -1.816  1.00  0.00     0.000 C 
BRANCH   2   3
ATOM      3  C   UNL     1      28.753  23.414  -2.277  1.00  0.00     0.000 C 
BRANCH   3   4
ATOM      4  C   UNL     1      27.586  22.463  -2.584  1.00  0.00     0.000 C 
BRANCH   4   5
ATOM      5  C   UNL     1      28.095  21.142  -3.173  1.00  0.00     0.006 C 
BRANCH   5   6
ATOM      6  C   UNL     1      28.998  20.410  -2.177  1.00  0.00     0.053 C 
BRANCH   6   7
ATOM      7  C   UNL     1      28.747  18.936  -2.227  1.00  0.00     0.041 C 
ATOM      8  O   UNL     1      28.168  18.359  -1.268  1.00  0.00    -0.550 OA
ATOM      9  O   UNL     1      29.110  18.206  -3.351  1.00  0.00    -0.550 OA
ENDBRANCH   6   7
ENDBRANCH   5   6
ENDBRANCH   4   5
ENDBRANCH   3   4
ENDBRANCH   2   3
ENDBRANCH   1   2
BRANCH   1  10
ATOM     10  C   UNL     1      27.120  24.971   0.464  1.00  0.00     0.000 C 
BRANCH  10  11
ATOM     11  C   UNL     1      28.591  25.100   0.906  1.00  0.00    -0.000 C 
BRANCH  11  12
ATOM     12  C   UNL     1      28.793  25.607   2.346  1.00  0.00    -0.000 C 
BRANCH  12  13
ATOM     13  C   UNL     1      29.051  27.122   2.472  1.00  0.00    -0.000 C 
BRANCH  13  14
ATOM     14  C   UNL     1      29.123  27.655   3.918  1.00  0.00    -0.000 C 
BRANCH  14  15
ATOM     15  C   UNL     1      28.908  29.171   4.060  1.00  0.00    -0.003 C 
ATOM     16  C   UNL     1      27.813  29.526   5.065  1.00  0.00     0.004 C 
ENDBRANCH  14  15
ENDBRANCH  13  14
ENDBRANCH  12  13
ENDBRANCH  11  12
ENDBRANCH  10  11
ENDBRANCH   1  10
TORSDOF 12
ENDMDL
MODEL 6
REMARK VINA RESULT:    -2.319      1.255      3.074
REMARK INTER + INTRA:          -5.250
REMARK INTER:                  -4.335
REMARK INTRA:                  -0.914
REMARK UNBOUND:                -1.303
REMARK SMILES CCCCCCCCCCCCCC(=O)[O-]
REMARK SMILES IDX 8 1 9 2 10 3 11 4 12 5 13 6 14 7 15 8 16 9 7 10 6 11 5 12
REMARK SMILES IDX 4 13 3 14 2 15 1 16
REMARK H PARENT
REMARK Flexibility Score: inf
ROOT
ATOM      1  C   UNL     1      12.246  29.269  -8.183  1.00  0.00     0.000 C 
ENDROOT
BRANCH   1   2
ATOM      2  C   UNL     1      12.639  30.065  -9.440  1.00  0.00     0.000 C 
BRANCH   2   3
ATOM      3  C   UNL     1      13.207  31.453  -9.109  1.00  0.00     0.000 C 
BRANCH   3   4
ATOM      4  C   UNL     1      13.688  32.208 -10.358  1.00  0.00     0.000 C 
BRANCH   4   5
ATOM      5  C   UNL     1      14.792  31.427 -11.081  1.00  0.00     0.006 C 
BRANCH   5   6
ATOM      6  C   UNL     1      16.115  32.196 -11.056  1.00  0.00     0.053 C 
BRANCH   6   7
ATOM      7  C   UNL     1      16.256  32.955  -9.775  1.00  0.00     0.041 C 
ATOM      8  O   UNL     1      16.008  34.190  -9.739  1.00  0.00    -0.550 OA
ATOM      9  O   UNL     1      16.618  32.292  -8.610  1.00  0.00    -0.550 OA
ENDBRANCH   6   7
ENDBRANCH   5   6
ENDBRANCH   4   5
ENDBRANCH   3   4
ENDBRANCH   2   3
ENDBRANCH   1   2
BRANCH   1  10
ATOM     10  C   UNL     1      11.133  28.237  -8.461  1.00  0.00     0.000 C 
BRANCH  10  11
ATOM     11  C   UNL     1       9.760  28.633  -7.884  1.00  0.00    -0.000 C 
BRANCH  11  12
ATOM     12  C   UNL     1       9.002  29.703  -8.690  1.00  0.00    -0.000 C 
BRANCH  12  13
ATOM     13  C   UNL     1       8.875  29.413 -10.198  1.00  0.00    -0.000 C 
BRANCH  13  14
ATOM     14  C   UNL     1       9.479  30.488 -11.125  1.00  0.00    -0.000 C 
BRANCH  14  15
ATOM     15  C   UNL     1       9.063  31.932 -10.800  1.00  0.00    -0.003 C 
ATOM     16  C   UNL     1      10.228  32.795 -10.319  1.00  0.00     0.004 C 
ENDBRANCH  14  15
ENDBRANCH  13  14
ENDBRANCH  12  13
ENDBRANCH  11  12
ENDBRANCH  10  11
ENDBRANCH   1  10
TORSDOF 12
ENDMDL
MODEL 7
REMARK VINA RESULT:    -2.232     13.233     15.693
REMARK INTER + INTRA:          -5.102
REMARK INTER:                  -4.802
REMARK INTRA:                  -0.300
REMARK UNBOUND:                -1.303
REMARK SMILES CCCCCCCCCCCCCC(=O)[O-]
REMARK SMILES IDX 8 1 9 2 10 3 11 4 12 5 13 6 14 7 15 8 16 9 7 10 6 11 5 12
REMARK SMILES IDX 4 13 3 14 2 15 1 16
REMARK H PARENT
REMARK Flexibility Score: inf
ROOT
ATOM      1  C   UNL     1      22.229  22.648  -9.615  1.00  0.00     0.000 C 
ENDROOT
BRANCH   1   2
ATOM      2  C   UNL     1      21.879  21.219 -10.067  1.00  0.00     0.000 C 
BRANCH   2   3
ATOM      3  C   UNL     1      20.665  21.176 -11.008  1.00  0.00     0.000 C 
BRANCH   3   4
ATOM      4  C   UNL     1      20.058  19.770 -11.125  1.00  0.00     0.000 C 
BRANCH   4   5
ATOM      5  C   UNL     1      18.534  19.814 -10.968  1.00  0.00     0.006 C 
BRANCH   5   6
ATOM      6  C   UNL     1      17.968  18.416 -10.708  1.00  0.00     0.053 C 
BRANCH   6   7
ATOM      7  C   UNL     1      16.619  18.508 -10.068  1.00  0.00     0.041 C 
ATOM      8  O   UNL     1      15.602  18.770 -10.765  1.00  0.00    -0.550 OA
ATOM      9  O   UNL     1      16.475  18.259  -8.709  1.00  0.00    -0.550 OA
ENDBRANCH   6   7
ENDBRANCH   5   6
ENDBRANCH   4   5
ENDBRANCH   3   4
ENDBRANCH   2   3
ENDBRANCH   1   2
BRANCH   1  10
ATOM     10  C   UNL     1      23.749  22.916  -9.625  1.00  0.00     0.000 C 
BRANCH  10  11
ATOM     11  C   UNL     1      24.270  23.486 -10.959  1.00  0.00    -0.000 C 
BRANCH  11  12
ATOM     12  C   UNL     1      25.803  23.544 -11.085  1.00  0.00    -0.000 C 
BRANCH  12  13
ATOM     13  C   UNL     1      26.400  24.965 -11.112  1.00  0.00    -0.000 C 
BRANCH  13  14
ATOM     14  C   UNL     1      27.614  25.183 -10.186  1.00  0.00    -0.000 C 
BRANCH  14  15
ATOM     15  C   UNL     1      28.513  26.372 -10.565  1.00  0.00    -0.003 C 
ATOM     16  C   UNL     1      28.713  27.358  -9.416  1.00  0.00     0.004 C 
ENDBRANCH  14  15
ENDBRANCH  13  14
ENDBRANCH  12  13
ENDBRANCH  11  12
ENDBRANCH  10  11
ENDBRANCH   1  10
TORSDOF 12
ENDMDL
