MODEL 1
REMARK VINA RESULT:    -5.069      0.000      0.000
REMARK INTER + INTRA:          -8.428
REMARK INTER:                  -7.736
REMARK INTRA:                  -0.692
REMARK UNBOUND:                -0.692
REMARK SMILES O=C([O-])CCCCCCCCC(=O)[O-]
REMARK SMILES IDX 7 1 6 2 5 3 4 4 2 5 1 6 3 7 8 8 9 9 10 10 11 11 12 12 13 13
REMARK SMILES IDX 14 14
REMARK H PARENT
REMARK Flexibility Score: inf
ROOT
ATOM      1  C   UNL     1     133.203 135.287 114.615  1.00  0.00     0.000 C 
ENDROOT
BRANCH   1   2
ATOM      2  C   UNL     1     133.466 134.546 113.294  1.00  0.00     0.000 C 
BRANCH   2   3
ATOM      3  C   UNL     1     134.854 133.882 113.253  1.00  0.00     0.006 C 
BRANCH   3   4
ATOM      4  C   UNL     1     135.053 132.885 114.402  1.00  0.00     0.053 C 
BRANCH   4   5
ATOM      5  C   UNL     1     136.430 132.971 114.984  1.00  0.00     0.041 C 
ATOM      6  O   UNL     1     137.071 131.920 115.252  1.00  0.00    -0.550 OA
ATOM      7  O   UNL     1     137.018 134.210 115.204  1.00  0.00    -0.550 OA
ENDBRANCH   4   5
ENDBRANCH   3   4
ENDBRANCH   2   3
ENDBRANCH   1   2
BRANCH   1   8
ATOM      8  C   UNL     1     134.284 136.337 114.929  1.00  0.00     0.000 C 
BRANCH   8   9
ATOM      9  C   UNL     1     134.377 136.658 116.430  1.00  0.00     0.000 C 
BRANCH   9  10
ATOM     10  C   UNL     1     134.717 135.421 117.281  1.00  0.00     0.006 C 
BRANCH  10  11
ATOM     11  C   UNL     1     134.836 135.761 118.772  1.00  0.00     0.053 C 
BRANCH  11  12
ATOM     12  C   UNL     1     136.243 135.622 119.266  1.00  0.00     0.041 C 
ATOM     13  O   UNL     1     136.523 135.881 120.466  1.00  0.00    -0.550 OA
ATOM     14  O   UNL     1     137.253 135.235 118.393  1.00  0.00    -0.550 OA
ENDBRANCH  11  12
ENDBRANCH  10  11
ENDBRANCH   9  10
ENDBRANCH   8   9
ENDBRANCH   1   8
TORSDOF 9
ENDMDL
MODEL 2
REMARK VINA RESULT:    -4.996      8.742      9.500
REMARK INTER + INTRA:          -8.315
REMARK INTER:                  -7.492
REMARK INTRA:                  -0.823
REMARK UNBOUND:                -0.692
REMARK SMILES O=C([O-])CCCCCCCCC(=O)[O-]
REMARK SMILES IDX 7 1 6 2 5 3 4 4 2 5 1 6 3 7 8 8 9 9 10 10 11 11 12 12 13 13
REMARK SMILES IDX 14 14
REMARK H PARENT
REMARK Flexibility Score: inf
ROOT
ATOM      1  C   UNL     1     141.749 143.322 114.279  1.00  0.00     0.000 C 
ENDROOT
BRANCH   1   2
ATOM      2  C   UNL     1     142.894 142.725 115.114  1.00  0.00     0.000 C 
BRANCH   2   3
ATOM      3  C   UNL     1     143.019 141.200 114.945  1.00  0.00     0.006 C 
BRANCH   3   4
ATOM      4  C   UNL     1     143.870 140.820 113.727  1.00  0.00     0.053 C 
BRANCH   4   5
ATOM      5  C   UNL     1     143.032 140.293 112.602  1.00  0.00     0.041 C 
ATOM      6  O   UNL     1     142.581 139.117 112.646  1.00  0.00    -0.550 OA
ATOM      7  O   UNL     1     142.724 141.108 111.521  1.00  0.00    -0.550 OA
ENDBRANCH   4   5
ENDBRANCH   3   4
ENDBRANCH   2   3
ENDBRANCH   1   2
BRANCH   1   8
ATOM      8  C   UNL     1     140.424 142.561 114.465  1.00  0.00     0.000 C 
BRANCH   8   9
ATOM      9  C   UNL     1     139.724 142.909 115.789  1.00  0.00     0.000 C 
BRANCH   9  10
ATOM     10  C   UNL     1     139.734 141.739 116.790  1.00  0.00     0.006 C 
BRANCH  10  11
ATOM     11  C   UNL     1     140.589 142.044 118.027  1.00  0.00     0.053 C 
BRANCH  11  12
ATOM     12  C   UNL     1     141.061 140.793 118.702  1.00  0.00     0.041 C 
ATOM     13  O   UNL     1     140.674 140.518 119.868  1.00  0.00    -0.550 OA
ATOM     14  O   UNL     1     141.952 139.946 118.054  1.00  0.00    -0.550 OA
ENDBRANCH  11  12
ENDBRANCH  10  11
ENDBRANCH   9  10
ENDBRANCH   8   9
ENDBRANCH   1   8
TORSDOF 9
ENDMDL
MODEL 3
REMARK VINA RESULT:    -4.945      0.658      4.254
REMARK INTER + INTRA:          -8.238
REMARK INTER:                  -7.428
REMARK INTRA:                  -0.810
REMARK UNBOUND:                -0.692
REMARK SMILES O=C([O-])CCCCCCCCC(=O)[O-]
REMARK SMILES IDX 7 1 6 2 5 3 4 4 2 5 1 6 3 7 8 8 9 9 10 10 11 11 12 12 13 13
REMARK SMILES IDX 14 14
REMARK H PARENT
REMARK Flexibility Score: inf
ROOT
ATOM      1  C   UNL     1     132.987 135.949 114.930  1.00  0.00     0.000 C 
ENDROOT
BRANCH   1   2
ATOM      2  C   UNL     1     134.353 136.440 115.438  1.00  0.00     0.000 C 
BRANCH   2   3
ATOM      3  C   UNL     1     134.417 136.530 116.974  1.00  0.00     0.006 C 
BRANCH   3   4
ATOM      4  C   UNL     1     134.932 135.231 117.608  1.00  0.00     0.053 C 
BRANCH   4   5
ATOM      5  C   UNL     1     136.064 135.483 118.556  1.00  0.00     0.041 C 
ATOM      6  O   UNL     1     137.243 135.183 118.230  1.00  0.00    -0.550 OA
ATOM      7  O   UNL     1     135.821 136.076 119.789  1.00  0.00    -0.550 OA
ENDBRANCH   4   5
ENDBRANCH   3   4
ENDBRANCH   2   3
ENDBRANCH   1   2
BRANCH   1   8
ATOM      8  C   UNL     1     133.101 134.691 114.050  1.00  0.00     0.000 C 
BRANCH   8   9
ATOM      9  C   UNL     1     134.074 134.879 112.875  1.00  0.00     0.000 C 
BRANCH   9  10
ATOM     10  C   UNL     1     135.252 133.888 112.915  1.00  0.00     0.006 C 
BRANCH  10  11
ATOM     11  C   UNL     1     135.254 133.046 114.198  1.00  0.00     0.053 C 
BRANCH  11  12
ATOM     12  C   UNL     1     136.485 133.281 115.018  1.00  0.00     0.041 C 
ATOM     13  O   UNL     1     137.001 134.429 115.071  1.00  0.00    -0.550 OA
ATOM     14  O   UNL     1     137.079 132.228 115.701  1.00  0.00    -0.550 OA
ENDBRANCH  11  12
ENDBRANCH  10  11
ENDBRANCH   9  10
ENDBRANCH   8   9
ENDBRANCH   1   8
TORSDOF 9
ENDMDL
MODEL 4
REMARK VINA RESULT:    -4.815      2.246      4.672
REMARK INTER + INTRA:          -8.040
REMARK INTER:                  -7.026
REMARK INTRA:                  -1.014
REMARK UNBOUND:                -0.692
REMARK SMILES O=C([O-])CCCCCCCCC(=O)[O-]
REMARK SMILES IDX 7 1 6 2 5 3 4 4 2 5 1 6 3 7 8 8 9 9 10 10 11 11 12 12 13 13
REMARK SMILES IDX 14 14
REMARK H PARENT
REMARK Flexibility Score: inf
ROOT
ATOM      1  C   UNL     1     135.877 137.326 114.029  1.00  0.00     0.000 C 
ENDROOT
BRANCH   1   2
ATOM      2  C   UNL     1     135.838 136.614 115.391  1.00  0.00     0.000 C 
BRANCH   2   3
ATOM      3  C   UNL     1     137.102 135.776 115.659  1.00  0.00     0.006 C 
BRANCH   3   4
ATOM      4  C   UNL     1     136.788 134.487 116.427  1.00  0.00     0.053 C 
BRANCH   4   5
ATOM      5  C   UNL     1     136.159 134.768 117.757  1.00  0.00     0.041 C 
ATOM      6  O   UNL     1     134.988 134.371 118.001  1.00  0.00    -0.550 OA
ATOM      7  O   UNL     1     136.875 135.442 118.738  1.00  0.00    -0.550 OA
ENDBRANCH   4   5
ENDBRANCH   3   4
ENDBRANCH   2   3
ENDBRANCH   1   2
BRANCH   1   8
ATOM      8  C   UNL     1     136.742 136.581 112.997  1.00  0.00     0.000 C 
BRANCH   8   9
ATOM      9  C   UNL     1     135.904 135.923 111.889  1.00  0.00     0.000 C 
BRANCH   9  10
ATOM     10  C   UNL     1     135.538 134.462 112.211  1.00  0.00     0.006 C 
BRANCH  10  11
ATOM     11  C   UNL     1     134.112 134.332 112.763  1.00  0.00     0.053 C 
BRANCH  11  12
ATOM     12  C   UNL     1     134.094 133.689 114.115  1.00  0.00     0.041 C 
ATOM     13  O   UNL     1     134.806 132.675 114.345  1.00  0.00    -0.550 OA
ATOM     14  O   UNL     1     133.269 134.190 115.114  1.00  0.00    -0.550 OA
ENDBRANCH  11  12
ENDBRANCH  10  11
ENDBRANCH   9  10
ENDBRANCH   8   9
ENDBRANCH   1   8
TORSDOF 9
ENDMDL
MODEL 5
REMARK VINA RESULT:    -4.783      1.870      2.597
REMARK INTER + INTRA:          -7.991
REMARK INTER:                  -7.363
REMARK INTRA:                  -0.628
REMARK UNBOUND:                -0.692
REMARK SMILES O=C([O-])CCCCCCCCC(=O)[O-]
REMARK SMILES IDX 7 1 6 2 5 3 4 4 2 5 1 6 3 7 8 8 9 9 10 10 11 11 12 12 13 13
REMARK SMILES IDX 14 14
REMARK H PARENT
REMARK Flexibility Score: inf
ROOT
ATOM      1  C   UNL     1     133.611 134.206 115.137  1.00  0.00     0.000 C 
ENDROOT
BRANCH   1   2
ATOM      2  C   UNL     1     134.209 133.434 113.950  1.00  0.00     0.000 C 
BRANCH   2   3
ATOM      3  C   UNL     1     135.584 133.979 113.521  1.00  0.00     0.006 C 
BRANCH   3   4
ATOM      4  C   UNL     1     135.575 134.498 112.077  1.00  0.00     0.053 C 
BRANCH   4   5
ATOM      5  C   UNL     1     136.066 135.911 111.989  1.00  0.00     0.041 C 
ATOM      6  O   UNL     1     135.651 136.670 111.074  1.00  0.00    -0.550 OA
ATOM      7  O   UNL     1     136.959 136.398 112.935  1.00  0.00    -0.550 OA
ENDBRANCH   4   5
ENDBRANCH   3   4
ENDBRANCH   2   3
ENDBRANCH   1   2
BRANCH   1   8
ATOM      8  C   UNL     1     133.645 135.731 114.928  1.00  0.00     0.000 C 
BRANCH   8   9
ATOM      9  C   UNL     1     134.454 136.458 116.015  1.00  0.00     0.000 C 
BRANCH   9  10
ATOM     10  C   UNL     1     135.085 135.489 117.032  1.00  0.00     0.006 C 
BRANCH  10  11
ATOM     11  C   UNL     1     135.083 136.064 118.454  1.00  0.00     0.053 C 
BRANCH  11  12
ATOM     12  C   UNL     1     136.336 135.717 119.198  1.00  0.00     0.041 C 
ATOM     13  O   UNL     1     137.330 135.250 118.581  1.00  0.00    -0.550 OA
ATOM     14  O   UNL     1     136.396 135.881 120.576  1.00  0.00    -0.550 OA
ENDBRANCH  11  12
ENDBRANCH  10  11
ENDBRANCH   9  10
ENDBRANCH   8   9
ENDBRANCH   1   8
TORSDOF 9
ENDMDL
MODEL 6
REMARK VINA RESULT:    -4.768      8.324      9.638
REMARK INTER + INTRA:          -7.968
REMARK INTER:                  -6.903
REMARK INTRA:                  -1.065
REMARK UNBOUND:                -0.692
REMARK SMILES O=C([O-])CCCCCCCCC(=O)[O-]
REMARK SMILES IDX 7 1 6 2 5 3 4 4 2 5 1 6 3 7 8 8 9 9 10 10 11 11 12 12 13 13
REMARK SMILES IDX 14 14
REMARK H PARENT
REMARK Flexibility Score: inf
ROOT
ATOM      1  C   UNL     1     140.458 139.118 114.140  1.00  0.00     0.000 C 
ENDROOT
BRANCH   1   2
ATOM      2  C   UNL     1     139.285 140.007 114.586  1.00  0.00     0.000 C 
BRANCH   2   3
ATOM      3  C   UNL     1     139.544 140.696 115.938  1.00  0.00     0.006 C 
BRANCH   3   4
ATOM      4  C   UNL     1     140.861 140.238 116.578  1.00  0.00     0.053 C 
BRANCH   4   5
ATOM      5  C   UNL     1     141.159 140.987 117.840  1.00  0.00     0.041 C 
ATOM      6  O   UNL     1     141.779 140.422 118.781  1.00  0.00    -0.550 OA
ATOM      7  O   UNL     1     140.780 142.317 117.967  1.00  0.00    -0.550 OA
ENDBRANCH   4   5
ENDBRANCH   3   4
ENDBRANCH   2   3
ENDBRANCH   1   2
BRANCH   1   8
ATOM      8  C   UNL     1     141.184 139.675 112.902  1.00  0.00     0.000 C 
BRANCH   8   9
ATOM      9  C   UNL     1     140.424 140.840 112.247  1.00  0.00     0.000 C 
BRANCH   9  10
ATOM     10  C   UNL     1     141.298 142.095 112.075  1.00  0.00     0.006 C 
BRANCH  10  11
ATOM     11  C   UNL     1     142.478 142.116 113.055  1.00  0.00     0.053 C 
BRANCH  11  12
ATOM     12  C   UNL     1     142.152 142.873 114.306  1.00  0.00     0.041 C 
ATOM     13  O   UNL     1     141.098 143.559 114.375  1.00  0.00    -0.550 OA
ATOM     14  O   UNL     1     143.025 142.844 115.386  1.00  0.00    -0.550 OA
ENDBRANCH  11  12
ENDBRANCH  10  11
ENDBRANCH   9  10
ENDBRANCH   8   9
ENDBRANCH   1   8
TORSDOF 9
ENDMDL
MODEL 7
REMARK VINA RESULT:    -4.761      2.462      5.265
REMARK INTER + INTRA:          -7.958
REMARK INTER:                  -7.133
REMARK INTRA:                  -0.824
REMARK UNBOUND:                -0.692
REMARK SMILES O=C([O-])CCCCCCCCC(=O)[O-]
REMARK SMILES IDX 7 1 6 2 5 3 4 4 2 5 1 6 3 7 8 8 9 9 10 10 11 11 12 12 13 13
REMARK SMILES IDX 14 14
REMARK H PARENT
REMARK Flexibility Score: inf
ROOT
ATOM      1  C   UNL     1     136.383 133.596 115.218  1.00  0.00     0.000 C 
ENDROOT
BRANCH   1   2
ATOM      2  C   UNL     1     136.814 135.059 115.023  1.00  0.00     0.000 C 
BRANCH   2   3
ATOM      3  C   UNL     1     136.710 135.886 116.317  1.00  0.00     0.006 C 
BRANCH   3   4
ATOM      4  C   UNL     1     136.713 135.002 117.571  1.00  0.00     0.053 C 
BRANCH   4   5
ATOM      5  C   UNL     1     135.932 135.617 118.691  1.00  0.00     0.041 C 
ATOM      6  O   UNL     1     134.759 136.031 118.493  1.00  0.00    -0.550 OA
ATOM      7  O   UNL     1     136.489 135.707 119.961  1.00  0.00    -0.550 OA
ENDBRANCH   4   5
ENDBRANCH   3   4
ENDBRANCH   2   3
ENDBRANCH   1   2
BRANCH   1   8
ATOM      8  C   UNL     1     135.081 133.259 114.470  1.00  0.00     0.000 C 
BRANCH   8   9
ATOM      9  C   UNL     1     133.832 133.797 115.188  1.00  0.00     0.000 C 
BRANCH   9  10
ATOM     10  C   UNL     1     133.019 134.771 114.315  1.00  0.00     0.006 C 
BRANCH  10  11
ATOM     11  C   UNL     1     133.661 134.985 112.938  1.00  0.00     0.053 C 
BRANCH  11  12
ATOM     12  C   UNL     1     133.770 136.439 112.593  1.00  0.00     0.041 C 
ATOM     13  O   UNL     1     134.842 137.063 112.810  1.00  0.00    -0.550 OA
ATOM     14  O   UNL     1     132.678 137.111 112.059  1.00  0.00    -0.550 OA
ENDBRANCH  11  12
ENDBRANCH  10  11
ENDBRANCH   9  10
ENDBRANCH   8   9
ENDBRANCH   1   8
TORSDOF 9
ENDMDL
MODEL 8
REMARK VINA RESULT:    -4.743      2.131      3.169
REMARK INTER + INTRA:          -7.930
REMARK INTER:                  -7.000
REMARK INTRA:                  -0.929
REMARK UNBOUND:                -0.692
REMARK SMILES O=C([O-])CCCCCCCCC(=O)[O-]
REMARK SMILES IDX 7 1 6 2 5 3 4 4 2 5 1 6 3 7 8 8 9 9 10 10 11 11 12 12 13 13
REMARK SMILES IDX 14 14
REMARK H PARENT
REMARK Flexibility Score: inf
ROOT
ATOM      1  C   UNL     1     133.925 133.856 115.292  1.00  0.00     0.000 C 
ENDROOT
BRANCH   1   2
ATOM      2  C   UNL     1     133.099 134.773 114.374  1.00  0.00     0.000 C 
BRANCH   2   3
ATOM      3  C   UNL     1     133.430 134.574 112.884  1.00  0.00     0.006 C 
BRANCH   3   4
ATOM      4  C   UNL     1     133.752 135.899 112.181  1.00  0.00     0.053 C 
BRANCH   4   5
ATOM      5  C   UNL     1     135.014 136.515 112.702  1.00  0.00     0.041 C 
ATOM      6  O   UNL     1     134.965 137.550 113.418  1.00  0.00    -0.550 OA
ATOM      7  O   UNL     1     136.242 135.930 112.422  1.00  0.00    -0.550 OA
ENDBRANCH   4   5
ENDBRANCH   3   4
ENDBRANCH   2   3
ENDBRANCH   1   2
BRANCH   1   8
ATOM      8  C   UNL     1     135.188 133.312 114.601  1.00  0.00     0.000 C 
BRANCH   8   9
ATOM      9  C   UNL     1     136.479 133.697 115.343  1.00  0.00     0.000 C 
BRANCH   9  10
ATOM     10  C   UNL     1     136.438 135.133 115.896  1.00  0.00     0.006 C 
BRANCH  10  11
ATOM     11  C   UNL     1     136.824 135.192 117.380  1.00  0.00     0.053 C 
BRANCH  11  12
ATOM     12  C   UNL     1     135.821 135.958 118.187  1.00  0.00     0.041 C 
ATOM     13  O   UNL     1     136.007 136.142 119.419  1.00  0.00    -0.550 OA
ATOM     14  O   UNL     1     134.667 136.443 117.586  1.00  0.00    -0.550 OA
ENDBRANCH  11  12
ENDBRANCH  10  11
ENDBRANCH   9  10
ENDBRANCH   8   9
ENDBRANCH   1   8
TORSDOF 9
ENDMDL
MODEL 9
REMARK VINA RESULT:    -4.733      8.563      9.872
REMARK INTER + INTRA:          -7.915
REMARK INTER:                  -7.124
REMARK INTRA:                  -0.791
REMARK UNBOUND:                -0.692
REMARK SMILES O=C([O-])CCCCCCCCC(=O)[O-]
REMARK SMILES IDX 7 1 6 2 5 3 4 4 2 5 1 6 3 7 8 8 9 9 10 10 11 11 12 12 13 13
REMARK SMILES IDX 14 14
REMARK H PARENT
REMARK Flexibility Score: inf
ROOT
ATOM      1  C   UNL     1     141.412 139.644 113.517  1.00  0.00     0.000 C 
ENDROOT
BRANCH   1   2
ATOM      2  C   UNL     1     141.141 139.465 115.020  1.00  0.00     0.000 C 
BRANCH   2   3
ATOM      3  C   UNL     1     142.097 140.293 115.898  1.00  0.00     0.006 C 
BRANCH   3   4
ATOM      4  C   UNL     1     142.124 139.797 117.349  1.00  0.00     0.053 C 
BRANCH   4   5
ATOM      5  C   UNL     1     141.315 140.675 118.255  1.00  0.00     0.041 C 
ATOM      6  O   UNL     1     140.606 140.166 119.163  1.00  0.00    -0.550 OA
ATOM      7  O   UNL     1     141.369 142.056 118.116  1.00  0.00    -0.550 OA
ENDBRANCH   4   5
ENDBRANCH   3   4
ENDBRANCH   2   3
ENDBRANCH   1   2
BRANCH   1   8
ATOM      8  C   UNL     1     142.641 140.528 113.240  1.00  0.00     0.000 C 
BRANCH   8   9
ATOM      9  C   UNL     1     142.290 141.790 112.434  1.00  0.00     0.000 C 
BRANCH   9  10
ATOM     10  C   UNL     1     141.023 142.493 112.955  1.00  0.00     0.006 C 
BRANCH  10  11
ATOM     11  C   UNL     1     141.294 143.300 114.232  1.00  0.00     0.053 C 
BRANCH  11  12
ATOM     12  C   UNL     1     140.036 143.568 115.000  1.00  0.00     0.041 C 
ATOM     13  O   UNL     1     139.449 142.630 115.601  1.00  0.00    -0.550 OA
ATOM     14  O   UNL     1     139.495 144.847 115.027  1.00  0.00    -0.550 OA
ENDBRANCH  11  12
ENDBRANCH  10  11
ENDBRANCH   9  10
ENDBRANCH   8   9
ENDBRANCH   1   8
TORSDOF 9
ENDMDL
