MODEL 1
REMARK VINA RESULT:    -4.724      0.000      0.000
REMARK INTER + INTRA:          -6.693
REMARK INTER:                  -6.381
REMARK INTRA:                  -0.312
REMARK UNBOUND:                -0.312
REMARK SMILES CCCCCCC=CC(=O)[O-]
REMARK SMILES IDX 5 1 6 2 7 3 8 4 9 5 10 6 11 7 4 8 3 9 2 10 1 11
REMARK H PARENT
REMARK Flexibility Score: inf
ROOT
ATOM      1  C   UNL     1      47.801  50.382  34.443  1.00  0.00     0.004 C 
ENDROOT
BRANCH   1   2
ATOM      2  C   UNL     1      47.495  48.888  34.644  1.00  0.00     0.027 C 
BRANCH   2   3
ATOM      3  C   UNL     1      46.165  48.655  35.312  1.00  0.00    -0.025 C 
ATOM      4  C   UNL     1      45.654  47.446  35.590  1.00  0.00     0.020 C 
BRANCH   4   5
ATOM      5  C   UNL     1      46.286  46.145  35.290  1.00  0.00     0.064 C 
ATOM      6  O   UNL     1      45.908  45.503  34.274  1.00  0.00    -0.545 OA
ATOM      7  O   UNL     1      47.292  45.610  36.083  1.00  0.00    -0.545 OA
ENDBRANCH   4   5
ENDBRANCH   2   3
ENDBRANCH   1   2
BRANCH   1   8
ATOM      8  C   UNL     1      49.181  50.831  34.967  1.00  0.00     0.000 C 
BRANCH   8   9
ATOM      9  C   UNL     1      49.939  49.785  35.810  1.00  0.00    -0.000 C 
BRANCH   9  10
ATOM     10  C   UNL     1      51.440  50.066  35.997  1.00  0.00    -0.003 C 
ATOM     11  C   UNL     1      51.735  50.928  37.223  1.00  0.00     0.004 C 
ENDBRANCH   9  10
ENDBRANCH   8   9
ENDBRANCH   1   8
TORSDOF 6
ENDMDL
MODEL 2
REMARK VINA RESULT:    -4.608      0.952      1.523
REMARK INTER + INTRA:          -6.536
REMARK INTER:                  -6.222
REMARK INTRA:                  -0.314
REMARK UNBOUND:                -0.312
REMARK SMILES CCCCCCC=CC(=O)[O-]
REMARK SMILES IDX 5 1 6 2 7 3 8 4 9 5 10 6 11 7 4 8 3 9 2 10 1 11
REMARK H PARENT
REMARK Flexibility Score: inf
ROOT
ATOM      1  C   UNL     1      47.038  49.614  34.909  1.00  0.00     0.004 C 
ENDROOT
BRANCH   1   2
ATOM      2  C   UNL     1      46.989  48.332  35.758  1.00  0.00     0.027 C 
BRANCH   2   3
ATOM      3  C   UNL     1      45.751  47.514  35.498  1.00  0.00    -0.025 C 
ATOM      4  C   UNL     1      45.751  46.280  34.970  1.00  0.00     0.020 C 
BRANCH   4   5
ATOM      5  C   UNL     1      46.942  45.516  34.546  1.00  0.00     0.064 C 
ATOM      6  O   UNL     1      47.468  44.707  35.354  1.00  0.00    -0.545 OA
ATOM      7  O   UNL     1      47.494  45.651  33.279  1.00  0.00    -0.545 OA
ENDBRANCH   4   5
ENDBRANCH   2   3
ENDBRANCH   1   2
BRANCH   1   8
ATOM      8  C   UNL     1      48.391  49.870  34.212  1.00  0.00     0.000 C 
BRANCH   8   9
ATOM      9  C   UNL     1      49.430  50.641  35.050  1.00  0.00    -0.000 C 
BRANCH   9  10
ATOM     10  C   UNL     1      50.336  49.762  35.930  1.00  0.00    -0.003 C 
ATOM     11  C   UNL     1      51.370  50.569  36.713  1.00  0.00     0.004 C 
ENDBRANCH   9  10
ENDBRANCH   8   9
ENDBRANCH   1   8
TORSDOF 6
ENDMDL
MODEL 3
REMARK VINA RESULT:    -4.605      1.796      3.121
REMARK INTER + INTRA:          -6.532
REMARK INTER:                  -6.156
REMARK INTRA:                  -0.376
REMARK UNBOUND:                -0.312
REMARK SMILES CCCCCCC=CC(=O)[O-]
REMARK SMILES IDX 5 1 6 2 7 3 8 4 9 5 10 6 11 7 4 8 3 9 2 10 1 11
REMARK H PARENT
REMARK Flexibility Score: inf
ROOT
ATOM      1  C   UNL     1      45.687  47.874  35.657  1.00  0.00     0.004 C 
ENDROOT
BRANCH   1   2
ATOM      2  C   UNL     1      45.645  46.441  35.101  1.00  0.00     0.027 C 
BRANCH   2   3
ATOM      3  C   UNL     1      46.895  46.079  34.342  1.00  0.00    -0.025 C 
ATOM      4  C   UNL     1      47.048  44.961  33.616  1.00  0.00     0.020 C 
BRANCH   4   5
ATOM      5  C   UNL     1      46.042  43.894  33.440  1.00  0.00     0.064 C 
ATOM      6  O   UNL     1      45.185  44.009  32.524  1.00  0.00    -0.545 OA
ATOM      7  O   UNL     1      46.016  42.762  34.243  1.00  0.00    -0.545 OA
ENDBRANCH   4   5
ENDBRANCH   2   3
ENDBRANCH   1   2
BRANCH   1   8
ATOM      8  C   UNL     1      47.089  48.518  35.668  1.00  0.00     0.000 C 
BRANCH   8   9
ATOM      9  C   UNL     1      47.248  49.769  34.781  1.00  0.00    -0.000 C 
BRANCH   9  10
ATOM     10  C   UNL     1      48.662  49.991  34.219  1.00  0.00    -0.003 C 
ATOM     11  C   UNL     1      49.678  50.368  35.296  1.00  0.00     0.004 C 
ENDBRANCH   9  10
ENDBRANCH   8   9
ENDBRANCH   1   8
TORSDOF 6
ENDMDL
MODEL 4
REMARK VINA RESULT:    -4.573      7.146      8.563
REMARK INTER + INTRA:          -6.489
REMARK INTER:                  -6.105
REMARK INTRA:                  -0.384
REMARK UNBOUND:                -0.312
REMARK SMILES CCCCCCC=CC(=O)[O-]
REMARK SMILES IDX 5 1 6 2 7 3 8 4 9 5 10 6 11 7 4 8 3 9 2 10 1 11
REMARK H PARENT
REMARK Flexibility Score: inf
ROOT
ATOM      1  C   UNL     1      40.190  51.425  33.051  1.00  0.00     0.004 C 
ENDROOT
BRANCH   1   2
ATOM      2  C   UNL     1      40.519  50.420  31.934  1.00  0.00     0.027 C 
BRANCH   2   3
ATOM      3  C   UNL     1      40.303  48.991  32.360  1.00  0.00    -0.025 C 
ATOM      4  C   UNL     1      39.151  48.319  32.214  1.00  0.00     0.020 C 
BRANCH   4   5
ATOM      5  C   UNL     1      37.903  48.850  31.629  1.00  0.00     0.064 C 
ATOM      6  O   UNL     1      37.616  48.562  30.438  1.00  0.00    -0.545 OA
ATOM      7  O   UNL     1      37.027  49.647  32.355  1.00  0.00    -0.545 OA
ENDBRANCH   4   5
ENDBRANCH   2   3
ENDBRANCH   1   2
BRANCH   1   8
ATOM      8  C   UNL     1      41.413  52.176  33.619  1.00  0.00     0.000 C 
BRANCH   8   9
ATOM      9  C   UNL     1      41.801  51.807  35.064  1.00  0.00    -0.000 C 
BRANCH   9  10
ATOM     10  C   UNL     1      43.297  51.524  35.283  1.00  0.00    -0.003 C 
ATOM     11  C   UNL     1      44.202  52.477  34.502  1.00  0.00     0.004 C 
ENDBRANCH   9  10
ENDBRANCH   8   9
ENDBRANCH   1   8
TORSDOF 6
ENDMDL
MODEL 5
REMARK VINA RESULT:    -4.567      2.547      4.698
REMARK INTER + INTRA:          -6.481
REMARK INTER:                  -5.953
REMARK INTRA:                  -0.528
REMARK UNBOUND:                -0.312
REMARK SMILES CCCCCCC=CC(=O)[O-]
REMARK SMILES IDX 5 1 6 2 7 3 8 4 9 5 10 6 11 7 4 8 3 9 2 10 1 11
REMARK H PARENT
REMARK Flexibility Score: inf
ROOT
ATOM      1  C   UNL     1      46.061  48.855  35.308  1.00  0.00     0.004 C 
ENDROOT
BRANCH   1   2
ATOM      2  C   UNL     1      47.393  48.980  34.548  1.00  0.00     0.027 C 
BRANCH   2   3
ATOM      3  C   UNL     1      47.951  50.378  34.587  1.00  0.00    -0.025 C 
ATOM      4  C   UNL     1      49.205  50.688  34.949  1.00  0.00     0.020 C 
BRANCH   4   5
ATOM      5  C   UNL     1      50.247  49.732  35.380  1.00  0.00     0.064 C 
ATOM      6  O   UNL     1      50.586  49.704  36.592  1.00  0.00    -0.545 OA
ATOM      7  O   UNL     1      50.856  48.854  34.494  1.00  0.00    -0.545 OA
ENDBRANCH   4   5
ENDBRANCH   2   3
ENDBRANCH   1   2
BRANCH   1   8
ATOM      8  C   UNL     1      45.571  47.406  35.512  1.00  0.00     0.000 C 
BRANCH   8   9
ATOM      9  C   UNL     1      46.679  46.366  35.775  1.00  0.00    -0.000 C 
BRANCH   9  10
ATOM     10  C   UNL     1      47.176  46.300  37.230  1.00  0.00    -0.003 C 
ATOM     11  C   UNL     1      48.539  46.963  37.423  1.00  0.00     0.004 C 
ENDBRANCH   9  10
ENDBRANCH   8   9
ENDBRANCH   1   8
TORSDOF 6
ENDMDL
MODEL 6
REMARK VINA RESULT:    -4.528      2.709      5.718
REMARK INTER + INTRA:          -6.428
REMARK INTER:                  -6.181
REMARK INTRA:                  -0.248
REMARK UNBOUND:                -0.312
REMARK SMILES CCCCCCC=CC(=O)[O-]
REMARK SMILES IDX 5 1 6 2 7 3 8 4 9 5 10 6 11 7 4 8 3 9 2 10 1 11
REMARK H PARENT
REMARK Flexibility Score: inf
ROOT
ATOM      1  C   UNL     1      45.819  47.939  35.377  1.00  0.00     0.004 C 
ENDROOT
BRANCH   1   2
ATOM      2  C   UNL     1      47.172  48.624  35.637  1.00  0.00     0.027 C 
BRANCH   2   3
ATOM      3  C   UNL     1      47.343  49.887  34.833  1.00  0.00    -0.025 C 
ATOM      4  C   UNL     1      48.524  50.466  34.568  1.00  0.00     0.020 C 
BRANCH   4   5
ATOM      5  C   UNL     1      49.848  49.987  35.016  1.00  0.00     0.064 C 
ATOM      6  O   UNL     1      50.392  49.033  34.400  1.00  0.00    -0.545 OA
ATOM      7  O   UNL     1      50.518  50.561  36.088  1.00  0.00    -0.545 OA
ENDBRANCH   4   5
ENDBRANCH   2   3
ENDBRANCH   1   2
BRANCH   1   8
ATOM      8  C   UNL     1      45.866  46.396  35.403  1.00  0.00     0.000 C 
BRANCH   8   9
ATOM      9  C   UNL     1      46.635  45.740  34.239  1.00  0.00    -0.000 C 
BRANCH   9  10
ATOM     10  C   UNL     1      46.372  44.235  34.054  1.00  0.00    -0.003 C 
ATOM     11  C   UNL     1      45.497  43.929  32.839  1.00  0.00     0.004 C 
ENDBRANCH   9  10
ENDBRANCH   8   9
ENDBRANCH   1   8
TORSDOF 6
ENDMDL
MODEL 7
REMARK VINA RESULT:    -4.519      8.463     11.004
REMARK INTER + INTRA:          -6.415
REMARK INTER:                  -5.923
REMARK INTRA:                  -0.493
REMARK UNBOUND:                -0.312
REMARK SMILES CCCCCCC=CC(=O)[O-]
REMARK SMILES IDX 5 1 6 2 7 3 8 4 9 5 10 6 11 7 4 8 3 9 2 10 1 11
REMARK H PARENT
REMARK Flexibility Score: inf
ROOT
ATOM      1  C   UNL     1      38.972  48.528  32.319  1.00  0.00     0.004 C 
ENDROOT
BRANCH   1   2
ATOM      2  C   UNL     1      40.320  49.237  32.108  1.00  0.00     0.027 C 
BRANCH   2   3
ATOM      3  C   UNL     1      40.159  50.693  31.756  1.00  0.00    -0.025 C 
ATOM      4  C   UNL     1      40.298  51.706  32.625  1.00  0.00     0.020 C 
BRANCH   4   5
ATOM      5  C   UNL     1      40.618  51.581  34.062  1.00  0.00     0.064 C 
ATOM      6  O   UNL     1      39.687  51.673  34.905  1.00  0.00    -0.545 OA
ATOM      7  O   UNL     1      41.911  51.354  34.514  1.00  0.00    -0.545 OA
ENDBRANCH   4   5
ENDBRANCH   2   3
ENDBRANCH   1   2
BRANCH   1   8
ATOM      8  C   UNL     1      37.739  49.356  31.901  1.00  0.00     0.000 C 
BRANCH   8   9
ATOM      9  C   UNL     1      36.977  48.829  30.668  1.00  0.00    -0.000 C 
BRANCH   9  10
ATOM     10  C   UNL     1      37.611  49.183  29.312  1.00  0.00    -0.003 C 
ATOM     11  C   UNL     1      37.195  48.229  28.193  1.00  0.00     0.004 C 
ENDBRANCH   9  10
ENDBRANCH   8   9
ENDBRANCH   1   8
TORSDOF 6
ENDMDL
MODEL 8
REMARK VINA RESULT:    -4.414      6.791      9.246
REMARK INTER + INTRA:          -6.274
REMARK INTER:                  -5.960
REMARK INTRA:                  -0.314
REMARK UNBOUND:                -0.312
REMARK SMILES CCCCCCC=CC(=O)[O-]
REMARK SMILES IDX 5 1 6 2 7 3 8 4 9 5 10 6 11 7 4 8 3 9 2 10 1 11
REMARK H PARENT
REMARK Flexibility Score: inf
ROOT
ATOM      1  C   UNL     1      40.128  51.439  32.817  1.00  0.00     0.004 C 
ENDROOT
BRANCH   1   2
ATOM      2  C   UNL     1      41.227  52.243  33.534  1.00  0.00     0.027 C 
BRANCH   2   3
ATOM      3  C   UNL     1      41.802  51.507  34.717  1.00  0.00    -0.025 C 
ATOM      4  C   UNL     1      43.027  51.717  35.221  1.00  0.00     0.020 C 
BRANCH   4   5
ATOM      5  C   UNL     1      44.023  52.682  34.713  1.00  0.00     0.064 C 
ATOM      6  O   UNL     1      45.122  52.251  34.273  1.00  0.00    -0.545 OA
ATOM      7  O   UNL     1      43.784  54.050  34.691  1.00  0.00    -0.545 OA
ENDBRANCH   4   5
ENDBRANCH   2   3
ENDBRANCH   1   2
BRANCH   1   8
ATOM      8  C   UNL     1      40.651  50.400  31.804  1.00  0.00     0.000 C 
BRANCH   8   9
ATOM      9  C   UNL     1      40.340  48.929  32.147  1.00  0.00    -0.000 C 
BRANCH   9  10
ATOM     10  C   UNL     1      38.851  48.616  32.375  1.00  0.00    -0.003 C 
ATOM     11  C   UNL     1      38.015  48.747  31.103  1.00  0.00     0.004 C 
ENDBRANCH   9  10
ENDBRANCH   8   9
ENDBRANCH   1   8
TORSDOF 6
ENDMDL
MODEL 9
REMARK VINA RESULT:    -4.381      7.622      9.149
REMARK INTER + INTRA:          -6.229
REMARK INTER:                  -5.660
REMARK INTRA:                  -0.569
REMARK UNBOUND:                -0.312
REMARK SMILES CCCCCCC=CC(=O)[O-]
REMARK SMILES IDX 5 1 6 2 7 3 8 4 9 5 10 6 11 7 4 8 3 9 2 10 1 11
REMARK H PARENT
REMARK Flexibility Score: inf
ROOT
ATOM      1  C   UNL     1      43.285  54.877  34.773  1.00  0.00     0.004 C 
ENDROOT
BRANCH   1   2
ATOM      2  C   UNL     1      43.614  55.741  36.002  1.00  0.00     0.027 C 
BRANCH   2   3
ATOM      3  C   UNL     1      44.222  54.941  37.125  1.00  0.00    -0.025 C 
ATOM      4  C   UNL     1      45.109  55.422  38.008  1.00  0.00     0.020 C 
BRANCH   4   5
ATOM      5  C   UNL     1      45.653  56.796  38.035  1.00  0.00     0.064 C 
ATOM      6  O   UNL     1      45.223  57.605  38.898  1.00  0.00    -0.545 OA
ATOM      7  O   UNL     1      46.632  57.221  37.146  1.00  0.00    -0.545 OA
ENDBRANCH   4   5
ENDBRANCH   2   3
ENDBRANCH   1   2
BRANCH   1   8
ATOM      8  C   UNL     1      44.085  53.560  34.682  1.00  0.00     0.000 C 
BRANCH   8   9
ATOM      9  C   UNL     1      43.244  52.294  34.421  1.00  0.00    -0.000 C 
BRANCH   9  10
ATOM     10  C   UNL     1      42.777  51.553  35.686  1.00  0.00    -0.003 C 
ATOM     11  C   UNL     1      41.358  51.933  36.108  1.00  0.00     0.004 C 
ENDBRANCH   9  10
ENDBRANCH   8   9
ENDBRANCH   1   8
TORSDOF 6
ENDMDL
