MODEL 1
REMARK VINA RESULT:    -4.771      0.000      0.000
REMARK INTER + INTRA:          -8.714
REMARK INTER:                  -7.282
REMARK INTRA:                  -1.432
REMARK UNBOUND:                -1.432
REMARK SMILES OC[C@@H]1O[C@@](CO)(O[C@@H]2O[C@H](CO)[C@@H](O)[C@@H](O)[C@H]2O)[C@@H](O)[C@@H]1O
REMARK SMILES IDX 8 1 9 2 11 3 14 4 10 5 16 6 18 7 12 8 13 9 15 11 17 13 19 15
REMARK SMILES IDX 5 17 20 18 4 19 22 20 3 21 6 22 7 23 21 25 23 27 2 29 1 30
REMARK H PARENT 13 10 15 12 17 14 19 16 7 24 21 26 23 28 1 31
REMARK Flexibility Score: inf
ROOT
ATOM      1  O   UNL     1      22.813  11.335  12.266  1.00  0.00    -0.313 OA
ENDROOT
BRANCH   1   2
ATOM      2  C   UNL     1      21.756  12.236  11.956  1.00  0.00     0.285 C 
ATOM      3  C   UNL     1      19.938  13.431  12.818  1.00  0.00     0.178 C 
ATOM      4  C   UNL     1      19.020  13.075  11.623  1.00  0.00     0.177 C 
ATOM      5  O   UNL     1      20.869  12.390  13.050  1.00  0.00    -0.341 OA
ATOM      6  C   UNL     1      19.852  12.783  10.354  1.00  0.00     0.179 C 
ATOM      7  C   UNL     1      21.021  11.821  10.656  1.00  0.00     0.202 C 
BRANCH   3   8
ATOM      8  C   UNL     1      19.124  13.620  14.110  1.00  0.00     0.191 C 
BRANCH   8   9
ATOM      9  O   UNL     1      18.057  12.713  14.175  1.00  0.00    -0.394 OA
ATOM     10  H   UNL     1      17.389  13.009  13.502  1.00  0.00     0.210 HD
ENDBRANCH   8   9
ENDBRANCH   3   8
BRANCH   4  11
ATOM     11  O   UNL     1      18.122  14.125  11.370  1.00  0.00    -0.387 OA
ATOM     12  H   UNL     1      18.597  14.968  11.589  1.00  0.00     0.211 HD
ENDBRANCH   4  11
BRANCH   6  13
ATOM     13  O   UNL     1      20.295  13.971   9.738  1.00  0.00    -0.387 OA
ATOM     14  H   UNL     1      20.360  13.812   8.762  1.00  0.00     0.211 HD
ENDBRANCH   6  13
BRANCH   7  15
ATOM     15  O   UNL     1      21.915  11.823   9.573  1.00  0.00    -0.385 OA
ATOM     16  H   UNL     1      22.734  12.296   9.872  1.00  0.00     0.211 HD
ENDBRANCH   7  15
ENDBRANCH   1   2
BRANCH   1  17
ATOM     17  C   UNL     1      24.161  11.812  12.142  1.00  0.00     0.224 C 
ATOM     18  C   UNL     1      25.065  10.687  11.593  1.00  0.00     0.208 C 
ATOM     19  O   UNL     1      24.284  12.948  11.298  1.00  0.00    -0.337 OA
ATOM     20  C   UNL     1      25.333  11.115  10.172  1.00  0.00     0.180 C 
ATOM     21  C   UNL     1      25.155  12.634  10.228  1.00  0.00     0.179 C 
BRANCH  17  22
ATOM     22  C   UNL     1      24.605  12.216  13.561  1.00  0.00     0.225 C 
BRANCH  22  23
ATOM     23  O   UNL     1      24.451  11.151  14.460  1.00  0.00    -0.391 OA
ATOM     24  H   UNL     1      24.693  10.330  13.959  1.00  0.00     0.210 HD
ENDBRANCH  22  23
ENDBRANCH  17  22
BRANCH  18  25
ATOM     25  O   UNL     1      24.423   9.438  11.633  1.00  0.00    -0.385 OA
ATOM     26  H   UNL     1      24.736   8.982  12.458  1.00  0.00     0.211 HD
ENDBRANCH  18  25
BRANCH  20  27
ATOM     27  O   UNL     1      26.620  10.738   9.750  1.00  0.00    -0.387 OA
ATOM     28  H   UNL     1      26.964  10.100  10.428  1.00  0.00     0.211 HD
ENDBRANCH  20  27
BRANCH  21  29
ATOM     29  C   UNL     1      26.477  13.409  10.386  1.00  0.00     0.191 C 
BRANCH  29  30
ATOM     30  O   UNL     1      27.089  13.589   9.138  1.00  0.00    -0.394 OA
ATOM     31  H   UNL     1      26.700  14.413   8.744  1.00  0.00     0.210 HD
ENDBRANCH  29  30
ENDBRANCH  21  29
ENDBRANCH   1  17
TORSDOF 13
ENDMDL
MODEL 2
REMARK VINA RESULT:    -4.728     19.806     21.860
REMARK INTER + INTRA:          -8.647
REMARK INTER:                  -7.494
REMARK INTRA:                  -1.154
REMARK UNBOUND:                -1.432
REMARK SMILES OC[C@@H]1O[C@@](CO)(O[C@@H]2O[C@H](CO)[C@@H](O)[C@@H](O)[C@H]2O)[C@@H](O)[C@@H]1O
REMARK SMILES IDX 8 1 9 2 11 3 14 4 10 5 16 6 18 7 12 8 13 9 15 11 17 13 19 15
REMARK SMILES IDX 5 17 20 18 4 19 22 20 3 21 6 22 7 23 21 25 23 27 2 29 1 30
REMARK H PARENT 13 10 15 12 17 14 19 16 7 24 21 26 23 28 1 31
REMARK Flexibility Score: inf
ROOT
ATOM      1  O   UNL     1      10.951  -4.145  18.447  1.00  0.00    -0.313 OA
ENDROOT
BRANCH   1   2
ATOM      2  C   UNL     1      11.038  -4.593  17.099  1.00  0.00     0.285 C 
ATOM      3  C   UNL     1      12.423  -4.769  15.221  1.00  0.00     0.178 C 
ATOM      4  C   UNL     1      11.308  -4.322  14.244  1.00  0.00     0.177 C 
ATOM      5  O   UNL     1      12.240  -4.161  16.486  1.00  0.00    -0.341 OA
ATOM      6  C   UNL     1       9.909  -4.643  14.816  1.00  0.00     0.179 C 
ATOM      7  C   UNL     1       9.783  -4.186  16.285  1.00  0.00     0.202 C 
BRANCH   3   8
ATOM      8  C   UNL     1      13.813  -4.358  14.707  1.00  0.00     0.191 C 
BRANCH   8   9
ATOM      9  O   UNL     1      13.714  -3.464  13.631  1.00  0.00    -0.394 OA
ATOM     10  H   UNL     1      14.637  -3.154  13.432  1.00  0.00     0.210 HD
ENDBRANCH   8   9
ENDBRANCH   3   8
BRANCH   4  11
ATOM     11  O   UNL     1      11.469  -4.955  13.000  1.00  0.00    -0.387 OA
ATOM     12  H   UNL     1      12.143  -4.429  12.496  1.00  0.00     0.211 HD
ENDBRANCH   4  11
BRANCH   6  13
ATOM     13  O   UNL     1       9.583  -6.005  14.660  1.00  0.00    -0.387 OA
ATOM     14  H   UNL     1       8.878  -6.236  15.316  1.00  0.00     0.211 HD
ENDBRANCH   6  13
BRANCH   7  15
ATOM     15  O   UNL     1       8.632  -4.758  16.852  1.00  0.00    -0.385 OA
ATOM     16  H   UNL     1       8.916  -5.592  17.309  1.00  0.00     0.211 HD
ENDBRANCH   7  15
ENDBRANCH   1   2
BRANCH   1  17
ATOM     17  C   UNL     1      11.625  -4.912  19.455  1.00  0.00     0.224 C 
ATOM     18  C   UNL     1      12.731  -4.057  20.111  1.00  0.00     0.208 C 
ATOM     19  O   UNL     1      10.759  -5.395  20.473  1.00  0.00    -0.337 OA
ATOM     20  C   UNL     1      12.164  -3.734  21.471  1.00  0.00     0.180 C 
ATOM     21  C   UNL     1      11.187  -4.884  21.722  1.00  0.00     0.179 C 
BRANCH  17  22
ATOM     22  C   UNL     1      12.241  -6.125  18.731  1.00  0.00     0.225 C 
BRANCH  22  23
ATOM     23  O   UNL     1      13.627  -5.976  18.586  1.00  0.00    -0.391 OA
ATOM     24  H   UNL     1      13.791  -5.859  17.614  1.00  0.00     0.210 HD
ENDBRANCH  22  23
ENDBRANCH  17  22
BRANCH  18  25
ATOM     25  O   UNL     1      12.986  -2.885  19.378  1.00  0.00    -0.385 OA
ATOM     26  H   UNL     1      13.450  -2.259  19.993  1.00  0.00     0.211 HD
ENDBRANCH  18  25
BRANCH  20  27
ATOM     27  O   UNL     1      13.171  -3.658  22.449  1.00  0.00    -0.387 OA
ATOM     28  H   UNL     1      12.963  -4.356  23.123  1.00  0.00     0.211 HD
ENDBRANCH  20  27
BRANCH  21  29
ATOM     29  C   UNL     1      11.775  -6.023  22.576  1.00  0.00     0.191 C 
BRANCH  29  30
ATOM     30  O   UNL     1      11.608  -5.746  23.940  1.00  0.00    -0.394 OA
ATOM     31  H   UNL     1      10.983  -6.430  24.297  1.00  0.00     0.210 HD
ENDBRANCH  29  30
ENDBRANCH  21  29
ENDBRANCH   1  17
TORSDOF 13
ENDMDL
MODEL 3
REMARK VINA RESULT:    -4.687     19.863     21.830
REMARK INTER + INTRA:          -8.585
REMARK INTER:                  -7.295
REMARK INTRA:                  -1.290
REMARK UNBOUND:                -1.432
REMARK SMILES OC[C@@H]1O[C@@](CO)(O[C@@H]2O[C@H](CO)[C@@H](O)[C@@H](O)[C@H]2O)[C@@H](O)[C@@H]1O
REMARK SMILES IDX 8 1 9 2 11 3 14 4 10 5 16 6 18 7 12 8 13 9 15 11 17 13 19 15
REMARK SMILES IDX 5 17 20 18 4 19 22 20 3 21 6 22 7 23 21 25 23 27 2 29 1 30
REMARK H PARENT 13 10 15 12 17 14 19 16 7 24 21 26 23 28 1 31
REMARK Flexibility Score: inf
ROOT
ATOM      1  O   UNL     1      11.726  -5.792  18.161  1.00  0.00    -0.313 OA
ENDROOT
BRANCH   1   2
ATOM      2  C   UNL     1      11.806  -5.042  16.954  1.00  0.00     0.285 C 
ATOM      3  C   UNL     1      10.611  -3.734  15.424  1.00  0.00     0.178 C 
ATOM      4  C   UNL     1      11.254  -4.422  14.195  1.00  0.00     0.177 C 
ATOM      5  O   UNL     1      10.522  -4.644  16.505  1.00  0.00    -0.341 OA
ATOM      6  C   UNL     1      12.642  -5.001  14.548  1.00  0.00     0.179 C 
ATOM      7  C   UNL     1      12.598  -5.807  15.863  1.00  0.00     0.202 C 
BRANCH   3   8
ATOM      8  C   UNL     1       9.186  -3.248  15.110  1.00  0.00     0.191 C 
BRANCH   8   9
ATOM      9  O   UNL     1       9.190  -1.922  14.655  1.00  0.00    -0.394 OA
ATOM     10  H   UNL     1       8.456  -1.846  13.990  1.00  0.00     0.210 HD
ENDBRANCH   8   9
ENDBRANCH   3   8
BRANCH   4  11
ATOM     11  O   UNL     1      11.376  -3.508  13.135  1.00  0.00    -0.387 OA
ATOM     12  H   UNL     1      12.308  -3.580  12.801  1.00  0.00     0.211 HD
ENDBRANCH   4  11
BRANCH   6  13
ATOM     13  O   UNL     1      13.632  -3.998  14.579  1.00  0.00    -0.387 OA
ATOM     14  H   UNL     1      13.200  -3.140  14.826  1.00  0.00     0.211 HD
ENDBRANCH   6  13
BRANCH   7  15
ATOM     15  O   UNL     1      13.910  -6.053  16.301  1.00  0.00    -0.385 OA
ATOM     16  H   UNL     1      13.989  -7.030  16.452  1.00  0.00     0.211 HD
ENDBRANCH   7  15
ENDBRANCH   1   2
BRANCH   1  17
ATOM     17  C   UNL     1      12.088  -5.135  19.385  1.00  0.00     0.224 C 
ATOM     18  C   UNL     1      10.815  -4.780  20.183  1.00  0.00     0.208 C 
ATOM     19  O   UNL     1      12.943  -5.912  20.212  1.00  0.00    -0.337 OA
ATOM     20  C   UNL     1      10.825  -5.773  21.318  1.00  0.00     0.180 C 
ATOM     21  C   UNL     1      12.307  -6.125  21.459  1.00  0.00     0.179 C 
BRANCH  17  22
ATOM     22  C   UNL     1      12.844  -3.855  18.978  1.00  0.00     0.225 C 
BRANCH  22  23
ATOM     23  O   UNL     1      12.842  -2.916  20.018  1.00  0.00    -0.391 OA
ATOM     24  H   UNL     1      12.030  -3.103  20.557  1.00  0.00     0.210 HD
ENDBRANCH  22  23
ENDBRANCH  17  22
BRANCH  18  25
ATOM     25  O   UNL     1       9.655  -4.916  19.402  1.00  0.00    -0.385 OA
ATOM     26  H   UNL     1       8.888  -4.686  19.988  1.00  0.00     0.211 HD
ENDBRANCH  18  25
BRANCH  20  27
ATOM     27  O   UNL     1      10.287  -5.221  22.495  1.00  0.00    -0.387 OA
ATOM     28  H   UNL     1       9.312  -5.120  22.340  1.00  0.00     0.211 HD
ENDBRANCH  20  27
BRANCH  21  29
ATOM     29  C   UNL     1      13.034  -5.326  22.557  1.00  0.00     0.191 C 
BRANCH  29  30
ATOM     30  O   UNL     1      12.848  -5.934  23.807  1.00  0.00    -0.394 OA
ATOM     31  H   UNL     1      13.584  -5.616  24.392  1.00  0.00     0.210 HD
ENDBRANCH  29  30
ENDBRANCH  21  29
ENDBRANCH   1  17
TORSDOF 13
ENDMDL
MODEL 4
REMARK VINA RESULT:    -4.453      1.363      2.108
REMARK INTER + INTRA:          -8.228
REMARK INTER:                  -6.926
REMARK INTRA:                  -1.302
REMARK UNBOUND:                -1.432
REMARK SMILES OC[C@@H]1O[C@@](CO)(O[C@@H]2O[C@H](CO)[C@@H](O)[C@@H](O)[C@H]2O)[C@@H](O)[C@@H]1O
REMARK SMILES IDX 8 1 9 2 11 3 14 4 10 5 16 6 18 7 12 8 13 9 15 11 17 13 19 15
REMARK SMILES IDX 5 17 20 18 4 19 22 20 3 21 6 22 7 23 21 25 23 27 2 29 1 30
REMARK H PARENT 13 10 15 12 17 14 19 16 7 24 21 26 23 28 1 31
REMARK Flexibility Score: inf
ROOT
ATOM      1  O   UNL     1      22.149  11.453  11.093  1.00  0.00    -0.313 OA
ENDROOT
BRANCH   1   2
ATOM      2  C   UNL     1      21.032  12.327  11.210  1.00  0.00     0.285 C 
ATOM      3  C   UNL     1      19.579  13.395  12.702  1.00  0.00     0.178 C 
ATOM      4  C   UNL     1      18.324  13.070  11.854  1.00  0.00     0.177 C 
ATOM      5  O   UNL     1      20.554  12.381  12.543  1.00  0.00    -0.341 OA
ATOM      6  C   UNL     1      18.694  12.887  10.366  1.00  0.00     0.179 C 
ATOM      7  C   UNL     1      19.915  11.957  10.200  1.00  0.00     0.202 C 
BRANCH   3   8
ATOM      8  C   UNL     1      19.236  13.475  14.199  1.00  0.00     0.191 C 
BRANCH   8   9
ATOM      9  O   UNL     1      18.012  12.849  14.475  1.00  0.00    -0.394 OA
ATOM     10  H   UNL     1      17.501  12.836  13.623  1.00  0.00     0.210 HD
ENDBRANCH   8   9
ENDBRANCH   3   8
BRANCH   4  11
ATOM     11  O   UNL     1      17.372  14.096  11.984  1.00  0.00    -0.387 OA
ATOM     12  H   UNL     1      16.527  13.667  12.278  1.00  0.00     0.211 HD
ENDBRANCH   4  11
BRANCH   6  13
ATOM     13  O   UNL     1      18.885  14.125   9.720  1.00  0.00    -0.387 OA
ATOM     14  H   UNL     1      18.833  14.843  10.400  1.00  0.00     0.211 HD
ENDBRANCH   6  13
BRANCH   7  15
ATOM     15  O   UNL     1      20.400  12.057   8.885  1.00  0.00    -0.385 OA
ATOM     16  H   UNL     1      21.335  11.725   8.893  1.00  0.00     0.211 HD
ENDBRANCH   7  15
ENDBRANCH   1   2
BRANCH   1  17
ATOM     17  C   UNL     1      23.434  12.037  10.834  1.00  0.00     0.224 C 
ATOM     18  C   UNL     1      24.327  11.911  12.088  1.00  0.00     0.208 C 
ATOM     19  O   UNL     1      24.112  11.449   9.732  1.00  0.00    -0.337 OA
ATOM     20  C   UNL     1      25.315  10.837  11.708  1.00  0.00     0.180 C 
ATOM     21  C   UNL     1      25.344  10.916  10.181  1.00  0.00     0.179 C 
BRANCH  17  22
ATOM     22  C   UNL     1      23.174  13.519  10.505  1.00  0.00     0.225 C 
BRANCH  22  23
ATOM     23  O   UNL     1      23.181  13.737   9.120  1.00  0.00    -0.391 OA
ATOM     24  H   UNL     1      22.550  14.486   8.956  1.00  0.00     0.210 HD
ENDBRANCH  22  23
ENDBRANCH  17  22
BRANCH  18  25
ATOM     25  O   UNL     1      23.584  11.538  13.220  1.00  0.00    -0.385 OA
ATOM     26  H   UNL     1      23.799  12.195  13.932  1.00  0.00     0.211 HD
ENDBRANCH  18  25
BRANCH  20  27
ATOM     27  O   UNL     1      26.577  11.066  12.284  1.00  0.00    -0.387 OA
ATOM     28  H   UNL     1      27.213  10.461  11.821  1.00  0.00     0.211 HD
ENDBRANCH  20  27
BRANCH  21  29
ATOM     29  C   UNL     1      26.509  11.755   9.624  1.00  0.00     0.191 C 
BRANCH  29  30
ATOM     30  O   UNL     1      27.617  10.938   9.359  1.00  0.00    -0.394 OA
ATOM     31  H   UNL     1      28.418  11.428   9.679  1.00  0.00     0.210 HD
ENDBRANCH  29  30
ENDBRANCH  21  29
ENDBRANCH   1  17
TORSDOF 13
ENDMDL
MODEL 5
REMARK VINA RESULT:    -4.447     18.674     20.239
REMARK INTER + INTRA:          -8.219
REMARK INTER:                  -7.300
REMARK INTRA:                  -0.919
REMARK UNBOUND:                -1.432
REMARK SMILES OC[C@@H]1O[C@@](CO)(O[C@@H]2O[C@H](CO)[C@@H](O)[C@@H](O)[C@H]2O)[C@@H](O)[C@@H]1O
REMARK SMILES IDX 8 1 9 2 11 3 14 4 10 5 16 6 18 7 12 8 13 9 15 11 17 13 19 15
REMARK SMILES IDX 5 17 20 18 4 19 22 20 3 21 6 22 7 23 21 25 23 27 2 29 1 30
REMARK H PARENT 13 10 15 12 17 14 19 16 7 24 21 26 23 28 1 31
REMARK Flexibility Score: inf
ROOT
ATOM      1  O   UNL     1      12.320  -4.961  14.234  1.00  0.00    -0.313 OA
ENDROOT
BRANCH   1   2
ATOM      2  C   UNL     1      11.560  -4.665  15.400  1.00  0.00     0.285 C 
ATOM      3  C   UNL     1      11.667  -4.152  17.682  1.00  0.00     0.178 C 
ATOM      4  C   UNL     1      10.508  -5.114  18.044  1.00  0.00     0.177 C 
ATOM      5  O   UNL     1      12.376  -4.642  16.558  1.00  0.00    -0.341 OA
ATOM      6  C   UNL     1       9.563  -5.322  16.840  1.00  0.00     0.179 C 
ATOM      7  C   UNL     1      10.354  -5.628  15.551  1.00  0.00     0.202 C 
BRANCH   3   8
ATOM      8  C   UNL     1      12.669  -4.023  18.841  1.00  0.00     0.191 C 
BRANCH   8   9
ATOM      9  O   UNL     1      12.417  -4.975  19.839  1.00  0.00    -0.394 OA
ATOM     10  H   UNL     1      11.820  -4.540  20.503  1.00  0.00     0.210 HD
ENDBRANCH   8   9
ENDBRANCH   3   8
BRANCH   4  11
ATOM     11  O   UNL     1       9.782  -4.609  19.136  1.00  0.00    -0.387 OA
ATOM     12  H   UNL     1       9.478  -5.391  19.665  1.00  0.00     0.211 HD
ENDBRANCH   4  11
BRANCH   6  13
ATOM     13  O   UNL     1       8.686  -4.232  16.672  1.00  0.00    -0.387 OA
ATOM     14  H   UNL     1       8.527  -4.105  15.702  1.00  0.00     0.211 HD
ENDBRANCH   6  13
BRANCH   7  15
ATOM     15  O   UNL     1       9.499  -5.509  14.442  1.00  0.00    -0.385 OA
ATOM     16  H   UNL     1       8.771  -4.888  14.702  1.00  0.00     0.211 HD
ENDBRANCH   7  15
ENDBRANCH   1   2
BRANCH   1  17
ATOM     17  C   UNL     1      12.408  -3.953  13.216  1.00  0.00     0.224 C 
ATOM     18  C   UNL     1      13.891  -3.619  12.940  1.00  0.00     0.208 C 
ATOM     19  O   UNL     1      11.791  -4.328  11.993  1.00  0.00    -0.337 OA
ATOM     20  C   UNL     1      14.151  -4.260  11.600  1.00  0.00     0.180 C 
ATOM     21  C   UNL     1      12.760  -4.307  10.962  1.00  0.00     0.179 C 
BRANCH  17  22
ATOM     22  C   UNL     1      11.672  -2.718  13.770  1.00  0.00     0.225 C 
BRANCH  22  23
ATOM     23  O   UNL     1      12.436  -2.073  14.751  1.00  0.00    -0.391 OA
ATOM     24  H   UNL     1      12.010  -2.292  15.621  1.00  0.00     0.210 HD
ENDBRANCH  22  23
ENDBRANCH  17  22
BRANCH  18  25
ATOM     25  O   UNL     1      14.737  -4.151  13.928  1.00  0.00    -0.385 OA
ATOM     26  H   UNL     1      14.213  -4.844  14.409  1.00  0.00     0.211 HD
ENDBRANCH  18  25
BRANCH  20  27
ATOM     27  O   UNL     1      15.069  -3.516  10.838  1.00  0.00    -0.387 OA
ATOM     28  H   UNL     1      14.964  -3.815   9.898  1.00  0.00     0.211 HD
ENDBRANCH  20  27
BRANCH  21  29
ATOM     29  C   UNL     1      12.477  -3.136  10.003  1.00  0.00     0.191 C 
BRANCH  29  30
ATOM     30  O   UNL     1      12.791  -3.497   8.685  1.00  0.00    -0.394 OA
ATOM     31  H   UNL     1      11.939  -3.490   8.176  1.00  0.00     0.210 HD
ENDBRANCH  29  30
ENDBRANCH  21  29
ENDBRANCH   1  17
TORSDOF 13
ENDMDL
MODEL 6
REMARK VINA RESULT:    -4.374      1.452      6.545
REMARK INTER + INTRA:          -8.107
REMARK INTER:                  -6.809
REMARK INTRA:                  -1.299
REMARK UNBOUND:                -1.432
REMARK SMILES OC[C@@H]1O[C@@](CO)(O[C@@H]2O[C@H](CO)[C@@H](O)[C@@H](O)[C@H]2O)[C@@H](O)[C@@H]1O
REMARK SMILES IDX 8 1 9 2 11 3 14 4 10 5 16 6 18 7 12 8 13 9 15 11 17 13 19 15
REMARK SMILES IDX 5 17 20 18 4 19 22 20 3 21 6 22 7 23 21 25 23 27 2 29 1 30
REMARK H PARENT 13 10 15 12 17 14 19 16 7 24 21 26 23 28 1 31
REMARK Flexibility Score: inf
ROOT
ATOM      1  O   UNL     1      21.979  12.080  10.268  1.00  0.00    -0.313 OA
ENDROOT
BRANCH   1   2
ATOM      2  C   UNL     1      23.240  11.951  10.915  1.00  0.00     0.285 C 
ATOM      3  C   UNL     1      25.544  12.317  10.722  1.00  0.00     0.178 C 
ATOM      4  C   UNL     1      25.905  10.933  11.315  1.00  0.00     0.177 C 
ATOM      5  O   UNL     1      24.309  12.248  10.034  1.00  0.00    -0.341 OA
ATOM      6  C   UNL     1      24.783  10.417  12.242  1.00  0.00     0.179 C 
ATOM      7  C   UNL     1      23.396  10.558  11.579  1.00  0.00     0.202 C 
BRANCH   3   8
ATOM      8  C   UNL     1      26.608  12.789   9.717  1.00  0.00     0.191 C 
BRANCH   8   9
ATOM      9  O   UNL     1      27.368  11.713   9.238  1.00  0.00    -0.394 OA
ATOM     10  H   UNL     1      27.868  12.046   8.447  1.00  0.00     0.210 HD
ENDBRANCH   8   9
ENDBRANCH   3   8
BRANCH   4  11
ATOM     11  O   UNL     1      27.113  11.011  12.030  1.00  0.00    -0.387 OA
ATOM     12  H   UNL     1      26.969  11.662  12.764  1.00  0.00     0.211 HD
ENDBRANCH   4  11
BRANCH   6  13
ATOM     13  O   UNL     1      24.826  11.037  13.507  1.00  0.00    -0.387 OA
ATOM     14  H   UNL     1      25.175  11.958  13.392  1.00  0.00     0.211 HD
ENDBRANCH   6  13
BRANCH   7  15
ATOM     15  O   UNL     1      22.396  10.370  12.548  1.00  0.00    -0.385 OA
ATOM     16  H   UNL     1      22.851  10.320  13.429  1.00  0.00     0.211 HD
ENDBRANCH   7  15
ENDBRANCH   1   2
BRANCH   1  17
ATOM     17  C   UNL     1      20.934  12.772  10.966  1.00  0.00     0.224 C 
ATOM     18  C   UNL     1      20.246  13.775  10.014  1.00  0.00     0.208 C 
ATOM     19  O   UNL     1      19.945  11.908  11.507  1.00  0.00    -0.337 OA
ATOM     20  C   UNL     1      18.915  13.127   9.724  1.00  0.00     0.180 C 
ATOM     21  C   UNL     1      18.688  12.239  10.950  1.00  0.00     0.179 C 
BRANCH  17  22
ATOM     22  C   UNL     1      21.615  13.516  12.131  1.00  0.00     0.225 C 
BRANCH  22  23
ATOM     23  O   UNL     1      21.072  13.127  13.363  1.00  0.00    -0.391 OA
ATOM     24  H   UNL     1      21.844  12.935  13.956  1.00  0.00     0.210 HD
ENDBRANCH  22  23
ENDBRANCH  17  22
BRANCH  18  25
ATOM     25  O   UNL     1      20.985  13.963   8.833  1.00  0.00    -0.385 OA
ATOM     26  H   UNL     1      21.150  13.061   8.454  1.00  0.00     0.211 HD
ENDBRANCH  18  25
BRANCH  20  27
ATOM     27  O   UNL     1      17.898  14.084   9.555  1.00  0.00    -0.387 OA
ATOM     28  H   UNL     1      18.169  14.650   8.786  1.00  0.00     0.211 HD
ENDBRANCH  20  27
BRANCH  21  29
ATOM     29  C   UNL     1      17.794  12.884  12.026  1.00  0.00     0.191 C 
BRANCH  29  30
ATOM     30  O   UNL     1      18.049  12.310  13.280  1.00  0.00    -0.394 OA
ATOM     31  H   UNL     1      17.555  11.449  13.306  1.00  0.00     0.210 HD
ENDBRANCH  29  30
ENDBRANCH  21  29
ENDBRANCH   1  17
TORSDOF 13
ENDMDL
MODEL 7
REMARK VINA RESULT:    -4.326      2.039      5.780
REMARK INTER + INTRA:          -8.034
REMARK INTER:                  -6.752
REMARK INTRA:                  -1.281
REMARK UNBOUND:                -1.432
REMARK SMILES OC[C@@H]1O[C@@](CO)(O[C@@H]2O[C@H](CO)[C@@H](O)[C@@H](O)[C@H]2O)[C@@H](O)[C@@H]1O
REMARK SMILES IDX 8 1 9 2 11 3 14 4 10 5 16 6 18 7 12 8 13 9 15 11 17 13 19 15
REMARK SMILES IDX 5 17 20 18 4 19 22 20 3 21 6 22 7 23 21 25 23 27 2 29 1 30
REMARK H PARENT 13 10 15 12 17 14 19 16 7 24 21 26 23 28 1 31
REMARK Flexibility Score: inf
ROOT
ATOM      1  O   UNL     1      22.670  13.511  12.008  1.00  0.00    -0.313 OA
ENDROOT
BRANCH   1   2
ATOM      2  C   UNL     1      23.718  13.056  12.856  1.00  0.00     0.285 C 
ATOM      3  C   UNL     1      24.336  12.594  15.066  1.00  0.00     0.178 C 
ATOM      4  C   UNL     1      25.722  13.268  14.915  1.00  0.00     0.177 C 
ATOM      5  O   UNL     1      23.389  13.226  14.224  1.00  0.00    -0.341 OA
ATOM      6  C   UNL     1      26.190  13.248  13.443  1.00  0.00     0.179 C 
ATOM      7  C   UNL     1      25.071  13.719  12.490  1.00  0.00     0.202 C 
BRANCH   3   8
ATOM      8  C   UNL     1      23.816  12.703  16.509  1.00  0.00     0.191 C 
BRANCH   8   9
ATOM      9  O   UNL     1      24.411  11.741  17.338  1.00  0.00    -0.394 OA
ATOM     10  H   UNL     1      25.101  12.214  17.874  1.00  0.00     0.210 HD
ENDBRANCH   8   9
ENDBRANCH   3   8
BRANCH   4  11
ATOM     11  O   UNL     1      26.669  12.617  15.723  1.00  0.00    -0.387 OA
ATOM     12  H   UNL     1      27.555  13.001  15.493  1.00  0.00     0.211 HD
ENDBRANCH   4  11
BRANCH   6  13
ATOM     13  O   UNL     1      26.696  11.986  13.075  1.00  0.00    -0.387 OA
ATOM     14  H   UNL     1      26.549  11.358  13.827  1.00  0.00     0.211 HD
ENDBRANCH   6  13
BRANCH   7  15
ATOM     15  O   UNL     1      25.423  13.403  11.167  1.00  0.00    -0.385 OA
ATOM     16  H   UNL     1      25.272  14.218  10.623  1.00  0.00     0.211 HD
ENDBRANCH   7  15
ENDBRANCH   1   2
BRANCH   1  17
ATOM     17  C   UNL     1      21.967  12.535  11.225  1.00  0.00     0.224 C 
ATOM     18  C   UNL     1      20.615  12.205  11.893  1.00  0.00     0.208 C 
ATOM     19  O   UNL     1      21.725  12.949   9.888  1.00  0.00    -0.337 OA
ATOM     20  C   UNL     1      19.608  12.886  11.001  1.00  0.00     0.180 C 
ATOM     21  C   UNL     1      20.330  12.957   9.654  1.00  0.00     0.179 C 
BRANCH  17  22
ATOM     22  C   UNL     1      22.869  11.286  11.188  1.00  0.00     0.225 C 
BRANCH  22  23
ATOM     23  O   UNL     1      23.649  11.261  10.024  1.00  0.00    -0.391 OA
ATOM     24  H   UNL     1      23.047  10.957   9.295  1.00  0.00     0.210 HD
ENDBRANCH  22  23
ENDBRANCH  17  22
BRANCH  18  25
ATOM     25  O   UNL     1      20.547  12.703  13.205  1.00  0.00    -0.385 OA
ATOM     26  H   UNL     1      20.873  13.640  13.172  1.00  0.00     0.211 HD
ENDBRANCH  18  25
BRANCH  20  27
ATOM     27  O   UNL     1      18.404  12.162  10.930  1.00  0.00    -0.387 OA
ATOM     28  H   UNL     1      17.679  12.831  10.818  1.00  0.00     0.211 HD
ENDBRANCH  20  27
BRANCH  21  29
ATOM     29  C   UNL     1      19.957  11.816   8.688  1.00  0.00     0.191 C 
BRANCH  29  30
ATOM     30  O   UNL     1      18.691  12.044   8.129  1.00  0.00    -0.394 OA
ATOM     31  H   UNL     1      18.617  11.451   7.336  1.00  0.00     0.210 HD
ENDBRANCH  29  30
ENDBRANCH  21  29
ENDBRANCH   1  17
TORSDOF 13
ENDMDL
MODEL 8
REMARK VINA RESULT:    -2.708     19.008     21.128
REMARK INTER + INTRA:          -5.566
REMARK INTER:                  -4.651
REMARK INTRA:                  -0.915
REMARK UNBOUND:                -1.432
REMARK SMILES OC[C@@H]1O[C@@](CO)(O[C@@H]2O[C@H](CO)[C@@H](O)[C@@H](O)[C@H]2O)[C@@H](O)[C@@H]1O
REMARK SMILES IDX 8 1 9 2 11 3 14 4 10 5 16 6 18 7 12 8 13 9 15 11 17 13 19 15
REMARK SMILES IDX 5 17 20 18 4 19 22 20 3 21 6 22 7 23 21 25 23 27 2 29 1 30
REMARK H PARENT 13 10 15 12 17 14 19 16 7 24 21 26 23 28 1 31
REMARK Flexibility Score: inf
ROOT
ATOM      1  O   UNL     1      12.467  -4.139  16.578  1.00  0.00    -0.313 OA
ENDROOT
BRANCH   1   2
ATOM      2  C   UNL     1      12.214  -3.954  17.966  1.00  0.00     0.285 C 
ATOM      3  C   UNL     1      12.760  -2.701  19.867  1.00  0.00     0.178 C 
ATOM      4  C   UNL     1      12.834  -3.950  20.780  1.00  0.00     0.177 C 
ATOM      5  O   UNL     1      13.130  -3.039  18.543  1.00  0.00    -0.341 OA
ATOM      6  C   UNL     1      11.949  -5.090  20.231  1.00  0.00     0.179 C 
ATOM      7  C   UNL     1      12.182  -5.308  18.721  1.00  0.00     0.202 C 
BRANCH   3   8
ATOM      8  C   UNL     1      13.719  -1.599  20.348  1.00  0.00     0.191 C 
BRANCH   8   9
ATOM      9  O   UNL     1      13.947  -0.649  19.342  1.00  0.00    -0.394 OA
ATOM     10  H   UNL     1      14.873  -0.798  19.014  1.00  0.00     0.210 HD
ENDBRANCH   8   9
ENDBRANCH   3   8
BRANCH   4  11
ATOM     11  O   UNL     1      12.431  -3.621  22.085  1.00  0.00    -0.387 OA
ATOM     12  H   UNL     1      12.795  -2.719  22.279  1.00  0.00     0.211 HD
ENDBRANCH   4  11
BRANCH   6  13
ATOM     13  O   UNL     1      10.587  -4.880  20.527  1.00  0.00    -0.387 OA
ATOM     14  H   UNL     1      10.359  -5.401  21.339  1.00  0.00     0.211 HD
ENDBRANCH   6  13
BRANCH   7  15
ATOM     15  O   UNL     1      11.162  -6.125  18.206  1.00  0.00    -0.385 OA
ATOM     16  H   UNL     1      10.300  -5.681  18.416  1.00  0.00     0.211 HD
ENDBRANCH   7  15
ENDBRANCH   1   2
BRANCH   1  17
ATOM     17  C   UNL     1      11.430  -3.779  15.653  1.00  0.00     0.224 C 
ATOM     18  C   UNL     1      10.943  -5.036  14.900  1.00  0.00     0.208 C 
ATOM     19  O   UNL     1      10.312  -3.156  16.270  1.00  0.00    -0.337 OA
ATOM     20  C   UNL     1       9.590  -5.308  15.510  1.00  0.00     0.180 C 
ATOM     21  C   UNL     1       9.155  -3.931  16.016  1.00  0.00     0.179 C 
BRANCH  17  22
ATOM     22  C   UNL     1      12.060  -2.773  14.671  1.00  0.00     0.225 C 
BRANCH  22  23
ATOM     23  O   UNL     1      13.460  -2.851  14.698  1.00  0.00    -0.391 OA
ATOM     24  H   UNL     1      13.791  -1.952  14.440  1.00  0.00     0.210 HD
ENDBRANCH  22  23
ENDBRANCH  17  22
BRANCH  18  25
ATOM     25  O   UNL     1      11.811  -6.125  15.089  1.00  0.00    -0.385 OA
ATOM     26  H   UNL     1      12.199  -6.026  15.997  1.00  0.00     0.211 HD
ENDBRANCH  18  25
BRANCH  20  27
ATOM     27  O   UNL     1       8.695  -5.844  14.568  1.00  0.00    -0.387 OA
ATOM     28  H   UNL     1       7.858  -6.051  15.060  1.00  0.00     0.211 HD
ENDBRANCH  20  27
BRANCH  21  29
ATOM     29  C   UNL     1       8.226  -3.177  15.046  1.00  0.00     0.191 C 
BRANCH  29  30
ATOM     30  O   UNL     1       8.851  -2.014  14.575  1.00  0.00    -0.394 OA
ATOM     31  H   UNL     1       8.897  -1.384  15.340  1.00  0.00     0.210 HD
ENDBRANCH  29  30
ENDBRANCH  21  29
ENDBRANCH   1  17
TORSDOF 13
ENDMDL
