MODEL 1
REMARK VINA RESULT:    -5.519      0.000      0.000
REMARK INTER + INTRA:         -10.873
REMARK INTER:                  -8.584
REMARK INTRA:                  -2.289
REMARK UNBOUND:                -2.289
REMARK SMILES COc1cc(CNC(=O)CCCCC=CC(C)C)ccc1O
REMARK SMILES IDX 11 1 12 2 13 3 14 4 15 5 16 6 17 7 18 8 10 9 8 10 9 11 7 12
REMARK SMILES IDX 6 14 5 15 4 16 19 17 3 18 20 19 21 20 2 21 1 22 22 23
REMARK H PARENT 7 13 22 24
REMARK Flexibility Score: inf
ROOT
ATOM      1  C   UNL     1     170.963 143.037 150.539  1.00  0.00     0.010 C 
ENDROOT
BRANCH   1   2
ATOM      2  C   UNL     1     170.935 144.534 150.199  1.00  0.00     0.005 C 
BRANCH   2   3
ATOM      3  C   UNL     1     170.022 145.340 151.139  1.00  0.00     0.027 C 
BRANCH   3   4
ATOM      4  C   UNL     1     169.434 144.461 152.208  1.00  0.00    -0.031 C 
ATOM      5  C   UNL     1     168.449 144.893 153.011  1.00  0.00    -0.028 C 
BRANCH   5   6
ATOM      6  C   UNL     1     167.851 143.997 154.072  1.00  0.00     0.005 C 
ATOM      7  C   UNL     1     168.665 142.704 154.208  1.00  0.00     0.012 C 
ATOM      8  C   UNL     1     167.785 144.730 155.417  1.00  0.00     0.012 C 
ENDBRANCH   5   6
ENDBRANCH   3   4
ENDBRANCH   2   3
ENDBRANCH   1   2
BRANCH   1   9
ATOM      9  C   UNL     1     172.369 142.431 150.438  1.00  0.00     0.100 C 
BRANCH   9  10
ATOM     10  C   UNL     1     172.998 142.357 151.796  1.00  0.00     0.220 C 
ATOM     11  O   UNL     1     174.252 142.279 151.895  1.00  0.00    -0.275 OA
ATOM     12  N   UNL     1     172.179 142.429 152.973  1.00  0.00    -0.352 N 
ATOM     13  H   UNL     1     171.141 142.463 152.866  1.00  0.00     0.163 HD
BRANCH  12  14
ATOM     14  C   UNL     1     172.740 142.630 154.306  1.00  0.00     0.151 C 
BRANCH  14  15
ATOM     15  C   UNL     1     172.096 143.825 154.954  1.00  0.00    -0.025 A 
ATOM     16  C   UNL     1     171.577 143.733 156.255  1.00  0.00     0.056 A 
ATOM     17  C   UNL     1     172.078 145.059 154.290  1.00  0.00     0.009 A 
ATOM     18  C   UNL     1     171.025 144.865 156.889  1.00  0.00     0.160 A 
ATOM     19  C   UNL     1     171.530 146.183 154.909  1.00  0.00     0.050 A 
ATOM     20  C   UNL     1     171.003 146.094 156.202  1.00  0.00     0.157 A 
BRANCH  18  21
ATOM     21  O   UNL     1     170.502 144.807 158.190  1.00  0.00    -0.493 OA
ATOM     22  C   UNL     1     169.570 143.830 158.645  1.00  0.00     0.278 C 
ENDBRANCH  18  21
BRANCH  20  23
ATOM     23  O   UNL     1     170.465 147.239 156.789  1.00  0.00    -0.504 OA
ATOM     24  H   UNL     1     169.543 147.249 157.212  1.00  0.00     0.293 HD
ENDBRANCH  20  23
ENDBRANCH  14  15
ENDBRANCH  12  14
ENDBRANCH   9  10
ENDBRANCH   1   9
TORSDOF 10
ENDMDL
MODEL 2
REMARK VINA RESULT:    -5.444      3.795      4.943
REMARK INTER + INTRA:         -10.756
REMARK INTER:                 -10.068
REMARK INTRA:                  -0.688
REMARK UNBOUND:                -2.289
REMARK SMILES COc1cc(CNC(=O)CCCCC=CC(C)C)ccc1O
REMARK SMILES IDX 11 1 12 2 13 3 14 4 15 5 16 6 17 7 18 8 10 9 8 10 9 11 7 12
REMARK SMILES IDX 6 14 5 15 4 16 19 17 3 18 20 19 21 20 2 21 1 22 22 23
REMARK H PARENT 7 13 22 24
REMARK Flexibility Score: inf
ROOT
ATOM      1  C   UNL     1     169.090 144.295 148.308  1.00  0.00     0.010 C 
ENDROOT
BRANCH   1   2
ATOM      2  C   UNL     1     168.856 144.722 146.851  1.00  0.00     0.005 C 
BRANCH   2   3
ATOM      3  C   UNL     1     167.667 143.994 146.203  1.00  0.00     0.027 C 
BRANCH   3   4
ATOM      4  C   UNL     1     166.477 144.905 146.079  1.00  0.00    -0.031 C 
ATOM      5  C   UNL     1     166.449 146.112 146.667  1.00  0.00    -0.028 C 
BRANCH   5   6
ATOM      6  C   UNL     1     165.255 147.027 146.523  1.00  0.00     0.005 C 
ATOM      7  C   UNL     1     164.176 146.674 147.555  1.00  0.00     0.012 C 
ATOM      8  C   UNL     1     165.682 148.492 146.677  1.00  0.00     0.012 C 
ENDBRANCH   5   6
ENDBRANCH   3   4
ENDBRANCH   2   3
ENDBRANCH   1   2
BRANCH   1   9
ATOM      9  C   UNL     1     170.318 143.388 148.471  1.00  0.00     0.100 C 
BRANCH   9  10
ATOM     10  C   UNL     1     170.937 143.594 149.820  1.00  0.00     0.220 C 
ATOM     11  O   UNL     1     172.054 143.070 150.076  1.00  0.00    -0.275 OA
ATOM     12  N   UNL     1     170.285 144.426 150.791  1.00  0.00    -0.352 N 
ATOM     13  H   UNL     1     169.345 144.825 150.567  1.00  0.00     0.163 HD
BRANCH  12  14
ATOM     14  C   UNL     1     170.952 144.879 152.008  1.00  0.00     0.151 C 
BRANCH  14  15
ATOM     15  C   UNL     1     170.017 144.748 153.180  1.00  0.00    -0.025 A 
ATOM     16  C   UNL     1     170.500 144.870 154.491  1.00  0.00     0.056 A 
ATOM     17  C   UNL     1     168.642 144.578 152.964  1.00  0.00     0.009 A 
ATOM     18  C   UNL     1     169.618 144.806 155.589  1.00  0.00     0.160 A 
ATOM     19  C   UNL     1     167.764 144.510 154.046  1.00  0.00     0.050 A 
ATOM     20  C   UNL     1     168.243 144.621 155.355  1.00  0.00     0.157 A 
BRANCH  18  21
ATOM     21  O   UNL     1     170.070 144.928 156.913  1.00  0.00    -0.493 OA
ATOM     22  C   UNL     1     171.128 145.786 157.331  1.00  0.00     0.278 C 
ENDBRANCH  18  21
BRANCH  20  23
ATOM     23  O   UNL     1     167.335 144.550 156.412  1.00  0.00    -0.504 OA
ATOM     24  H   UNL     1     167.547 144.067 157.278  1.00  0.00     0.293 HD
ENDBRANCH  20  23
ENDBRANCH  14  15
ENDBRANCH  12  14
ENDBRANCH   9  10
ENDBRANCH   1   9
TORSDOF 10
ENDMDL
MODEL 3
REMARK VINA RESULT:    -5.409      2.361      4.941
REMARK INTER + INTRA:         -10.702
REMARK INTER:                  -8.899
REMARK INTRA:                  -1.803
REMARK UNBOUND:                -2.289
REMARK SMILES COc1cc(CNC(=O)CCCCC=CC(C)C)ccc1O
REMARK SMILES IDX 11 1 12 2 13 3 14 4 15 5 16 6 17 7 18 8 10 9 8 10 9 11 7 12
REMARK SMILES IDX 6 14 5 15 4 16 19 17 3 18 20 19 21 20 2 21 1 22 22 23
REMARK H PARENT 7 13 22 24
REMARK Flexibility Score: inf
ROOT
ATOM      1  C   UNL     1     167.723 141.995 156.295  1.00  0.00     0.010 C 
ENDROOT
BRANCH   1   2
ATOM      2  C   UNL     1     168.462 143.011 155.412  1.00  0.00     0.005 C 
BRANCH   2   3
ATOM      3  C   UNL     1     167.557 144.164 154.947  1.00  0.00     0.027 C 
BRANCH   3   4
ATOM      4  C   UNL     1     167.914 144.605 153.555  1.00  0.00    -0.031 C 
ATOM      5  C   UNL     1     168.990 144.119 152.916  1.00  0.00    -0.028 C 
BRANCH   5   6
ATOM      6  C   UNL     1     169.332 144.556 151.510  1.00  0.00     0.005 C 
ATOM      7  C   UNL     1     170.085 145.892 151.527  1.00  0.00     0.012 C 
ATOM      8  C   UNL     1     170.167 143.482 150.803  1.00  0.00     0.012 C 
ENDBRANCH   5   6
ENDBRANCH   3   4
ENDBRANCH   2   3
ENDBRANCH   1   2
BRANCH   1   9
ATOM      9  C   UNL     1     167.625 142.443 157.760  1.00  0.00     0.100 C 
BRANCH   9  10
ATOM     10  C   UNL     1     168.971 142.867 158.262  1.00  0.00     0.220 C 
ATOM     11  O   UNL     1     169.879 142.005 158.405  1.00  0.00    -0.275 OA
ATOM     12  N   UNL     1     169.236 144.253 158.525  1.00  0.00    -0.352 N 
ATOM     13  H   UNL     1     168.460 144.945 158.429  1.00  0.00     0.163 HD
BRANCH  12  14
ATOM     14  C   UNL     1     170.586 144.761 158.756  1.00  0.00     0.151 C 
BRANCH  14  15
ATOM     15  C   UNL     1     171.260 145.030 157.438  1.00  0.00    -0.025 A 
ATOM     16  C   UNL     1     172.502 144.446 157.144  1.00  0.00     0.056 A 
ATOM     17  C   UNL     1     170.614 145.804 156.464  1.00  0.00     0.009 A 
ATOM     18  C   UNL     1     173.110 144.647 155.888  1.00  0.00     0.160 A 
ATOM     19  C   UNL     1     171.211 146.011 155.220  1.00  0.00     0.050 A 
ATOM     20  C   UNL     1     172.454 145.439 154.927  1.00  0.00     0.157 A 
BRANCH  18  21
ATOM     21  O   UNL     1     174.349 144.074 155.562  1.00  0.00    -0.493 OA
ATOM     22  C   UNL     1     174.621 142.675 155.570  1.00  0.00     0.278 C 
ENDBRANCH  18  21
BRANCH  20  23
ATOM     23  O   UNL     1     173.019 145.665 153.672  1.00  0.00    -0.504 OA
ATOM     24  H   UNL     1     172.612 145.298 152.819  1.00  0.00     0.293 HD
ENDBRANCH  20  23
ENDBRANCH  14  15
ENDBRANCH  12  14
ENDBRANCH   9  10
ENDBRANCH   1   9
TORSDOF 10
ENDMDL
MODEL 4
REMARK VINA RESULT:    -5.265      1.488      2.789
REMARK INTER + INTRA:         -10.479
REMARK INTER:                  -8.210
REMARK INTRA:                  -2.269
REMARK UNBOUND:                -2.289
REMARK SMILES COc1cc(CNC(=O)CCCCC=CC(C)C)ccc1O
REMARK SMILES IDX 11 1 12 2 13 3 14 4 15 5 16 6 17 7 18 8 10 9 8 10 9 11 7 12
REMARK SMILES IDX 6 14 5 15 4 16 19 17 3 18 20 19 21 20 2 21 1 22 22 23
REMARK H PARENT 7 13 22 24
REMARK Flexibility Score: inf
ROOT
ATOM      1  C   UNL     1     171.261 144.465 150.753  1.00  0.00     0.010 C 
ENDROOT
BRANCH   1   2
ATOM      2  C   UNL     1     169.731 144.581 150.688  1.00  0.00     0.005 C 
BRANCH   2   3
ATOM      3  C   UNL     1     169.138 145.309 151.905  1.00  0.00     0.027 C 
BRANCH   3   4
ATOM      4  C   UNL     1     170.218 145.740 152.859  1.00  0.00    -0.031 C 
ATOM      5  C   UNL     1     169.935 146.145 154.107  1.00  0.00    -0.028 C 
BRANCH   5   6
ATOM      6  C   UNL     1     171.028 146.560 155.064  1.00  0.00     0.005 C 
ATOM      7  C   UNL     1     170.492 146.633 156.499  1.00  0.00     0.012 C 
ATOM      8  C   UNL     1     172.209 145.585 154.984  1.00  0.00     0.012 C 
ENDBRANCH   5   6
ENDBRANCH   3   4
ENDBRANCH   2   3
ENDBRANCH   1   2
BRANCH   1   9
ATOM      9  C   UNL     1     171.751 143.013 150.669  1.00  0.00     0.100 C 
BRANCH   9  10
ATOM     10  C   UNL     1     172.102 142.507 152.035  1.00  0.00     0.220 C 
ATOM     11  O   UNL     1     173.314 142.418 152.370  1.00  0.00    -0.275 OA
ATOM     12  N   UNL     1     171.064 142.179 152.969  1.00  0.00    -0.352 N 
ATOM     13  H   UNL     1     170.067 142.231 152.660  1.00  0.00     0.163 HD
BRANCH  12  14
ATOM     14  C   UNL     1     171.331 141.939 154.385  1.00  0.00     0.151 C 
BRANCH  14  15
ATOM     15  C   UNL     1     170.201 142.485 155.215  1.00  0.00    -0.025 A 
ATOM     16  C   UNL     1     170.387 142.752 156.581  1.00  0.00     0.056 A 
ATOM     17  C   UNL     1     168.976 142.803 154.611  1.00  0.00     0.009 A 
ATOM     18  C   UNL     1     169.350 143.319 157.349  1.00  0.00     0.160 A 
ATOM     19  C   UNL     1     167.944 143.360 155.366  1.00  0.00     0.050 A 
ATOM     20  C   UNL     1     168.122 143.619 156.729  1.00  0.00     0.157 A 
BRANCH  18  21
ATOM     21  O   UNL     1     169.507 143.601 158.715  1.00  0.00    -0.493 OA
ATOM     22  C   UNL     1     170.459 144.517 159.248  1.00  0.00     0.278 C 
ENDBRANCH  18  21
BRANCH  20  23
ATOM     23  O   UNL     1     167.068 144.178 157.451  1.00  0.00    -0.504 OA
ATOM     24  H   UNL     1     167.089 144.264 158.461  1.00  0.00     0.293 HD
ENDBRANCH  20  23
ENDBRANCH  14  15
ENDBRANCH  12  14
ENDBRANCH   9  10
ENDBRANCH   1   9
TORSDOF 10
ENDMDL
MODEL 5
REMARK VINA RESULT:    -5.239      2.048      3.884
REMARK INTER + INTRA:         -10.437
REMARK INTER:                  -8.244
REMARK INTRA:                  -2.194
REMARK UNBOUND:                -2.289
REMARK SMILES COc1cc(CNC(=O)CCCCC=CC(C)C)ccc1O
REMARK SMILES IDX 11 1 12 2 13 3 14 4 15 5 16 6 17 7 18 8 10 9 8 10 9 11 7 12
REMARK SMILES IDX 6 14 5 15 4 16 19 17 3 18 20 19 21 20 2 21 1 22 22 23
REMARK H PARENT 7 13 22 24
REMARK Flexibility Score: inf
ROOT
ATOM      1  C   UNL     1     170.669 141.973 149.689  1.00  0.00     0.010 C 
ENDROOT
BRANCH   1   2
ATOM      2  C   UNL     1     171.112 141.224 150.954  1.00  0.00     0.005 C 
BRANCH   2   3
ATOM      3  C   UNL     1     170.159 141.444 152.140  1.00  0.00     0.027 C 
BRANCH   3   4
ATOM      4  C   UNL     1     170.855 142.152 153.271  1.00  0.00    -0.031 C 
ATOM      5  C   UNL     1     172.015 142.803 153.087  1.00  0.00    -0.028 C 
BRANCH   5   6
ATOM      6  C   UNL     1     172.698 143.525 154.225  1.00  0.00     0.005 C 
ATOM      7  C   UNL     1     173.521 142.545 155.070  1.00  0.00     0.012 C 
ATOM      8  C   UNL     1     173.594 144.648 153.686  1.00  0.00     0.012 C 
ENDBRANCH   5   6
ENDBRANCH   3   4
ENDBRANCH   2   3
ENDBRANCH   1   2
BRANCH   1   9
ATOM      9  C   UNL     1     171.389 143.318 149.513  1.00  0.00     0.100 C 
BRANCH   9  10
ATOM     10  C   UNL     1     170.490 144.443 149.924  1.00  0.00     0.220 C 
ATOM     11  O   UNL     1     169.419 144.645 149.290  1.00  0.00    -0.275 OA
ATOM     12  N   UNL     1     170.821 145.248 151.065  1.00  0.00    -0.352 N 
ATOM     13  H   UNL     1     171.728 145.083 151.557  1.00  0.00     0.163 HD
BRANCH  12  14
ATOM     14  C   UNL     1     169.869 146.175 151.673  1.00  0.00     0.151 C 
BRANCH  14  15
ATOM     15  C   UNL     1     169.447 145.657 153.021  1.00  0.00    -0.025 A 
ATOM     16  C   UNL     1     170.126 146.060 154.181  1.00  0.00     0.056 A 
ATOM     17  C   UNL     1     168.321 144.829 153.134  1.00  0.00     0.009 A 
ATOM     18  C   UNL     1     169.697 145.625 155.452  1.00  0.00     0.160 A 
ATOM     19  C   UNL     1     167.893 144.390 154.387  1.00  0.00     0.050 A 
ATOM     20  C   UNL     1     168.573 144.781 155.545  1.00  0.00     0.157 A 
BRANCH  18  21
ATOM     21  O   UNL     1     170.352 146.013 156.631  1.00  0.00    -0.493 OA
ATOM     22  C   UNL     1     171.615 145.510 157.058  1.00  0.00     0.278 C 
ENDBRANCH  18  21
BRANCH  20  23
ATOM     23  O   UNL     1     168.115 144.325 156.781  1.00  0.00    -0.504 OA
ATOM     24  H   UNL     1     167.360 144.781 157.281  1.00  0.00     0.293 HD
ENDBRANCH  20  23
ENDBRANCH  14  15
ENDBRANCH  12  14
ENDBRANCH   9  10
ENDBRANCH   1   9
TORSDOF 10
ENDMDL
MODEL 6
REMARK VINA RESULT:    -5.215      2.244      6.143
REMARK INTER + INTRA:         -10.401
REMARK INTER:                  -8.397
REMARK INTRA:                  -2.003
REMARK UNBOUND:                -2.289
REMARK SMILES COc1cc(CNC(=O)CCCCC=CC(C)C)ccc1O
REMARK SMILES IDX 11 1 12 2 13 3 14 4 15 5 16 6 17 7 18 8 10 9 8 10 9 11 7 12
REMARK SMILES IDX 6 14 5 15 4 16 19 17 3 18 20 19 21 20 2 21 1 22 22 23
REMARK H PARENT 7 13 22 24
REMARK Flexibility Score: inf
ROOT
ATOM      1  C   UNL     1     170.836 143.883 158.911  1.00  0.00     0.010 C 
ENDROOT
BRANCH   1   2
ATOM      2  C   UNL     1     171.313 145.253 159.416  1.00  0.00     0.005 C 
BRANCH   2   3
ATOM      3  C   UNL     1     171.469 146.282 158.285  1.00  0.00     0.027 C 
BRANCH   3   4
ATOM      4  C   UNL     1     172.145 145.673 157.087  1.00  0.00    -0.031 C 
ATOM      5  C   UNL     1     171.657 145.832 155.847  1.00  0.00    -0.028 C 
BRANCH   5   6
ATOM      6  C   UNL     1     172.352 145.231 154.647  1.00  0.00     0.005 C 
ATOM      7  C   UNL     1     173.723 145.884 154.433  1.00  0.00     0.012 C 
ATOM      8  C   UNL     1     172.504 143.715 154.820  1.00  0.00     0.012 C 
ENDBRANCH   5   6
ENDBRANCH   3   4
ENDBRANCH   2   3
ENDBRANCH   1   2
BRANCH   1   9
ATOM      9  C   UNL     1     169.333 143.855 158.602  1.00  0.00     0.100 C 
BRANCH   9  10
ATOM     10  C   UNL     1     169.105 143.438 157.181  1.00  0.00     0.220 C 
ATOM     11  O   UNL     1     169.654 142.390 156.747  1.00  0.00    -0.275 OA
ATOM     12  N   UNL     1     168.226 144.199 156.341  1.00  0.00    -0.352 N 
ATOM     13  H   UNL     1     167.806 145.081 156.712  1.00  0.00     0.163 HD
BRANCH  12  14
ATOM     14  C   UNL     1     167.756 143.706 155.049  1.00  0.00     0.151 C 
BRANCH  14  15
ATOM     15  C   UNL     1     168.554 144.340 153.942  1.00  0.00    -0.025 A 
ATOM     16  C   UNL     1     169.353 143.551 153.100  1.00  0.00     0.056 A 
ATOM     17  C   UNL     1     168.444 145.717 153.697  1.00  0.00     0.009 A 
ATOM     18  C   UNL     1     170.055 144.133 152.025  1.00  0.00     0.160 A 
ATOM     19  C   UNL     1     169.140 146.300 152.638  1.00  0.00     0.050 A 
ATOM     20  C   UNL     1     169.944 145.519 151.803  1.00  0.00     0.157 A 
BRANCH  18  21
ATOM     21  O   UNL     1     170.859 143.370 151.163  1.00  0.00    -0.493 OA
ATOM     22  C   UNL     1     170.369 142.368 150.276  1.00  0.00     0.278 C 
ENDBRANCH  18  21
BRANCH  20  23
ATOM     23  O   UNL     1     170.624 146.137 150.752  1.00  0.00    -0.504 OA
ATOM     24  H   UNL     1     171.632 146.245 150.748  1.00  0.00     0.293 HD
ENDBRANCH  20  23
ENDBRANCH  14  15
ENDBRANCH  12  14
ENDBRANCH   9  10
ENDBRANCH   1   9
TORSDOF 10
ENDMDL
MODEL 7
REMARK VINA RESULT:    -5.122      1.326      2.070
REMARK INTER + INTRA:         -10.256
REMARK INTER:                  -8.394
REMARK INTRA:                  -1.862
REMARK UNBOUND:                -2.289
REMARK SMILES COc1cc(CNC(=O)CCCCC=CC(C)C)ccc1O
REMARK SMILES IDX 11 1 12 2 13 3 14 4 15 5 16 6 17 7 18 8 10 9 8 10 9 11 7 12
REMARK SMILES IDX 6 14 5 15 4 16 19 17 3 18 20 19 21 20 2 21 1 22 22 23
REMARK H PARENT 7 13 22 24
REMARK Flexibility Score: inf
ROOT
ATOM      1  C   UNL     1     171.301 142.865 151.088  1.00  0.00     0.010 C 
ENDROOT
BRANCH   1   2
ATOM      2  C   UNL     1     171.160 143.912 149.974  1.00  0.00     0.005 C 
BRANCH   2   3
ATOM      3  C   UNL     1     170.573 145.241 150.478  1.00  0.00     0.027 C 
BRANCH   3   4
ATOM      4  C   UNL     1     169.549 145.007 151.555  1.00  0.00    -0.031 C 
ATOM      5  C   UNL     1     169.416 145.847 152.594  1.00  0.00    -0.028 C 
BRANCH   5   6
ATOM      6  C   UNL     1     168.373 145.614 153.663  1.00  0.00     0.005 C 
ATOM      7  C   UNL     1     168.033 144.122 153.769  1.00  0.00     0.012 C 
ATOM      8  C   UNL     1     168.863 146.147 155.015  1.00  0.00     0.012 C 
ENDBRANCH   5   6
ENDBRANCH   3   4
ENDBRANCH   2   3
ENDBRANCH   1   2
BRANCH   1   9
ATOM      9  C   UNL     1     172.758 142.447 151.329  1.00  0.00     0.100 C 
BRANCH   9  10
ATOM     10  C   UNL     1     173.258 143.034 152.613  1.00  0.00     0.220 C 
ATOM     11  O   UNL     1     174.460 142.856 152.950  1.00  0.00    -0.275 OA
ATOM     12  N   UNL     1     172.388 143.838 153.424  1.00  0.00    -0.352 N 
ATOM     13  H   UNL     1     171.389 143.948 153.140  1.00  0.00     0.163 HD
BRANCH  12  14
ATOM     14  C   UNL     1     172.880 144.650 154.533  1.00  0.00     0.151 C 
BRANCH  14  15
ATOM     15  C   UNL     1     172.007 144.443 155.741  1.00  0.00    -0.025 A 
ATOM     16  C   UNL     1     172.027 145.365 156.799  1.00  0.00     0.056 A 
ATOM     17  C   UNL     1     171.109 143.367 155.782  1.00  0.00     0.009 A 
ATOM     18  C   UNL     1     171.168 145.207 157.905  1.00  0.00     0.160 A 
ATOM     19  C   UNL     1     170.259 143.201 156.875  1.00  0.00     0.050 A 
ATOM     20  C   UNL     1     170.283 144.112 157.936  1.00  0.00     0.157 A 
BRANCH  18  21
ATOM     21  O   UNL     1     171.162 146.114 158.977  1.00  0.00    -0.493 OA
ATOM     22  C   UNL     1     172.125 147.146 159.169  1.00  0.00     0.278 C 
ENDBRANCH  18  21
BRANCH  20  23
ATOM     23  O   UNL     1     169.417 143.916 159.012  1.00  0.00    -0.504 OA
ATOM     24  H   UNL     1     169.751 143.782 159.960  1.00  0.00     0.293 HD
ENDBRANCH  20  23
ENDBRANCH  14  15
ENDBRANCH  12  14
ENDBRANCH   9  10
ENDBRANCH   1   9
TORSDOF 10
ENDMDL
MODEL 8
REMARK VINA RESULT:    -5.052      2.527      4.801
REMARK INTER + INTRA:         -10.147
REMARK INTER:                  -9.169
REMARK INTRA:                  -0.978
REMARK UNBOUND:                -2.289
REMARK SMILES COc1cc(CNC(=O)CCCCC=CC(C)C)ccc1O
REMARK SMILES IDX 11 1 12 2 13 3 14 4 15 5 16 6 17 7 18 8 10 9 8 10 9 11 7 12
REMARK SMILES IDX 6 14 5 15 4 16 19 17 3 18 20 19 21 20 2 21 1 22 22 23
REMARK H PARENT 7 13 22 24
REMARK Flexibility Score: inf
ROOT
ATOM      1  C   UNL     1     168.247 145.159 154.885  1.00  0.00     0.010 C 
ENDROOT
BRANCH   1   2
ATOM      2  C   UNL     1     168.311 145.406 153.370  1.00  0.00     0.005 C 
BRANCH   2   3
ATOM      3  C   UNL     1     169.615 146.094 152.935  1.00  0.00     0.027 C 
BRANCH   3   4
ATOM      4  C   UNL     1     170.152 145.485 151.668  1.00  0.00    -0.031 C 
ATOM      5  C   UNL     1     169.463 144.558 150.986  1.00  0.00    -0.028 C 
BRANCH   5   6
ATOM      6  C   UNL     1     170.003 143.964 149.705  1.00  0.00     0.005 C 
ATOM      7  C   UNL     1     171.113 144.849 149.125  1.00  0.00     0.012 C 
ATOM      8  C   UNL     1     170.526 142.543 149.951  1.00  0.00     0.012 C 
ENDBRANCH   5   6
ENDBRANCH   3   4
ENDBRANCH   2   3
ENDBRANCH   1   2
BRANCH   1   9
ATOM      9  C   UNL     1     167.867 143.714 155.235  1.00  0.00     0.100 C 
BRANCH   9  10
ATOM     10  C   UNL     1     168.587 143.276 156.474  1.00  0.00     0.220 C 
ATOM     11  O   UNL     1     169.045 142.104 156.544  1.00  0.00    -0.275 OA
ATOM     12  N   UNL     1     168.799 144.204 157.548  1.00  0.00    -0.352 N 
ATOM     13  H   UNL     1     168.385 145.161 157.481  1.00  0.00     0.163 HD
BRANCH  12  14
ATOM     14  C   UNL     1     169.713 143.927 158.653  1.00  0.00     0.151 C 
BRANCH  14  15
ATOM     15  C   UNL     1     170.917 144.823 158.554  1.00  0.00    -0.025 A 
ATOM     16  C   UNL     1     171.718 144.812 157.401  1.00  0.00     0.056 A 
ATOM     17  C   UNL     1     171.203 145.731 159.584  1.00  0.00     0.009 A 
ATOM     18  C   UNL     1     172.812 145.692 157.280  1.00  0.00     0.160 A 
ATOM     19  C   UNL     1     172.288 146.601 159.473  1.00  0.00     0.050 A 
ATOM     20  C   UNL     1     173.093 146.587 158.329  1.00  0.00     0.157 A 
BRANCH  18  21
ATOM     21  O   UNL     1     173.629 145.708 156.138  1.00  0.00    -0.493 OA
ATOM     22  C   UNL     1     173.151 145.844 154.803  1.00  0.00     0.278 C 
ENDBRANCH  18  21
BRANCH  20  23
ATOM     23  O   UNL     1     174.168 147.473 158.252  1.00  0.00    -0.504 OA
ATOM     24  H   UNL     1     174.551 147.784 157.367  1.00  0.00     0.293 HD
ENDBRANCH  20  23
ENDBRANCH  14  15
ENDBRANCH  12  14
ENDBRANCH   9  10
ENDBRANCH   1   9
TORSDOF 10
ENDMDL
MODEL 9
REMARK VINA RESULT:    -5.041      1.986      2.837
REMARK INTER + INTRA:         -10.130
REMARK INTER:                  -8.115
REMARK INTRA:                  -2.015
REMARK UNBOUND:                -2.289
REMARK SMILES COc1cc(CNC(=O)CCCCC=CC(C)C)ccc1O
REMARK SMILES IDX 11 1 12 2 13 3 14 4 15 5 16 6 17 7 18 8 10 9 8 10 9 11 7 12
REMARK SMILES IDX 6 14 5 15 4 16 19 17 3 18 20 19 21 20 2 21 1 22 22 23
REMARK H PARENT 7 13 22 24
REMARK Flexibility Score: inf
ROOT
ATOM      1  C   UNL     1     169.395 144.400 151.521  1.00  0.00     0.010 C 
ENDROOT
BRANCH   1   2
ATOM      2  C   UNL     1     168.985 145.410 152.602  1.00  0.00     0.005 C 
BRANCH   2   3
ATOM      3  C   UNL     1     167.892 144.868 153.539  1.00  0.00     0.027 C 
BRANCH   3   4
ATOM      4  C   UNL     1     168.453 143.852 154.495  1.00  0.00    -0.031 C 
ATOM      5  C   UNL     1     168.311 143.981 155.823  1.00  0.00    -0.028 C 
BRANCH   5   6
ATOM      6  C   UNL     1     168.863 142.946 156.776  1.00  0.00     0.005 C 
ATOM      7  C   UNL     1     170.300 142.569 156.392  1.00  0.00     0.012 C 
ATOM      8  C   UNL     1     168.815 143.465 158.218  1.00  0.00     0.012 C 
ENDBRANCH   5   6
ENDBRANCH   3   4
ENDBRANCH   2   3
ENDBRANCH   1   2
BRANCH   1   9
ATOM      9  C   UNL     1     170.901 144.424 151.227  1.00  0.00     0.100 C 
BRANCH   9  10
ATOM     10  C   UNL     1     171.678 144.252 152.496  1.00  0.00     0.220 C 
ATOM     11  O   UNL     1     171.747 143.113 153.032  1.00  0.00    -0.275 OA
ATOM     12  N   UNL     1     172.382 145.366 153.065  1.00  0.00    -0.352 N 
ATOM     13  H   UNL     1     172.286 146.307 152.621  1.00  0.00     0.163 HD
BRANCH  12  14
ATOM     14  C   UNL     1     173.363 145.209 154.136  1.00  0.00     0.151 C 
BRANCH  14  15
ATOM     15  C   UNL     1     172.709 145.471 155.466  1.00  0.00    -0.025 A 
ATOM     16  C   UNL     1     173.404 145.221 156.660  1.00  0.00     0.056 A 
ATOM     17  C   UNL     1     171.429 146.040 155.519  1.00  0.00     0.009 A 
ATOM     18  C   UNL     1     172.818 145.521 157.907  1.00  0.00     0.160 A 
ATOM     19  C   UNL     1     170.841 146.336 156.749  1.00  0.00     0.050 A 
ATOM     20  C   UNL     1     171.526 146.079 157.941  1.00  0.00     0.157 A 
BRANCH  18  21
ATOM     21  O   UNL     1     173.488 145.287 159.118  1.00  0.00    -0.493 OA
ATOM     22  C   UNL     1     174.646 145.994 159.552  1.00  0.00     0.278 C 
ENDBRANCH  18  21
BRANCH  20  23
ATOM     23  O   UNL     1     170.907 146.390 159.153  1.00  0.00    -0.504 OA
ATOM     24  H   UNL     1     171.239 147.135 159.755  1.00  0.00     0.293 HD
ENDBRANCH  20  23
ENDBRANCH  14  15
ENDBRANCH  12  14
ENDBRANCH   9  10
ENDBRANCH   1   9
TORSDOF 10
ENDMDL
