MODEL 1
REMARK VINA RESULT:    -8.030      0.000      0.000
REMARK INTER + INTRA:          -9.483
REMARK INTER:                  -9.673
REMARK INTRA:                   0.190
REMARK UNBOUND:                 0.190
REMARK SMILES O=c1c(O)c(-c2ccc(O)cc2O)oc2cc(O)cc(O)c12
REMARK SMILES IDX 5 1 3 2 2 3 1 4 22 5 20 6 19 7 17 8 16 9 15 10 14 11 6 12
REMARK SMILES IDX 8 13 7 14 9 15 11 16 12 17 10 18 13 20 4 22 21 24 18 26
REMARK H PARENT 10 19 13 21 4 23 21 25 18 27
REMARK Flexibility Score: inf
ROOT
ATOM      1  C   UNL     1      14.972  23.510  41.469  1.00  0.00     0.184 A 
ATOM      2  C   UNL     1      15.095  24.480  40.459  1.00  0.00     0.208 A 
ATOM      3  C   UNL     1      16.117  24.346  39.506  1.00  0.00     0.238 A 
ATOM      4  O   UNL     1      16.186  25.187  38.573  1.00  0.00    -0.285 OA
ATOM      5  C   UNL     1      17.015  23.255  39.586  1.00  0.00     0.111 A 
ATOM      6  C   UNL     1      18.112  23.042  38.698  1.00  0.00     0.134 A 
ATOM      7  C   UNL     1      18.858  21.860  38.793  1.00  0.00     0.093 A 
ATOM      8  C   UNL     1      18.588  20.915  39.786  1.00  0.00     0.123 A 
ATOM      9  C   UNL     1      17.557  21.143  40.694  1.00  0.00     0.094 A 
ATOM     10  C   UNL     1      16.772  22.294  40.602  1.00  0.00     0.146 A 
ATOM     11  O   UNL     1      15.791  22.465  41.481  1.00  0.00    -0.451 OA
ENDROOT
BRANCH   1  12
ATOM     12  C   UNL     1      13.932  23.602  42.519  1.00  0.00     0.063 A 
ATOM     13  C   UNL     1      11.737  24.356  43.254  1.00  0.00     0.047 A 
ATOM     14  C   UNL     1      12.708  24.244  42.256  1.00  0.00     0.020 A 
ATOM     15  C   UNL     1      11.977  23.841  44.529  1.00  0.00     0.119 A 
ATOM     16  C   UNL     1      13.197  23.212  44.807  1.00  0.00     0.093 A 
ATOM     17  C   UNL     1      14.176  23.092  43.811  1.00  0.00     0.130 A 
BRANCH  15  18
ATOM     18  O   UNL     1      10.999  23.961  45.514  1.00  0.00    -0.508 OA
ATOM     19  H   UNL     1      10.068  24.296  45.298  1.00  0.00     0.293 HD
ENDBRANCH  15  18
BRANCH  17  20
ATOM     20  O   UNL     1      15.385  22.458  44.098  1.00  0.00    -0.507 OA
ATOM     21  H   UNL     1      15.804  22.505  45.020  1.00  0.00     0.293 HD
ENDBRANCH  17  20
ENDBRANCH   1  12
BRANCH   2  22
ATOM     22  O   UNL     1      14.188  25.541  40.393  1.00  0.00    -0.502 OA
ATOM     23  H   UNL     1      14.305  26.318  39.754  1.00  0.00     0.293 HD
ENDBRANCH   2  22
BRANCH   6  24
ATOM     24  O   UNL     1      18.525  23.963  37.730  1.00  0.00    -0.507 OA
ATOM     25  H   UNL     1      19.487  24.159  37.496  1.00  0.00     0.293 HD
ENDBRANCH   6  24
BRANCH   8  26
ATOM     26  O   UNL     1      19.345  19.750  39.883  1.00  0.00    -0.508 OA
ATOM     27  H   UNL     1      20.338  19.745  39.683  1.00  0.00     0.293 HD
ENDBRANCH   8  26
TORSDOF 6
ENDMDL
MODEL 2
REMARK VINA RESULT:    -7.715      1.112      1.629
REMARK INTER + INTRA:          -9.104
REMARK INTER:                  -9.348
REMARK INTRA:                   0.245
REMARK UNBOUND:                 0.190
REMARK SMILES O=c1c(O)c(-c2ccc(O)cc2O)oc2cc(O)cc(O)c12
REMARK SMILES IDX 5 1 3 2 2 3 1 4 22 5 20 6 19 7 17 8 16 9 15 10 14 11 6 12
REMARK SMILES IDX 8 13 7 14 9 15 11 16 12 17 10 18 13 20 4 22 21 24 18 26
REMARK H PARENT 10 19 13 21 4 23 21 25 18 27
REMARK Flexibility Score: inf
ROOT
ATOM      1  C   UNL     1      16.117  23.138  40.644  1.00  0.00     0.184 A 
ATOM      2  C   UNL     1      16.564  23.988  39.618  1.00  0.00     0.208 A 
ATOM      3  C   UNL     1      17.710  23.633  38.891  1.00  0.00     0.238 A 
ATOM      4  O   UNL     1      18.072  24.370  37.937  1.00  0.00    -0.285 OA
ATOM      5  C   UNL     1      18.407  22.443  39.211  1.00  0.00     0.111 A 
ATOM      6  C   UNL     1      19.603  22.006  38.566  1.00  0.00     0.134 A 
ATOM      7  C   UNL     1      20.135  20.749  38.877  1.00  0.00     0.093 A 
ATOM      8  C   UNL     1      19.552  19.941  39.857  1.00  0.00     0.123 A 
ATOM      9  C   UNL     1      18.419  20.386  40.533  1.00  0.00     0.094 A 
ATOM     10  C   UNL     1      17.843  21.619  40.219  1.00  0.00     0.146 A 
ATOM     11  O   UNL     1      16.756  21.998  40.880  1.00  0.00    -0.451 OA
ENDROOT
BRANCH   1  12
ATOM     12  C   UNL     1      14.929  23.463  41.467  1.00  0.00     0.063 A 
ATOM     13  C   UNL     1      12.797  24.608  41.734  1.00  0.00     0.047 A 
ATOM     14  C   UNL     1      13.905  24.279  40.950  1.00  0.00     0.020 A 
ATOM     15  C   UNL     1      12.699  24.140  43.046  1.00  0.00     0.119 A 
ATOM     16  C   UNL     1      13.718  23.338  43.576  1.00  0.00     0.093 A 
ATOM     17  C   UNL     1      14.833  23.000  42.795  1.00  0.00     0.130 A 
BRANCH  15  18
ATOM     18  O   UNL     1      11.588  24.478  43.816  1.00  0.00    -0.508 OA
ATOM     19  H   UNL     1      11.273  23.889  44.578  1.00  0.00     0.293 HD
ENDBRANCH  15  18
BRANCH  17  20
ATOM     20  O   UNL     1      15.838  22.195  43.333  1.00  0.00    -0.507 OA
ATOM     21  H   UNL     1      16.365  21.549  42.758  1.00  0.00     0.293 HD
ENDBRANCH  17  20
ENDBRANCH   1  12
BRANCH   2  22
ATOM     22  O   UNL     1      15.851  25.151  39.312  1.00  0.00    -0.502 OA
ATOM     23  H   UNL     1      14.878  25.274  39.562  1.00  0.00     0.293 HD
ENDBRANCH   2  22
BRANCH   6  24
ATOM     24  O   UNL     1      20.316  22.773  37.640  1.00  0.00    -0.507 OA
ATOM     25  H   UNL     1      20.034  23.683  37.307  1.00  0.00     0.293 HD
ENDBRANCH   6  24
BRANCH   8  26
ATOM     26  O   UNL     1      20.097  18.699  40.171  1.00  0.00    -0.508 OA
ATOM     27  H   UNL     1      19.722  17.842  39.782  1.00  0.00     0.293 HD
ENDBRANCH   8  26
TORSDOF 6
ENDMDL
MODEL 3
REMARK VINA RESULT:    -7.700      1.447      6.502
REMARK INTER + INTRA:          -9.086
REMARK INTER:                  -9.114
REMARK INTRA:                   0.028
REMARK UNBOUND:                 0.190
REMARK SMILES O=c1c(O)c(-c2ccc(O)cc2O)oc2cc(O)cc(O)c12
REMARK SMILES IDX 5 1 3 2 2 3 1 4 22 5 20 6 19 7 17 8 16 9 15 10 14 11 6 12
REMARK SMILES IDX 8 13 7 14 9 15 11 16 12 17 10 18 13 20 4 22 21 24 18 26
REMARK H PARENT 10 19 13 21 4 23 21 25 18 27
REMARK Flexibility Score: inf
ROOT
ATOM      1  C   UNL     1      17.436  22.316  40.388  1.00  0.00     0.184 A 
ATOM      2  C   UNL     1      17.070  23.346  39.503  1.00  0.00     0.208 A 
ATOM      3  C   UNL     1      15.921  24.104  39.779  1.00  0.00     0.238 A 
ATOM      4  O   UNL     1      15.631  25.059  39.014  1.00  0.00    -0.285 OA
ATOM      5  C   UNL     1      15.142  23.811  40.925  1.00  0.00     0.111 A 
ATOM      6  C   UNL     1      13.937  24.489  41.280  1.00  0.00     0.134 A 
ATOM      7  C   UNL     1      13.318  24.202  42.503  1.00  0.00     0.093 A 
ATOM      8  C   UNL     1      13.825  23.215  43.353  1.00  0.00     0.123 A 
ATOM      9  C   UNL     1      14.967  22.507  42.986  1.00  0.00     0.094 A 
ATOM     10  C   UNL     1      15.627  22.797  41.790  1.00  0.00     0.146 A 
ATOM     11  O   UNL     1      16.720  22.106  41.486  1.00  0.00    -0.451 OA
ENDROOT
BRANCH   1  12
ATOM     12  C   UNL     1      18.621  21.462  40.145  1.00  0.00     0.063 A 
ATOM     13  C   UNL     1      20.893  21.194  39.311  1.00  0.00     0.047 A 
ATOM     14  C   UNL     1      19.783  22.004  39.565  1.00  0.00     0.020 A 
ATOM     15  C   UNL     1      20.855  19.832  39.620  1.00  0.00     0.119 A 
ATOM     16  C   UNL     1      19.699  19.280  40.185  1.00  0.00     0.093 A 
ATOM     17  C   UNL     1      18.582  20.085  40.446  1.00  0.00     0.130 A 
BRANCH  15  18
ATOM     18  O   UNL     1      21.969  19.037  39.359  1.00  0.00    -0.508 OA
ATOM     19  H   UNL     1      22.191  18.233  39.933  1.00  0.00     0.293 HD
ENDBRANCH  15  18
BRANCH  17  20
ATOM     20  O   UNL     1      17.439  19.524  41.016  1.00  0.00    -0.507 OA
ATOM     21  H   UNL     1      16.917  18.791  40.548  1.00  0.00     0.293 HD
ENDBRANCH  17  20
ENDBRANCH   1  12
BRANCH   2  22
ATOM     22  O   UNL     1      17.862  23.624  38.386  1.00  0.00    -0.502 OA
ATOM     23  H   UNL     1      18.590  22.997  38.066  1.00  0.00     0.293 HD
ENDBRANCH   2  22
BRANCH   6  24
ATOM     24  O   UNL     1      13.297  25.425  40.462  1.00  0.00    -0.507 OA
ATOM     25  H   UNL     1      13.741  25.930  39.709  1.00  0.00     0.293 HD
ENDBRANCH   6  24
BRANCH   8  26
ATOM     26  O   UNL     1      13.194  22.924  44.560  1.00  0.00    -0.508 OA
ATOM     27  H   UNL     1      12.660  23.625  45.061  1.00  0.00     0.293 HD
ENDBRANCH   8  26
TORSDOF 6
ENDMDL
MODEL 4
REMARK VINA RESULT:    -7.553      1.503      6.371
REMARK INTER + INTRA:          -8.909
REMARK INTER:                  -8.448
REMARK INTRA:                  -0.461
REMARK UNBOUND:                 0.190
REMARK SMILES O=c1c(O)c(-c2ccc(O)cc2O)oc2cc(O)cc(O)c12
REMARK SMILES IDX 5 1 3 2 2 3 1 4 22 5 20 6 19 7 17 8 16 9 15 10 14 11 6 12
REMARK SMILES IDX 8 13 7 14 9 15 11 16 12 17 10 18 13 20 4 22 21 24 18 26
REMARK H PARENT 10 19 13 21 4 23 21 25 18 27
REMARK Flexibility Score: inf
ROOT
ATOM      1  C   UNL     1      16.007  23.079  40.705  1.00  0.00     0.184 A 
ATOM      2  C   UNL     1      15.350  24.238  40.256  1.00  0.00     0.208 A 
ATOM      3  C   UNL     1      14.292  24.759  41.017  1.00  0.00     0.238 A 
ATOM      4  O   UNL     1      13.745  25.827  40.638  1.00  0.00    -0.285 OA
ATOM      5  C   UNL     1      13.890  24.104  42.206  1.00  0.00     0.111 A 
ATOM      6  C   UNL     1      12.805  24.522  43.034  1.00  0.00     0.134 A 
ATOM      7  C   UNL     1      12.579  23.874  44.255  1.00  0.00     0.093 A 
ATOM      8  C   UNL     1      13.358  22.782  44.647  1.00  0.00     0.123 A 
ATOM      9  C   UNL     1      14.382  22.331  43.817  1.00  0.00     0.094 A 
ATOM     10  C   UNL     1      14.655  22.980  42.611  1.00  0.00     0.146 A 
ATOM     11  O   UNL     1      15.648  22.523  41.856  1.00  0.00    -0.451 OA
ENDROOT
BRANCH   1  12
ATOM     12  C   UNL     1      17.115  22.462  39.940  1.00  0.00     0.063 A 
ATOM     13  C   UNL     1      17.903  21.220  38.000  1.00  0.00     0.047 A 
ATOM     14  C   UNL     1      16.863  21.826  38.710  1.00  0.00     0.020 A 
ATOM     15  C   UNL     1      19.203  21.230  38.510  1.00  0.00     0.119 A 
ATOM     16  C   UNL     1      19.462  21.849  39.740  1.00  0.00     0.093 A 
ATOM     17  C   UNL     1      18.426  22.462  40.458  1.00  0.00     0.130 A 
BRANCH  15  18
ATOM     18  O   UNL     1      20.229  20.621  37.791  1.00  0.00    -0.508 OA
ATOM     19  H   UNL     1      21.194  20.912  37.895  1.00  0.00     0.293 HD
ENDBRANCH  15  18
BRANCH  17  20
ATOM     20  O   UNL     1      18.698  23.081  41.678  1.00  0.00    -0.507 OA
ATOM     21  H   UNL     1      17.995  23.619  42.170  1.00  0.00     0.293 HD
ENDBRANCH  17  20
ENDBRANCH   1  12
BRANCH   2  22
ATOM     22  O   UNL     1      15.772  24.873  39.085  1.00  0.00    -0.502 OA
ATOM     23  H   UNL     1      16.207  25.788  39.089  1.00  0.00     0.293 HD
ENDBRANCH   2  22
BRANCH   6  24
ATOM     24  O   UNL     1      11.910  25.541  42.695  1.00  0.00    -0.507 OA
ATOM     25  H   UNL     1      12.173  26.496  42.500  1.00  0.00     0.293 HD
ENDBRANCH   6  24
BRANCH   8  26
ATOM     26  O   UNL     1      13.116  22.134  45.855  1.00  0.00    -0.508 OA
ATOM     27  H   UNL     1      12.180  22.044  46.230  1.00  0.00     0.293 HD
ENDBRANCH   8  26
TORSDOF 6
ENDMDL
MODEL 5
REMARK VINA RESULT:    -7.277     16.982     19.921
REMARK INTER + INTRA:          -8.576
REMARK INTER:                  -8.142
REMARK INTRA:                  -0.434
REMARK UNBOUND:                 0.190
REMARK SMILES O=c1c(O)c(-c2ccc(O)cc2O)oc2cc(O)cc(O)c12
REMARK SMILES IDX 5 1 3 2 2 3 1 4 22 5 20 6 19 7 17 8 16 9 15 10 14 11 6 12
REMARK SMILES IDX 8 13 7 14 9 15 11 16 12 17 10 18 13 20 4 22 21 24 18 26
REMARK H PARENT 10 19 13 21 4 23 21 25 18 27
REMARK Flexibility Score: inf
ROOT
ATOM      1  C   UNL     1      29.973  11.297  37.542  1.00  0.00     0.184 A 
ATOM      2  C   UNL     1      29.969   9.918  37.271  1.00  0.00     0.208 A 
ATOM      3  C   UNL     1      30.254   9.019  38.311  1.00  0.00     0.238 A 
ATOM      4  O   UNL     1      30.194   7.785  38.075  1.00  0.00    -0.285 OA
ATOM      5  C   UNL     1      30.559   9.511  39.603  1.00  0.00     0.111 A 
ATOM      6  C   UNL     1      30.902   8.693  40.721  1.00  0.00     0.134 A 
ATOM      7  C   UNL     1      31.059   9.279  41.983  1.00  0.00     0.093 A 
ATOM      8  C   UNL     1      30.949  10.662  42.155  1.00  0.00     0.123 A 
ATOM      9  C   UNL     1      30.673  11.474  41.058  1.00  0.00     0.094 A 
ATOM     10  C   UNL     1      30.475  10.915  39.793  1.00  0.00     0.146 A 
ATOM     11  O   UNL     1      30.202  11.725  38.777  1.00  0.00    -0.451 OA
ENDROOT
BRANCH   1  12
ATOM     12  C   UNL     1      29.704  12.301  36.486  1.00  0.00     0.063 A 
ATOM     13  C   UNL     1      30.355  13.420  34.425  1.00  0.00     0.047 A 
ATOM     14  C   UNL     1      30.593  12.456  35.406  1.00  0.00     0.020 A 
ATOM     15  C   UNL     1      29.236  14.252  34.512  1.00  0.00     0.119 A 
ATOM     16  C   UNL     1      28.352  14.116  35.589  1.00  0.00     0.093 A 
ATOM     17  C   UNL     1      28.581  13.149  36.578  1.00  0.00     0.130 A 
BRANCH  15  18
ATOM     18  O   UNL     1      29.014  15.210  33.526  1.00  0.00    -0.508 OA
ATOM     19  H   UNL     1      29.086  16.201  33.724  1.00  0.00     0.293 HD
ENDBRANCH  15  18
BRANCH  17  20
ATOM     20  O   UNL     1      27.689  13.019  37.642  1.00  0.00    -0.507 OA
ATOM     21  H   UNL     1      27.160  12.168  37.793  1.00  0.00     0.293 HD
ENDBRANCH  17  20
ENDBRANCH   1  12
BRANCH   2  22
ATOM     22  O   UNL     1      29.652   9.456  35.991  1.00  0.00    -0.502 OA
ATOM     23  H   UNL     1      29.253   8.540  35.826  1.00  0.00     0.293 HD
ENDBRANCH   2  22
BRANCH   6  24
ATOM     24  O   UNL     1      31.125   7.315  40.642  1.00  0.00    -0.507 OA
ATOM     25  H   UNL     1      30.526   6.662  40.159  1.00  0.00     0.293 HD
ENDBRANCH   6  24
BRANCH   8  26
ATOM     26  O   UNL     1      31.122  11.238  43.411  1.00  0.00    -0.508 OA
ATOM     27  H   UNL     1      31.862  10.937  44.034  1.00  0.00     0.293 HD
ENDBRANCH   8  26
TORSDOF 6
ENDMDL
MODEL 6
REMARK VINA RESULT:    -7.109     16.682     19.661
REMARK INTER + INTRA:          -8.373
REMARK INTER:                  -7.969
REMARK INTRA:                  -0.404
REMARK UNBOUND:                 0.190
REMARK SMILES O=c1c(O)c(-c2ccc(O)cc2O)oc2cc(O)cc(O)c12
REMARK SMILES IDX 5 1 3 2 2 3 1 4 22 5 20 6 19 7 17 8 16 9 15 10 14 11 6 12
REMARK SMILES IDX 8 13 7 14 9 15 11 16 12 17 10 18 13 20 4 22 21 24 18 26
REMARK H PARENT 10 19 13 21 4 23 21 25 18 27
REMARK Flexibility Score: inf
ROOT
ATOM      1  C   UNL     1      29.795  11.722  37.557  1.00  0.00     0.184 A 
ATOM      2  C   UNL     1      30.131  12.188  38.840  1.00  0.00     0.208 A 
ATOM      3  C   UNL     1      30.530  11.264  39.817  1.00  0.00     0.238 A 
ATOM      4  O   UNL     1      30.883  11.693  40.946  1.00  0.00    -0.285 OA
ATOM      5  C   UNL     1      30.570   9.883  39.506  1.00  0.00     0.111 A 
ATOM      6  C   UNL     1      30.921   8.854  40.431  1.00  0.00     0.134 A 
ATOM      7  C   UNL     1      31.050   7.534  39.979  1.00  0.00     0.093 A 
ATOM      8  C   UNL     1      30.777   7.197  38.651  1.00  0.00     0.123 A 
ATOM      9  C   UNL     1      30.377   8.186  37.756  1.00  0.00     0.094 A 
ATOM     10  C   UNL     1      30.274   9.516  38.167  1.00  0.00     0.146 A 
ATOM     11  O   UNL     1      29.901  10.429  37.277  1.00  0.00    -0.451 OA
ENDROOT
BRANCH   1  12
ATOM     12  C   UNL     1      29.343  12.640  36.485  1.00  0.00     0.063 A 
ATOM     13  C   UNL     1      29.853  14.117  34.619  1.00  0.00     0.047 A 
ATOM     14  C   UNL     1      30.275  13.231  35.613  1.00  0.00     0.020 A 
ATOM     15  C   UNL     1      28.500  14.435  34.489  1.00  0.00     0.119 A 
ATOM     16  C   UNL     1      27.564  13.864  35.360  1.00  0.00     0.093 A 
ATOM     17  C   UNL     1      27.978  12.971  36.359  1.00  0.00     0.130 A 
BRANCH  15  18
ATOM     18  O   UNL     1      28.094  15.322  33.494  1.00  0.00    -0.508 OA
ATOM     19  H   UNL     1      27.691  14.994  32.624  1.00  0.00     0.293 HD
ENDBRANCH  15  18
BRANCH  17  20
ATOM     20  O   UNL     1      27.036  12.403  37.216  1.00  0.00    -0.507 OA
ATOM     21  H   UNL     1      27.236  12.246  38.197  1.00  0.00     0.293 HD
ENDBRANCH  17  20
ENDBRANCH   1  12
BRANCH   2  22
ATOM     22  O   UNL     1      30.097  13.557  39.118  1.00  0.00    -0.502 OA
ATOM     23  H   UNL     1      30.379  13.937  40.014  1.00  0.00     0.293 HD
ENDBRANCH   2  22
BRANCH   6  24
ATOM     24  O   UNL     1      31.125   9.067  41.797  1.00  0.00    -0.507 OA
ATOM     25  H   UNL     1      31.671   8.467  42.398  1.00  0.00     0.293 HD
ENDBRANCH   6  24
BRANCH   8  26
ATOM     26  O   UNL     1      30.893   5.880  38.214  1.00  0.00    -0.508 OA
ATOM     27  H   UNL     1      30.822   5.100  38.857  1.00  0.00     0.293 HD
ENDBRANCH   8  26
TORSDOF 6
ENDMDL
MODEL 7
REMARK VINA RESULT:    -6.930     18.374     19.957
REMARK INTER + INTRA:          -8.158
REMARK INTER:                  -8.714
REMARK INTRA:                   0.556
REMARK UNBOUND:                 0.190
REMARK SMILES O=c1c(O)c(-c2ccc(O)cc2O)oc2cc(O)cc(O)c12
REMARK SMILES IDX 5 1 3 2 2 3 1 4 22 5 20 6 19 7 17 8 16 9 15 10 14 11 6 12
REMARK SMILES IDX 8 13 7 14 9 15 11 16 12 17 10 18 13 20 4 22 21 24 18 26
REMARK H PARENT 10 19 13 21 4 23 21 25 18 27
REMARK Flexibility Score: inf
ROOT
ATOM      1  C   UNL     1      30.729  10.637  39.756  1.00  0.00     0.184 A 
ATOM      2  C   UNL     1      30.881   9.454  39.011  1.00  0.00     0.208 A 
ATOM      3  C   UNL     1      30.822   9.519  37.611  1.00  0.00     0.238 A 
ATOM      4  O   UNL     1      31.014   8.466  36.949  1.00  0.00    -0.285 OA
ATOM      5  C   UNL     1      30.590  10.762  36.972  1.00  0.00     0.111 A 
ATOM      6  C   UNL     1      30.471  10.937  35.561  1.00  0.00     0.134 A 
ATOM      7  C   UNL     1      30.371  12.230  35.032  1.00  0.00     0.093 A 
ATOM      8  C   UNL     1      30.320  13.349  35.868  1.00  0.00     0.123 A 
ATOM      9  C   UNL     1      30.376  13.182  37.249  1.00  0.00     0.094 A 
ATOM     10  C   UNL     1      30.513  11.908  37.805  1.00  0.00     0.146 A 
ATOM     11  O   UNL     1      30.575  11.796  39.127  1.00  0.00    -0.451 OA
ENDROOT
BRANCH   1  12
ATOM     12  C   UNL     1      30.757  10.637  41.237  1.00  0.00     0.063 A 
ATOM     13  C   UNL     1      31.125   9.467  43.340  1.00  0.00     0.047 A 
ATOM     14  C   UNL     1      31.123   9.476  41.943  1.00  0.00     0.020 A 
ATOM     15  C   UNL     1      30.750  10.609  44.051  1.00  0.00     0.119 A 
ATOM     16  C   UNL     1      30.371  11.766  43.359  1.00  0.00     0.093 A 
ATOM     17  C   UNL     1      30.370  11.786  41.957  1.00  0.00     0.130 A 
BRANCH  15  18
ATOM     18  O   UNL     1      30.756  10.584  45.444  1.00  0.00    -0.508 OA
ATOM     19  H   UNL     1      31.425  11.123  45.981  1.00  0.00     0.293 HD
ENDBRANCH  15  18
BRANCH  17  20
ATOM     20  O   UNL     1      29.996  12.947  41.280  1.00  0.00    -0.507 OA
ATOM     21  H   UNL     1      30.088  13.028  40.274  1.00  0.00     0.293 HD
ENDBRANCH  17  20
ENDBRANCH   1  12
BRANCH   2  22
ATOM     22  O   UNL     1      31.121   8.242  39.664  1.00  0.00    -0.502 OA
ATOM     23  H   UNL     1      30.702   7.371  39.364  1.00  0.00     0.293 HD
ENDBRANCH   2  22
BRANCH   6  24
ATOM     24  O   UNL     1      30.419   9.883  34.644  1.00  0.00    -0.507 OA
ATOM     25  H   UNL     1      29.745   9.132  34.668  1.00  0.00     0.293 HD
ENDBRANCH   6  24
BRANCH   8  26
ATOM     26  O   UNL     1      30.204  14.630  35.334  1.00  0.00    -0.508 OA
ATOM     27  H   UNL     1      30.478  14.834  34.381  1.00  0.00     0.293 HD
ENDBRANCH   8  26
TORSDOF 6
ENDMDL
MODEL 8
REMARK VINA RESULT:    -6.890      1.458      2.082
REMARK INTER + INTRA:          -8.110
REMARK INTER:                  -7.891
REMARK INTRA:                  -0.219
REMARK UNBOUND:                 0.190
REMARK SMILES O=c1c(O)c(-c2ccc(O)cc2O)oc2cc(O)cc(O)c12
REMARK SMILES IDX 5 1 3 2 2 3 1 4 22 5 20 6 19 7 17 8 16 9 15 10 14 11 6 12
REMARK SMILES IDX 8 13 7 14 9 15 11 16 12 17 10 18 13 20 4 22 21 24 18 26
REMARK H PARENT 10 19 13 21 4 23 21 25 18 27
REMARK Flexibility Score: inf
ROOT
ATOM      1  C   UNL     1      13.998  23.547  42.670  1.00  0.00     0.184 A 
ATOM      2  C   UNL     1      13.730  24.658  41.852  1.00  0.00     0.208 A 
ATOM      3  C   UNL     1      14.504  24.855  40.697  1.00  0.00     0.238 A 
ATOM      4  O   UNL     1      14.223  25.820  39.940  1.00  0.00    -0.285 OA
ATOM      5  C   UNL     1      15.548  23.951  40.386  1.00  0.00     0.111 A 
ATOM      6  C   UNL     1      16.421  24.076  39.264  1.00  0.00     0.134 A 
ATOM      7  C   UNL     1      17.336  23.054  38.983  1.00  0.00     0.093 A 
ATOM      8  C   UNL     1      17.454  21.942  39.821  1.00  0.00     0.123 A 
ATOM      9  C   UNL     1      16.647  21.841  40.951  1.00  0.00     0.094 A 
ATOM     10  C   UNL     1      15.700  22.826  41.238  1.00  0.00     0.146 A 
ATOM     11  O   UNL     1      14.943  22.683  42.320  1.00  0.00    -0.451 OA
ENDROOT
BRANCH   1  12
ATOM     12  C   UNL     1      13.237  23.292  43.915  1.00  0.00     0.063 A 
ATOM     13  C   UNL     1      11.680  21.924  45.192  1.00  0.00     0.047 A 
ATOM     14  C   UNL     1      12.419  22.152  44.029  1.00  0.00     0.020 A 
ATOM     15  C   UNL     1      11.735  22.833  46.251  1.00  0.00     0.119 A 
ATOM     16  C   UNL     1      12.534  23.978  46.143  1.00  0.00     0.093 A 
ATOM     17  C   UNL     1      13.282  24.214  44.981  1.00  0.00     0.130 A 
BRANCH  15  18
ATOM     18  O   UNL     1      10.990  22.592  47.403  1.00  0.00    -0.508 OA
ATOM     19  H   UNL     1      11.417  22.609  48.322  1.00  0.00     0.293 HD
ENDBRANCH  15  18
BRANCH  17  20
ATOM     20  O   UNL     1      14.080  25.354  44.888  1.00  0.00    -0.507 OA
ATOM     21  H   UNL     1      14.227  25.966  45.682  1.00  0.00     0.293 HD
ENDBRANCH  17  20
ENDBRANCH   1  12
BRANCH   2  22
ATOM     22  O   UNL     1      12.686  25.529  42.173  1.00  0.00    -0.502 OA
ATOM     23  H   UNL     1      11.969  25.293  42.848  1.00  0.00     0.293 HD
ENDBRANCH   2  22
BRANCH   6  24
ATOM     24  O   UNL     1      16.449  25.188  38.416  1.00  0.00    -0.507 OA
ATOM     25  H   UNL     1      17.257  25.491  37.892  1.00  0.00     0.293 HD
ENDBRANCH   6  24
BRANCH   8  26
ATOM     26  O   UNL     1      18.377  20.937  39.542  1.00  0.00    -0.508 OA
ATOM     27  H   UNL     1      19.371  21.078  39.678  1.00  0.00     0.293 HD
ENDBRANCH   8  26
TORSDOF 6
ENDMDL
