MODEL 1
REMARK VINA RESULT:    -4.764      0.000      0.000
REMARK INTER + INTRA:          -6.420
REMARK INTER:                  -6.156
REMARK INTRA:                  -0.264
REMARK UNBOUND:                -0.264
REMARK SMILES CCO[C@@H]1O[C@H](CO)[C@@H](O)[C@H](O)[C@@H]1O
REMARK SMILES IDX 4 1 13 2 11 3 9 4 6 5 5 6 3 7 2 8 1 9 14 10 12 12 7 14 8 15
REMARK SMILES IDX 10 17
REMARK H PARENT 14 11 12 13 8 16 10 18
REMARK Flexibility Score: inf
ROOT
ATOM      1  C   UNL     1     -24.318  19.700 -30.704  1.00  0.00     0.281 C 
ATOM      2  C   UNL     1     -23.851  18.743 -29.564  1.00  0.00     0.202 C 
ATOM      3  C   UNL     1     -23.346  19.531 -28.334  1.00  0.00     0.179 C 
ATOM      4  C   UNL     1     -24.309  20.698 -27.993  1.00  0.00     0.177 C 
ATOM      5  C   UNL     1     -24.729  21.504 -29.265  1.00  0.00     0.178 C 
ATOM      6  O   UNL     1     -24.031  21.067 -30.417  1.00  0.00    -0.341 OA
ENDROOT
BRANCH   1   7
ATOM      7  O   UNL     1     -23.830  19.318 -31.985  1.00  0.00    -0.350 OA
BRANCH   7   8
ATOM      8  C   UNL     1     -24.847  18.898 -32.886  1.00  0.00     0.160 C 
ATOM      9  C   UNL     1     -24.694  17.402 -33.133  1.00  0.00     0.035 C 
ENDBRANCH   7   8
ENDBRANCH   1   7
BRANCH   2  10
ATOM     10  O   UNL     1     -22.863  17.853 -30.012  1.00  0.00    -0.385 OA
ATOM     11  H   UNL     1     -23.231  16.935 -29.933  1.00  0.00     0.211 HD
ENDBRANCH   2  10
BRANCH   3  12
ATOM     12  O   UNL     1     -22.065  20.040 -28.602  1.00  0.00    -0.387 OA
ATOM     13  H   UNL     1     -22.151  21.029 -28.654  1.00  0.00     0.211 HD
ENDBRANCH   3  12
BRANCH   5  14
ATOM     14  C   UNL     1     -24.442  23.000 -29.076  1.00  0.00     0.191 C 
BRANCH  14  15
ATOM     15  O   UNL     1     -25.213  23.496 -28.016  1.00  0.00    -0.394 OA
ATOM     16  H   UNL     1     -25.990  23.956 -28.430  1.00  0.00     0.210 HD
ENDBRANCH  14  15
ENDBRANCH   5  14
BRANCH   4  17
ATOM     17  O   UNL     1     -25.447  20.228 -27.307  1.00  0.00    -0.387 OA
ATOM     18  H   UNL     1     -25.834  20.990 -26.798  1.00  0.00     0.211 HD
ENDBRANCH   4  17
TORSDOF 7
ENDMDL
MODEL 2
REMARK VINA RESULT:    -4.676      1.736      3.689
REMARK INTER + INTRA:          -6.307
REMARK INTER:                  -6.143
REMARK INTRA:                  -0.164
REMARK UNBOUND:                -0.264
REMARK SMILES CCO[C@@H]1O[C@H](CO)[C@@H](O)[C@H](O)[C@@H]1O
REMARK SMILES IDX 4 1 13 2 11 3 9 4 6 5 5 6 3 7 2 8 1 9 14 10 12 12 7 14 8 15
REMARK SMILES IDX 10 17
REMARK H PARENT 14 11 12 13 8 16 10 18
REMARK Flexibility Score: inf
ROOT
ATOM      1  C   UNL     1     -23.680  19.761 -28.150  1.00  0.00     0.281 C 
ATOM      2  C   UNL     1     -23.159  19.213 -29.514  1.00  0.00     0.202 C 
ATOM      3  C   UNL     1     -23.543  20.147 -30.684  1.00  0.00     0.179 C 
ATOM      4  C   UNL     1     -23.279  21.630 -30.316  1.00  0.00     0.177 C 
ATOM      5  C   UNL     1     -23.803  21.983 -28.886  1.00  0.00     0.178 C 
ATOM      6  O   UNL     1     -24.517  20.905 -28.309  1.00  0.00    -0.341 OA
ENDROOT
BRANCH   1   7
ATOM      7  O   UNL     1     -24.303  18.762 -27.351  1.00  0.00    -0.350 OA
BRANCH   7   8
ATOM      8  C   UNL     1     -23.590  18.451 -26.160  1.00  0.00     0.160 C 
ATOM      9  C   UNL     1     -23.853  16.994 -25.798  1.00  0.00     0.035 C 
ENDBRANCH   7   8
ENDBRANCH   1   7
BRANCH   2  10
ATOM     10  O   UNL     1     -23.624  17.911 -29.757  1.00  0.00    -0.385 OA
ATOM     11  H   UNL     1     -23.151  17.571 -30.561  1.00  0.00     0.211 HD
ENDBRANCH   2  10
BRANCH   3  12
ATOM     12  O   UNL     1     -24.902  19.973 -30.992  1.00  0.00    -0.387 OA
ATOM     13  H   UNL     1     -24.974  19.950 -31.983  1.00  0.00     0.211 HD
ENDBRANCH   3  12
BRANCH   5  14
ATOM     14  C   UNL     1     -24.739  23.197 -28.939  1.00  0.00     0.191 C 
BRANCH  14  15
ATOM     15  O   UNL     1     -25.490  23.265 -27.757  1.00  0.00    -0.394 OA
ATOM     16  H   UNL     1     -25.203  24.096 -27.294  1.00  0.00     0.210 HD
ENDBRANCH  14  15
ENDBRANCH   5  14
BRANCH   4  17
ATOM     17  O   UNL     1     -21.908  21.941 -30.431  1.00  0.00    -0.387 OA
ATOM     18  H   UNL     1     -21.684  21.982 -31.399  1.00  0.00     0.211 HD
ENDBRANCH   4  17
TORSDOF 7
ENDMDL
MODEL 3
REMARK VINA RESULT:    -4.433      3.390      5.440
REMARK INTER + INTRA:          -5.993
REMARK INTER:                  -5.686
REMARK INTRA:                  -0.307
REMARK UNBOUND:                -0.264
REMARK SMILES CCO[C@@H]1O[C@H](CO)[C@@H](O)[C@H](O)[C@@H]1O
REMARK SMILES IDX 4 1 13 2 11 3 9 4 6 5 5 6 3 7 2 8 1 9 14 10 12 12 7 14 8 15
REMARK SMILES IDX 10 17
REMARK H PARENT 14 11 12 13 8 16 10 18
REMARK Flexibility Score: inf
ROOT
ATOM      1  C   UNL     1     -23.086  23.373 -30.076  1.00  0.00     0.281 C 
ATOM      2  C   UNL     1     -24.506  23.997 -29.910  1.00  0.00     0.202 C 
ATOM      3  C   UNL     1     -24.433  25.531 -29.734  1.00  0.00     0.179 C 
ATOM      4  C   UNL     1     -23.447  26.157 -30.754  1.00  0.00     0.177 C 
ATOM      5  C   UNL     1     -22.106  25.359 -30.841  1.00  0.00     0.178 C 
ATOM      6  O   UNL     1     -22.047  24.327 -29.874  1.00  0.00    -0.341 OA
ENDROOT
BRANCH   1   7
ATOM      7  O   UNL     1     -22.894  22.209 -29.279  1.00  0.00    -0.350 OA
BRANCH   7   8
ATOM      8  C   UNL     1     -22.887  20.997 -30.023  1.00  0.00     0.160 C 
ATOM      9  C   UNL     1     -24.024  20.112 -29.527  1.00  0.00     0.035 C 
ENDBRANCH   7   8
ENDBRANCH   1   7
BRANCH   2  10
ATOM     10  O   UNL     1     -25.202  23.417 -28.838  1.00  0.00    -0.385 OA
ATOM     11  H   UNL     1     -24.651  22.664 -28.498  1.00  0.00     0.211 HD
ENDBRANCH   2  10
BRANCH   3  12
ATOM     12  O   UNL     1     -24.013  25.830 -28.427  1.00  0.00    -0.387 OA
ATOM     13  H   UNL     1     -24.822  25.808 -27.851  1.00  0.00     0.211 HD
ENDBRANCH   3  12
BRANCH   5  14
ATOM     14  C   UNL     1     -20.908  26.290 -30.615  1.00  0.00     0.191 C 
BRANCH  14  15
ATOM     15  O   UNL     1     -21.335  27.625 -30.653  1.00  0.00    -0.394 OA
ATOM     16  H   UNL     1     -22.327  27.596 -30.698  1.00  0.00     0.210 HD
ENDBRANCH  14  15
ENDBRANCH   5  14
BRANCH   4  17
ATOM     17  O   UNL     1     -24.042  26.266 -32.028  1.00  0.00    -0.387 OA
ATOM     18  H   UNL     1     -24.877  25.724 -32.023  1.00  0.00     0.211 HD
ENDBRANCH   4  17
TORSDOF 7
ENDMDL
MODEL 4
REMARK VINA RESULT:    -4.372     12.060     13.532
REMARK INTER + INTRA:          -5.914
REMARK INTER:                  -5.529
REMARK INTRA:                  -0.385
REMARK UNBOUND:                -0.264
REMARK SMILES CCO[C@@H]1O[C@H](CO)[C@@H](O)[C@H](O)[C@@H]1O
REMARK SMILES IDX 4 1 13 2 11 3 9 4 6 5 5 6 3 7 2 8 1 9 14 10 12 12 7 14 8 15
REMARK SMILES IDX 10 17
REMARK H PARENT 14 11 12 13 8 16 10 18
REMARK Flexibility Score: inf
ROOT
ATOM      1  C   UNL     1     -31.573  29.832 -37.365  1.00  0.00     0.281 C 
ATOM      2  C   UNL     1     -32.879  29.021 -37.098  1.00  0.00     0.202 C 
ATOM      3  C   UNL     1     -32.911  28.458 -35.659  1.00  0.00     0.179 C 
ATOM      4  C   UNL     1     -32.468  29.535 -34.635  1.00  0.00     0.177 C 
ATOM      5  C   UNL     1     -31.185  30.297 -35.101  1.00  0.00     0.178 C 
ATOM      6  O   UNL     1     -30.646  29.740 -36.286  1.00  0.00    -0.341 OA
ENDROOT
BRANCH   1   7
ATOM      7  O   UNL     1     -30.964  29.509 -38.611  1.00  0.00    -0.350 OA
BRANCH   7   8
ATOM      8  C   UNL     1     -29.660  28.956 -38.486  1.00  0.00     0.160 C 
ATOM      9  C   UNL     1     -29.687  27.519 -38.995  1.00  0.00     0.035 C 
ENDBRANCH   7   8
ENDBRANCH   1   7
BRANCH   2  10
ATOM     10  O   UNL     1     -33.041  27.984 -38.030  1.00  0.00    -0.385 OA
ATOM     11  H   UNL     1     -32.178  27.496 -38.086  1.00  0.00     0.211 HD
ENDBRANCH   2  10
BRANCH   3  12
ATOM     12  O   UNL     1     -32.055  27.347 -35.575  1.00  0.00    -0.387 OA
ATOM     13  H   UNL     1     -31.130  27.701 -35.487  1.00  0.00     0.211 HD
ENDBRANCH   3  12
BRANCH   5  14
ATOM     14  C   UNL     1     -30.101  30.245 -34.017  1.00  0.00     0.191 C 
BRANCH  14  15
ATOM     15  O   UNL     1     -29.695  28.917 -33.821  1.00  0.00    -0.394 OA
ATOM     16  H   UNL     1     -28.763  28.960 -33.479  1.00  0.00     0.210 HD
ENDBRANCH  14  15
ENDBRANCH   5  14
BRANCH   4  17
ATOM     17  O   UNL     1     -33.515  30.443 -34.374  1.00  0.00    -0.387 OA
ATOM     18  H   UNL     1     -33.153  31.170 -33.800  1.00  0.00     0.211 HD
ENDBRANCH   4  17
TORSDOF 7
ENDMDL
MODEL 5
REMARK VINA RESULT:    -4.229      7.043      9.162
REMARK INTER + INTRA:          -5.730
REMARK INTER:                  -5.490
REMARK INTRA:                  -0.239
REMARK UNBOUND:                -0.264
REMARK SMILES CCO[C@@H]1O[C@H](CO)[C@@H](O)[C@H](O)[C@@H]1O
REMARK SMILES IDX 4 1 13 2 11 3 9 4 6 5 5 6 3 7 2 8 1 9 14 10 12 12 7 14 8 15
REMARK SMILES IDX 10 17
REMARK H PARENT 14 11 12 13 8 16 10 18
REMARK Flexibility Score: inf
ROOT
ATOM      1  C   UNL     1     -26.542  20.327 -38.339  1.00  0.00     0.281 C 
ATOM      2  C   UNL     1     -27.203  21.444 -39.203  1.00  0.00     0.202 C 
ATOM      3  C   UNL     1     -28.311  22.184 -38.420  1.00  0.00     0.179 C 
ATOM      4  C   UNL     1     -27.838  22.522 -36.982  1.00  0.00     0.177 C 
ATOM      5  C   UNL     1     -27.133  21.308 -36.294  1.00  0.00     0.178 C 
ATOM      6  O   UNL     1     -27.207  20.140 -37.091  1.00  0.00    -0.341 OA
ENDROOT
BRANCH   1   7
ATOM      7  O   UNL     1     -26.388  19.098 -39.042  1.00  0.00    -0.350 OA
BRANCH   7   8
ATOM      8  C   UNL     1     -26.851  17.963 -38.322  1.00  0.00     0.160 C 
ATOM      9  C   UNL     1     -27.383  16.937 -39.317  1.00  0.00     0.035 C 
ENDBRANCH   7   8
ENDBRANCH   1   7
BRANCH   2  10
ATOM     10  O   UNL     1     -27.717  20.931 -40.404  1.00  0.00    -0.385 OA
ATOM     11  H   UNL     1     -28.392  21.576 -40.740  1.00  0.00     0.211 HD
ENDBRANCH   2  10
BRANCH   3  12
ATOM     12  O   UNL     1     -29.459  21.377 -38.361  1.00  0.00    -0.387 OA
ATOM     13  H   UNL     1     -29.482  20.973 -37.453  1.00  0.00     0.211 HD
ENDBRANCH   3  12
BRANCH   5  14
ATOM     14  C   UNL     1     -27.786  21.000 -34.941  1.00  0.00     0.191 C 
BRANCH  14  15
ATOM     15  O   UNL     1     -28.402  19.741 -34.991  1.00  0.00    -0.394 OA
ATOM     16  H   UNL     1     -27.739  19.095 -34.629  1.00  0.00     0.210 HD
ENDBRANCH  14  15
ENDBRANCH   5  14
BRANCH   4  17
ATOM     17  O   UNL     1     -26.992  23.651 -36.981  1.00  0.00    -0.387 OA
ATOM     18  H   UNL     1     -26.576  23.720 -36.081  1.00  0.00     0.211 HD
ENDBRANCH   4  17
TORSDOF 7
ENDMDL
MODEL 6
REMARK VINA RESULT:    -4.205     11.695     13.733
REMARK INTER + INTRA:          -5.698
REMARK INTER:                  -5.558
REMARK INTRA:                  -0.140
REMARK UNBOUND:                -0.264
REMARK SMILES CCO[C@@H]1O[C@H](CO)[C@@H](O)[C@H](O)[C@@H]1O
REMARK SMILES IDX 4 1 13 2 11 3 9 4 6 5 5 6 3 7 2 8 1 9 14 10 12 12 7 14 8 15
REMARK SMILES IDX 10 17
REMARK H PARENT 14 11 12 13 8 16 10 18
REMARK Flexibility Score: inf
ROOT
ATOM      1  C   UNL     1     -32.353  29.799 -34.543  1.00  0.00     0.281 C 
ATOM      2  C   UNL     1     -31.982  28.754 -35.640  1.00  0.00     0.202 C 
ATOM      3  C   UNL     1     -30.559  28.997 -36.194  1.00  0.00     0.179 C 
ATOM      4  C   UNL     1     -29.558  29.271 -35.043  1.00  0.00     0.177 C 
ATOM      5  C   UNL     1     -30.126  30.286 -33.998  1.00  0.00     0.178 C 
ATOM      6  O   UNL     1     -31.370  30.823 -34.413  1.00  0.00    -0.341 OA
ENDROOT
BRANCH   1   7
ATOM      7  O   UNL     1     -33.658  30.342 -34.712  1.00  0.00    -0.350 OA
BRANCH   7   8
ATOM      8  C   UNL     1     -34.602  29.877 -33.756  1.00  0.00     0.160 C 
ATOM      9  C   UNL     1     -35.983  30.397 -34.139  1.00  0.00     0.035 C 
ENDBRANCH   7   8
ENDBRANCH   1   7
BRANCH   2  10
ATOM     10  O   UNL     1     -32.917  28.750 -36.686  1.00  0.00    -0.385 OA
ATOM     11  H   UNL     1     -32.616  29.416 -37.357  1.00  0.00     0.211 HD
ENDBRANCH   2  10
BRANCH   3  12
ATOM     12  O   UNL     1     -30.582  30.094 -37.071  1.00  0.00    -0.387 OA
ATOM     13  H   UNL     1     -31.503  30.149 -37.442  1.00  0.00     0.211 HD
ENDBRANCH   3  12
BRANCH   5  14
ATOM     14  C   UNL     1     -29.151  31.453 -33.793  1.00  0.00     0.191 C 
BRANCH  14  15
ATOM     15  O   UNL     1     -29.566  32.225 -32.699  1.00  0.00    -0.394 OA
ATOM     16  H   UNL     1     -30.147  32.941 -33.070  1.00  0.00     0.210 HD
ENDBRANCH  14  15
ENDBRANCH   5  14
BRANCH   4  17
ATOM     17  O   UNL     1     -29.177  28.070 -34.409  1.00  0.00    -0.387 OA
ATOM     18  H   UNL     1     -28.363  28.255 -33.868  1.00  0.00     0.211 HD
ENDBRANCH   4  17
TORSDOF 7
ENDMDL
MODEL 7
REMARK VINA RESULT:    -4.138     15.510     16.810
REMARK INTER + INTRA:          -5.612
REMARK INTER:                  -5.315
REMARK INTRA:                  -0.297
REMARK UNBOUND:                -0.264
REMARK SMILES CCO[C@@H]1O[C@H](CO)[C@@H](O)[C@H](O)[C@@H]1O
REMARK SMILES IDX 4 1 13 2 11 3 9 4 6 5 5 6 3 7 2 8 1 9 14 10 12 12 7 14 8 15
REMARK SMILES IDX 10 17
REMARK H PARENT 14 11 12 13 8 16 10 18
REMARK Flexibility Score: inf
ROOT
ATOM      1  C   UNL     1     -19.715  31.629 -40.655  1.00  0.00     0.281 C 
ATOM      2  C   UNL     1     -19.811  32.474 -39.348  1.00  0.00     0.202 C 
ATOM      3  C   UNL     1     -21.256  32.960 -39.093  1.00  0.00     0.179 C 
ATOM      4  C   UNL     1     -22.273  31.813 -39.328  1.00  0.00     0.177 C 
ATOM      5  C   UNL     1     -21.980  31.028 -40.648  1.00  0.00     0.178 C 
ATOM      6  O   UNL     1     -20.935  31.627 -41.392  1.00  0.00    -0.341 OA
ENDROOT
BRANCH   1   7
ATOM      7  O   UNL     1     -18.608  31.994 -41.473  1.00  0.00    -0.350 OA
BRANCH   7   8
ATOM      8  C   UNL     1     -18.812  31.751 -42.859  1.00  0.00     0.160 C 
ATOM      9  C   UNL     1     -17.592  32.245 -43.627  1.00  0.00     0.035 C 
ENDBRANCH   7   8
ENDBRANCH   1   7
BRANCH   2  10
ATOM     10  O   UNL     1     -18.929  33.565 -39.373  1.00  0.00    -0.385 OA
ATOM     11  H   UNL     1     -19.169  34.161 -38.617  1.00  0.00     0.211 HD
ENDBRANCH   2  10
BRANCH   3  12
ATOM     12  O   UNL     1     -21.546  34.031 -39.955  1.00  0.00    -0.387 OA
ATOM     13  H   UNL     1     -21.899  33.637 -40.797  1.00  0.00     0.211 HD
ENDBRANCH   3  12
BRANCH   5  14
ATOM     14  C   UNL     1     -23.229  30.981 -41.537  1.00  0.00     0.191 C 
BRANCH  14  15
ATOM     15  O   UNL     1     -23.708  32.282 -41.746  1.00  0.00    -0.394 OA
ATOM     16  H   UNL     1     -23.492  32.508 -42.689  1.00  0.00     0.210 HD
ENDBRANCH  14  15
ENDBRANCH   5  14
BRANCH   4  17
ATOM     17  O   UNL     1     -22.305  30.934 -38.226  1.00  0.00    -0.387 OA
ATOM     18  H   UNL     1     -22.619  31.448 -37.434  1.00  0.00     0.211 HD
ENDBRANCH   4  17
TORSDOF 7
ENDMDL
MODEL 8
REMARK VINA RESULT:    -4.111      1.839      4.688
REMARK INTER + INTRA:          -5.576
REMARK INTER:                  -5.274
REMARK INTRA:                  -0.302
REMARK UNBOUND:                -0.264
REMARK SMILES CCO[C@@H]1O[C@H](CO)[C@@H](O)[C@H](O)[C@@H]1O
REMARK SMILES IDX 4 1 13 2 11 3 9 4 6 5 5 6 3 7 2 8 1 9 14 10 12 12 7 14 8 15
REMARK SMILES IDX 10 17
REMARK H PARENT 14 11 12 13 8 16 10 18
REMARK Flexibility Score: inf
ROOT
ATOM      1  C   UNL     1     -24.010  19.048 -28.243  1.00  0.00     0.281 C 
ATOM      2  C   UNL     1     -24.683  20.389 -28.669  1.00  0.00     0.202 C 
ATOM      3  C   UNL     1     -24.052  20.953 -29.962  1.00  0.00     0.179 C 
ATOM      4  C   UNL     1     -23.863  19.834 -31.018  1.00  0.00     0.177 C 
ATOM      5  C   UNL     1     -23.244  18.539 -30.399  1.00  0.00     0.178 C 
ATOM      6  O   UNL     1     -22.875  18.731 -29.045  1.00  0.00    -0.341 OA
ENDROOT
BRANCH   1   7
ATOM      7  O   UNL     1     -23.702  18.998 -26.854  1.00  0.00    -0.350 OA
BRANCH   7   8
ATOM      8  C   UNL     1     -22.967  17.844 -26.470  1.00  0.00     0.160 C 
ATOM      9  C   UNL     1     -23.909  16.875 -25.764  1.00  0.00     0.035 C 
ENDBRANCH   7   8
ENDBRANCH   1   7
BRANCH   2  10
ATOM     10  O   UNL     1     -24.625  21.344 -27.643  1.00  0.00    -0.385 OA
ATOM     11  H   UNL     1     -23.910  21.991 -27.877  1.00  0.00     0.211 HD
ENDBRANCH   2  10
BRANCH   3  12
ATOM     12  O   UNL     1     -22.807  21.530 -29.659  1.00  0.00    -0.387 OA
ATOM     13  H   UNL     1     -22.217  20.795 -29.345  1.00  0.00     0.211 HD
ENDBRANCH   3  12
BRANCH   5  14
ATOM     14  C   UNL     1     -21.991  18.114 -31.176  1.00  0.00     0.191 C 
BRANCH  14  15
ATOM     15  O   UNL     1     -22.103  18.525 -32.511  1.00  0.00    -0.394 OA
ATOM     16  H   UNL     1     -21.905  19.499 -32.518  1.00  0.00     0.210 HD
ENDBRANCH  14  15
ENDBRANCH   5  14
BRANCH   4  17
ATOM     17  O   UNL     1     -25.082  19.539 -31.664  1.00  0.00    -0.387 OA
ATOM     18  H   UNL     1     -25.289  20.290 -32.283  1.00  0.00     0.211 HD
ENDBRANCH   4  17
TORSDOF 7
ENDMDL
MODEL 9
REMARK VINA RESULT:    -4.054      2.170      3.695
REMARK INTER + INTRA:          -5.503
REMARK INTER:                  -5.101
REMARK INTRA:                  -0.402
REMARK UNBOUND:                -0.264
REMARK SMILES CCO[C@@H]1O[C@H](CO)[C@@H](O)[C@H](O)[C@@H]1O
REMARK SMILES IDX 4 1 13 2 11 3 9 4 6 5 5 6 3 7 2 8 1 9 14 10 12 12 7 14 8 15
REMARK SMILES IDX 10 17
REMARK H PARENT 14 11 12 13 8 16 10 18
REMARK Flexibility Score: inf
ROOT
ATOM      1  C   UNL     1     -21.812  20.259 -29.036  1.00  0.00     0.281 C 
ATOM      2  C   UNL     1     -22.934  20.824 -29.961  1.00  0.00     0.202 C 
ATOM      3  C   UNL     1     -24.319  20.248 -29.589  1.00  0.00     0.179 C 
ATOM      4  C   UNL     1     -24.528  20.263 -28.052  1.00  0.00     0.177 C 
ATOM      5  C   UNL     1     -23.275  19.730 -27.283  1.00  0.00     0.178 C 
ATOM      6  O   UNL     1     -22.289  19.232 -28.169  1.00  0.00    -0.341 OA
ENDROOT
BRANCH   1   7
ATOM      7  O   UNL     1     -20.656  19.844 -29.755  1.00  0.00    -0.350 OA
BRANCH   7   8
ATOM      8  C   UNL     1     -20.376  18.454 -29.643  1.00  0.00     0.160 C 
ATOM      9  C   UNL     1     -20.492  17.818 -31.023  1.00  0.00     0.035 C 
ENDBRANCH   7   8
ENDBRANCH   1   7
BRANCH   2  10
ATOM     10  O   UNL     1     -22.655  20.584 -31.315  1.00  0.00    -0.385 OA
ATOM     11  H   UNL     1     -23.396  20.033 -31.679  1.00  0.00     0.211 HD
ENDBRANCH   2  10
BRANCH   3  12
ATOM     12  O   UNL     1     -24.418  18.930 -30.065  1.00  0.00    -0.387 OA
ATOM     13  H   UNL     1     -24.913  18.410 -29.377  1.00  0.00     0.211 HD
ENDBRANCH   3  12
BRANCH   5  14
ATOM     14  C   UNL     1     -23.669  18.596 -26.328  1.00  0.00     0.191 C 
BRANCH  14  15
ATOM     15  O   UNL     1     -24.360  17.603 -27.036  1.00  0.00    -0.394 OA
ATOM     16  H   UNL     1     -24.005  16.734 -26.710  1.00  0.00     0.210 HD
ENDBRANCH  14  15
ENDBRANCH   5  14
BRANCH   4  17
ATOM     17  O   UNL     1     -24.871  21.555 -27.603  1.00  0.00    -0.387 OA
ATOM     18  H   UNL     1     -24.293  22.208 -28.080  1.00  0.00     0.211 HD
ENDBRANCH   4  17
TORSDOF 7
ENDMDL
