MODEL 1
REMARK VINA RESULT:    -3.475      0.000      0.000
REMARK INTER + INTRA:          -4.127
REMARK INTER:                  -4.085
REMARK INTRA:                  -0.042
REMARK UNBOUND:                -0.042
REMARK SMILES O=C([O-])CCC(=O)[O-]
REMARK SMILES IDX 4 1 2 2 1 3 3 4 5 5 6 6 7 7 8 8
REMARK H PARENT
REMARK Flexibility Score: inf
ROOT
ATOM      1  C   UNL     1     -12.512  -0.815 -40.376  1.00  0.00     0.059 C 
ENDROOT
BRANCH   1   2
ATOM      2  C   UNL     1     -13.694  -1.648 -39.980  1.00  0.00     0.042 C 
ATOM      3  O   UNL     1     -13.533  -2.683 -39.280  1.00  0.00    -0.550 OA
ATOM      4  O   UNL     1     -14.966  -1.305 -40.418  1.00  0.00    -0.550 OA
ENDBRANCH   1   2
BRANCH   1   5
ATOM      5  C   UNL     1     -11.198  -1.585 -40.209  1.00  0.00     0.059 C 
BRANCH   5   6
ATOM      6  C   UNL     1     -10.277  -1.361 -41.370  1.00  0.00     0.042 C 
ATOM      7  O   UNL     1     -10.227  -0.235 -41.932  1.00  0.00    -0.550 OA
ATOM      8  O   UNL     1      -9.445  -2.384 -41.805  1.00  0.00    -0.550 OA
ENDBRANCH   5   6
ENDBRANCH   1   5
TORSDOF 3
ENDMDL
MODEL 2
REMARK VINA RESULT:    -3.452      7.851      9.388
REMARK INTER + INTRA:          -4.100
REMARK INTER:                  -4.007
REMARK INTRA:                  -0.093
REMARK UNBOUND:                -0.042
REMARK SMILES O=C([O-])CCC(=O)[O-]
REMARK SMILES IDX 4 1 2 2 1 3 3 4 5 5 6 6 7 7 8 8
REMARK H PARENT
REMARK Flexibility Score: inf
ROOT
ATOM      1  C   UNL     1     -16.763   4.825 -40.492  1.00  0.00     0.059 C 
ENDROOT
BRANCH   1   2
ATOM      2  C   UNL     1     -17.593   3.627 -40.842  1.00  0.00     0.042 C 
ATOM      3  O   UNL     1     -18.507   3.719 -41.703  1.00  0.00    -0.550 OA
ATOM      4  O   UNL     1     -17.383   2.421 -40.187  1.00  0.00    -0.550 OA
ENDBRANCH   1   2
BRANCH   1   5
ATOM      5  C   UNL     1     -17.089   6.020 -41.396  1.00  0.00     0.059 C 
BRANCH   5   6
ATOM      6  C   UNL     1     -17.510   7.216 -40.598  1.00  0.00     0.042 C 
ATOM      7  O   UNL     1     -18.346   7.093 -39.664  1.00  0.00    -0.550 OA
ATOM      8  O   UNL     1     -16.950   8.459 -40.860  1.00  0.00    -0.550 OA
ENDBRANCH   5   6
ENDBRANCH   1   5
TORSDOF 3
ENDMDL
MODEL 3
REMARK VINA RESULT:    -3.443      1.089      1.436
REMARK INTER + INTRA:          -4.089
REMARK INTER:                  -4.013
REMARK INTRA:                  -0.076
REMARK UNBOUND:                -0.042
REMARK SMILES O=C([O-])CCC(=O)[O-]
REMARK SMILES IDX 4 1 2 2 1 3 3 4 5 5 6 6 7 7 8 8
REMARK H PARENT
REMARK Flexibility Score: inf
ROOT
ATOM      1  C   UNL     1     -11.749  -1.492 -39.343  1.00  0.00     0.059 C 
ENDROOT
BRANCH   1   2
ATOM      2  C   UNL     1     -13.135  -1.997 -39.608  1.00  0.00     0.042 C 
ATOM      3  O   UNL     1     -13.474  -3.147 -39.223  1.00  0.00    -0.550 OA
ATOM      4  O   UNL     1     -14.038  -1.214 -40.314  1.00  0.00    -0.550 OA
ENDBRANCH   1   2
BRANCH   1   5
ATOM      5  C   UNL     1     -11.025  -1.122 -40.642  1.00  0.00     0.059 C 
BRANCH   5   6
ATOM      6  C   UNL     1      -9.888  -2.054 -40.925  1.00  0.00     0.042 C 
ATOM      7  O   UNL     1      -9.561  -2.931 -40.081  1.00  0.00    -0.550 OA
ATOM      8  O   UNL     1      -9.214  -1.981 -42.137  1.00  0.00    -0.550 OA
ENDBRANCH   5   6
ENDBRANCH   1   5
TORSDOF 3
ENDMDL
MODEL 4
REMARK VINA RESULT:    -3.434      1.063      4.190
REMARK INTER + INTRA:          -4.079
REMARK INTER:                  -4.005
REMARK INTRA:                  -0.073
REMARK UNBOUND:                -0.042
REMARK SMILES O=C([O-])CCC(=O)[O-]
REMARK SMILES IDX 4 1 2 2 1 3 3 4 5 5 6 6 7 7 8 8
REMARK H PARENT
REMARK Flexibility Score: inf
ROOT
ATOM      1  C   UNL     1     -11.023  -1.100 -40.763  1.00  0.00     0.059 C 
ENDROOT
BRANCH   1   2
ATOM      2  C   UNL     1      -9.872  -2.028 -41.009  1.00  0.00     0.042 C 
ATOM      3  O   UNL     1      -9.250  -1.991 -42.103  1.00  0.00    -0.550 OA
ATOM      4  O   UNL     1      -9.512  -2.961 -40.045  1.00  0.00    -0.550 OA
ENDBRANCH   1   2
BRANCH   1   5
ATOM      5  C   UNL     1     -11.732  -1.417 -39.443  1.00  0.00     0.059 C 
BRANCH   5   6
ATOM      6  C   UNL     1     -13.116  -1.942 -39.673  1.00  0.00     0.042 C 
ATOM      7  O   UNL     1     -13.445  -3.077 -39.238  1.00  0.00    -0.550 OA
ATOM      8  O   UNL     1     -14.055  -1.161 -40.333  1.00  0.00    -0.550 OA
ENDBRANCH   5   6
ENDBRANCH   1   5
TORSDOF 3
ENDMDL
MODEL 5
REMARK VINA RESULT:    -3.405     13.926     15.727
REMARK INTER + INTRA:          -4.044
REMARK INTER:                  -3.982
REMARK INTRA:                  -0.062
REMARK UNBOUND:                -0.042
REMARK SMILES O=C([O-])CCC(=O)[O-]
REMARK SMILES IDX 4 1 2 2 1 3 3 4 5 5 6 6 7 7 8 8
REMARK H PARENT
REMARK Flexibility Score: inf
ROOT
ATOM      1  C   UNL     1     -23.106   4.199 -48.360  1.00  0.00     0.059 C 
ENDROOT
BRANCH   1   2
ATOM      2  C   UNL     1     -22.525   2.818 -48.377  1.00  0.00     0.042 C 
ATOM      3  O   UNL     1     -23.274   1.814 -48.243  1.00  0.00    -0.550 OA
ATOM      4  O   UNL     1     -21.153   2.642 -48.499  1.00  0.00    -0.550 OA
ENDBRANCH   1   2
BRANCH   1   5
ATOM      5  C   UNL     1     -24.485   4.239 -49.028  1.00  0.00     0.059 C 
BRANCH   5   6
ATOM      6  C   UNL     1     -25.457   5.059 -48.236  1.00  0.00     0.042 C 
ATOM      7  O   UNL     1     -25.061   5.738 -47.252  1.00  0.00    -0.550 OA
ATOM      8  O   UNL     1     -26.795   5.104 -48.608  1.00  0.00    -0.550 OA
ENDBRANCH   5   6
ENDBRANCH   1   5
TORSDOF 3
ENDMDL
MODEL 6
REMARK VINA RESULT:    -3.404      7.690      9.291
REMARK INTER + INTRA:          -4.043
REMARK INTER:                  -3.926
REMARK INTRA:                  -0.117
REMARK UNBOUND:                -0.042
REMARK SMILES O=C([O-])CCC(=O)[O-]
REMARK SMILES IDX 4 1 2 2 1 3 3 4 5 5 6 6 7 7 8 8
REMARK H PARENT
REMARK Flexibility Score: inf
ROOT
ATOM      1  C   UNL     1     -16.641   5.699 -40.345  1.00  0.00     0.059 C 
ENDROOT
BRANCH   1   2
ATOM      2  C   UNL     1     -17.625   6.818 -40.502  1.00  0.00     0.042 C 
ATOM      3  O   UNL     1     -18.402   7.114 -39.556  1.00  0.00    -0.550 OA
ATOM      4  O   UNL     1     -17.712   7.506 -41.705  1.00  0.00    -0.550 OA
ENDBRANCH   1   2
BRANCH   1   5
ATOM      5  C   UNL     1     -16.800   4.648 -41.449  1.00  0.00     0.059 C 
BRANCH   5   6
ATOM      6  C   UNL     1     -17.821   3.615 -41.084  1.00  0.00     0.042 C 
ATOM      7  O   UNL     1     -18.984   3.675 -41.562  1.00  0.00    -0.550 OA
ATOM      8  O   UNL     1     -17.476   2.563 -40.245  1.00  0.00    -0.550 OA
ENDBRANCH   5   6
ENDBRANCH   1   5
TORSDOF 3
ENDMDL
MODEL 7
REMARK VINA RESULT:    -3.399      0.943      3.892
REMARK INTER + INTRA:          -4.037
REMARK INTER:                  -3.956
REMARK INTRA:                  -0.081
REMARK UNBOUND:                -0.042
REMARK SMILES O=C([O-])CCC(=O)[O-]
REMARK SMILES IDX 4 1 2 2 1 3 3 4 5 5 6 6 7 7 8 8
REMARK H PARENT
REMARK Flexibility Score: inf
ROOT
ATOM      1  C   UNL     1     -11.147  -1.312 -39.530  1.00  0.00     0.059 C 
ENDROOT
BRANCH   1   2
ATOM      2  C   UNL     1     -10.168  -2.107 -40.339  1.00  0.00     0.042 C 
ATOM      3  O   UNL     1      -9.470  -3.000 -39.790  1.00  0.00    -0.550 OA
ATOM      4  O   UNL     1      -9.997  -1.834 -41.690  1.00  0.00    -0.550 OA
ENDBRANCH   1   2
BRANCH   1   5
ATOM      5  C   UNL     1     -12.378  -0.924 -40.356  1.00  0.00     0.059 C 
BRANCH   5   6
ATOM      6  C   UNL     1     -13.586  -1.710 -39.948  1.00  0.00     0.042 C 
ATOM      7  O   UNL     1     -14.734  -1.348 -40.319  1.00  0.00    -0.550 OA
ATOM      8  O   UNL     1     -13.441  -2.865 -39.190  1.00  0.00    -0.550 OA
ENDBRANCH   5   6
ENDBRANCH   1   5
TORSDOF 3
ENDMDL
MODEL 8
REMARK VINA RESULT:    -3.375      7.749      9.252
REMARK INTER + INTRA:          -4.009
REMARK INTER:                  -3.913
REMARK INTRA:                  -0.096
REMARK UNBOUND:                -0.042
REMARK SMILES O=C([O-])CCC(=O)[O-]
REMARK SMILES IDX 4 1 2 2 1 3 3 4 5 5 6 6 7 7 8 8
REMARK H PARENT
REMARK Flexibility Score: inf
ROOT
ATOM      1  C   UNL     1     -16.809   4.719 -40.556  1.00  0.00     0.059 C 
ENDROOT
BRANCH   1   2
ATOM      2  C   UNL     1     -17.647   3.493 -40.759  1.00  0.00     0.042 C 
ATOM      3  O   UNL     1     -17.342   2.415 -40.186  1.00  0.00    -0.550 OA
ATOM      4  O   UNL     1     -18.741   3.532 -41.614  1.00  0.00    -0.550 OA
ENDBRANCH   1   2
BRANCH   1   5
ATOM      5  C   UNL     1     -17.037   5.749 -41.666  1.00  0.00     0.059 C 
BRANCH   5   6
ATOM      6  C   UNL     1     -17.825   6.924 -41.175  1.00  0.00     0.042 C 
ATOM      7  O   UNL     1     -18.183   7.828 -41.976  1.00  0.00    -0.550 OA
ATOM      8  O   UNL     1     -18.199   7.002 -39.840  1.00  0.00    -0.550 OA
ENDBRANCH   5   6
ENDBRANCH   1   5
TORSDOF 3
ENDMDL
MODEL 9
REMARK VINA RESULT:    -3.290      8.317      9.730
REMARK INTER + INTRA:          -3.910
REMARK INTER:                  -3.786
REMARK INTRA:                  -0.124
REMARK UNBOUND:                -0.042
REMARK SMILES O=C([O-])CCC(=O)[O-]
REMARK SMILES IDX 4 1 2 2 1 3 3 4 5 5 6 6 7 7 8 8
REMARK H PARENT
REMARK Flexibility Score: inf
ROOT
ATOM      1  C   UNL     1     -17.295   5.474 -42.194  1.00  0.00     0.059 C 
ENDROOT
BRANCH   1   2
ATOM      2  C   UNL     1     -17.440   4.277 -41.304  1.00  0.00     0.042 C 
ATOM      3  O   UNL     1     -16.588   4.050 -40.405  1.00  0.00    -0.550 OA
ATOM      4  O   UNL     1     -18.493   3.393 -41.493  1.00  0.00    -0.550 OA
ENDBRANCH   1   2
BRANCH   1   5
ATOM      5  C   UNL     1     -18.279   6.584 -41.812  1.00  0.00     0.059 C 
BRANCH   5   6
ATOM      6  C   UNL     1     -17.719   7.476 -40.747  1.00  0.00     0.042 C 
ATOM      7  O   UNL     1     -18.085   7.341 -39.550  1.00  0.00    -0.550 OA
ATOM      8  O   UNL     1     -16.764   8.431 -41.070  1.00  0.00    -0.550 OA
ENDBRANCH   5   6
ENDBRANCH   1   5
TORSDOF 3
ENDMDL
