MODEL 1
REMARK VINA RESULT:    -3.463      0.000      0.000
REMARK INTER + INTRA:         -13.276
REMARK INTER:                  -9.132
REMARK INTRA:                  -4.145
REMARK UNBOUND:                -4.145
REMARK SMILES CCCCCCCCCCCCCCCCCCCCCCCCCCCCCC(=O)[O-]
REMARK SMILES IDX 16 1 17 2 18 3 19 4 20 5 21 6 22 7 23 8 24 9 25 10 26 11
REMARK SMILES IDX 27 12 28 13 29 14 30 15 31 16 32 17 15 18 14 19 13 20 12 21
REMARK SMILES IDX 11 22 10 23 9 24 8 25 7 26 6 27 5 28 4 29 3 30 2 31 1 32
REMARK H PARENT
REMARK Flexibility Score: inf
ROOT
ATOM      1  C   UNL     1     -12.976 -20.005  22.721  1.00  0.00     0.000 C 
ENDROOT
BRANCH   1   2
ATOM      2  C   UNL     1     -11.711 -20.875  22.591  1.00  0.00     0.000 C 
BRANCH   2   3
ATOM      3  C   UNL     1     -11.889 -22.350  23.001  1.00  0.00     0.000 C 
BRANCH   3   4
ATOM      4  C   UNL     1     -11.890 -23.308  21.800  1.00  0.00     0.000 C 
BRANCH   4   5
ATOM      5  C   UNL     1     -13.222 -23.228  21.040  1.00  0.00     0.000 C 
BRANCH   5   6
ATOM      6  C   UNL     1     -13.044 -22.869  19.553  1.00  0.00     0.000 C 
BRANCH   6   7
ATOM      7  C   UNL     1     -13.578 -21.480  19.148  1.00  0.00     0.000 C 
BRANCH   7   8
ATOM      8  C   UNL     1     -12.494 -20.417  18.896  1.00  0.00     0.000 C 
BRANCH   8   9
ATOM      9  C   UNL     1     -12.964 -18.997  19.253  1.00  0.00     0.000 C 
BRANCH   9  10
ATOM     10  C   UNL     1     -11.960 -17.914  18.824  1.00  0.00     0.000 C 
BRANCH  10  11
ATOM     11  C   UNL     1     -11.531 -17.976  17.344  1.00  0.00     0.000 C 
BRANCH  11  12
ATOM     12  C   UNL     1     -11.391 -16.610  16.646  1.00  0.00     0.000 C 
BRANCH  12  13
ATOM     13  C   UNL     1     -11.202 -16.735  15.124  1.00  0.00     0.006 C 
BRANCH  13  14
ATOM     14  C   UNL     1     -12.356 -16.094  14.342  1.00  0.00     0.053 C 
BRANCH  14  15
ATOM     15  C   UNL     1     -12.007 -14.719  13.860  1.00  0.00     0.041 C 
ATOM     16  O   UNL     1     -11.286 -14.569  12.838  1.00  0.00    -0.550 OA
ATOM     17  O   UNL     1     -12.482 -13.603  14.537  1.00  0.00    -0.550 OA
ENDBRANCH  14  15
ENDBRANCH  13  14
ENDBRANCH  12  13
ENDBRANCH  11  12
ENDBRANCH  10  11
ENDBRANCH   9  10
ENDBRANCH   8   9
ENDBRANCH   7   8
ENDBRANCH   6   7
ENDBRANCH   5   6
ENDBRANCH   4   5
ENDBRANCH   3   4
ENDBRANCH   2   3
ENDBRANCH   1   2
BRANCH   1  18
ATOM     18  C   UNL     1     -12.697 -18.644  23.380  1.00  0.00     0.000 C 
BRANCH  18  19
ATOM     19  C   UNL     1     -11.522 -18.690  24.372  1.00  0.00     0.000 C 
BRANCH  19  20
ATOM     20  C   UNL     1     -11.894 -19.013  25.836  1.00  0.00     0.000 C 
BRANCH  20  21
ATOM     21  C   UNL     1     -13.377 -19.350  26.096  1.00  0.00     0.000 C 
BRANCH  21  22
ATOM     22  C   UNL     1     -13.618 -20.533  27.061  1.00  0.00     0.000 C 
BRANCH  22  23
ATOM     23  C   UNL     1     -13.272 -21.907  26.457  1.00  0.00     0.000 C 
BRANCH  23  24
ATOM     24  C   UNL     1     -14.472 -22.689  25.893  1.00  0.00    -0.000 C 
BRANCH  24  25
ATOM     25  C   UNL     1     -15.148 -22.059  24.657  1.00  0.00    -0.000 C 
BRANCH  25  26
ATOM     26  C   UNL     1     -15.983 -23.021  23.794  1.00  0.00    -0.000 C 
BRANCH  26  27
ATOM     27  C   UNL     1     -15.764 -24.500  24.158  1.00  0.00    -0.000 C 
BRANCH  27  28
ATOM     28  C   UNL     1     -17.083 -25.252  24.405  1.00  0.00    -0.000 C 
BRANCH  28  29
ATOM     29  C   UNL     1     -18.290 -24.310  24.562  1.00  0.00    -0.000 C 
BRANCH  29  30
ATOM     30  C   UNL     1     -18.817 -24.253  26.009  1.00  0.00    -0.000 C 
BRANCH  30  31
ATOM     31  C   UNL     1     -18.005 -23.358  26.964  1.00  0.00    -0.003 C 
ATOM     32  C   UNL     1     -18.214 -21.865  26.712  1.00  0.00     0.004 C 
ENDBRANCH  30  31
ENDBRANCH  29  30
ENDBRANCH  28  29
ENDBRANCH  27  28
ENDBRANCH  26  27
ENDBRANCH  25  26
ENDBRANCH  24  25
ENDBRANCH  23  24
ENDBRANCH  22  23
ENDBRANCH  21  22
ENDBRANCH  20  21
ENDBRANCH  19  20
ENDBRANCH  18  19
ENDBRANCH   1  18
TORSDOF 28
ENDMDL
MODEL 2
REMARK VINA RESULT:    -3.412      3.308      6.281
REMARK INTER + INTRA:         -13.142
REMARK INTER:                  -7.111
REMARK INTRA:                  -6.031
REMARK UNBOUND:                -4.145
REMARK SMILES CCCCCCCCCCCCCCCCCCCCCCCCCCCCCC(=O)[O-]
REMARK SMILES IDX 16 1 17 2 18 3 19 4 20 5 21 6 22 7 23 8 24 9 25 10 26 11
REMARK SMILES IDX 27 12 28 13 29 14 30 15 31 16 32 17 15 18 14 19 13 20 12 21
REMARK SMILES IDX 11 22 10 23 9 24 8 25 7 26 6 27 5 28 4 29 3 30 2 31 1 32
REMARK H PARENT
REMARK Flexibility Score: inf
ROOT
ATOM      1  C   UNL     1     -17.795 -25.032  24.023  1.00  0.00     0.000 C 
ENDROOT
BRANCH   1   2
ATOM      2  C   UNL     1     -16.311 -24.618  23.982  1.00  0.00     0.000 C 
BRANCH   2   3
ATOM      3  C   UNL     1     -16.055 -23.143  23.617  1.00  0.00     0.000 C 
BRANCH   3   4
ATOM      4  C   UNL     1     -14.662 -22.909  23.015  1.00  0.00     0.000 C 
BRANCH   4   5
ATOM      5  C   UNL     1     -14.076 -21.574  23.498  1.00  0.00     0.000 C 
BRANCH   5   6
ATOM      6  C   UNL     1     -12.547 -21.617  23.668  1.00  0.00     0.000 C 
BRANCH   6   7
ATOM      7  C   UNL     1     -11.992 -20.747  24.814  1.00  0.00     0.000 C 
BRANCH   7   8
ATOM      8  C   UNL     1     -13.039 -19.878  25.533  1.00  0.00     0.000 C 
BRANCH   8   9
ATOM      9  C   UNL     1     -12.870 -18.379  25.232  1.00  0.00     0.000 C 
BRANCH   9  10
ATOM     10  C   UNL     1     -11.546 -18.063  24.517  1.00  0.00     0.000 C 
BRANCH  10  11
ATOM     11  C   UNL     1     -11.698 -17.385  23.140  1.00  0.00     0.000 C 
BRANCH  11  12
ATOM     12  C   UNL     1     -12.852 -17.919  22.272  1.00  0.00     0.000 C 
BRANCH  12  13
ATOM     13  C   UNL     1     -12.378 -18.914  21.197  1.00  0.00     0.006 C 
BRANCH  13  14
ATOM     14  C   UNL     1     -13.549 -19.534  20.423  1.00  0.00     0.053 C 
BRANCH  14  15
ATOM     15  C   UNL     1     -13.077 -20.390  19.288  1.00  0.00     0.041 C 
ATOM     16  O   UNL     1     -11.914 -20.243  18.825  1.00  0.00    -0.550 OA
ATOM     17  O   UNL     1     -13.919 -21.351  18.744  1.00  0.00    -0.550 OA
ENDBRANCH  14  15
ENDBRANCH  13  14
ENDBRANCH  12  13
ENDBRANCH  11  12
ENDBRANCH  10  11
ENDBRANCH   9  10
ENDBRANCH   8   9
ENDBRANCH   7   8
ENDBRANCH   6   7
ENDBRANCH   5   6
ENDBRANCH   4   5
ENDBRANCH   3   4
ENDBRANCH   2   3
ENDBRANCH   1   2
BRANCH   1  18
ATOM     18  C   UNL     1     -18.361 -25.076  25.452  1.00  0.00     0.000 C 
BRANCH  18  19
ATOM     19  C   UNL     1     -18.964 -23.731  25.897  1.00  0.00     0.000 C 
BRANCH  19  20
ATOM     20  C   UNL     1     -18.240 -23.028  27.066  1.00  0.00     0.000 C 
BRANCH  20  21
ATOM     21  C   UNL     1     -17.557 -21.687  26.728  1.00  0.00     0.000 C 
BRANCH  21  22
ATOM     22  C   UNL     1     -16.036 -21.643  26.997  1.00  0.00     0.000 C 
BRANCH  22  23
ATOM     23  C   UNL     1     -15.432 -23.009  27.373  1.00  0.00     0.000 C 
BRANCH  23  24
ATOM     24  C   UNL     1     -13.958 -23.200  26.969  1.00  0.00    -0.000 C 
BRANCH  24  25
ATOM     25  C   UNL     1     -13.622 -24.559  26.322  1.00  0.00    -0.000 C 
BRANCH  25  26
ATOM     26  C   UNL     1     -12.280 -24.624  25.571  1.00  0.00    -0.000 C 
BRANCH  26  27
ATOM     27  C   UNL     1     -12.166 -25.850  24.648  1.00  0.00    -0.000 C 
BRANCH  27  28
ATOM     28  C   UNL     1     -11.915 -25.466  23.180  1.00  0.00    -0.000 C 
BRANCH  28  29
ATOM     29  C   UNL     1     -12.988 -26.019  22.224  1.00  0.00    -0.000 C 
BRANCH  29  30
ATOM     30  C   UNL     1     -12.733 -25.631  20.755  1.00  0.00    -0.000 C 
BRANCH  30  31
ATOM     31  C   UNL     1     -12.743 -24.118  20.469  1.00  0.00    -0.003 C 
ATOM     32  C   UNL     1     -11.347 -23.539  20.242  1.00  0.00     0.004 C 
ENDBRANCH  30  31
ENDBRANCH  29  30
ENDBRANCH  28  29
ENDBRANCH  27  28
ENDBRANCH  26  27
ENDBRANCH  25  26
ENDBRANCH  24  25
ENDBRANCH  23  24
ENDBRANCH  22  23
ENDBRANCH  21  22
ENDBRANCH  20  21
ENDBRANCH  19  20
ENDBRANCH  18  19
ENDBRANCH   1  18
TORSDOF 28
ENDMDL
MODEL 3
REMARK VINA RESULT:    -3.411      1.230      2.112
REMARK INTER + INTRA:         -13.138
REMARK INTER:                  -8.626
REMARK INTRA:                  -4.512
REMARK UNBOUND:                -4.145
REMARK SMILES CCCCCCCCCCCCCCCCCCCCCCCCCCCCCC(=O)[O-]
REMARK SMILES IDX 16 1 17 2 18 3 19 4 20 5 21 6 22 7 23 8 24 9 25 10 26 11
REMARK SMILES IDX 27 12 28 13 29 14 30 15 31 16 32 17 15 18 14 19 13 20 12 21
REMARK SMILES IDX 11 22 10 23 9 24 8 25 7 26 6 27 5 28 4 29 3 30 2 31 1 32
REMARK H PARENT
REMARK Flexibility Score: inf
ROOT
ATOM      1  C   UNL     1     -13.175 -20.900  24.063  1.00  0.00     0.000 C 
ENDROOT
BRANCH   1   2
ATOM      2  C   UNL     1     -11.683 -21.056  23.712  1.00  0.00     0.000 C 
BRANCH   2   3
ATOM      3  C   UNL     1     -11.396 -21.840  22.417  1.00  0.00     0.000 C 
BRANCH   3   4
ATOM      4  C   UNL     1     -12.191 -23.151  22.323  1.00  0.00     0.000 C 
BRANCH   4   5
ATOM      5  C   UNL     1     -13.249 -23.069  21.213  1.00  0.00     0.000 C 
BRANCH   5   6
ATOM      6  C   UNL     1     -12.641 -22.827  19.820  1.00  0.00     0.000 C 
BRANCH   6   7
ATOM      7  C   UNL     1     -13.356 -21.756  18.972  1.00  0.00     0.000 C 
BRANCH   7   8
ATOM      8  C   UNL     1     -13.508 -20.384  19.654  1.00  0.00     0.000 C 
BRANCH   8   9
ATOM      9  C   UNL     1     -12.193 -19.588  19.682  1.00  0.00     0.000 C 
BRANCH   9  10
ATOM     10  C   UNL     1     -12.394 -18.098  19.358  1.00  0.00     0.000 C 
BRANCH  10  11
ATOM     11  C   UNL     1     -11.365 -17.503  18.375  1.00  0.00     0.000 C 
BRANCH  11  12
ATOM     12  C   UNL     1     -11.685 -17.715  16.884  1.00  0.00     0.000 C 
BRANCH  12  13
ATOM     13  C   UNL     1     -11.315 -16.500  16.015  1.00  0.00     0.006 C 
BRANCH  13  14
ATOM     14  C   UNL     1     -12.108 -16.462  14.702  1.00  0.00     0.053 C 
BRANCH  14  15
ATOM     15  C   UNL     1     -12.343 -15.059  14.233  1.00  0.00     0.041 C 
ATOM     16  O   UNL     1     -12.511 -14.820  13.007  1.00  0.00    -0.550 OA
ATOM     17  O   UNL     1     -12.380 -14.016  15.149  1.00  0.00    -0.550 OA
ENDBRANCH  14  15
ENDBRANCH  13  14
ENDBRANCH  12  13
ENDBRANCH  11  12
ENDBRANCH  10  11
ENDBRANCH   9  10
ENDBRANCH   8   9
ENDBRANCH   7   8
ENDBRANCH   6   7
ENDBRANCH   5   6
ENDBRANCH   4   5
ENDBRANCH   3   4
ENDBRANCH   2   3
ENDBRANCH   1   2
BRANCH   1  18
ATOM     18  C   UNL     1     -13.452 -21.056  25.568  1.00  0.00     0.000 C 
BRANCH  18  19
ATOM     19  C   UNL     1     -12.251 -21.628  26.340  1.00  0.00     0.000 C 
BRANCH  19  20
ATOM     20  C   UNL     1     -12.409 -23.080  26.844  1.00  0.00     0.000 C 
BRANCH  20  21
ATOM     21  C   UNL     1     -13.848 -23.526  27.176  1.00  0.00     0.000 C 
BRANCH  21  22
ATOM     22  C   UNL     1     -14.303 -24.832  26.486  1.00  0.00     0.000 C 
BRANCH  22  23
ATOM     23  C   UNL     1     -13.949 -24.898  24.988  1.00  0.00     0.000 C 
BRANCH  23  24
ATOM     24  C   UNL     1     -15.149 -24.768  24.032  1.00  0.00    -0.000 C 
BRANCH  24  25
ATOM     25  C   UNL     1     -15.798 -23.369  23.975  1.00  0.00    -0.000 C 
BRANCH  25  26
ATOM     26  C   UNL     1     -17.300 -23.347  23.638  1.00  0.00    -0.000 C 
BRANCH  26  27
ATOM     27  C   UNL     1     -18.059 -24.564  24.195  1.00  0.00    -0.000 C 
BRANCH  27  28
ATOM     28  C   UNL     1     -18.831 -24.241  25.486  1.00  0.00    -0.000 C 
BRANCH  28  29
ATOM     29  C   UNL     1     -18.251 -24.948  26.724  1.00  0.00    -0.000 C 
BRANCH  29  30
ATOM     30  C   UNL     1     -17.657 -23.963  27.749  1.00  0.00    -0.000 C 
BRANCH  30  31
ATOM     31  C   UNL     1     -18.067 -22.492  27.551  1.00  0.00    -0.003 C 
ATOM     32  C   UNL     1     -16.901 -21.592  27.140  1.00  0.00     0.004 C 
ENDBRANCH  30  31
ENDBRANCH  29  30
ENDBRANCH  28  29
ENDBRANCH  27  28
ENDBRANCH  26  27
ENDBRANCH  25  26
ENDBRANCH  24  25
ENDBRANCH  23  24
ENDBRANCH  22  23
ENDBRANCH  21  22
ENDBRANCH  20  21
ENDBRANCH  19  20
ENDBRANCH  18  19
ENDBRANCH   1  18
TORSDOF 28
ENDMDL
MODEL 4
REMARK VINA RESULT:    -3.396      4.099      9.225
REMARK INTER + INTRA:         -13.100
REMARK INTER:                  -7.242
REMARK INTRA:                  -5.858
REMARK UNBOUND:                -4.145
REMARK SMILES CCCCCCCCCCCCCCCCCCCCCCCCCCCCCC(=O)[O-]
REMARK SMILES IDX 16 1 17 2 18 3 19 4 20 5 21 6 22 7 23 8 24 9 25 10 26 11
REMARK SMILES IDX 27 12 28 13 29 14 30 15 31 16 32 17 15 18 14 19 13 20 12 21
REMARK SMILES IDX 11 22 10 23 9 24 8 25 7 26 6 27 5 28 4 29 3 30 2 31 1 32
REMARK H PARENT
REMARK Flexibility Score: inf
ROOT
ATOM      1  C   UNL     1     -15.456 -23.289  23.596  1.00  0.00     0.000 C 
ENDROOT
BRANCH   1   2
ATOM      2  C   UNL     1     -16.889 -22.984  24.074  1.00  0.00     0.000 C 
BRANCH   2   3
ATOM      3  C   UNL     1     -17.797 -24.217  24.243  1.00  0.00     0.000 C 
BRANCH   3   4
ATOM      4  C   UNL     1     -18.495 -24.262  25.610  1.00  0.00     0.000 C 
BRANCH   4   5
ATOM      5  C   UNL     1     -18.651 -22.849  26.191  1.00  0.00     0.000 C 
BRANCH   5   6
ATOM      6  C   UNL     1     -17.967 -22.683  27.560  1.00  0.00     0.000 C 
BRANCH   6   7
ATOM      7  C   UNL     1     -16.747 -21.741  27.572  1.00  0.00     0.000 C 
BRANCH   7   8
ATOM      8  C   UNL     1     -15.381 -22.449  27.510  1.00  0.00     0.000 C 
BRANCH   8   9
ATOM      9  C   UNL     1     -15.479 -23.952  27.818  1.00  0.00     0.000 C 
BRANCH   9  10
ATOM     10  C   UNL     1     -14.435 -24.784  27.054  1.00  0.00     0.000 C 
BRANCH  10  11
ATOM     11  C   UNL     1     -15.022 -25.848  26.104  1.00  0.00     0.000 C 
BRANCH  11  12
ATOM     12  C   UNL     1     -14.024 -26.447  25.096  1.00  0.00     0.000 C 
BRANCH  12  13
ATOM     13  C   UNL     1     -12.602 -25.881  25.258  1.00  0.00     0.006 C 
BRANCH  13  14
ATOM     14  C   UNL     1     -12.180 -25.020  24.060  1.00  0.00     0.053 C 
BRANCH  14  15
ATOM     15  C   UNL     1     -12.303 -25.766  22.766  1.00  0.00     0.041 C 
ATOM     16  O   UNL     1     -11.588 -26.781  22.550  1.00  0.00    -0.550 OA
ATOM     17  O   UNL     1     -13.208 -25.344  21.802  1.00  0.00    -0.550 OA
ENDBRANCH  14  15
ENDBRANCH  13  14
ENDBRANCH  12  13
ENDBRANCH  11  12
ENDBRANCH  10  11
ENDBRANCH   9  10
ENDBRANCH   8   9
ENDBRANCH   7   8
ENDBRANCH   6   7
ENDBRANCH   5   6
ENDBRANCH   4   5
ENDBRANCH   3   4
ENDBRANCH   2   3
ENDBRANCH   1   2
BRANCH   1  18
ATOM     18  C   UNL     1     -14.466 -22.159  23.924  1.00  0.00     0.000 C 
BRANCH  18  19
ATOM     19  C   UNL     1     -13.869 -21.504  22.666  1.00  0.00     0.000 C 
BRANCH  19  20
ATOM     20  C   UNL     1     -12.336 -21.620  22.515  1.00  0.00     0.000 C 
BRANCH  20  21
ATOM     21  C   UNL     1     -11.828 -22.104  21.142  1.00  0.00     0.000 C 
BRANCH  21  22
ATOM     22  C   UNL     1     -12.930 -22.350  20.087  1.00  0.00     0.000 C 
BRANCH  22  23
ATOM     23  C   UNL     1     -12.935 -21.321  18.941  1.00  0.00     0.000 C 
BRANCH  23  24
ATOM     24  C   UNL     1     -13.581 -19.967  19.287  1.00  0.00    -0.000 C 
BRANCH  24  25
ATOM     25  C   UNL     1     -12.660 -18.738  19.133  1.00  0.00    -0.000 C 
BRANCH  25  26
ATOM     26  C   UNL     1     -11.869 -18.339  20.392  1.00  0.00    -0.000 C 
BRANCH  26  27
ATOM     27  C   UNL     1     -12.773 -18.031  21.598  1.00  0.00    -0.000 C 
BRANCH  27  28
ATOM     28  C   UNL     1     -11.975 -17.655  22.858  1.00  0.00    -0.000 C 
BRANCH  28  29
ATOM     29  C   UNL     1     -12.638 -18.148  24.157  1.00  0.00    -0.000 C 
BRANCH  29  30
ATOM     30  C   UNL     1     -11.671 -18.944  25.054  1.00  0.00    -0.000 C 
BRANCH  30  31
ATOM     31  C   UNL     1     -12.342 -19.963  25.993  1.00  0.00    -0.003 C 
ATOM     32  C   UNL     1     -13.488 -19.366  26.810  1.00  0.00     0.004 C 
ENDBRANCH  30  31
ENDBRANCH  29  30
ENDBRANCH  28  29
ENDBRANCH  27  28
ENDBRANCH  26  27
ENDBRANCH  25  26
ENDBRANCH  24  25
ENDBRANCH  23  24
ENDBRANCH  22  23
ENDBRANCH  21  22
ENDBRANCH  20  21
ENDBRANCH  19  20
ENDBRANCH  18  19
ENDBRANCH   1  18
TORSDOF 28
ENDMDL
MODEL 5
REMARK VINA RESULT:    -3.355      3.986      5.753
REMARK INTER + INTRA:         -12.990
REMARK INTER:                  -7.652
REMARK INTRA:                  -5.339
REMARK UNBOUND:                -4.145
REMARK SMILES CCCCCCCCCCCCCCCCCCCCCCCCCCCCCC(=O)[O-]
REMARK SMILES IDX 16 1 17 2 18 3 19 4 20 5 21 6 22 7 23 8 24 9 25 10 26 11
REMARK SMILES IDX 27 12 28 13 29 14 30 15 31 16 32 17 15 18 14 19 13 20 12 21
REMARK SMILES IDX 11 22 10 23 9 24 8 25 7 26 6 27 5 28 4 29 3 30 2 31 1 32
REMARK H PARENT
REMARK Flexibility Score: inf
ROOT
ATOM      1  C   UNL     1     -11.637 -25.503  22.621  1.00  0.00     0.000 C 
ENDROOT
BRANCH   1   2
ATOM      2  C   UNL     1     -12.754 -25.744  21.587  1.00  0.00     0.000 C 
BRANCH   2   3
ATOM      3  C   UNL     1     -12.693 -24.841  20.340  1.00  0.00     0.000 C 
BRANCH   3   4
ATOM      4  C   UNL     1     -11.380 -24.052  20.236  1.00  0.00     0.000 C 
BRANCH   4   5
ATOM      5  C   UNL     1     -11.657 -22.552  20.056  1.00  0.00     0.000 C 
BRANCH   5   6
ATOM      6  C   UNL     1     -13.146 -22.241  19.820  1.00  0.00     0.000 C 
BRANCH   6   7
ATOM      7  C   UNL     1     -13.428 -21.176  18.741  1.00  0.00     0.000 C 
BRANCH   7   8
ATOM      8  C   UNL     1     -12.339 -20.098  18.594  1.00  0.00     0.000 C 
BRANCH   8   9
ATOM      9  C   UNL     1     -12.771 -18.738  19.169  1.00  0.00     0.000 C 
BRANCH   9  10
ATOM     10  C   UNL     1     -11.746 -18.160  20.159  1.00  0.00     0.000 C 
BRANCH  10  11
ATOM     11  C   UNL     1     -11.614 -18.936  21.485  1.00  0.00     0.000 C 
BRANCH  11  12
ATOM     12  C   UNL     1     -12.785 -18.753  22.468  1.00  0.00     0.000 C 
BRANCH  12  13
ATOM     13  C   UNL     1     -12.378 -17.999  23.746  1.00  0.00     0.006 C 
BRANCH  13  14
ATOM     14  C   UNL     1     -13.021 -18.599  25.004  1.00  0.00     0.053 C 
BRANCH  14  15
ATOM     15  C   UNL     1     -13.055 -17.617  26.135  1.00  0.00     0.041 C 
ATOM     16  O   UNL     1     -14.154 -17.291  26.659  1.00  0.00    -0.550 OA
ATOM     17  O   UNL     1     -11.874 -17.064  26.614  1.00  0.00    -0.550 OA
ENDBRANCH  14  15
ENDBRANCH  13  14
ENDBRANCH  12  13
ENDBRANCH  11  12
ENDBRANCH  10  11
ENDBRANCH   9  10
ENDBRANCH   8   9
ENDBRANCH   7   8
ENDBRANCH   6   7
ENDBRANCH   5   6
ENDBRANCH   4   5
ENDBRANCH   3   4
ENDBRANCH   2   3
ENDBRANCH   1   2
BRANCH   1  18
ATOM     18  C   UNL     1     -12.112 -24.676  23.828  1.00  0.00     0.000 C 
BRANCH  18  19
ATOM     19  C   UNL     1     -11.449 -23.289  23.900  1.00  0.00     0.000 C 
BRANCH  19  20
ATOM     20  C   UNL     1     -12.416 -22.084  23.901  1.00  0.00     0.000 C 
BRANCH  20  21
ATOM     21  C   UNL     1     -13.764 -22.300  23.185  1.00  0.00     0.000 C 
BRANCH  21  22
ATOM     22  C   UNL     1     -14.996 -22.365  24.116  1.00  0.00     0.000 C 
BRANCH  22  23
ATOM     23  C   UNL     1     -14.692 -21.979  25.576  1.00  0.00     0.000 C 
BRANCH  23  24
ATOM     24  C   UNL     1     -15.922 -21.915  26.499  1.00  0.00    -0.000 C 
BRANCH  24  25
ATOM     25  C   UNL     1     -17.282 -22.134  25.803  1.00  0.00    -0.000 C 
BRANCH  25  26
ATOM     26  C   UNL     1     -18.197 -23.188  26.452  1.00  0.00    -0.000 C 
BRANCH  26  27
ATOM     27  C   UNL     1     -18.947 -24.050  25.421  1.00  0.00    -0.000 C 
BRANCH  27  28
ATOM     28  C   UNL     1     -18.125 -24.298  24.145  1.00  0.00    -0.000 C 
BRANCH  28  29
ATOM     29  C   UNL     1     -17.660 -25.759  24.005  1.00  0.00    -0.000 C 
BRANCH  29  30
ATOM     30  C   UNL     1     -16.127 -25.903  24.055  1.00  0.00    -0.000 C 
BRANCH  30  31
ATOM     31  C   UNL     1     -15.489 -25.602  25.424  1.00  0.00    -0.003 C 
ATOM     32  C   UNL     1     -16.114 -26.400  26.568  1.00  0.00     0.004 C 
ENDBRANCH  30  31
ENDBRANCH  29  30
ENDBRANCH  28  29
ENDBRANCH  27  28
ENDBRANCH  26  27
ENDBRANCH  25  26
ENDBRANCH  24  25
ENDBRANCH  23  24
ENDBRANCH  22  23
ENDBRANCH  21  22
ENDBRANCH  20  21
ENDBRANCH  19  20
ENDBRANCH  18  19
ENDBRANCH   1  18
TORSDOF 28
ENDMDL
MODEL 6
REMARK VINA RESULT:    -3.352      3.055      6.100
REMARK INTER + INTRA:         -12.985
REMARK INTER:                  -7.758
REMARK INTRA:                  -5.227
REMARK UNBOUND:                -4.145
REMARK SMILES CCCCCCCCCCCCCCCCCCCCCCCCCCCCCC(=O)[O-]
REMARK SMILES IDX 16 1 17 2 18 3 19 4 20 5 21 6 22 7 23 8 24 9 25 10 26 11
REMARK SMILES IDX 27 12 28 13 29 14 30 15 31 16 32 17 15 18 14 19 13 20 12 21
REMARK SMILES IDX 11 22 10 23 9 24 8 25 7 26 6 27 5 28 4 29 3 30 2 31 1 32
REMARK H PARENT
REMARK Flexibility Score: inf
ROOT
ATOM      1  C   UNL     1     -17.402 -23.119  27.190  1.00  0.00     0.000 C 
ENDROOT
BRANCH   1   2
ATOM      2  C   UNL     1     -16.096 -23.103  26.372  1.00  0.00     0.000 C 
BRANCH   2   3
ATOM      3  C   UNL     1     -16.119 -22.200  25.124  1.00  0.00     0.000 C 
BRANCH   3   4
ATOM      4  C   UNL     1     -15.934 -22.982  23.816  1.00  0.00     0.000 C 
BRANCH   4   5
ATOM      5  C   UNL     1     -14.658 -22.535  23.088  1.00  0.00     0.000 C 
BRANCH   5   6
ATOM      6  C   UNL     1     -13.941 -23.691  22.367  1.00  0.00     0.000 C 
BRANCH   6   7
ATOM      7  C   UNL     1     -12.640 -23.300  21.638  1.00  0.00     0.000 C 
BRANCH   7   8
ATOM      8  C   UNL     1     -12.803 -23.004  20.136  1.00  0.00     0.000 C 
BRANCH   8   9
ATOM      9  C   UNL     1     -11.752 -22.011  19.612  1.00  0.00     0.000 C 
BRANCH   9  10
ATOM     10  C   UNL     1     -12.262 -21.181  18.422  1.00  0.00     0.000 C 
BRANCH  10  11
ATOM     11  C   UNL     1     -11.225 -20.216  17.812  1.00  0.00     0.000 C 
BRANCH  11  12
ATOM     12  C   UNL     1     -11.628 -18.730  17.825  1.00  0.00     0.000 C 
BRANCH  12  13
ATOM     13  C   UNL     1     -12.704 -18.412  18.879  1.00  0.00     0.006 C 
BRANCH  13  14
ATOM     14  C   UNL     1     -12.095 -18.102  20.253  1.00  0.00     0.053 C 
BRANCH  14  15
ATOM     15  C   UNL     1     -12.912 -18.681  21.368  1.00  0.00     0.041 C 
ATOM     16  O   UNL     1     -13.760 -19.582  21.131  1.00  0.00    -0.550 OA
ATOM     17  O   UNL     1     -12.734 -18.228  22.669  1.00  0.00    -0.550 OA
ENDBRANCH  14  15
ENDBRANCH  13  14
ENDBRANCH  12  13
ENDBRANCH  11  12
ENDBRANCH  10  11
ENDBRANCH   9  10
ENDBRANCH   8   9
ENDBRANCH   7   8
ENDBRANCH   6   7
ENDBRANCH   5   6
ENDBRANCH   4   5
ENDBRANCH   3   4
ENDBRANCH   2   3
ENDBRANCH   1   2
BRANCH   1  18
ATOM     18  C   UNL     1     -18.643 -22.805  26.336  1.00  0.00     0.000 C 
BRANCH  18  19
ATOM     19  C   UNL     1     -19.156 -24.027  25.554  1.00  0.00     0.000 C 
BRANCH  19  20
ATOM     20  C   UNL     1     -19.151 -25.365  26.326  1.00  0.00     0.000 C 
BRANCH  20  21
ATOM     21  C   UNL     1     -18.301 -26.495  25.712  1.00  0.00     0.000 C 
BRANCH  21  22
ATOM     22  C   UNL     1     -17.793 -26.225  24.277  1.00  0.00     0.000 C 
BRANCH  22  23
ATOM     23  C   UNL     1     -16.317 -26.606  24.059  1.00  0.00     0.000 C 
BRANCH  23  24
ATOM     24  C   UNL     1     -15.400 -26.374  25.274  1.00  0.00    -0.000 C 
BRANCH  24  25
ATOM     25  C   UNL     1     -13.897 -26.245  24.952  1.00  0.00    -0.000 C 
BRANCH  25  26
ATOM     26  C   UNL     1     -13.148 -25.135  25.711  1.00  0.00    -0.000 C 
BRANCH  26  27
ATOM     27  C   UNL     1     -11.765 -24.824  25.112  1.00  0.00    -0.000 C 
BRANCH  27  28
ATOM     28  C   UNL     1     -11.220 -23.457  25.557  1.00  0.00    -0.000 C 
BRANCH  28  29
ATOM     29  C   UNL     1     -12.332 -22.464  25.942  1.00  0.00    -0.000 C 
BRANCH  29  30
ATOM     30  C   UNL     1     -12.154 -21.085  25.279  1.00  0.00    -0.000 C 
BRANCH  30  31
ATOM     31  C   UNL     1     -13.185 -20.021  25.701  1.00  0.00    -0.003 C 
ATOM     32  C   UNL     1     -13.740 -20.245  27.107  1.00  0.00     0.004 C 
ENDBRANCH  30  31
ENDBRANCH  29  30
ENDBRANCH  28  29
ENDBRANCH  27  28
ENDBRANCH  26  27
ENDBRANCH  25  26
ENDBRANCH  24  25
ENDBRANCH  23  24
ENDBRANCH  22  23
ENDBRANCH  21  22
ENDBRANCH  20  21
ENDBRANCH  19  20
ENDBRANCH  18  19
ENDBRANCH   1  18
TORSDOF 28
ENDMDL
MODEL 7
REMARK VINA RESULT:    -3.326      3.577      8.668
REMARK INTER + INTRA:         -12.916
REMARK INTER:                  -7.174
REMARK INTRA:                  -5.742
REMARK UNBOUND:                -4.145
REMARK SMILES CCCCCCCCCCCCCCCCCCCCCCCCCCCCCC(=O)[O-]
REMARK SMILES IDX 16 1 17 2 18 3 19 4 20 5 21 6 22 7 23 8 24 9 25 10 26 11
REMARK SMILES IDX 27 12 28 13 29 14 30 15 31 16 32 17 15 18 14 19 13 20 12 21
REMARK SMILES IDX 11 22 10 23 9 24 8 25 7 26 6 27 5 28 4 29 3 30 2 31 1 32
REMARK H PARENT
REMARK Flexibility Score: inf
ROOT
ATOM      1  C   UNL     1     -16.283 -22.474  25.212  1.00  0.00     0.000 C 
ENDROOT
BRANCH   1   2
ATOM      2  C   UNL     1     -17.725 -22.101  25.607  1.00  0.00     0.000 C 
BRANCH   2   3
ATOM      3  C   UNL     1     -18.323 -22.937  26.755  1.00  0.00     0.000 C 
BRANCH   3   4
ATOM      4  C   UNL     1     -18.762 -24.339  26.308  1.00  0.00     0.000 C 
BRANCH   4   5
ATOM      5  C   UNL     1     -18.069 -25.422  27.147  1.00  0.00     0.000 C 
BRANCH   5   6
ATOM      6  C   UNL     1     -16.892 -24.877  27.977  1.00  0.00     0.000 C 
BRANCH   6   7
ATOM      7  C   UNL     1     -15.521 -25.505  27.657  1.00  0.00     0.000 C 
BRANCH   7   8
ATOM      8  C   UNL     1     -14.376 -24.495  27.461  1.00  0.00     0.000 C 
BRANCH   8   9
ATOM      9  C   UNL     1     -13.097 -25.151  26.914  1.00  0.00     0.000 C 
BRANCH   9  10
ATOM     10  C   UNL     1     -12.417 -24.305  25.824  1.00  0.00     0.000 C 
BRANCH  10  11
ATOM     11  C   UNL     1     -12.649 -22.785  25.943  1.00  0.00     0.000 C 
BRANCH  11  12
ATOM     12  C   UNL     1     -12.338 -21.974  24.670  1.00  0.00     0.000 C 
BRANCH  12  13
ATOM     13  C   UNL     1     -13.203 -20.707  24.544  1.00  0.00     0.006 C 
BRANCH  13  14
ATOM     14  C   UNL     1     -13.099 -19.808  25.783  1.00  0.00     0.053 C 
BRANCH  14  15
ATOM     15  C   UNL     1     -13.067 -18.356  25.416  1.00  0.00     0.041 C 
ATOM     16  O   UNL     1     -13.369 -17.479  26.270  1.00  0.00    -0.550 OA
ATOM     17  O   UNL     1     -12.701 -17.970  24.133  1.00  0.00    -0.550 OA
ENDBRANCH  14  15
ENDBRANCH  13  14
ENDBRANCH  12  13
ENDBRANCH  11  12
ENDBRANCH  10  11
ENDBRANCH   9  10
ENDBRANCH   8   9
ENDBRANCH   7   8
ENDBRANCH   6   7
ENDBRANCH   5   6
ENDBRANCH   4   5
ENDBRANCH   3   4
ENDBRANCH   2   3
ENDBRANCH   1   2
BRANCH   1  18
ATOM     18  C   UNL     1     -16.203 -23.182  23.849  1.00  0.00     0.000 C 
BRANCH  18  19
ATOM     19  C   UNL     1     -15.398 -24.492  23.903  1.00  0.00     0.000 C 
BRANCH  19  20
ATOM     20  C   UNL     1     -16.234 -25.788  23.998  1.00  0.00     0.000 C 
BRANCH  20  21
ATOM     21  C   UNL     1     -15.450 -27.075  24.325  1.00  0.00     0.000 C 
BRANCH  21  22
ATOM     22  C   UNL     1     -13.981 -27.084  23.846  1.00  0.00     0.000 C 
BRANCH  22  23
ATOM     23  C   UNL     1     -13.797 -27.618  22.414  1.00  0.00     0.000 C 
BRANCH  23  24
ATOM     24  C   UNL     1     -13.294 -26.580  21.394  1.00  0.00    -0.000 C 
BRANCH  24  25
ATOM     25  C   UNL     1     -12.356 -25.496  21.965  1.00  0.00    -0.000 C 
BRANCH  25  26
ATOM     26  C   UNL     1     -12.779 -24.041  21.693  1.00  0.00    -0.000 C 
BRANCH  26  27
ATOM     27  C   UNL     1     -12.694 -23.658  20.206  1.00  0.00    -0.000 C 
BRANCH  27  28
ATOM     28  C   UNL     1     -12.790 -22.140  19.978  1.00  0.00    -0.000 C 
BRANCH  28  29
ATOM     29  C   UNL     1     -13.585 -21.417  21.081  1.00  0.00    -0.000 C 
BRANCH  29  30
ATOM     30  C   UNL     1     -13.448 -19.884  21.006  1.00  0.00    -0.000 C 
BRANCH  30  31
ATOM     31  C   UNL     1     -13.416 -19.302  19.581  1.00  0.00    -0.003 C 
ATOM     32  C   UNL     1     -12.172 -18.458  19.303  1.00  0.00     0.004 C 
ENDBRANCH  30  31
ENDBRANCH  29  30
ENDBRANCH  28  29
ENDBRANCH  27  28
ENDBRANCH  26  27
ENDBRANCH  25  26
ENDBRANCH  24  25
ENDBRANCH  23  24
ENDBRANCH  22  23
ENDBRANCH  21  22
ENDBRANCH  20  21
ENDBRANCH  19  20
ENDBRANCH  18  19
ENDBRANCH   1  18
TORSDOF 28
ENDMDL
MODEL 8
REMARK VINA RESULT:    -3.316      3.982      7.189
REMARK INTER + INTRA:         -12.890
REMARK INTER:                  -7.086
REMARK INTRA:                  -5.804
REMARK UNBOUND:                -4.145
REMARK SMILES CCCCCCCCCCCCCCCCCCCCCCCCCCCCCC(=O)[O-]
REMARK SMILES IDX 16 1 17 2 18 3 19 4 20 5 21 6 22 7 23 8 24 9 25 10 26 11
REMARK SMILES IDX 27 12 28 13 29 14 30 15 31 16 32 17 15 18 14 19 13 20 12 21
REMARK SMILES IDX 11 22 10 23 9 24 8 25 7 26 6 27 5 28 4 29 3 30 2 31 1 32
REMARK H PARENT
REMARK Flexibility Score: inf
ROOT
ATOM      1  C   UNL     1     -13.166 -21.211  18.981  1.00  0.00     0.000 C 
ENDROOT
BRANCH   1   2
ATOM      2  C   UNL     1     -13.503 -19.800  19.501  1.00  0.00     0.000 C 
BRANCH   2   3
ATOM      3  C   UNL     1     -12.499 -19.223  20.517  1.00  0.00     0.000 C 
BRANCH   3   4
ATOM      4  C   UNL     1     -12.959 -19.392  21.973  1.00  0.00     0.000 C 
BRANCH   4   5
ATOM      5  C   UNL     1     -12.040 -20.366  22.726  1.00  0.00     0.000 C 
BRANCH   5   6
ATOM      6  C   UNL     1     -12.763 -21.648  23.176  1.00  0.00     0.000 C 
BRANCH   6   7
ATOM      7  C   UNL     1     -14.186 -21.828  22.610  1.00  0.00     0.000 C 
BRANCH   7   8
ATOM      8  C   UNL     1     -15.075 -22.812  23.393  1.00  0.00     0.000 C 
BRANCH   8   9
ATOM      9  C   UNL     1     -15.390 -22.320  24.816  1.00  0.00     0.000 C 
BRANCH   9  10
ATOM     10  C   UNL     1     -14.629 -23.107  25.896  1.00  0.00     0.000 C 
BRANCH  10  11
ATOM     11  C   UNL     1     -13.942 -22.238  26.969  1.00  0.00     0.000 C 
BRANCH  11  12
ATOM     12  C   UNL     1     -12.464 -21.905  26.693  1.00  0.00     0.000 C 
BRANCH  12  13
ATOM     13  C   UNL     1     -12.191 -20.391  26.650  1.00  0.00     0.006 C 
BRANCH  13  14
ATOM     14  C   UNL     1     -13.456 -19.582  26.333  1.00  0.00     0.053 C 
BRANCH  14  15
ATOM     15  C   UNL     1     -13.141 -18.150  26.029  1.00  0.00     0.041 C 
ATOM     16  O   UNL     1     -12.193 -17.860  25.250  1.00  0.00    -0.550 OA
ATOM     17  O   UNL     1     -13.895 -17.134  26.603  1.00  0.00    -0.550 OA
ENDBRANCH  14  15
ENDBRANCH  13  14
ENDBRANCH  12  13
ENDBRANCH  11  12
ENDBRANCH  10  11
ENDBRANCH   9  10
ENDBRANCH   8   9
ENDBRANCH   7   8
ENDBRANCH   6   7
ENDBRANCH   5   6
ENDBRANCH   4   5
ENDBRANCH   3   4
ENDBRANCH   2   3
ENDBRANCH   1   2
BRANCH   1  18
ATOM     18  C   UNL     1     -11.685 -21.579  19.175  1.00  0.00     0.000 C 
BRANCH  18  19
ATOM     19  C   UNL     1     -11.492 -22.894  19.949  1.00  0.00     0.000 C 
BRANCH  19  20
ATOM     20  C   UNL     1     -12.757 -23.765  20.114  1.00  0.00     0.000 C 
BRANCH  20  21
ATOM     21  C   UNL     1     -12.556 -25.286  19.953  1.00  0.00     0.000 C 
BRANCH  21  22
ATOM     22  C   UNL     1     -12.758 -26.111  21.244  1.00  0.00     0.000 C 
BRANCH  22  23
ATOM     23  C   UNL     1     -12.497 -25.317  22.537  1.00  0.00     0.000 C 
BRANCH  23  24
ATOM     24  C   UNL     1     -13.212 -25.860  23.788  1.00  0.00    -0.000 C 
BRANCH  24  25
ATOM     25  C   UNL     1     -14.533 -26.610  23.519  1.00  0.00    -0.000 C 
BRANCH  25  26
ATOM     26  C   UNL     1     -15.668 -26.337  24.523  1.00  0.00    -0.000 C 
BRANCH  26  27
ATOM     27  C   UNL     1     -17.040 -26.168  23.848  1.00  0.00    -0.000 C 
BRANCH  27  28
ATOM     28  C   UNL     1     -18.066 -25.470  24.756  1.00  0.00    -0.000 C 
BRANCH  28  29
ATOM     29  C   UNL     1     -17.498 -25.120  26.144  1.00  0.00    -0.000 C 
BRANCH  29  30
ATOM     30  C   UNL     1     -18.422 -24.185  26.947  1.00  0.00    -0.000 C 
BRANCH  30  31
ATOM     31  C   UNL     1     -18.659 -22.801  26.313  1.00  0.00    -0.003 C 
ATOM     32  C   UNL     1     -18.190 -21.646  27.197  1.00  0.00     0.004 C 
ENDBRANCH  30  31
ENDBRANCH  29  30
ENDBRANCH  28  29
ENDBRANCH  27  28
ENDBRANCH  26  27
ENDBRANCH  25  26
ENDBRANCH  24  25
ENDBRANCH  23  24
ENDBRANCH  22  23
ENDBRANCH  21  22
ENDBRANCH  20  21
ENDBRANCH  19  20
ENDBRANCH  18  19
ENDBRANCH   1  18
TORSDOF 28
ENDMDL
MODEL 9
REMARK VINA RESULT:    -3.202      4.489      9.301
REMARK INTER + INTRA:         -12.587
REMARK INTER:                  -6.569
REMARK INTRA:                  -6.017
REMARK UNBOUND:                -4.145
REMARK SMILES CCCCCCCCCCCCCCCCCCCCCCCCCCCCCC(=O)[O-]
REMARK SMILES IDX 16 1 17 2 18 3 19 4 20 5 21 6 22 7 23 8 24 9 25 10 26 11
REMARK SMILES IDX 27 12 28 13 29 14 30 15 31 16 32 17 15 18 14 19 13 20 12 21
REMARK SMILES IDX 11 22 10 23 9 24 8 25 7 26 6 27 5 28 4 29 3 30 2 31 1 32
REMARK H PARENT
REMARK Flexibility Score: inf
ROOT
ATOM      1  C   UNL     1     -15.336 -22.875  24.136  1.00  0.00     0.000 C 
ENDROOT
BRANCH   1   2
ATOM      2  C   UNL     1     -16.875 -22.906  24.059  1.00  0.00     0.000 C 
BRANCH   2   3
ATOM      3  C   UNL     1     -17.529 -24.190  24.603  1.00  0.00     0.000 C 
BRANCH   3   4
ATOM      4  C   UNL     1     -18.519 -23.918  25.745  1.00  0.00     0.000 C 
BRANCH   4   5
ATOM      5  C   UNL     1     -18.383 -22.475  26.254  1.00  0.00     0.000 C 
BRANCH   5   6
ATOM      6  C   UNL     1     -17.736 -22.389  27.648  1.00  0.00     0.000 C 
BRANCH   6   7
ATOM      7  C   UNL     1     -16.315 -21.791  27.673  1.00  0.00     0.000 C 
BRANCH   7   8
ATOM      8  C   UNL     1     -15.180 -22.823  27.797  1.00  0.00     0.000 C 
BRANCH   8   9
ATOM      9  C   UNL     1     -15.697 -24.236  28.115  1.00  0.00     0.000 C 
BRANCH   9  10
ATOM     10  C   UNL     1     -15.056 -25.316  27.227  1.00  0.00     0.000 C 
BRANCH  10  11
ATOM     11  C   UNL     1     -13.726 -24.905  26.562  1.00  0.00     0.000 C 
BRANCH  11  12
ATOM     12  C   UNL     1     -13.155 -25.924  25.558  1.00  0.00     0.000 C 
BRANCH  12  13
ATOM     13  C   UNL     1     -14.167 -26.320  24.469  1.00  0.00     0.006 C 
BRANCH  13  14
ATOM     14  C   UNL     1     -13.681 -27.510  23.631  1.00  0.00     0.053 C 
BRANCH  14  15
ATOM     15  C   UNL     1     -12.989 -27.064  22.379  1.00  0.00     0.041 C 
ATOM     16  O   UNL     1     -11.847 -26.535  22.440  1.00  0.00    -0.550 OA
ATOM     17  O   UNL     1     -13.604 -27.235  21.145  1.00  0.00    -0.550 OA
ENDBRANCH  14  15
ENDBRANCH  13  14
ENDBRANCH  12  13
ENDBRANCH  11  12
ENDBRANCH  10  11
ENDBRANCH   9  10
ENDBRANCH   8   9
ENDBRANCH   7   8
ENDBRANCH   6   7
ENDBRANCH   5   6
ENDBRANCH   4   5
ENDBRANCH   3   4
ENDBRANCH   2   3
ENDBRANCH   1   2
BRANCH   1  18
ATOM     18  C   UNL     1     -14.680 -22.501  22.796  1.00  0.00     0.000 C 
BRANCH  18  19
ATOM     19  C   UNL     1     -13.464 -23.382  22.459  1.00  0.00     0.000 C 
BRANCH  19  20
ATOM     20  C   UNL     1     -12.225 -22.634  21.919  1.00  0.00     0.000 C 
BRANCH  20  21
ATOM     21  C   UNL     1     -10.955 -22.713  22.791  1.00  0.00     0.000 C 
BRANCH  21  22
ATOM     22  C   UNL     1     -11.202 -23.071  24.274  1.00  0.00     0.000 C 
BRANCH  22  23
ATOM     23  C   UNL     1     -11.071 -21.872  25.232  1.00  0.00     0.000 C 
BRANCH  23  24
ATOM     24  C   UNL     1     -12.402 -21.348  25.801  1.00  0.00    -0.000 C 
BRANCH  24  25
ATOM     25  C   UNL     1     -13.036 -20.176  25.024  1.00  0.00    -0.000 C 
BRANCH  25  26
ATOM     26  C   UNL     1     -12.044 -19.226  24.329  1.00  0.00    -0.000 C 
BRANCH  26  27
ATOM     27  C   UNL     1     -12.707 -18.342  23.258  1.00  0.00    -0.000 C 
BRANCH  27  28
ATOM     28  C   UNL     1     -13.114 -19.133  22.004  1.00  0.00    -0.000 C 
BRANCH  28  29
ATOM     29  C   UNL     1     -12.524 -18.546  20.708  1.00  0.00    -0.000 C 
BRANCH  29  30
ATOM     30  C   UNL     1     -13.167 -19.140  19.440  1.00  0.00    -0.000 C 
BRANCH  30  31
ATOM     31  C   UNL     1     -12.548 -20.463  18.954  1.00  0.00    -0.003 C 
ATOM     32  C   UNL     1     -13.583 -21.565  18.727  1.00  0.00     0.004 C 
ENDBRANCH  30  31
ENDBRANCH  29  30
ENDBRANCH  28  29
ENDBRANCH  27  28
ENDBRANCH  26  27
ENDBRANCH  25  26
ENDBRANCH  24  25
ENDBRANCH  23  24
ENDBRANCH  22  23
ENDBRANCH  21  22
ENDBRANCH  20  21
ENDBRANCH  19  20
ENDBRANCH  18  19
ENDBRANCH   1  18
TORSDOF 28
ENDMDL
