MODEL 1
REMARK VINA RESULT:    -3.882      0.000      0.000
REMARK INTER + INTRA:          -4.891
REMARK INTER:                  -4.676
REMARK INTRA:                  -0.215
REMARK UNBOUND:                -0.215
REMARK SMILES C=CCc1ccc(O)c(OC)c1
REMARK SMILES IDX 9 1 7 2 6 3 5 4 4 5 12 6 10 7 11 8 8 9 3 11 2 12 1 13
REMARK H PARENT 8 10
REMARK Flexibility Score: inf
ROOT
ATOM      1  C   UNL     1      28.632  28.144  25.976  1.00  0.00     0.160 A 
ATOM      2  C   UNL     1      28.892  28.942  27.106  1.00  0.00     0.157 A 
ATOM      3  C   UNL     1      29.122  30.313  26.957  1.00  0.00     0.050 A 
ATOM      4  C   UNL     1      29.099  30.901  25.692  1.00  0.00     0.008 A 
ATOM      5  C   UNL     1      28.852  30.119  24.554  1.00  0.00    -0.040 A 
ATOM      6  C   UNL     1      28.611  28.744  24.701  1.00  0.00     0.054 A 
ENDROOT
BRANCH   1   7
ATOM      7  O   UNL     1      28.398  26.771  26.154  1.00  0.00    -0.493 OA
ATOM      8  C   UNL     1      27.447  26.011  25.418  1.00  0.00     0.278 C 
ENDBRANCH   1   7
BRANCH   2   9
ATOM      9  O   UNL     1      28.924  28.389  28.386  1.00  0.00    -0.504 OA
ATOM     10  H   UNL     1      28.159  28.502  29.042  1.00  0.00     0.293 HD
ENDBRANCH   2   9
BRANCH   5  11
ATOM     11  C   UNL     1      28.798  30.763  23.193  1.00  0.00     0.062 C 
BRANCH  11  12
ATOM     12  C   UNL     1      29.125  32.227  23.284  1.00  0.00    -0.030 C 
ATOM     13  C   UNL     1      28.776  33.086  22.322  1.00  0.00     0.004 C 
ENDBRANCH  11  12
ENDBRANCH   5  11
TORSDOF 4
ENDMDL
MODEL 2
REMARK VINA RESULT:    -3.843      2.667      4.291
REMARK INTER + INTRA:          -4.844
REMARK INTER:                  -4.608
REMARK INTRA:                  -0.236
REMARK UNBOUND:                -0.215
REMARK SMILES C=CCc1ccc(O)c(OC)c1
REMARK SMILES IDX 9 1 7 2 6 3 5 4 4 5 12 6 10 7 11 8 8 9 3 11 2 12 1 13
REMARK H PARENT 8 10
REMARK Flexibility Score: inf
ROOT
ATOM      1  C   UNL     1      26.834  24.898  25.978  1.00  0.00     0.160 A 
ATOM      2  C   UNL     1      28.003  24.268  25.511  1.00  0.00     0.157 A 
ATOM      3  C   UNL     1      29.125  25.033  25.177  1.00  0.00     0.050 A 
ATOM      4  C   UNL     1      29.096  26.422  25.301  1.00  0.00     0.008 A 
ATOM      5  C   UNL     1      27.937  27.068  25.754  1.00  0.00    -0.040 A 
ATOM      6  C   UNL     1      26.811  26.302  26.098  1.00  0.00     0.054 A 
ENDROOT
BRANCH   1   7
ATOM      7  O   UNL     1      25.724  24.106  26.311  1.00  0.00    -0.493 OA
ATOM      8  C   UNL     1      25.186  23.980  27.623  1.00  0.00     0.278 C 
ENDBRANCH   1   7
BRANCH   2   9
ATOM      9  O   UNL     1      28.068  22.881  25.374  1.00  0.00    -0.504 OA
ATOM     10  H   UNL     1      27.313  22.274  25.668  1.00  0.00     0.293 HD
ENDBRANCH   2   9
BRANCH   5  11
ATOM     11  C   UNL     1      27.919  28.565  25.915  1.00  0.00     0.062 C 
BRANCH  11  12
ATOM     12  C   UNL     1      27.446  29.230  24.652  1.00  0.00    -0.030 C 
ATOM     13  C   UNL     1      28.286  29.880  23.843  1.00  0.00     0.004 C 
ENDBRANCH  11  12
ENDBRANCH   5  11
TORSDOF 4
ENDMDL
MODEL 3
REMARK VINA RESULT:    -3.652      1.374      2.529
REMARK INTER + INTRA:          -4.614
REMARK INTER:                  -4.378
REMARK INTRA:                  -0.237
REMARK UNBOUND:                -0.215
REMARK SMILES C=CCc1ccc(O)c(OC)c1
REMARK SMILES IDX 9 1 7 2 6 3 5 4 4 5 12 6 10 7 11 8 8 9 3 11 2 12 1 13
REMARK H PARENT 8 10
REMARK Flexibility Score: inf
ROOT
ATOM      1  C   UNL     1      28.563  29.224  25.909  1.00  0.00     0.160 A 
ATOM      2  C   UNL     1      27.426  28.556  25.417  1.00  0.00     0.157 A 
ATOM      3  C   UNL     1      26.851  28.951  24.205  1.00  0.00     0.050 A 
ATOM      4  C   UNL     1      27.396  30.009  23.476  1.00  0.00     0.008 A 
ATOM      5  C   UNL     1      28.522  30.693  23.956  1.00  0.00    -0.040 A 
ATOM      6  C   UNL     1      29.107  30.292  25.169  1.00  0.00     0.054 A 
ENDROOT
BRANCH   1   7
ATOM      7  O   UNL     1      29.123  28.802  27.126  1.00  0.00    -0.493 OA
ATOM      8  C   UNL     1      28.851  29.399  28.390  1.00  0.00     0.278 C 
ENDBRANCH   1   7
BRANCH   2   9
ATOM      9  O   UNL     1      26.854  27.494  26.118  1.00  0.00    -0.504 OA
ATOM     10  H   UNL     1      27.172  27.223  27.041  1.00  0.00     0.293 HD
ENDBRANCH   2   9
BRANCH   5  11
ATOM     11  C   UNL     1      29.125  31.814  23.152  1.00  0.00     0.062 C 
BRANCH  11  12
ATOM     12  C   UNL     1      29.112  33.097  23.936  1.00  0.00    -0.030 C 
ATOM     13  C   UNL     1      28.249  34.079  23.662  1.00  0.00     0.004 C 
ENDBRANCH  11  12
ENDBRANCH   5  11
TORSDOF 4
ENDMDL
MODEL 4
REMARK VINA RESULT:    -3.199      1.893      4.937
REMARK INTER + INTRA:          -4.069
REMARK INTER:                  -3.933
REMARK INTRA:                  -0.136
REMARK UNBOUND:                -0.215
REMARK SMILES C=CCc1ccc(O)c(OC)c1
REMARK SMILES IDX 9 1 7 2 6 3 5 4 4 5 12 6 10 7 11 8 8 9 3 11 2 12 1 13
REMARK H PARENT 8 10
REMARK Flexibility Score: inf
ROOT
ATOM      1  C   UNL     1      28.165  29.439  24.991  1.00  0.00     0.160 A 
ATOM      2  C   UNL     1      28.797  29.786  26.200  1.00  0.00     0.157 A 
ATOM      3  C   UNL     1      29.125  28.793  27.128  1.00  0.00     0.050 A 
ATOM      4  C   UNL     1      28.828  27.455  26.867  1.00  0.00     0.008 A 
ATOM      5  C   UNL     1      28.189  27.093  25.672  1.00  0.00    -0.040 A 
ATOM      6  C   UNL     1      27.867  28.086  24.734  1.00  0.00     0.054 A 
ENDROOT
BRANCH   1   7
ATOM      7  O   UNL     1      27.852  30.456  24.074  1.00  0.00    -0.493 OA
ATOM      8  C   UNL     1      28.791  31.073  23.200  1.00  0.00     0.278 C 
ENDBRANCH   1   7
BRANCH   2   9
ATOM      9  O   UNL     1      29.108  31.113  26.495  1.00  0.00    -0.504 OA
ATOM     10  H   UNL     1      29.117  31.467  27.444  1.00  0.00     0.293 HD
ENDBRANCH   2   9
BRANCH   5  11
ATOM     11  C   UNL     1      27.898  25.644  25.381  1.00  0.00     0.062 C 
BRANCH  11  12
ATOM     12  C   UNL     1      26.576  25.238  25.972  1.00  0.00    -0.030 C 
ATOM     13  C   UNL     1      26.460  24.170  26.765  1.00  0.00     0.004 C 
ENDBRANCH  11  12
ENDBRANCH   5  11
TORSDOF 4
ENDMDL
MODEL 5
REMARK VINA RESULT:    -3.045      3.859      6.292
REMARK INTER + INTRA:          -3.883
REMARK INTER:                  -3.648
REMARK INTRA:                  -0.235
REMARK UNBOUND:                -0.215
REMARK SMILES C=CCc1ccc(O)c(OC)c1
REMARK SMILES IDX 9 1 7 2 6 3 5 4 4 5 12 6 10 7 11 8 8 9 3 11 2 12 1 13
REMARK H PARENT 8 10
REMARK Flexibility Score: inf
ROOT
ATOM      1  C   UNL     1      25.700  23.951  26.469  1.00  0.00     0.160 A 
ATOM      2  C   UNL     1      25.170  23.448  25.267  1.00  0.00     0.157 A 
ATOM      3  C   UNL     1      25.921  23.514  24.089  1.00  0.00     0.050 A 
ATOM      4  C   UNL     1      27.197  24.079  24.094  1.00  0.00     0.008 A 
ATOM      5  C   UNL     1      27.736  24.596  25.281  1.00  0.00    -0.040 A 
ATOM      6  C   UNL     1      26.988  24.523  26.467  1.00  0.00     0.054 A 
ENDROOT
BRANCH   1   7
ATOM      7  O   UNL     1      24.927  23.867  27.638  1.00  0.00    -0.493 OA
ATOM      8  C   UNL     1      25.165  22.949  28.700  1.00  0.00     0.278 C 
ENDBRANCH   1   7
BRANCH   2   9
ATOM      9  O   UNL     1      23.899  22.875  25.223  1.00  0.00    -0.504 OA
ATOM     10  H   UNL     1      23.303  22.821  26.041  1.00  0.00     0.293 HD
ENDBRANCH   2   9
BRANCH   5  11
ATOM     11  C   UNL     1      29.125  25.178  25.289  1.00  0.00     0.062 C 
BRANCH  11  12
ATOM     12  C   UNL     1      29.125  26.544  25.918  1.00  0.00    -0.030 C 
ATOM     13  C   UNL     1      28.523  27.585  25.337  1.00  0.00     0.004 C 
ENDBRANCH  11  12
ENDBRANCH   5  11
TORSDOF 4
ENDMDL
MODEL 6
REMARK VINA RESULT:    -2.511      4.510      7.545
REMARK INTER + INTRA:          -3.239
REMARK INTER:                  -3.032
REMARK INTRA:                  -0.207
REMARK UNBOUND:                -0.215
REMARK SMILES C=CCc1ccc(O)c(OC)c1
REMARK SMILES IDX 9 1 7 2 6 3 5 4 4 5 12 6 10 7 11 8 8 9 3 11 2 12 1 13
REMARK H PARENT 8 10
REMARK Flexibility Score: inf
ROOT
ATOM      1  C   UNL     1      27.017  24.176  25.991  1.00  0.00     0.160 A 
ATOM      2  C   UNL     1      26.797  23.442  24.811  1.00  0.00     0.157 A 
ATOM      3  C   UNL     1      25.543  22.875  24.562  1.00  0.00     0.050 A 
ATOM      4  C   UNL     1      24.503  23.029  25.479  1.00  0.00     0.008 A 
ATOM      5  C   UNL     1      24.708  23.747  26.666  1.00  0.00    -0.040 A 
ATOM      6  C   UNL     1      25.963  24.325  26.914  1.00  0.00     0.054 A 
ENDROOT
BRANCH   1   7
ATOM      7  O   UNL     1      28.284  24.739  26.213  1.00  0.00    -0.493 OA
ATOM      8  C   UNL     1      28.660  26.058  25.830  1.00  0.00     0.278 C 
ENDBRANCH   1   7
BRANCH   2   9
ATOM      9  O   UNL     1      27.813  23.268  23.871  1.00  0.00    -0.504 OA
ATOM     10  H   UNL     1      28.780  23.131  24.140  1.00  0.00     0.293 HD
ENDBRANCH   2   9
BRANCH   5  11
ATOM     11  C   UNL     1      23.574  23.936  27.639  1.00  0.00     0.062 C 
BRANCH  11  12
ATOM     12  C   UNL     1      23.413  25.389  27.993  1.00  0.00    -0.030 C 
ATOM     13  C   UNL     1      22.220  25.989  27.971  1.00  0.00     0.004 C 
ENDBRANCH  11  12
ENDBRANCH   5  11
TORSDOF 4
ENDMDL
MODEL 7
REMARK VINA RESULT:    -2.483      3.385      7.344
REMARK INTER + INTRA:          -3.206
REMARK INTER:                  -3.015
REMARK INTRA:                  -0.191
REMARK UNBOUND:                -0.215
REMARK SMILES C=CCc1ccc(O)c(OC)c1
REMARK SMILES IDX 9 1 7 2 6 3 5 4 4 5 12 6 10 7 11 8 8 9 3 11 2 12 1 13
REMARK H PARENT 8 10
REMARK Flexibility Score: inf
ROOT
ATOM      1  C   UNL     1      27.485  25.357  25.820  1.00  0.00     0.160 A 
ATOM      2  C   UNL     1      28.012  24.171  25.276  1.00  0.00     0.157 A 
ATOM      3  C   UNL     1      27.420  22.939  25.575  1.00  0.00     0.050 A 
ATOM      4  C   UNL     1      26.308  22.875  26.415  1.00  0.00     0.008 A 
ATOM      5  C   UNL     1      25.777  24.046  26.976  1.00  0.00    -0.040 A 
ATOM      6  C   UNL     1      26.363  25.284  26.670  1.00  0.00     0.054 A 
ENDROOT
BRANCH   1   7
ATOM      7  O   UNL     1      28.096  26.580  25.498  1.00  0.00    -0.493 OA
ATOM      8  C   UNL     1      27.456  27.848  25.582  1.00  0.00     0.278 C 
ENDBRANCH   1   7
BRANCH   2   9
ATOM      9  O   UNL     1      29.122  24.196  24.432  1.00  0.00    -0.504 OA
ATOM     10  H   UNL     1      29.580  25.061  24.168  1.00  0.00     0.293 HD
ENDBRANCH   2   9
BRANCH   5  11
ATOM     11  C   UNL     1      24.558  23.976  27.858  1.00  0.00     0.062 C 
BRANCH  11  12
ATOM     12  C   UNL     1      23.374  23.459  27.089  1.00  0.00    -0.030 C 
ATOM     13  C   UNL     1      22.121  23.711  27.477  1.00  0.00     0.004 C 
ENDBRANCH  11  12
ENDBRANCH   5  11
TORSDOF 4
ENDMDL
MODEL 8
REMARK VINA RESULT:    -2.470      2.740      4.989
REMARK INTER + INTRA:          -3.190
REMARK INTER:                  -3.952
REMARK INTRA:                   0.761
REMARK UNBOUND:                -0.215
REMARK SMILES C=CCc1ccc(O)c(OC)c1
REMARK SMILES IDX 9 1 7 2 6 3 5 4 4 5 12 6 10 7 11 8 8 9 3 11 2 12 1 13
REMARK H PARENT 8 10
REMARK Flexibility Score: inf
ROOT
ATOM      1  C   UNL     1      28.979  31.367  23.504  1.00  0.00     0.160 A 
ATOM      2  C   UNL     1      29.067  31.965  24.775  1.00  0.00     0.157 A 
ATOM      3  C   UNL     1      29.125  31.168  25.923  1.00  0.00     0.050 A 
ATOM      4  C   UNL     1      29.093  29.777  25.819  1.00  0.00     0.008 A 
ATOM      5  C   UNL     1      28.995  29.164  24.561  1.00  0.00    -0.040 A 
ATOM      6  C   UNL     1      28.946  29.961  23.407  1.00  0.00     0.054 A 
ENDROOT
BRANCH   1   7
ATOM      7  O   UNL     1      28.929  32.192  22.369  1.00  0.00    -0.493 OA
ATOM      8  C   UNL     1      28.944  33.615  22.403  1.00  0.00     0.278 C 
ENDBRANCH   1   7
BRANCH   2   9
ATOM      9  O   UNL     1      29.102  33.353  24.918  1.00  0.00    -0.504 OA
ATOM     10  H   UNL     1      28.494  33.844  25.562  1.00  0.00     0.293 HD
ENDBRANCH   2   9
BRANCH   5  11
ATOM     11  C   UNL     1      28.991  27.662  24.452  1.00  0.00     0.062 C 
BRANCH  11  12
ATOM     12  C   UNL     1      28.114  27.054  25.511  1.00  0.00    -0.030 C 
ATOM     13  C   UNL     1      28.173  25.753  25.810  1.00  0.00     0.004 C 
ENDBRANCH  11  12
ENDBRANCH   5  11
TORSDOF 4
ENDMDL
MODEL 9
REMARK VINA RESULT:    -2.414      6.338      8.059
REMARK INTER + INTRA:          -3.122
REMARK INTER:                  -2.869
REMARK INTRA:                  -0.253
REMARK UNBOUND:                -0.215
REMARK SMILES C=CCc1ccc(O)c(OC)c1
REMARK SMILES IDX 9 1 7 2 6 3 5 4 4 5 12 6 10 7 11 8 8 9 3 11 2 12 1 13
REMARK H PARENT 8 10
REMARK Flexibility Score: inf
ROOT
ATOM      1  C   UNL     1      22.979  25.912  28.058  1.00  0.00     0.160 A 
ATOM      2  C   UNL     1      21.935  25.000  27.817  1.00  0.00     0.157 A 
ATOM      3  C   UNL     1      22.227  23.685  27.440  1.00  0.00     0.050 A 
ATOM      4  C   UNL     1      23.550  23.267  27.299  1.00  0.00     0.008 A 
ATOM      5  C   UNL     1      24.603  24.166  27.525  1.00  0.00    -0.040 A 
ATOM      6  C   UNL     1      24.314  25.484  27.912  1.00  0.00     0.054 A 
ENDROOT
BRANCH   1   7
ATOM      7  O   UNL     1      22.658  27.224  28.441  1.00  0.00    -0.493 OA
ATOM      8  C   UNL     1      23.554  28.328  28.371  1.00  0.00     0.278 C 
ENDBRANCH   1   7
BRANCH   2   9
ATOM      9  O   UNL     1      20.600  25.382  27.948  1.00  0.00    -0.504 OA
ATOM     10  H   UNL     1      19.865  24.984  27.375  1.00  0.00     0.293 HD
ENDBRANCH   2   9
BRANCH   5  11
ATOM     11  C   UNL     1      26.031  23.703  27.400  1.00  0.00     0.062 C 
BRANCH  11  12
ATOM     12  C   UNL     1      26.736  24.443  26.297  1.00  0.00    -0.030 C 
ATOM     13  C   UNL     1      26.498  24.178  25.010  1.00  0.00     0.004 C 
ENDBRANCH  11  12
ENDBRANCH   5  11
TORSDOF 4
ENDMDL
