MODEL 1
REMARK VINA RESULT:    -3.986      0.000      0.000
REMARK INTER + INTRA:          -9.394
REMARK INTER:                  -7.482
REMARK INTRA:                  -1.913
REMARK UNBOUND:                -1.913
REMARK SMILES O=C([O-])CCCCCCCCCCCCCCC(=O)[O-]
REMARK SMILES IDX 10 1 9 2 8 3 7 4 6 5 5 6 4 7 2 8 1 9 3 10 11 11 12 12 13 13
REMARK SMILES IDX 14 14 15 15 16 16 17 17 18 18 19 19 20 20
REMARK H PARENT
REMARK Flexibility Score: inf
ROOT
ATOM      1  C   UNL     1       8.146 -21.502 -35.073  1.00  0.00     0.000 C 
ENDROOT
BRANCH   1   2
ATOM      2  C   UNL     1       7.220 -22.004 -36.195  1.00  0.00     0.000 C 
BRANCH   2   3
ATOM      3  C   UNL     1       6.617 -20.855 -37.021  1.00  0.00     0.000 C 
BRANCH   3   4
ATOM      4  C   UNL     1       6.859 -19.477 -36.382  1.00  0.00     0.000 C 
BRANCH   4   5
ATOM      5  C   UNL     1       5.951 -18.379 -36.966  1.00  0.00     0.000 C 
BRANCH   5   6
ATOM      6  C   UNL     1       5.045 -17.663 -35.943  1.00  0.00     0.006 C 
BRANCH   6   7
ATOM      7  C   UNL     1       5.694 -16.454 -35.250  1.00  0.00     0.053 C 
BRANCH   7   8
ATOM      8  C   UNL     1       5.333 -16.379 -33.799  1.00  0.00     0.041 C 
ATOM      9  O   UNL     1       4.995 -17.420 -33.176  1.00  0.00    -0.550 OA
ATOM     10  O   UNL     1       5.336 -15.155 -33.142  1.00  0.00    -0.550 OA
ENDBRANCH   7   8
ENDBRANCH   6   7
ENDBRANCH   5   6
ENDBRANCH   4   5
ENDBRANCH   3   4
ENDBRANCH   2   3
ENDBRANCH   1   2
BRANCH   1  11
ATOM     11  C   UNL     1       9.368 -22.411 -34.859  1.00  0.00     0.000 C 
BRANCH  11  12
ATOM     12  C   UNL     1       9.230 -23.837 -35.427  1.00  0.00     0.000 C 
BRANCH  12  13
ATOM     13  C   UNL     1      10.177 -24.132 -36.610  1.00  0.00     0.000 C 
BRANCH  13  14
ATOM     14  C   UNL     1      10.826 -22.853 -37.172  1.00  0.00     0.000 C 
BRANCH  14  15
ATOM     15  C   UNL     1      10.278 -22.485 -38.567  1.00  0.00     0.000 C 
BRANCH  15  16
ATOM     16  C   UNL     1       9.884 -21.005 -38.705  1.00  0.00     0.006 C 
BRANCH  16  17
ATOM     17  C   UNL     1      10.486 -20.122 -37.606  1.00  0.00     0.053 C 
BRANCH  17  18
ATOM     18  C   UNL     1      10.747 -18.744 -38.126  1.00  0.00     0.041 C 
ATOM     19  O   UNL     1       9.810 -17.904 -38.195  1.00  0.00    -0.550 OA
ATOM     20  O   UNL     1      12.034 -18.370 -38.490  1.00  0.00    -0.550 OA
ENDBRANCH  17  18
ENDBRANCH  16  17
ENDBRANCH  15  16
ENDBRANCH  14  15
ENDBRANCH  13  14
ENDBRANCH  12  13
ENDBRANCH  11  12
ENDBRANCH   1  11
TORSDOF 15
ENDMDL
MODEL 2
REMARK VINA RESULT:    -3.929      1.850      3.218
REMARK INTER + INTRA:          -9.286
REMARK INTER:                  -7.678
REMARK INTRA:                  -1.609
REMARK UNBOUND:                -1.913
REMARK SMILES O=C([O-])CCCCCCCCCCCCCCC(=O)[O-]
REMARK SMILES IDX 10 1 9 2 8 3 7 4 6 5 5 6 4 7 2 8 1 9 3 10 11 11 12 12 13 13
REMARK SMILES IDX 14 14 15 15 16 16 17 17 18 18 19 19 20 20
REMARK H PARENT
REMARK Flexibility Score: inf
ROOT
ATOM      1  C   UNL     1       5.562 -21.598 -38.059  1.00  0.00     0.000 C 
ENDROOT
BRANCH   1   2
ATOM      2  C   UNL     1       4.362 -20.645 -37.917  1.00  0.00     0.000 C 
BRANCH   2   3
ATOM      3  C   UNL     1       4.661 -19.234 -38.451  1.00  0.00     0.000 C 
BRANCH   3   4
ATOM      4  C   UNL     1       4.335 -18.133 -37.427  1.00  0.00     0.000 C 
BRANCH   4   5
ATOM      5  C   UNL     1       5.328 -16.958 -37.477  1.00  0.00     0.000 C 
BRANCH   5   6
ATOM      6  C   UNL     1       6.015 -16.619 -36.137  1.00  0.00     0.006 C 
BRANCH   6   7
ATOM      7  C   UNL     1       5.683 -17.583 -34.987  1.00  0.00     0.053 C 
BRANCH   7   8
ATOM      8  C   UNL     1       5.313 -16.854 -33.733  1.00  0.00     0.041 C 
ATOM      9  O   UNL     1       4.915 -17.492 -32.723  1.00  0.00    -0.550 OA
ATOM     10  O   UNL     1       5.376 -15.467 -33.688  1.00  0.00    -0.550 OA
ENDBRANCH   7   8
ENDBRANCH   6   7
ENDBRANCH   5   6
ENDBRANCH   4   5
ENDBRANCH   3   4
ENDBRANCH   2   3
ENDBRANCH   1   2
BRANCH   1  11
ATOM     11  C   UNL     1       6.412 -21.679 -36.780  1.00  0.00     0.000 C 
BRANCH  11  12
ATOM     12  C   UNL     1       7.404 -20.516 -36.581  1.00  0.00     0.000 C 
BRANCH  12  13
ATOM     13  C   UNL     1       8.426 -20.756 -35.449  1.00  0.00     0.000 C 
BRANCH  13  14
ATOM     14  C   UNL     1       8.302 -22.164 -34.837  1.00  0.00     0.000 C 
BRANCH  14  15
ATOM     15  C   UNL     1       9.615 -22.966 -34.949  1.00  0.00     0.000 C 
BRANCH  15  16
ATOM     16  C   UNL     1       9.612 -24.000 -36.088  1.00  0.00     0.006 C 
BRANCH  16  17
ATOM     17  C   UNL     1      10.842 -23.889 -36.997  1.00  0.00     0.053 C 
BRANCH  17  18
ATOM     18  C   UNL     1      10.942 -22.513 -37.575  1.00  0.00     0.041 C 
ATOM     19  O   UNL     1      11.927 -21.778 -37.298  1.00  0.00    -0.550 OA
ATOM     20  O   UNL     1       9.972 -22.058 -38.458  1.00  0.00    -0.550 OA
ENDBRANCH  17  18
ENDBRANCH  16  17
ENDBRANCH  15  16
ENDBRANCH  14  15
ENDBRANCH  13  14
ENDBRANCH  12  13
ENDBRANCH  11  12
ENDBRANCH   1  11
TORSDOF 15
ENDMDL
MODEL 3
REMARK VINA RESULT:    -3.909      1.644      2.350
REMARK INTER + INTRA:          -9.249
REMARK INTER:                  -7.538
REMARK INTRA:                  -1.711
REMARK UNBOUND:                -1.913
REMARK SMILES O=C([O-])CCCCCCCCCCCCCCC(=O)[O-]
REMARK SMILES IDX 10 1 9 2 8 3 7 4 6 5 5 6 4 7 2 8 1 9 3 10 11 11 12 12 13 13
REMARK SMILES IDX 14 14 15 15 16 16 17 17 18 18 19 19 20 20
REMARK H PARENT
REMARK Flexibility Score: inf
ROOT
ATOM      1  C   UNL     1       7.811 -22.637 -36.672  1.00  0.00     0.000 C 
ENDROOT
BRANCH   1   2
ATOM      2  C   UNL     1       6.438 -21.944 -36.693  1.00  0.00     0.000 C 
BRANCH   2   3
ATOM      3  C   UNL     1       6.493 -20.542 -37.324  1.00  0.00     0.000 C 
BRANCH   3   4
ATOM      4  C   UNL     1       6.545 -19.421 -36.271  1.00  0.00     0.000 C 
BRANCH   4   5
ATOM      5  C   UNL     1       5.944 -18.098 -36.777  1.00  0.00     0.000 C 
BRANCH   5   6
ATOM      6  C   UNL     1       5.920 -16.950 -35.746  1.00  0.00     0.006 C 
BRANCH   6   7
ATOM      7  C   UNL     1       4.744 -17.000 -34.758  1.00  0.00     0.053 C 
BRANCH   7   8
ATOM      8  C   UNL     1       5.114 -16.450 -33.416  1.00  0.00     0.041 C 
ATOM      9  O   UNL     1       5.572 -15.281 -33.315  1.00  0.00    -0.550 OA
ATOM     10  O   UNL     1       4.986 -17.239 -32.280  1.00  0.00    -0.550 OA
ENDBRANCH   7   8
ENDBRANCH   6   7
ENDBRANCH   5   6
ENDBRANCH   4   5
ENDBRANCH   3   4
ENDBRANCH   2   3
ENDBRANCH   1   2
BRANCH   1  11
ATOM     11  C   UNL     1       8.482 -22.586 -35.288  1.00  0.00     0.000 C 
BRANCH  11  12
ATOM     12  C   UNL     1       9.664 -21.605 -35.171  1.00  0.00     0.000 C 
BRANCH  12  13
ATOM     13  C   UNL     1      10.121 -21.015 -36.523  1.00  0.00     0.000 C 
BRANCH  13  14
ATOM     14  C   UNL     1      11.017 -19.775 -36.347  1.00  0.00     0.000 C 
BRANCH  14  15
ATOM     15  C   UNL     1      11.001 -18.862 -37.591  1.00  0.00     0.000 C 
BRANCH  15  16
ATOM     16  C   UNL     1       9.631 -18.218 -37.866  1.00  0.00     0.006 C 
BRANCH  16  17
ATOM     17  C   UNL     1       9.044 -18.622 -39.224  1.00  0.00     0.053 C 
BRANCH  17  18
ATOM     18  C   UNL     1       8.838 -17.416 -40.084  1.00  0.00     0.041 C 
ATOM     19  O   UNL     1       8.922 -16.261 -39.589  1.00  0.00    -0.550 OA
ATOM     20  O   UNL     1       8.598 -17.565 -41.444  1.00  0.00    -0.550 OA
ENDBRANCH  17  18
ENDBRANCH  16  17
ENDBRANCH  15  16
ENDBRANCH  14  15
ENDBRANCH  13  14
ENDBRANCH  12  13
ENDBRANCH  11  12
ENDBRANCH   1  11
TORSDOF 15
ENDMDL
MODEL 4
REMARK VINA RESULT:    -3.905     11.408     12.696
REMARK INTER + INTRA:          -9.241
REMARK INTER:                  -6.988
REMARK INTRA:                  -2.254
REMARK UNBOUND:                -1.913
REMARK SMILES O=C([O-])CCCCCCCCCCCCCCC(=O)[O-]
REMARK SMILES IDX 10 1 9 2 8 3 7 4 6 5 5 6 4 7 2 8 1 9 3 10 11 11 12 12 13 13
REMARK SMILES IDX 14 14 15 15 16 16 17 17 18 18 19 19 20 20
REMARK H PARENT
REMARK Flexibility Score: inf
ROOT
ATOM      1  C   UNL     1      15.404 -13.349 -43.946  1.00  0.00     0.000 C 
ENDROOT
BRANCH   1   2
ATOM      2  C   UNL     1      15.349 -11.811 -43.920  1.00  0.00     0.000 C 
BRANCH   2   3
ATOM      3  C   UNL     1      13.929 -11.267 -44.153  1.00  0.00     0.000 C 
BRANCH   3   4
ATOM      4  C   UNL     1      12.908 -11.827 -43.149  1.00  0.00     0.000 C 
BRANCH   4   5
ATOM      5  C   UNL     1      11.529 -11.152 -43.259  1.00  0.00     0.000 C 
BRANCH   5   6
ATOM      6  C   UNL     1      11.408 -10.079 -44.361  1.00  0.00     0.006 C 
BRANCH   6   7
ATOM      7  C   UNL     1      11.456  -8.630 -43.850  1.00  0.00     0.053 C 
BRANCH   7   8
ATOM      8  C   UNL     1      10.096  -8.117 -43.491  1.00  0.00     0.041 C 
ATOM      9  O   UNL     1       9.943  -7.386 -42.477  1.00  0.00    -0.550 OA
ATOM     10  O   UNL     1       8.992  -8.473 -44.255  1.00  0.00    -0.550 OA
ENDBRANCH   7   8
ENDBRANCH   6   7
ENDBRANCH   5   6
ENDBRANCH   4   5
ENDBRANCH   3   4
ENDBRANCH   2   3
ENDBRANCH   1   2
BRANCH   1  11
ATOM     11  C   UNL     1      15.588 -13.914 -45.364  1.00  0.00     0.000 C 
BRANCH  11  12
ATOM     12  C   UNL     1      14.422 -14.781 -45.878  1.00  0.00     0.000 C 
BRANCH  12  13
ATOM     13  C   UNL     1      13.378 -15.127 -44.795  1.00  0.00     0.000 C 
BRANCH  13  14
ATOM     14  C   UNL     1      11.950 -14.729 -45.212  1.00  0.00     0.000 C 
BRANCH  14  15
ATOM     15  C   UNL     1      11.941 -13.767 -46.418  1.00  0.00     0.000 C 
BRANCH  15  16
ATOM     16  C   UNL     1      10.680 -12.890 -46.500  1.00  0.00     0.006 C 
BRANCH  16  17
ATOM     17  C   UNL     1       9.525 -13.425 -45.645  1.00  0.00     0.053 C 
BRANCH  17  18
ATOM     18  C   UNL     1       8.335 -12.526 -45.754  1.00  0.00     0.041 C 
ATOM     19  O   UNL     1       8.485 -11.303 -46.019  1.00  0.00    -0.550 OA
ATOM     20  O   UNL     1       7.055 -13.045 -45.610  1.00  0.00    -0.550 OA
ENDBRANCH  17  18
ENDBRANCH  16  17
ENDBRANCH  15  16
ENDBRANCH  14  15
ENDBRANCH  13  14
ENDBRANCH  12  13
ENDBRANCH  11  12
ENDBRANCH   1  11
TORSDOF 15
ENDMDL
MODEL 5
REMARK VINA RESULT:    -3.902      3.006      4.665
REMARK INTER + INTRA:          -9.236
REMARK INTER:                  -7.433
REMARK INTRA:                  -1.803
REMARK UNBOUND:                -1.913
REMARK SMILES O=C([O-])CCCCCCCCCCCCCCC(=O)[O-]
REMARK SMILES IDX 10 1 9 2 8 3 7 4 6 5 5 6 4 7 2 8 1 9 3 10 11 11 12 12 13 13
REMARK SMILES IDX 14 14 15 15 16 16 17 17 18 18 19 19 20 20
REMARK H PARENT
REMARK Flexibility Score: inf
ROOT
ATOM      1  C   UNL     1      11.018 -23.459 -37.038  1.00  0.00     0.000 C 
ENDROOT
BRANCH   1   2
ATOM      2  C   UNL     1       9.835 -23.857 -36.139  1.00  0.00     0.000 C 
BRANCH   2   3
ATOM      3  C   UNL     1       9.694 -22.945 -34.908  1.00  0.00     0.000 C 
BRANCH   3   4
ATOM      4  C   UNL     1       8.350 -22.198 -34.876  1.00  0.00     0.000 C 
BRANCH   4   5
ATOM      5  C   UNL     1       7.549 -22.353 -36.181  1.00  0.00     0.000 C 
BRANCH   5   6
ATOM      6  C   UNL     1       6.751 -21.105 -36.615  1.00  0.00     0.006 C 
BRANCH   6   7
ATOM      7  C   UNL     1       7.226 -19.789 -35.979  1.00  0.00     0.053 C 
BRANCH   7   8
ATOM      8  C   UNL     1       6.271 -18.665 -36.236  1.00  0.00     0.041 C 
ATOM      9  O   UNL     1       5.947 -17.884 -35.303  1.00  0.00    -0.550 OA
ATOM     10  O   UNL     1       5.712 -18.500 -37.497  1.00  0.00    -0.550 OA
ENDBRANCH   7   8
ENDBRANCH   6   7
ENDBRANCH   5   6
ENDBRANCH   4   5
ENDBRANCH   3   4
ENDBRANCH   2   3
ENDBRANCH   1   2
BRANCH   1  11
ATOM     11  C   UNL     1      10.629 -22.431 -38.114  1.00  0.00     0.000 C 
BRANCH  11  12
ATOM     12  C   UNL     1      11.046 -20.979 -37.812  1.00  0.00     0.000 C 
BRANCH  12  13
ATOM     13  C   UNL     1      11.955 -20.354 -38.892  1.00  0.00     0.000 C 
BRANCH  13  14
ATOM     14  C   UNL     1      13.280 -19.828 -38.309  1.00  0.00     0.000 C 
BRANCH  14  15
ATOM     15  C   UNL     1      13.833 -20.744 -37.198  1.00  0.00     0.000 C 
BRANCH  15  16
ATOM     16  C   UNL     1      14.995 -21.641 -37.659  1.00  0.00     0.006 C 
BRANCH  16  17
ATOM     17  C   UNL     1      14.605 -23.121 -37.752  1.00  0.00     0.053 C 
BRANCH  17  18
ATOM     18  C   UNL     1      14.597 -23.571 -39.178  1.00  0.00     0.041 C 
ATOM     19  O   UNL     1      15.554 -24.250 -39.635  1.00  0.00    -0.550 OA
ATOM     20  O   UNL     1      13.510 -23.280 -39.993  1.00  0.00    -0.550 OA
ENDBRANCH  17  18
ENDBRANCH  16  17
ENDBRANCH  15  16
ENDBRANCH  14  15
ENDBRANCH  13  14
ENDBRANCH  12  13
ENDBRANCH  11  12
ENDBRANCH   1  11
TORSDOF 15
ENDMDL
MODEL 6
REMARK VINA RESULT:    -3.877      2.730      3.175
REMARK INTER + INTRA:          -9.190
REMARK INTER:                  -6.894
REMARK INTRA:                  -2.296
REMARK UNBOUND:                -1.913
REMARK SMILES O=C([O-])CCCCCCCCCCCCCCC(=O)[O-]
REMARK SMILES IDX 10 1 9 2 8 3 7 4 6 5 5 6 4 7 2 8 1 9 3 10 11 11 12 12 13 13
REMARK SMILES IDX 14 14 15 15 16 16 17 17 18 18 19 19 20 20
REMARK H PARENT
REMARK Flexibility Score: inf
ROOT
ATOM      1  C   UNL     1       8.364 -21.834 -35.014  1.00  0.00     0.000 C 
ENDROOT
BRANCH   1   2
ATOM      2  C   UNL     1       7.435 -22.189 -36.188  1.00  0.00     0.000 C 
BRANCH   2   3
ATOM      3  C   UNL     1       6.623 -20.980 -36.684  1.00  0.00     0.000 C 
BRANCH   3   4
ATOM      4  C   UNL     1       7.137 -19.648 -36.114  1.00  0.00     0.000 C 
BRANCH   4   5
ATOM      5  C   UNL     1       6.176 -18.474 -36.377  1.00  0.00     0.000 C 
BRANCH   5   6
ATOM      6  C   UNL     1       6.441 -17.687 -37.678  1.00  0.00     0.006 C 
BRANCH   6   7
ATOM      7  C   UNL     1       7.924 -17.397 -37.959  1.00  0.00     0.053 C 
BRANCH   7   8
ATOM      8  C   UNL     1       8.322 -17.805 -39.344  1.00  0.00     0.041 C 
ATOM      9  O   UNL     1       7.746 -18.771 -39.909  1.00  0.00    -0.550 OA
ATOM     10  O   UNL     1       9.353 -17.141 -39.997  1.00  0.00    -0.550 OA
ENDBRANCH   7   8
ENDBRANCH   6   7
ENDBRANCH   5   6
ENDBRANCH   4   5
ENDBRANCH   3   4
ENDBRANCH   2   3
ENDBRANCH   1   2
BRANCH   1  11
ATOM     11  C   UNL     1       9.544 -22.810 -34.872  1.00  0.00     0.000 C 
BRANCH  11  12
ATOM     12  C   UNL     1       9.416 -24.112 -35.687  1.00  0.00     0.000 C 
BRANCH  12  13
ATOM     13  C   UNL     1      10.352 -24.174 -36.914  1.00  0.00     0.000 C 
BRANCH  13  14
ATOM     14  C   UNL     1      11.119 -22.856 -37.132  1.00  0.00     0.000 C 
BRANCH  14  15
ATOM     15  C   UNL     1      10.633 -22.100 -38.385  1.00  0.00     0.000 C 
BRANCH  15  16
ATOM     16  C   UNL     1      10.211 -20.647 -38.105  1.00  0.00     0.006 C 
BRANCH  16  17
ATOM     17  C   UNL     1      11.012 -20.002 -36.969  1.00  0.00     0.053 C 
BRANCH  17  18
ATOM     18  C   UNL     1      12.303 -19.451 -37.486  1.00  0.00     0.041 C 
ATOM     19  O   UNL     1      12.301 -18.532 -38.348  1.00  0.00    -0.550 OA
ATOM     20  O   UNL     1      13.510 -19.919 -36.984  1.00  0.00    -0.550 OA
ENDBRANCH  17  18
ENDBRANCH  16  17
ENDBRANCH  15  16
ENDBRANCH  14  15
ENDBRANCH  13  14
ENDBRANCH  12  13
ENDBRANCH  11  12
ENDBRANCH   1  11
TORSDOF 15
ENDMDL
MODEL 7
REMARK VINA RESULT:    -3.857      1.638      6.580
REMARK INTER + INTRA:          -9.152
REMARK INTER:                  -7.401
REMARK INTRA:                  -1.751
REMARK UNBOUND:                -1.913
REMARK SMILES O=C([O-])CCCCCCCCCCCCCCC(=O)[O-]
REMARK SMILES IDX 10 1 9 2 8 3 7 4 6 5 5 6 4 7 2 8 1 9 3 10 11 11 12 12 13 13
REMARK SMILES IDX 14 14 15 15 16 16 17 17 18 18 19 19 20 20
REMARK H PARENT
REMARK Flexibility Score: inf
ROOT
ATOM      1  C   UNL     1       9.735 -22.817 -34.870  1.00  0.00     0.000 C 
ENDROOT
BRANCH   1   2
ATOM      2  C   UNL     1       9.339 -24.177 -35.472  1.00  0.00     0.000 C 
BRANCH   2   3
ATOM      3  C   UNL     1       9.888 -24.374 -36.895  1.00  0.00     0.000 C 
BRANCH   3   4
ATOM      4  C   UNL     1      11.015 -23.385 -37.237  1.00  0.00     0.000 C 
BRANCH   4   5
ATOM      5  C   UNL     1      10.646 -22.433 -38.389  1.00  0.00     0.000 C 
BRANCH   5   6
ATOM      6  C   UNL     1      11.024 -20.953 -38.166  1.00  0.00     0.006 C 
BRANCH   6   7
ATOM      7  C   UNL     1      12.173 -20.729 -37.170  1.00  0.00     0.053 C 
BRANCH   7   8
ATOM      8  C   UNL     1      13.514 -20.832 -37.827  1.00  0.00     0.041 C 
ATOM      9  O   UNL     1      13.647 -20.533 -39.043  1.00  0.00    -0.550 OA
ATOM     10  O   UNL     1      14.611 -21.289 -37.107  1.00  0.00    -0.550 OA
ENDBRANCH   7   8
ENDBRANCH   6   7
ENDBRANCH   5   6
ENDBRANCH   4   5
ENDBRANCH   3   4
ENDBRANCH   2   3
ENDBRANCH   1   2
BRANCH   1  11
ATOM     11  C   UNL     1       8.588 -21.792 -34.908  1.00  0.00     0.000 C 
BRANCH  11  12
ATOM     12  C   UNL     1       7.416 -22.159 -35.840  1.00  0.00     0.000 C 
BRANCH  12  13
ATOM     13  C   UNL     1       7.282 -21.232 -37.067  1.00  0.00     0.000 C 
BRANCH  13  14
ATOM     14  C   UNL     1       7.741 -19.793 -36.766  1.00  0.00     0.000 C 
BRANCH  14  15
ATOM     15  C   UNL     1       6.663 -18.981 -36.019  1.00  0.00     0.000 C 
BRANCH  15  16
ATOM     16  C   UNL     1       5.700 -18.228 -36.952  1.00  0.00     0.006 C 
BRANCH  16  17
ATOM     17  C   UNL     1       4.767 -17.271 -36.200  1.00  0.00     0.053 C 
BRANCH  17  18
ATOM     18  C   UNL     1       5.558 -16.330 -35.349  1.00  0.00     0.041 C 
ATOM     19  O   UNL     1       6.307 -15.469 -35.882  1.00  0.00    -0.550 OA
ATOM     20  O   UNL     1       5.435 -16.372 -33.966  1.00  0.00    -0.550 OA
ENDBRANCH  17  18
ENDBRANCH  16  17
ENDBRANCH  15  16
ENDBRANCH  14  15
ENDBRANCH  13  14
ENDBRANCH  12  13
ENDBRANCH  11  12
ENDBRANCH   1  11
TORSDOF 15
ENDMDL
MODEL 8
REMARK VINA RESULT:    -3.844      2.469      6.690
REMARK INTER + INTRA:          -9.128
REMARK INTER:                  -6.617
REMARK INTRA:                  -2.510
REMARK UNBOUND:                -1.913
REMARK SMILES O=C([O-])CCCCCCCCCCCCCCC(=O)[O-]
REMARK SMILES IDX 10 1 9 2 8 3 7 4 6 5 5 6 4 7 2 8 1 9 3 10 11 11 12 12 13 13
REMARK SMILES IDX 14 14 15 15 16 16 17 17 18 18 19 19 20 20
REMARK H PARENT
REMARK Flexibility Score: inf
ROOT
ATOM      1  C   UNL     1      10.674 -22.458 -38.507  1.00  0.00     0.000 C 
ENDROOT
BRANCH   1   2
ATOM      2  C   UNL     1      10.477 -20.932 -38.509  1.00  0.00     0.000 C 
BRANCH   2   3
ATOM      3  C   UNL     1      11.279 -20.231 -37.400  1.00  0.00     0.000 C 
BRANCH   3   4
ATOM      4  C   UNL     1      12.066 -19.015 -37.917  1.00  0.00     0.000 C 
BRANCH   4   5
ATOM      5  C   UNL     1      12.650 -19.236 -39.324  1.00  0.00     0.000 C 
BRANCH   5   6
ATOM      6  C   UNL     1      14.084 -19.806 -39.359  1.00  0.00     0.006 C 
BRANCH   6   7
ATOM      7  C   UNL     1      14.163 -21.328 -39.560  1.00  0.00     0.053 C 
BRANCH   7   8
ATOM      8  C   UNL     1      14.474 -22.047 -38.284  1.00  0.00     0.041 C 
ATOM      9  O   UNL     1      14.455 -23.305 -38.247  1.00  0.00    -0.550 OA
ATOM     10  O   UNL     1      14.750 -21.329 -37.128  1.00  0.00    -0.550 OA
ENDBRANCH   7   8
ENDBRANCH   6   7
ENDBRANCH   5   6
ENDBRANCH   4   5
ENDBRANCH   3   4
ENDBRANCH   2   3
ENDBRANCH   1   2
BRANCH   1  11
ATOM     11  C   UNL     1      11.082 -23.003 -37.127  1.00  0.00     0.000 C 
BRANCH  11  12
ATOM     12  C   UNL     1      10.229 -24.179 -36.611  1.00  0.00     0.000 C 
BRANCH  12  13
ATOM     13  C   UNL     1       9.236 -23.786 -35.496  1.00  0.00     0.000 C 
BRANCH  13  14
ATOM     14  C   UNL     1       9.574 -22.422 -34.866  1.00  0.00     0.000 C 
BRANCH  14  15
ATOM     15  C   UNL     1       8.495 -21.359 -35.163  1.00  0.00     0.000 C 
BRANCH  15  16
ATOM     16  C   UNL     1       7.327 -21.886 -36.015  1.00  0.00     0.006 C 
BRANCH  16  17
ATOM     17  C   UNL     1       7.087 -21.051 -37.279  1.00  0.00     0.053 C 
BRANCH  17  18
ATOM     18  C   UNL     1       7.044 -19.594 -36.943  1.00  0.00     0.041 C 
ATOM     19  O   UNL     1       6.138 -19.142 -36.193  1.00  0.00    -0.550 OA
ATOM     20  O   UNL     1       8.032 -18.741 -37.418  1.00  0.00    -0.550 OA
ENDBRANCH  17  18
ENDBRANCH  16  17
ENDBRANCH  15  16
ENDBRANCH  14  15
ENDBRANCH  13  14
ENDBRANCH  12  13
ENDBRANCH  11  12
ENDBRANCH   1  11
TORSDOF 15
ENDMDL
MODEL 9
REMARK VINA RESULT:    -3.812      3.292      6.046
REMARK INTER + INTRA:          -9.067
REMARK INTER:                  -6.585
REMARK INTRA:                  -2.482
REMARK UNBOUND:                -1.913
REMARK SMILES O=C([O-])CCCCCCCCCCCCCCC(=O)[O-]
REMARK SMILES IDX 10 1 9 2 8 3 7 4 6 5 5 6 4 7 2 8 1 9 3 10 11 11 12 12 13 13
REMARK SMILES IDX 14 14 15 15 16 16 17 17 18 18 19 19 20 20
REMARK H PARENT
REMARK Flexibility Score: inf
ROOT
ATOM      1  C   UNL     1       8.423 -20.786 -35.627  1.00  0.00     0.000 C 
ENDROOT
BRANCH   1   2
ATOM      2  C   UNL     1       8.483 -21.996 -34.678  1.00  0.00     0.000 C 
BRANCH   2   3
ATOM      3  C   UNL     1       9.746 -22.848 -34.886  1.00  0.00     0.000 C 
BRANCH   3   4
ATOM      4  C   UNL     1       9.472 -24.123 -35.701  1.00  0.00     0.000 C 
BRANCH   4   5
ATOM      5  C   UNL     1      10.361 -24.235 -36.953  1.00  0.00     0.000 C 
BRANCH   5   6
ATOM      6  C   UNL     1      11.278 -23.023 -37.218  1.00  0.00     0.006 C 
BRANCH   6   7
ATOM      7  C   UNL     1      12.382 -23.272 -38.259  1.00  0.00     0.053 C 
BRANCH   7   8
ATOM      8  C   UNL     1      13.224 -22.055 -38.485  1.00  0.00     0.041 C 
ATOM      9  O   UNL     1      13.269 -21.519 -39.624  1.00  0.00    -0.550 OA
ATOM     10  O   UNL     1      13.987 -21.532 -37.449  1.00  0.00    -0.550 OA
ENDBRANCH   7   8
ENDBRANCH   6   7
ENDBRANCH   5   6
ENDBRANCH   4   5
ENDBRANCH   3   4
ENDBRANCH   2   3
ENDBRANCH   1   2
BRANCH   1  11
ATOM     11  C   UNL     1       7.091 -20.694 -36.391  1.00  0.00     0.000 C 
BRANCH  11  12
ATOM     12  C   UNL     1       6.701 -21.959 -37.179  1.00  0.00     0.000 C 
BRANCH  12  13
ATOM     13  C   UNL     1       7.631 -22.260 -38.374  1.00  0.00     0.000 C 
BRANCH  13  14
ATOM     14  C   UNL     1       7.926 -21.005 -39.216  1.00  0.00     0.000 C 
BRANCH  14  15
ATOM     15  C   UNL     1       9.420 -20.619 -39.184  1.00  0.00     0.000 C 
BRANCH  15  16
ATOM     16  C   UNL     1       9.678 -19.128 -39.459  1.00  0.00     0.006 C 
BRANCH  16  17
ATOM     17  C   UNL     1      10.091 -18.352 -38.203  1.00  0.00     0.053 C 
BRANCH  17  18
ATOM     18  C   UNL     1      11.435 -18.805 -37.726  1.00  0.00     0.041 C 
ATOM     19  O   UNL     1      12.467 -18.550 -38.402  1.00  0.00    -0.550 OA
ATOM     20  O   UNL     1      11.555 -19.470 -36.513  1.00  0.00    -0.550 OA
ENDBRANCH  17  18
ENDBRANCH  16  17
ENDBRANCH  15  16
ENDBRANCH  14  15
ENDBRANCH  13  14
ENDBRANCH  12  13
ENDBRANCH  11  12
ENDBRANCH   1  11
TORSDOF 15
ENDMDL
