MODEL 1
REMARK VINA RESULT:     0.000      0.000      0.000
REMARK INTER + INTRA:          -0.409
REMARK INTER:                   0.000
REMARK INTRA:                  -0.409
REMARK UNBOUND:                -0.409
REMARK SMILES [NH3+][C@@H](CO)C(=O)[O-]
REMARK SMILES IDX 3 1 2 2 1 3 5 7 6 8 7 9 4 10
REMARK H PARENT 1 4 1 5 1 6 4 11
REMARK Flexibility Score: inf
ROOT
ATOM      1  C   UNL     1       3.990  18.324 -41.849  1.00  0.00     0.227 C 
ENDROOT
BRANCH   1   2
ATOM      2  C   UNL     1       4.064  19.105 -40.523  1.00  0.00     0.253 C 
BRANCH   2   3
ATOM      3  N   UNL     1       4.762  18.330 -39.490  1.00  0.00    -0.348 N 
ATOM      4  H   UNL     1       5.759  18.639 -39.425  1.00  0.00     0.345 HD
ATOM      5  H   UNL     1       4.735  17.307 -39.711  1.00  0.00     0.345 HD
ATOM      6  H   UNL     1       4.310  18.492 -38.559  1.00  0.00     0.345 HD
ENDBRANCH   2   3
BRANCH   2   7
ATOM      7  C   UNL     1       2.678  19.469 -40.061  1.00  0.00     0.102 C 
ATOM      8  O   UNL     1       2.047  18.715 -39.274  1.00  0.00    -0.544 OA
ATOM      9  O   UNL     1       2.080  20.639 -40.516  1.00  0.00    -0.544 OA
ENDBRANCH   2   7
ENDBRANCH   1   2
BRANCH   1  10
ATOM     10  O   UNL     1       2.660  18.168 -42.261  1.00  0.00    -0.390 OA
ATOM     11  H   UNL     1       2.233  19.061 -42.191  1.00  0.00     0.210 HD
ENDBRANCH   1  10
TORSDOF 4
ENDMDL
MODEL 2
REMARK VINA RESULT:     0.000      8.358      8.764
REMARK INTER + INTRA:          -0.409
REMARK INTER:                   0.000
REMARK INTRA:                  -0.409
REMARK UNBOUND:                -0.409
REMARK SMILES [NH3+][C@@H](CO)C(=O)[O-]
REMARK SMILES IDX 3 1 2 2 1 3 5 7 6 8 7 9 4 10
REMARK H PARENT 1 4 1 5 1 6 4 11
REMARK Flexibility Score: inf
ROOT
ATOM      1  C   UNL     1       2.470  20.389 -48.844  1.00  0.00     0.227 C 
ENDROOT
BRANCH   1   2
ATOM      2  C   UNL     1       3.722  21.284 -48.904  1.00  0.00     0.253 C 
BRANCH   2   3
ATOM      3  N   UNL     1       4.677  20.932 -47.845  1.00  0.00    -0.348 N 
ATOM      4  H   UNL     1       4.304  21.233 -46.916  1.00  0.00     0.345 HD
ATOM      5  H   UNL     1       5.601  21.394 -48.010  1.00  0.00     0.345 HD
ATOM      6  H   UNL     1       4.812  19.894 -47.820  1.00  0.00     0.345 HD
ENDBRANCH   2   3
BRANCH   2   7
ATOM      7  C   UNL     1       3.328  22.732 -48.797  1.00  0.00     0.102 C 
ATOM      8  O   UNL     1       3.298  23.306 -47.676  1.00  0.00    -0.544 OA
ATOM      9  O   UNL     1       2.978  23.442 -49.939  1.00  0.00    -0.544 OA
ENDBRANCH   2   7
ENDBRANCH   1   2
BRANCH   1  10
ATOM     10  O   UNL     1       1.311  21.165 -48.706  1.00  0.00    -0.390 OA
ATOM     11  H   UNL     1       0.544  20.536 -48.728  1.00  0.00     0.210 HD
ENDBRANCH   1  10
TORSDOF 4
ENDMDL
MODEL 3
REMARK VINA RESULT:     0.000      5.993      6.423
REMARK INTER + INTRA:          -0.409
REMARK INTER:                   0.000
REMARK INTRA:                  -0.409
REMARK UNBOUND:                -0.409
REMARK SMILES [NH3+][C@@H](CO)C(=O)[O-]
REMARK SMILES IDX 3 1 2 2 1 3 5 7 6 8 7 9 4 10
REMARK H PARENT 1 4 1 5 1 6 4 11
REMARK Flexibility Score: inf
ROOT
ATOM      1  C   UNL     1      -0.087  23.753 -42.359  1.00  0.00     0.227 C 
ENDROOT
BRANCH   1   2
ATOM      2  C   UNL     1       1.447  23.830 -42.465  1.00  0.00     0.253 C 
BRANCH   2   3
ATOM      3  N   UNL     1       2.087  22.767 -41.680  1.00  0.00    -0.348 N 
ATOM      4  H   UNL     1       1.397  22.353 -41.012  1.00  0.00     0.345 HD
ATOM      5  H   UNL     1       2.902  23.142 -41.142  1.00  0.00     0.345 HD
ATOM      6  H   UNL     1       2.418  22.005 -42.318  1.00  0.00     0.345 HD
ENDBRANCH   2   3
BRANCH   2   7
ATOM      7  C   UNL     1       1.930  25.182 -42.012  1.00  0.00     0.102 C 
ATOM      8  O   UNL     1       2.269  25.371 -40.813  1.00  0.00    -0.544 OA
ATOM      9  O   UNL     1       1.988  26.237 -42.914  1.00  0.00    -0.544 OA
ENDBRANCH   2   7
ENDBRANCH   1   2
BRANCH   1  10
ATOM     10  O   UNL     1      -0.613  24.958 -41.871  1.00  0.00    -0.390 OA
ATOM     11  H   UNL     1      -0.972  24.766 -40.967  1.00  0.00     0.210 HD
ENDBRANCH   1  10
TORSDOF 4
ENDMDL
MODEL 4
REMARK VINA RESULT:     0.000     11.254     11.648
REMARK INTER + INTRA:          -0.409
REMARK INTER:                   0.000
REMARK INTRA:                  -0.409
REMARK UNBOUND:                -0.409
REMARK SMILES [NH3+][C@@H](CO)C(=O)[O-]
REMARK SMILES IDX 3 1 2 2 1 3 5 7 6 8 7 9 4 10
REMARK H PARENT 1 4 1 5 1 6 4 11
REMARK Flexibility Score: inf
ROOT
ATOM      1  C   UNL     1       4.281  14.609 -51.243  1.00  0.00     0.227 C 
ENDROOT
BRANCH   1   2
ATOM      2  C   UNL     1       3.271  14.195 -50.157  1.00  0.00     0.253 C 
BRANCH   2   3
ATOM      3  N   UNL     1       3.941  13.520 -49.039  1.00  0.00    -0.348 N 
ATOM      4  H   UNL     1       4.297  12.586 -49.348  1.00  0.00     0.345 HD
ATOM      5  H   UNL     1       3.283  13.386 -48.236  1.00  0.00     0.345 HD
ATOM      6  H   UNL     1       4.760  14.090 -48.720  1.00  0.00     0.345 HD
ENDBRANCH   2   3
BRANCH   2   7
ATOM      7  C   UNL     1       2.210  13.306 -50.749  1.00  0.00     0.102 C 
ATOM      8  O   UNL     1       2.342  12.053 -50.729  1.00  0.00    -0.544 OA
ATOM      9  O   UNL     1       1.084  13.867 -51.338  1.00  0.00    -0.544 OA
ENDBRANCH   2   7
ENDBRANCH   1   2
BRANCH   1  10
ATOM     10  O   UNL     1       3.938  14.047 -52.481  1.00  0.00    -0.390 OA
ATOM     11  H   UNL     1       3.868  13.067 -52.339  1.00  0.00     0.210 HD
ENDBRANCH   1  10
TORSDOF 4
ENDMDL
MODEL 5
REMARK VINA RESULT:     0.000      8.719      9.405
REMARK INTER + INTRA:          -0.409
REMARK INTER:                   0.000
REMARK INTRA:                  -0.409
REMARK UNBOUND:                -0.409
REMARK SMILES [NH3+][C@@H](CO)C(=O)[O-]
REMARK SMILES IDX 3 1 2 2 1 3 5 7 6 8 7 9 4 10
REMARK H PARENT 1 4 1 5 1 6 4 11
REMARK Flexibility Score: inf
ROOT
ATOM      1  C   UNL     1       0.234  21.498 -48.267  1.00  0.00     0.227 C 
ENDROOT
BRANCH   1   2
ATOM      2  C   UNL     1      -0.003  20.289 -49.192  1.00  0.00     0.253 C 
BRANCH   2   3
ATOM      3  N   UNL     1      -0.726  19.220 -48.492  1.00  0.00    -0.348 N 
ATOM      4  H   UNL     1      -1.744  19.450 -48.445  1.00  0.00     0.345 HD
ATOM      5  H   UNL     1      -0.357  19.097 -47.520  1.00  0.00     0.345 HD
ATOM      6  H   UNL     1      -0.620  18.319 -49.015  1.00  0.00     0.345 HD
ENDBRANCH   2   3
BRANCH   2   7
ATOM      7  C   UNL     1       1.310  19.778 -49.721  1.00  0.00     0.102 C 
ATOM      8  O   UNL     1       1.928  18.859 -49.120  1.00  0.00    -0.544 OA
ATOM      9  O   UNL     1       1.858  20.332 -50.872  1.00  0.00    -0.544 OA
ENDBRANCH   2   7
ENDBRANCH   1   2
BRANCH   1  10
ATOM     10  O   UNL     1       1.602  21.789 -48.171  1.00  0.00    -0.390 OA
ATOM     11  H   UNL     1       2.062  20.935 -47.965  1.00  0.00     0.210 HD
ENDBRANCH   1  10
TORSDOF 4
ENDMDL
MODEL 6
REMARK VINA RESULT:     0.000     12.274     12.895
REMARK INTER + INTRA:          -0.409
REMARK INTER:                   0.000
REMARK INTRA:                  -0.409
REMARK UNBOUND:                -0.409
REMARK SMILES [NH3+][C@@H](CO)C(=O)[O-]
REMARK SMILES IDX 3 1 2 2 1 3 5 7 6 8 7 9 4 10
REMARK H PARENT 1 4 1 5 1 6 4 11
REMARK Flexibility Score: inf
ROOT
ATOM      1  C   UNL     1       3.850  16.043 -52.482  1.00  0.00     0.227 C 
ENDROOT
BRANCH   1   2
ATOM      2  C   UNL     1       3.084  14.781 -52.922  1.00  0.00     0.253 C 
BRANCH   2   3
ATOM      3  N   UNL     1       1.660  14.879 -52.578  1.00  0.00    -0.348 N 
ATOM      4  H   UNL     1       1.336  13.982 -52.149  1.00  0.00     0.345 HD
ATOM      5  H   UNL     1       1.085  15.079 -53.429  1.00  0.00     0.345 HD
ATOM      6  H   UNL     1       1.516  15.645 -51.879  1.00  0.00     0.345 HD
ENDBRANCH   2   3
BRANCH   2   7
ATOM      7  C   UNL     1       3.696  13.559 -52.291  1.00  0.00     0.102 C 
ATOM      8  O   UNL     1       3.259  13.119 -51.195  1.00  0.00    -0.544 OA
ATOM      9  O   UNL     1       4.762  12.918 -52.911  1.00  0.00    -0.544 OA
ENDBRANCH   2   7
ENDBRANCH   1   2
BRANCH   1  10
ATOM     10  O   UNL     1       4.902  15.710 -51.618  1.00  0.00    -0.390 OA
ATOM     11  H   UNL     1       4.623  15.990 -50.708  1.00  0.00     0.210 HD
ENDBRANCH   1  10
TORSDOF 4
ENDMDL
MODEL 7
REMARK VINA RESULT:     0.000      6.200      7.157
REMARK INTER + INTRA:          -0.409
REMARK INTER:                   0.000
REMARK INTRA:                  -0.409
REMARK UNBOUND:                -0.409
REMARK SMILES [NH3+][C@@H](CO)C(=O)[O-]
REMARK SMILES IDX 3 1 2 2 1 3 5 7 6 8 7 9 4 10
REMARK H PARENT 1 4 1 5 1 6 4 11
REMARK Flexibility Score: inf
ROOT
ATOM      1  C   UNL     1       6.772  11.904 -43.330  1.00  0.00     0.227 C 
ENDROOT
BRANCH   1   2
ATOM      2  C   UNL     1       5.520  12.690 -42.897  1.00  0.00     0.253 C 
BRANCH   2   3
ATOM      3  N   UNL     1       4.458  12.591 -43.906  1.00  0.00    -0.348 N 
ATOM      4  H   UNL     1       4.270  11.586 -44.128  1.00  0.00     0.345 HD
ATOM      5  H   UNL     1       4.731  13.090 -44.784  1.00  0.00     0.345 HD
ATOM      6  H   UNL     1       3.574  13.011 -43.533  1.00  0.00     0.345 HD
ENDBRANCH   2   3
BRANCH   2   7
ATOM      7  C   UNL     1       5.875  14.131 -42.646  1.00  0.00     0.102 C 
ATOM      8  O   UNL     1       5.767  14.985 -43.566  1.00  0.00    -0.544 OA
ATOM      9  O   UNL     1       6.340  14.523 -41.397  1.00  0.00    -0.544 OA
ENDBRANCH   2   7
ENDBRANCH   1   2
BRANCH   1  10
ATOM     10  O   UNL     1       7.895  12.743 -43.372  1.00  0.00    -0.390 OA
ATOM     11  H   UNL     1       7.995  13.038 -44.313  1.00  0.00     0.210 HD
ENDBRANCH   1  10
TORSDOF 4
ENDMDL
MODEL 8
REMARK VINA RESULT:     0.000      8.668      9.277
REMARK INTER + INTRA:          -0.409
REMARK INTER:                   0.000
REMARK INTRA:                  -0.409
REMARK UNBOUND:                -0.409
REMARK SMILES [NH3+][C@@H](CO)C(=O)[O-]
REMARK SMILES IDX 3 1 2 2 1 3 5 7 6 8 7 9 4 10
REMARK H PARENT 1 4 1 5 1 6 4 11
REMARK Flexibility Score: inf
ROOT
ATOM      1  C   UNL     1       9.818  13.619 -44.431  1.00  0.00     0.227 C 
ENDROOT
BRANCH   1   2
ATOM      2  C   UNL     1       8.968  12.747 -43.487  1.00  0.00     0.253 C 
BRANCH   2   3
ATOM      3  N   UNL     1       7.581  13.224 -43.432  1.00  0.00    -0.348 N 
ATOM      4  H   UNL     1       7.094  12.809 -42.605  1.00  0.00     0.345 HD
ATOM      5  H   UNL     1       7.062  12.961 -44.302  1.00  0.00     0.345 HD
ATOM      6  H   UNL     1       7.568  14.266 -43.327  1.00  0.00     0.345 HD
ENDBRANCH   2   3
BRANCH   2   7
ATOM      7  C   UNL     1       9.575  12.733 -42.110  1.00  0.00     0.102 C 
ATOM      8  O   UNL     1       9.207  13.566 -41.240  1.00  0.00    -0.544 OA
ATOM      9  O   UNL     1      10.562  11.806 -41.796  1.00  0.00    -0.544 OA
ENDBRANCH   2   7
ENDBRANCH   1   2
BRANCH   1  10
ATOM     10  O   UNL     1      10.920  14.158 -43.752  1.00  0.00    -0.390 OA
ATOM     11  H   UNL     1      10.965  15.118 -43.998  1.00  0.00     0.210 HD
ENDBRANCH   1  10
TORSDOF 4
ENDMDL
MODEL 9
REMARK VINA RESULT:     0.000     10.629     11.393
REMARK INTER + INTRA:          -0.409
REMARK INTER:                   0.000
REMARK INTRA:                  -0.409
REMARK UNBOUND:                -0.409
REMARK SMILES [NH3+][C@@H](CO)C(=O)[O-]
REMARK SMILES IDX 3 1 2 2 1 3 5 7 6 8 7 9 4 10
REMARK H PARENT 1 4 1 5 1 6 4 11
REMARK Flexibility Score: inf
ROOT
ATOM      1  C   UNL     1      11.802  12.953 -45.722  1.00  0.00     0.227 C 
ENDROOT
BRANCH   1   2
ATOM      2  C   UNL     1      10.527  12.217 -46.175  1.00  0.00     0.253 C 
BRANCH   2   3
ATOM      3  N   UNL     1       9.541  13.156 -46.725  1.00  0.00    -0.348 N 
ATOM      4  H   UNL     1       9.949  14.118 -46.767  1.00  0.00     0.345 HD
ATOM      5  H   UNL     1       8.677  13.176 -46.134  1.00  0.00     0.345 HD
ATOM      6  H   UNL     1       9.283  12.870 -47.699  1.00  0.00     0.345 HD
ENDBRANCH   2   3
BRANCH   2   7
ATOM      7  C   UNL     1       9.937  11.449 -45.023  1.00  0.00     0.102 C 
ATOM      8  O   UNL     1       9.055  11.971 -44.290  1.00  0.00    -0.544 OA
ATOM      9  O   UNL     1      10.376  10.158 -44.752  1.00  0.00    -0.544 OA
ENDBRANCH   2   7
ENDBRANCH   1   2
BRANCH   1  10
ATOM     10  O   UNL     1      12.063  12.706 -44.367  1.00  0.00    -0.390 OA
ATOM     11  H   UNL     1      12.280  13.582 -43.954  1.00  0.00     0.210 HD
ENDBRANCH   1  10
TORSDOF 4
ENDMDL
