MODEL 1
REMARK VINA RESULT:    -4.052      0.000      0.000
REMARK INTER + INTRA:          -4.594
REMARK INTER:                  -4.408
REMARK INTRA:                  -0.186
REMARK UNBOUND:                -0.186
REMARK SMILES Cc1ccc(C(C)C)c(O)c1
REMARK SMILES IDX 1 1 2 2 11 3 9 4 5 5 4 6 3 7 10 8 6 10 7 11 8 12
REMARK H PARENT 10 9
REMARK Flexibility Score: inf
ROOT
ATOM      1  C   UNL     1      14.403   2.677  20.661  1.00  0.00     0.044 C 
ATOM      2  C   UNL     1      13.884   3.508  19.525  1.00  0.00    -0.047 A 
ATOM      3  C   UNL     1      14.299   3.248  18.213  1.00  0.00     0.049 A 
ATOM      4  C   UNL     1      13.859   4.043  17.148  1.00  0.00     0.119 A 
ATOM      5  C   UNL     1      12.945   5.105  17.387  1.00  0.00    -0.004 A 
ATOM      6  C   UNL     1      12.592   5.395  18.722  1.00  0.00     0.008 A 
ATOM      7  C   UNL     1      13.052   4.603  19.775  1.00  0.00     0.004 A 
ENDROOT
BRANCH   4   8
ATOM      8  O   UNL     1      14.374   3.757  15.881  1.00  0.00    -0.508 OA
ATOM      9  H   UNL     1      15.360   3.736  15.660  1.00  0.00     0.293 HD
ENDBRANCH   4   8
BRANCH   5  10
ATOM     10  C   UNL     1      12.411   5.970  16.247  1.00  0.00     0.017 C 
ATOM     11  C   UNL     1      13.081   7.346  16.268  1.00  0.00     0.012 C 
ATOM     12  C   UNL     1      10.879   6.110  16.257  1.00  0.00     0.012 C 
ENDBRANCH   5  10
TORSDOF 2
ENDMDL
MODEL 2
REMARK VINA RESULT:    -3.993      2.430      3.223
REMARK INTER + INTRA:          -4.530
REMARK INTER:                  -4.356
REMARK INTRA:                  -0.174
REMARK UNBOUND:                -0.186
REMARK SMILES Cc1ccc(C(C)C)c(O)c1
REMARK SMILES IDX 1 1 2 2 11 3 9 4 5 5 4 6 3 7 10 8 6 10 7 11 8 12
REMARK H PARENT 10 9
REMARK Flexibility Score: inf
ROOT
ATOM      1  C   UNL     1      17.754   6.567  16.930  1.00  0.00     0.044 C 
ATOM      2  C   UNL     1      16.271   6.415  16.762  1.00  0.00    -0.047 A 
ATOM      3  C   UNL     1      15.720   5.166  16.452  1.00  0.00     0.049 A 
ATOM      4  C   UNL     1      14.343   5.017  16.247  1.00  0.00     0.119 A 
ATOM      5  C   UNL     1      13.479   6.136  16.396  1.00  0.00    -0.004 A 
ATOM      6  C   UNL     1      14.059   7.399  16.640  1.00  0.00     0.008 A 
ATOM      7  C   UNL     1      15.436   7.534  16.825  1.00  0.00     0.004 A 
ENDROOT
BRANCH   4   8
ATOM      8  O   UNL     1      13.885   3.750  15.875  1.00  0.00    -0.508 OA
ATOM      9  H   UNL     1      13.170   3.586  15.180  1.00  0.00     0.293 HD
ENDBRANCH   4   8
BRANCH   5  10
ATOM     10  C   UNL     1      11.968   6.007  16.219  1.00  0.00     0.017 C 
ATOM     11  C   UNL     1      11.357   7.367  15.875  1.00  0.00     0.012 C 
ATOM     12  C   UNL     1      11.265   5.387  17.439  1.00  0.00     0.012 C 
ENDBRANCH   5  10
TORSDOF 2
ENDMDL
MODEL 3
REMARK VINA RESULT:    -3.895      1.922      4.203
REMARK INTER + INTRA:          -4.423
REMARK INTER:                  -4.244
REMARK INTRA:                  -0.179
REMARK UNBOUND:                -0.186
REMARK SMILES Cc1ccc(C(C)C)c(O)c1
REMARK SMILES IDX 1 1 2 2 11 3 9 4 5 5 4 6 3 7 10 8 6 10 7 11 8 12
REMARK H PARENT 10 9
REMARK Flexibility Score: inf
ROOT
ATOM      1  C   UNL     1      10.876   8.928  18.042  1.00  0.00     0.044 C 
ATOM      2  C   UNL     1      11.644   7.674  17.747  1.00  0.00    -0.047 A 
ATOM      3  C   UNL     1      11.036   6.422  17.897  1.00  0.00     0.049 A 
ATOM      4  C   UNL     1      11.753   5.241  17.670  1.00  0.00     0.119 A 
ATOM      5  C   UNL     1      13.107   5.306  17.240  1.00  0.00    -0.004 A 
ATOM      6  C   UNL     1      13.723   6.573  17.162  1.00  0.00     0.008 A 
ATOM      7  C   UNL     1      12.999   7.740  17.408  1.00  0.00     0.004 A 
ENDROOT
BRANCH   4   8
ATOM      8  O   UNL     1      11.090   4.034  17.906  1.00  0.00    -0.508 OA
ATOM      9  H   UNL     1      10.094   3.954  18.054  1.00  0.00     0.293 HD
ENDBRANCH   4   8
BRANCH   5  10
ATOM     10  C   UNL     1      13.911   4.042  16.944  1.00  0.00     0.017 C 
ATOM     11  C   UNL     1      14.520   3.487  18.235  1.00  0.00     0.012 C 
ATOM     12  C   UNL     1      14.998   4.249  15.875  1.00  0.00     0.012 C 
ENDBRANCH   5  10
TORSDOF 2
ENDMDL
MODEL 4
REMARK VINA RESULT:    -3.894      1.992      2.990
REMARK INTER + INTRA:          -4.422
REMARK INTER:                  -4.232
REMARK INTRA:                  -0.190
REMARK UNBOUND:                -0.186
REMARK SMILES Cc1ccc(C(C)C)c(O)c1
REMARK SMILES IDX 1 1 2 2 11 3 9 4 5 5 4 6 3 7 10 8 6 10 7 11 8 12
REMARK H PARENT 10 9
REMARK Flexibility Score: inf
ROOT
ATOM      1  C   UNL     1      16.726   4.720  16.535  1.00  0.00     0.044 C 
ATOM      2  C   UNL     1      15.331   5.247  16.700  1.00  0.00    -0.047 A 
ATOM      3  C   UNL     1      14.332   4.436  17.253  1.00  0.00     0.049 A 
ATOM      4  C   UNL     1      13.015   4.897  17.371  1.00  0.00     0.119 A 
ATOM      5  C   UNL     1      12.688   6.219  16.966  1.00  0.00    -0.004 A 
ATOM      6  C   UNL     1      13.691   6.995  16.348  1.00  0.00     0.008 A 
ATOM      7  C   UNL     1      14.995   6.516  16.222  1.00  0.00     0.004 A 
ENDROOT
BRANCH   4   8
ATOM      8  O   UNL     1      12.067   4.001  17.873  1.00  0.00    -0.508 OA
ATOM      9  H   UNL     1      12.130   2.997  17.780  1.00  0.00     0.293 HD
ENDBRANCH   4   8
BRANCH   5  10
ATOM     10  C   UNL     1      11.272   6.772  17.115  1.00  0.00     0.017 C 
ATOM     11  C   UNL     1      10.893   7.596  15.882  1.00  0.00     0.012 C 
ATOM     12  C   UNL     1      11.073   7.594  18.400  1.00  0.00     0.012 C 
ENDBRANCH   5  10
TORSDOF 2
ENDMDL
MODEL 5
REMARK VINA RESULT:    -3.811      1.061      4.106
REMARK INTER + INTRA:          -4.332
REMARK INTER:                  -4.208
REMARK INTRA:                  -0.124
REMARK UNBOUND:                -0.186
REMARK SMILES Cc1ccc(C(C)C)c(O)c1
REMARK SMILES IDX 1 1 2 2 11 3 9 4 5 5 4 6 3 7 10 8 6 10 7 11 8 12
REMARK H PARENT 10 9
REMARK Flexibility Score: inf
ROOT
ATOM      1  C   UNL     1      10.927   7.659  16.403  1.00  0.00     0.044 C 
ATOM      2  C   UNL     1      11.698   6.586  17.113  1.00  0.00    -0.047 A 
ATOM      3  C   UNL     1      12.481   5.682  16.386  1.00  0.00     0.049 A 
ATOM      4  C   UNL     1      13.170   4.647  17.029  1.00  0.00     0.119 A 
ATOM      5  C   UNL     1      13.114   4.531  18.445  1.00  0.00    -0.004 A 
ATOM      6  C   UNL     1      12.266   5.407  19.153  1.00  0.00     0.008 A 
ATOM      7  C   UNL     1      11.572   6.424  18.495  1.00  0.00     0.004 A 
ENDROOT
BRANCH   4   8
ATOM      8  O   UNL     1      13.874   3.749  16.222  1.00  0.00    -0.508 OA
ATOM      9  H   UNL     1      13.445   2.998  15.700  1.00  0.00     0.293 HD
ENDBRANCH   4   8
BRANCH   5  10
ATOM     10  C   UNL     1      13.883   3.440  19.187  1.00  0.00     0.017 C 
ATOM     11  C   UNL     1      13.363   3.308  20.621  1.00  0.00     0.012 C 
ATOM     12  C   UNL     1      15.406   3.657  19.179  1.00  0.00     0.012 C 
ENDBRANCH   5  10
TORSDOF 2
ENDMDL
MODEL 6
REMARK VINA RESULT:    -3.761      2.772      4.754
REMARK INTER + INTRA:          -4.277
REMARK INTER:                  -4.087
REMARK INTRA:                  -0.190
REMARK UNBOUND:                -0.186
REMARK SMILES Cc1ccc(C(C)C)c(O)c1
REMARK SMILES IDX 1 1 2 2 11 3 9 4 5 5 4 6 3 7 10 8 6 10 7 11 8 12
REMARK H PARENT 10 9
REMARK Flexibility Score: inf
ROOT
ATOM      1  C   UNL     1      12.310   6.133  16.016  1.00  0.00     0.044 C 
ATOM      2  C   UNL     1      13.698   5.614  16.251  1.00  0.00    -0.047 A 
ATOM      3  C   UNL     1      13.893   4.299  16.691  1.00  0.00     0.049 A 
ATOM      4  C   UNL     1      15.179   3.814  16.960  1.00  0.00     0.119 A 
ATOM      5  C   UNL     1      16.310   4.647  16.746  1.00  0.00    -0.004 A 
ATOM      6  C   UNL     1      16.089   5.989  16.369  1.00  0.00     0.008 A 
ATOM      7  C   UNL     1      14.800   6.463  16.121  1.00  0.00     0.004 A 
ENDROOT
BRANCH   4   8
ATOM      8  O   UNL     1      15.280   2.512  17.459  1.00  0.00    -0.508 OA
ATOM      9  H   UNL     1      14.960   1.690  16.967  1.00  0.00     0.293 HD
ENDBRANCH   4   8
BRANCH   5  10
ATOM     10  C   UNL     1      17.731   4.142  16.989  1.00  0.00     0.017 C 
ATOM     11  C   UNL     1      18.141   4.396  18.442  1.00  0.00     0.012 C 
ATOM     12  C   UNL     1      18.763   4.742  16.019  1.00  0.00     0.012 C 
ENDBRANCH   5  10
TORSDOF 2
ENDMDL
MODEL 7
REMARK VINA RESULT:    -3.698      2.203      4.541
REMARK INTER + INTRA:          -4.209
REMARK INTER:                  -4.020
REMARK INTRA:                  -0.189
REMARK UNBOUND:                -0.186
REMARK SMILES Cc1ccc(C(C)C)c(O)c1
REMARK SMILES IDX 1 1 2 2 11 3 9 4 5 5 4 6 3 7 10 8 6 10 7 11 8 12
REMARK H PARENT 10 9
REMARK Flexibility Score: inf
ROOT
ATOM      1  C   UNL     1      14.582   3.959  15.875  1.00  0.00     0.044 C 
ATOM      2  C   UNL     1      14.195   3.833  17.319  1.00  0.00    -0.047 A 
ATOM      3  C   UNL     1      13.065   4.499  17.807  1.00  0.00     0.049 A 
ATOM      4  C   UNL     1      12.717   4.429  19.161  1.00  0.00     0.119 A 
ATOM      5  C   UNL     1      13.491   3.637  20.052  1.00  0.00    -0.004 A 
ATOM      6  C   UNL     1      14.664   3.030  19.557  1.00  0.00     0.008 A 
ATOM      7  C   UNL     1      15.008   3.123  18.208  1.00  0.00     0.004 A 
ENDROOT
BRANCH   4   8
ATOM      8  O   UNL     1      11.612   5.178  19.578  1.00  0.00    -0.508 OA
ATOM      9  H   UNL     1      11.164   5.075  20.477  1.00  0.00     0.293 HD
ENDBRANCH   4   8
BRANCH   5  10
ATOM     10  C   UNL     1      13.122   3.503  21.528  1.00  0.00     0.017 C 
ATOM     11  C   UNL     1      13.977   4.448  22.376  1.00  0.00     0.012 C 
ATOM     12  C   UNL     1      13.223   2.060  22.051  1.00  0.00     0.012 C 
ENDBRANCH   5  10
TORSDOF 2
ENDMDL
MODEL 8
REMARK VINA RESULT:    -3.651     13.715     15.057
REMARK INTER + INTRA:          -4.157
REMARK INTER:                  -3.969
REMARK INTRA:                  -0.188
REMARK UNBOUND:                -0.186
REMARK SMILES Cc1ccc(C(C)C)c(O)c1
REMARK SMILES IDX 1 1 2 2 11 3 9 4 5 5 4 6 3 7 10 8 6 10 7 11 8 12
REMARK H PARENT 10 9
REMARK Flexibility Score: inf
ROOT
ATOM      1  C   UNL     1      29.480   6.342  15.962  1.00  0.00     0.044 C 
ATOM      2  C   UNL     1      28.736   5.088  16.316  1.00  0.00    -0.047 A 
ATOM      3  C   UNL     1      29.349   3.838  16.165  1.00  0.00     0.049 A 
ATOM      4  C   UNL     1      28.653   2.657  16.446  1.00  0.00     0.119 A 
ATOM      5  C   UNL     1      27.319   2.719  16.933  1.00  0.00    -0.004 A 
ATOM      6  C   UNL     1      26.696   3.982  17.013  1.00  0.00     0.008 A 
ATOM      7  C   UNL     1      27.398   5.150  16.712  1.00  0.00     0.004 A 
ENDROOT
BRANCH   4   8
ATOM      8  O   UNL     1      29.316   1.451  16.206  1.00  0.00    -0.508 OA
ATOM      9  H   UNL     1      29.231   0.917  15.352  1.00  0.00     0.293 HD
ENDBRANCH   4   8
BRANCH   5  10
ATOM     10  C   UNL     1      26.539   1.455  17.289  1.00  0.00     0.017 C 
ATOM     11  C   UNL     1      25.036   1.698  17.133  1.00  0.00     0.012 C 
ATOM     12  C   UNL     1      26.860   0.919  18.695  1.00  0.00     0.012 C 
ENDBRANCH   5  10
TORSDOF 2
ENDMDL
MODEL 9
REMARK VINA RESULT:    -3.616      2.125      2.900
REMARK INTER + INTRA:          -4.120
REMARK INTER:                  -3.930
REMARK INTRA:                  -0.190
REMARK UNBOUND:                -0.186
REMARK SMILES Cc1ccc(C(C)C)c(O)c1
REMARK SMILES IDX 1 1 2 2 11 3 9 4 5 5 4 6 3 7 10 8 6 10 7 11 8 12
REMARK H PARENT 10 9
REMARK Flexibility Score: inf
ROOT
ATOM      1  C   UNL     1      16.290   1.916  18.823  1.00  0.00     0.044 C 
ATOM      2  C   UNL     1      15.105   2.837  18.792  1.00  0.00    -0.047 A 
ATOM      3  C   UNL     1      14.331   3.028  19.943  1.00  0.00     0.049 A 
ATOM      4  C   UNL     1      13.196   3.847  19.918  1.00  0.00     0.119 A 
ATOM      5  C   UNL     1      12.842   4.532  18.724  1.00  0.00    -0.004 A 
ATOM      6  C   UNL     1      13.593   4.273  17.558  1.00  0.00     0.008 A 
ATOM      7  C   UNL     1      14.712   3.440  17.594  1.00  0.00     0.004 A 
ENDROOT
BRANCH   4   8
ATOM      8  O   UNL     1      12.441   3.931  21.091  1.00  0.00    -0.508 OA
ATOM      9  H   UNL     1      12.798   4.275  21.972  1.00  0.00     0.293 HD
ENDBRANCH   4   8
BRANCH   5  10
ATOM     10  C   UNL     1      11.635   5.466  18.667  1.00  0.00     0.017 C 
ATOM     11  C   UNL     1      10.875   5.269  17.352  1.00  0.00     0.012 C 
ATOM     12  C   UNL     1      12.001   6.946  18.868  1.00  0.00     0.012 C 
ENDBRANCH   5  10
TORSDOF 2
ENDMDL
