MODEL 1
REMARK VINA RESULT:    -3.736      0.000      0.000
REMARK INTER + INTRA:          -7.147
REMARK INTER:                  -5.156
REMARK INTRA:                  -1.991
REMARK UNBOUND:                -1.991
REMARK SMILES CC[C@H](CC[C@H](C)[C@H]1CC[C@H]2[C@H]3CC=C4C[C@H](O)CC[C@]4(C)[C@H]3CC[C@@]12C)C(C)C
REMARK SMILES IDX 5 1 4 2 3 3 2 4 1 5 28 6 29 7 30 8 6 9 7 10 8 11 9 12 26 13
REMARK SMILES IDX 10 14 11 15 25 16 27 17 12 18 24 19 23 20 13 21 21 22 14 23
REMARK SMILES IDX 15 24 20 25 22 26 16 27 19 28 17 29 18 30
REMARK H PARENT 18 31
REMARK Flexibility Score: inf
ROOT
ATOM      1  C   UNL     1      78.830  72.451  74.379  1.00  0.00     0.004 C 
ENDROOT
BRANCH   1   2
ATOM      2  C   UNL     1      79.401  73.430  73.326  1.00  0.00     0.004 C 
BRANCH   2   3
ATOM      3  C   UNL     1      80.600  74.268  73.836  1.00  0.00    -0.009 C 
BRANCH   3   4
ATOM      4  C   UNL     1      80.385  75.784  73.523  1.00  0.00     0.000 C 
ATOM      5  C   UNL     1      79.006  76.112  72.936  1.00  0.00     0.004 C 
ENDBRANCH   3   4
BRANCH   3   6
ATOM      6  C   UNL     1      80.864  73.951  75.352  1.00  0.00    -0.014 C 
ATOM      7  C   UNL     1      80.701  75.161  76.293  1.00  0.00     0.007 C 
ATOM      8  C   UNL     1      82.215  73.276  75.603  1.00  0.00     0.007 C 
ENDBRANCH   3   6
ENDBRANCH   2   3
ENDBRANCH   1   2
BRANCH   1   9
ATOM      9  C   UNL     1      77.385  72.783  74.871  1.00  0.00    -0.011 C 
ATOM     10  C   UNL     1      76.480  73.194  73.694  1.00  0.00     0.008 C 
BRANCH   9  11
ATOM     11  C   UNL     1      77.376  73.721  76.142  1.00  0.00    -0.002 C 
ATOM     12  C   UNL     1      76.997  75.195  75.916  1.00  0.00     0.005 C 
ATOM     13  C   UNL     1      76.609  73.289  77.440  1.00  0.00    -0.026 C 
ATOM     14  C   UNL     1      76.381  75.697  77.226  1.00  0.00     0.005 C 
ATOM     15  C   UNL     1      76.684  74.602  78.260  1.00  0.00    -0.001 C 
ATOM     16  C   UNL     1      75.111  72.917  77.172  1.00  0.00     0.007 C 
ATOM     17  C   UNL     1      77.350  72.123  78.155  1.00  0.00     0.012 C 
ATOM     18  C   UNL     1      75.844  74.635  79.574  1.00  0.00     0.000 C 
ATOM     19  C   UNL     1      74.084  73.391  78.226  1.00  0.00     0.005 C 
ATOM     20  C   UNL     1      74.678  73.609  79.634  1.00  0.00     0.003 C 
ATOM     21  C   UNL     1      75.367  76.050  79.962  1.00  0.00     0.031 C 
ATOM     22  C   UNL     1      73.589  73.920  80.777  1.00  0.00    -0.008 C 
ATOM     23  C   UNL     1      74.851  76.012  81.369  1.00  0.00    -0.027 C 
ATOM     24  C   UNL     1      74.079  74.984  81.777  1.00  0.00    -0.065 C 
ATOM     25  C   UNL     1      73.351  72.599  81.570  1.00  0.00     0.014 C 
ATOM     26  C   UNL     1      72.249  74.436  80.187  1.00  0.00     0.016 C 
ATOM     27  C   UNL     1      73.772  74.860  83.252  1.00  0.00     0.063 C 
ATOM     28  C   UNL     1      72.423  72.709  82.797  1.00  0.00     0.033 C 
ATOM     29  C   UNL     1      72.471  74.079  83.517  1.00  0.00     0.118 C 
BRANCH  29  30
ATOM     30  O   UNL     1      72.263  73.913  84.896  1.00  0.00    -0.393 OA
ATOM     31  H   UNL     1      73.134  73.681  85.310  1.00  0.00     0.210 HD
ENDBRANCH  29  30
ENDBRANCH   9  11
ENDBRANCH   1   9
TORSDOF 7
ENDMDL
MODEL 2
REMARK VINA RESULT:    -3.712     18.935     21.136
REMARK INTER + INTRA:          -7.114
REMARK INTER:                  -5.457
REMARK INTRA:                  -1.657
REMARK UNBOUND:                -1.991
REMARK SMILES CC[C@H](CC[C@H](C)[C@H]1CC[C@H]2[C@H]3CC=C4C[C@H](O)CC[C@]4(C)[C@H]3CC[C@@]12C)C(C)C
REMARK SMILES IDX 5 1 4 2 3 3 2 4 1 5 28 6 29 7 30 8 6 9 7 10 8 11 9 12 26 13
REMARK SMILES IDX 10 14 11 15 25 16 27 17 12 18 24 19 23 20 13 21 21 22 14 23
REMARK SMILES IDX 15 24 20 25 22 26 16 27 19 28 17 29 18 30
REMARK H PARENT 18 31
REMARK Flexibility Score: inf
ROOT
ATOM      1  C   UNL     1      91.403  89.608  83.254  1.00  0.00     0.004 C 
ENDROOT
BRANCH   1   2
ATOM      2  C   UNL     1      91.965  88.707  82.128  1.00  0.00     0.004 C 
BRANCH   2   3
ATOM      3  C   UNL     1      90.873  88.064  81.236  1.00  0.00    -0.009 C 
BRANCH   3   4
ATOM      4  C   UNL     1      91.022  88.540  79.756  1.00  0.00     0.000 C 
ATOM      5  C   UNL     1      89.870  89.427  79.265  1.00  0.00     0.004 C 
ENDBRANCH   3   4
BRANCH   3   6
ATOM      6  C   UNL     1      90.887  86.504  81.420  1.00  0.00    -0.014 C 
ATOM      7  C   UNL     1      89.612  85.928  82.067  1.00  0.00     0.007 C 
ATOM      8  C   UNL     1      92.123  85.993  82.164  1.00  0.00     0.007 C 
ENDBRANCH   3   6
ENDBRANCH   2   3
ENDBRANCH   1   2
BRANCH   1   9
ATOM      9  C   UNL     1      90.397  88.903  84.219  1.00  0.00    -0.011 C 
ATOM     10  C   UNL     1      88.979  89.484  84.060  1.00  0.00     0.008 C 
BRANCH   9  11
ATOM     11  C   UNL     1      90.956  88.770  85.691  1.00  0.00    -0.002 C 
ATOM     12  C   UNL     1      90.379  89.733  86.742  1.00  0.00     0.005 C 
ATOM     13  C   UNL     1      91.009  87.369  86.394  1.00  0.00    -0.026 C 
ATOM     14  C   UNL     1      90.481  89.020  88.094  1.00  0.00     0.005 C 
ATOM     15  C   UNL     1      91.373  87.796  87.839  1.00  0.00    -0.001 C 
ATOM     16  C   UNL     1      89.629  86.629  86.392  1.00  0.00     0.007 C 
ATOM     17  C   UNL     1      92.118  86.479  85.763  1.00  0.00     0.012 C 
ATOM     18  C   UNL     1      91.330  86.668  88.914  1.00  0.00     0.000 C 
ATOM     19  C   UNL     1      89.252  85.872  87.686  1.00  0.00     0.005 C 
ATOM     20  C   UNL     1      90.462  85.435  88.538  1.00  0.00     0.003 C 
ATOM     21  C   UNL     1      90.991  87.181  90.330  1.00  0.00     0.031 C 
ATOM     22  C   UNL     1      90.093  84.487  89.786  1.00  0.00    -0.008 C 
ATOM     23  C   UNL     1      91.278  86.090  91.317  1.00  0.00    -0.027 C 
ATOM     24  C   UNL     1      90.926  84.819  91.038  1.00  0.00    -0.065 C 
ATOM     25  C   UNL     1      90.420  83.020  89.374  1.00  0.00     0.014 C 
ATOM     26  C   UNL     1      88.598  84.606  90.191  1.00  0.00     0.016 C 
ATOM     27  C   UNL     1      91.434  83.720  91.943  1.00  0.00     0.063 C 
ATOM     28  C   UNL     1      90.251  81.957  90.478  1.00  0.00     0.033 C 
ATOM     29  C   UNL     1      90.534  82.471  91.911  1.00  0.00     0.118 C 
BRANCH  29  30
ATOM     30  O   UNL     1      91.082  81.443  92.698  1.00  0.00    -0.393 OA
ATOM     31  H   UNL     1      90.661  81.488  93.595  1.00  0.00     0.210 HD
ENDBRANCH  29  30
ENDBRANCH   9  11
ENDBRANCH   1   9
TORSDOF 7
ENDMDL
MODEL 3
REMARK VINA RESULT:    -3.687     18.293     20.577
REMARK INTER + INTRA:          -7.079
REMARK INTER:                  -5.099
REMARK INTRA:                  -1.980
REMARK UNBOUND:                -1.991
REMARK SMILES CC[C@H](CC[C@H](C)[C@H]1CC[C@H]2[C@H]3CC=C4C[C@H](O)CC[C@]4(C)[C@H]3CC[C@@]12C)C(C)C
REMARK SMILES IDX 5 1 4 2 3 3 2 4 1 5 28 6 29 7 30 8 6 9 7 10 8 11 9 12 26 13
REMARK SMILES IDX 10 14 11 15 25 16 27 17 12 18 24 19 23 20 13 21 21 22 14 23
REMARK SMILES IDX 15 24 20 25 22 26 16 27 19 28 17 29 18 30
REMARK H PARENT 18 31
REMARK Flexibility Score: inf
ROOT
ATOM      1  C   UNL     1      91.625  88.377  81.704  1.00  0.00     0.004 C 
ENDROOT
BRANCH   1   2
ATOM      2  C   UNL     1      91.751  87.070  80.886  1.00  0.00     0.004 C 
BRANCH   2   3
ATOM      3  C   UNL     1      90.432  86.263  80.789  1.00  0.00    -0.009 C 
BRANCH   3   4
ATOM      4  C   UNL     1      89.853  86.327  79.339  1.00  0.00     0.000 C 
ATOM      5  C   UNL     1      89.058  87.605  79.040  1.00  0.00     0.004 C 
ENDBRANCH   3   4
BRANCH   3   6
ATOM      6  C   UNL     1      90.659  84.805  81.331  1.00  0.00    -0.014 C 
ATOM      7  C   UNL     1      89.772  84.428  82.533  1.00  0.00     0.007 C 
ATOM      8  C   UNL     1      92.125  84.500  81.651  1.00  0.00     0.007 C 
ENDBRANCH   3   6
ENDBRANCH   2   3
ENDBRANCH   1   2
BRANCH   1   9
ATOM      9  C   UNL     1      90.457  88.393  82.742  1.00  0.00    -0.011 C 
ATOM     10  C   UNL     1      89.320  89.325  82.280  1.00  0.00     0.008 C 
BRANCH   9  11
ATOM     11  C   UNL     1      90.965  88.566  84.227  1.00  0.00    -0.002 C 
ATOM     12  C   UNL     1      90.353  89.719  85.042  1.00  0.00     0.005 C 
ATOM     13  C   UNL     1      90.995  87.338  85.202  1.00  0.00    -0.026 C 
ATOM     14  C   UNL     1      90.409  89.296  86.513  1.00  0.00     0.005 C 
ATOM     15  C   UNL     1      91.309  88.051  86.542  1.00  0.00    -0.001 C 
ATOM     16  C   UNL     1      89.615  86.603  85.305  1.00  0.00     0.007 C 
ATOM     17  C   UNL     1      92.124  86.345  84.803  1.00  0.00     0.012 C 
ATOM     18  C   UNL     1      91.229  87.165  87.822  1.00  0.00     0.000 C 
ATOM     19  C   UNL     1      89.194  86.122  86.712  1.00  0.00     0.005 C 
ATOM     20  C   UNL     1      90.374  85.875  87.675  1.00  0.00     0.003 C 
ATOM     21  C   UNL     1      90.842  87.952  89.091  1.00  0.00     0.031 C 
ATOM     22  C   UNL     1      89.962  85.198  89.076  1.00  0.00    -0.008 C 
ATOM     23  C   UNL     1      91.095  87.086  90.289  1.00  0.00    -0.027 C 
ATOM     24  C   UNL     1      90.752  85.783  90.262  1.00  0.00    -0.065 C 
ATOM     25  C   UNL     1      90.304  83.680  88.982  1.00  0.00     0.014 C 
ATOM     26  C   UNL     1      88.455  85.386  89.398  1.00  0.00     0.016 C 
ATOM     27  C   UNL     1      91.229  84.893  91.388  1.00  0.00     0.063 C 
ATOM     28  C   UNL     1      90.096  82.863  90.273  1.00  0.00     0.033 C 
ATOM     29  C   UNL     1      90.330  83.658  91.581  1.00  0.00     0.118 C 
BRANCH  29  30
ATOM     30  O   UNL     1      90.851  82.815  92.577  1.00  0.00    -0.393 OA
ATOM     31  H   UNL     1      91.675  83.237  92.933  1.00  0.00     0.210 HD
ENDBRANCH  29  30
ENDBRANCH   9  11
ENDBRANCH   1   9
TORSDOF 7
ENDMDL
MODEL 4
REMARK VINA RESULT:    -3.631     10.006     12.372
REMARK INTER + INTRA:          -7.002
REMARK INTER:                  -5.329
REMARK INTRA:                  -1.672
REMARK UNBOUND:                -1.991
REMARK SMILES CC[C@H](CC[C@H](C)[C@H]1CC[C@H]2[C@H]3CC=C4C[C@H](O)CC[C@]4(C)[C@H]3CC[C@@]12C)C(C)C
REMARK SMILES IDX 5 1 4 2 3 3 2 4 1 5 28 6 29 7 30 8 6 9 7 10 8 11 9 12 26 13
REMARK SMILES IDX 10 14 11 15 25 16 27 17 12 18 24 19 23 20 13 21 21 22 14 23
REMARK SMILES IDX 15 24 20 25 22 26 16 27 19 28 17 29 18 30
REMARK H PARENT 18 31
REMARK Flexibility Score: inf
ROOT
ATOM      1  C   UNL     1      77.027  88.172  73.555  1.00  0.00     0.004 C 
ENDROOT
BRANCH   1   2
ATOM      2  C   UNL     1      76.673  89.679  73.582  1.00  0.00     0.004 C 
BRANCH   2   3
ATOM      3  C   UNL     1      76.670  90.295  75.004  1.00  0.00    -0.009 C 
BRANCH   3   4
ATOM      4  C   UNL     1      75.260  90.873  75.350  1.00  0.00     0.000 C 
ATOM      5  C   UNL     1      74.619  91.679  74.213  1.00  0.00     0.004 C 
ENDBRANCH   3   4
BRANCH   3   6
ATOM      6  C   UNL     1      77.211  89.244  76.040  1.00  0.00    -0.014 C 
ATOM      7  C   UNL     1      76.198  88.848  77.132  1.00  0.00     0.007 C 
ATOM      8  C   UNL     1      78.536  89.658  76.686  1.00  0.00     0.007 C 
ENDBRANCH   3   6
ENDBRANCH   2   3
ENDBRANCH   1   2
BRANCH   1   9
ATOM      9  C   UNL     1      75.808  87.215  73.358  1.00  0.00    -0.011 C 
ATOM     10  C   UNL     1      74.516  88.011  73.094  1.00  0.00     0.008 C 
BRANCH   9  11
ATOM     11  C   UNL     1      75.739  86.083  74.458  1.00  0.00    -0.002 C 
ATOM     12  C   UNL     1      74.463  86.024  75.316  1.00  0.00     0.005 C 
ATOM     13  C   UNL     1      76.056  84.593  74.082  1.00  0.00    -0.026 C 
ATOM     14  C   UNL     1      74.292  84.565  75.750  1.00  0.00     0.005 C 
ATOM     15  C   UNL     1      75.616  83.877  75.384  1.00  0.00    -0.001 C 
ATOM     16  C   UNL     1      75.205  84.070  72.876  1.00  0.00     0.007 C 
ATOM     17  C   UNL     1      77.576  84.406  73.812  1.00  0.00     0.012 C 
ATOM     18  C   UNL     1      75.597  82.319  75.332  1.00  0.00     0.000 C 
ATOM     19  C   UNL     1      74.677  82.622  72.983  1.00  0.00     0.005 C 
ATOM     20  C   UNL     1      75.514  81.710  73.905  1.00  0.00     0.003 C 
ATOM     21  C   UNL     1      74.552  81.685  76.274  1.00  0.00     0.031 C 
ATOM     22  C   UNL     1      75.086  80.158  73.877  1.00  0.00    -0.008 C 
ATOM     23  C   UNL     1      74.828  80.215  76.377  1.00  0.00    -0.027 C 
ATOM     24  C   UNL     1      75.148  79.510  75.272  1.00  0.00    -0.065 C 
ATOM     25  C   UNL     1      76.100  79.408  72.961  1.00  0.00     0.014 C 
ATOM     26  C   UNL     1      73.640  79.958  73.348  1.00  0.00     0.016 C 
ATOM     27  C   UNL     1      75.644  78.093  75.446  1.00  0.00     0.063 C 
ATOM     28  C   UNL     1      75.940  77.876  72.893  1.00  0.00     0.033 C 
ATOM     29  C   UNL     1      75.403  77.229  74.194  1.00  0.00     0.118 C 
BRANCH  29  30
ATOM     30  O   UNL     1      75.950  75.946  74.362  1.00  0.00    -0.393 OA
ATOM     31  H   UNL     1      75.801  75.673  75.303  1.00  0.00     0.210 HD
ENDBRANCH  29  30
ENDBRANCH   9  11
ENDBRANCH   1   9
TORSDOF 7
ENDMDL
MODEL 5
REMARK VINA RESULT:    -3.603     19.045     22.262
REMARK INTER + INTRA:          -6.963
REMARK INTER:                  -5.202
REMARK INTRA:                  -1.761
REMARK UNBOUND:                -1.991
REMARK SMILES CC[C@H](CC[C@H](C)[C@H]1CC[C@H]2[C@H]3CC=C4C[C@H](O)CC[C@]4(C)[C@H]3CC[C@@]12C)C(C)C
REMARK SMILES IDX 5 1 4 2 3 3 2 4 1 5 28 6 29 7 30 8 6 9 7 10 8 11 9 12 26 13
REMARK SMILES IDX 10 14 11 15 25 16 27 17 12 18 24 19 23 20 13 21 21 22 14 23
REMARK SMILES IDX 15 24 20 25 22 26 16 27 19 28 17 29 18 30
REMARK H PARENT 18 31
REMARK Flexibility Score: inf
ROOT
ATOM      1  C   UNL     1      90.778  87.065  90.966  1.00  0.00     0.004 C 
ENDROOT
BRANCH   1   2
ATOM      2  C   UNL     1      91.388  85.707  90.544  1.00  0.00     0.004 C 
BRANCH   2   3
ATOM      3  C   UNL     1      90.368  84.540  90.533  1.00  0.00    -0.009 C 
BRANCH   3   4
ATOM      4  C   UNL     1      90.182  83.987  89.083  1.00  0.00     0.000 C 
ATOM      5  C   UNL     1      88.723  83.702  88.706  1.00  0.00     0.004 C 
ENDBRANCH   3   4
BRANCH   3   6
ATOM      6  C   UNL     1      90.788  83.456  91.590  1.00  0.00    -0.014 C 
ATOM      7  C   UNL     1      89.671  83.062  92.576  1.00  0.00     0.007 C 
ATOM      8  C   UNL     1      92.057  83.825  92.363  1.00  0.00     0.007 C 
ENDBRANCH   3   6
ENDBRANCH   2   3
ENDBRANCH   1   2
BRANCH   1   9
ATOM      9  C   UNL     1      90.578  88.086  89.801  1.00  0.00    -0.011 C 
ATOM     10  C   UNL     1      89.994  89.413  90.322  1.00  0.00     0.008 C 
BRANCH   9  11
ATOM     11  C   UNL     1      89.877  87.442  88.540  1.00  0.00    -0.002 C 
ATOM     12  C   UNL     1      88.394  87.783  88.319  1.00  0.00     0.005 C 
ATOM     13  C   UNL     1      90.544  87.547  87.124  1.00  0.00    -0.026 C 
ATOM     14  C   UNL     1      88.140  87.686  86.811  1.00  0.00     0.005 C 
ATOM     15  C   UNL     1      89.394  87.012  86.233  1.00  0.00    -0.001 C 
ATOM     16  C   UNL     1      90.889  89.019  86.716  1.00  0.00     0.007 C 
ATOM     17  C   UNL     1      91.803  86.638  87.040  1.00  0.00     0.012 C 
ATOM     18  C   UNL     1      89.606  87.143  84.694  1.00  0.00     0.000 C 
ATOM     19  C   UNL     1      90.624  89.406  85.243  1.00  0.00     0.005 C 
ATOM     20  C   UNL     1      90.646  88.214  84.263  1.00  0.00     0.003 C 
ATOM     21  C   UNL     1      88.289  87.289  83.903  1.00  0.00     0.031 C 
ATOM     22  C   UNL     1      90.559  88.624  82.709  1.00  0.00    -0.008 C 
ATOM     23  C   UNL     1      88.582  87.095  82.445  1.00  0.00    -0.027 C 
ATOM     24  C   UNL     1      89.678  87.657  81.897  1.00  0.00    -0.065 C 
ATOM     25  C   UNL     1      92.002  88.555  82.124  1.00  0.00     0.014 C 
ATOM     26  C   UNL     1      89.971  90.048  82.510  1.00  0.00     0.016 C 
ATOM     27  C   UNL     1      90.064  87.252  80.493  1.00  0.00     0.063 C 
ATOM     28  C   UNL     1      92.125  88.798  80.606  1.00  0.00     0.033 C 
ATOM     29  C   UNL     1      90.901  88.331  79.781  1.00  0.00     0.118 C 
BRANCH  29  30
ATOM     30  O   UNL     1      91.310  87.885  78.512  1.00  0.00    -0.393 OA
ATOM     31  H   UNL     1      91.002  86.949  78.404  1.00  0.00     0.210 HD
ENDBRANCH  29  30
ENDBRANCH   9  11
ENDBRANCH   1   9
TORSDOF 7
ENDMDL
MODEL 6
REMARK VINA RESULT:    -3.582      3.143      8.200
REMARK INTER + INTRA:          -6.934
REMARK INTER:                  -5.303
REMARK INTRA:                  -1.631
REMARK UNBOUND:                -1.991
REMARK SMILES CC[C@H](CC[C@H](C)[C@H]1CC[C@H]2[C@H]3CC=C4C[C@H](O)CC[C@]4(C)[C@H]3CC[C@@]12C)C(C)C
REMARK SMILES IDX 5 1 4 2 3 3 2 4 1 5 28 6 29 7 30 8 6 9 7 10 8 11 9 12 26 13
REMARK SMILES IDX 10 14 11 15 25 16 27 17 12 18 24 19 23 20 13 21 21 22 14 23
REMARK SMILES IDX 15 24 20 25 22 26 16 27 19 28 17 29 18 30
REMARK H PARENT 18 31
REMARK Flexibility Score: inf
ROOT
ATOM      1  C   UNL     1      73.313  74.730  81.721  1.00  0.00     0.004 C 
ENDROOT
BRANCH   1   2
ATOM      2  C   UNL     1      73.925  76.146  81.599  1.00  0.00     0.004 C 
BRANCH   2   3
ATOM      3  C   UNL     1      73.182  77.065  80.598  1.00  0.00    -0.009 C 
BRANCH   3   4
ATOM      4  C   UNL     1      73.699  78.535  80.713  1.00  0.00     0.000 C 
ATOM      5  C   UNL     1      74.505  78.816  81.987  1.00  0.00     0.004 C 
ENDBRANCH   3   4
BRANCH   3   6
ATOM      6  C   UNL     1      73.273  76.458  79.151  1.00  0.00    -0.014 C 
ATOM      7  C   UNL     1      74.108  77.294  78.162  1.00  0.00     0.007 C 
ATOM      8  C   UNL     1      71.905  76.145  78.539  1.00  0.00     0.007 C 
ENDBRANCH   3   6
ENDBRANCH   2   3
ENDBRANCH   1   2
BRANCH   1   9
ATOM      9  C   UNL     1      74.353  73.573  81.860  1.00  0.00    -0.011 C 
ATOM     10  C   UNL     1      75.633  74.062  82.564  1.00  0.00     0.008 C 
BRANCH   9  11
ATOM     11  C   UNL     1      74.541  72.758  80.520  1.00  0.00    -0.002 C 
ATOM     12  C   UNL     1      73.398  72.835  79.493  1.00  0.00     0.005 C 
ATOM     13  C   UNL     1      75.861  72.902  79.684  1.00  0.00    -0.026 C 
ATOM     14  C   UNL     1      74.030  72.621  78.114  1.00  0.00     0.005 C 
ATOM     15  C   UNL     1      75.461  72.138  78.396  1.00  0.00    -0.001 C 
ATOM     16  C   UNL     1      76.206  74.389  79.332  1.00  0.00     0.007 C 
ATOM     17  C   UNL     1      77.051  72.214  80.412  1.00  0.00     0.012 C 
ATOM     18  C   UNL     1      76.470  72.225  77.210  1.00  0.00     0.000 C 
ATOM     19  C   UNL     1      76.755  74.651  77.911  1.00  0.00     0.005 C 
ATOM     20  C   UNL     1      77.447  73.432  77.266  1.00  0.00     0.003 C 
ATOM     21  C   UNL     1      75.800  72.109  75.825  1.00  0.00     0.031 C 
ATOM     22  C   UNL     1      78.185  73.744  75.871  1.00  0.00    -0.008 C 
ATOM     23  C   UNL     1      76.867  71.894  74.793  1.00  0.00    -0.027 C 
ATOM     24  C   UNL     1      78.013  72.603  74.851  1.00  0.00    -0.065 C 
ATOM     25  C   UNL     1      79.709  73.888  76.167  1.00  0.00     0.014 C 
ATOM     26  C   UNL     1      77.649  75.037  75.199  1.00  0.00     0.016 C 
ATOM     27  C   UNL     1      79.151  72.198  73.942  1.00  0.00     0.063 C 
ATOM     28  C   UNL     1      80.619  74.072  74.936  1.00  0.00     0.033 C 
ATOM     29  C   UNL     1      80.115  73.365  73.654  1.00  0.00     0.118 C 
BRANCH  29  30
ATOM     30  O   UNL     1      81.202  72.931  72.877  1.00  0.00    -0.393 OA
ATOM     31  H   UNL     1      82.034  73.125  73.381  1.00  0.00     0.210 HD
ENDBRANCH  29  30
ENDBRANCH   9  11
ENDBRANCH   1   9
TORSDOF 7
ENDMDL
MODEL 7
REMARK VINA RESULT:    -3.560     16.619     19.421
REMARK INTER + INTRA:          -6.905
REMARK INTER:                  -4.657
REMARK INTRA:                  -2.248
REMARK UNBOUND:                -1.991
REMARK SMILES CC[C@H](CC[C@H](C)[C@H]1CC[C@H]2[C@H]3CC=C4C[C@H](O)CC[C@]4(C)[C@H]3CC[C@@]12C)C(C)C
REMARK SMILES IDX 5 1 4 2 3 3 2 4 1 5 28 6 29 7 30 8 6 9 7 10 8 11 9 12 26 13
REMARK SMILES IDX 10 14 11 15 25 16 27 17 12 18 24 19 23 20 13 21 21 22 14 23
REMARK SMILES IDX 15 24 20 25 22 26 16 27 19 28 17 29 18 30
REMARK H PARENT 18 31
REMARK Flexibility Score: inf
ROOT
ATOM      1  C   UNL     1      92.125  88.461  80.975  1.00  0.00     0.004 C 
ENDROOT
BRANCH   1   2
ATOM      2  C   UNL     1      91.792  86.992  80.619  1.00  0.00     0.004 C 
BRANCH   2   3
ATOM      3  C   UNL     1      91.954  86.009  81.805  1.00  0.00    -0.009 C 
BRANCH   3   4
ATOM      4  C   UNL     1      92.119  86.790  83.148  1.00  0.00     0.000 C 
ATOM      5  C   UNL     1      90.986  86.549  84.155  1.00  0.00     0.004 C 
ENDBRANCH   3   4
BRANCH   3   6
ATOM      6  C   UNL     1      90.774  84.971  81.800  1.00  0.00    -0.014 C 
ATOM      7  C   UNL     1      91.217  83.503  81.958  1.00  0.00     0.007 C 
ATOM      8  C   UNL     1      89.853  85.108  80.585  1.00  0.00     0.007 C 
ENDBRANCH   3   6
ENDBRANCH   2   3
ENDBRANCH   1   2
BRANCH   1   9
ATOM      9  C   UNL     1      90.890  89.415  81.051  1.00  0.00    -0.011 C 
ATOM     10  C   UNL     1      90.977  90.336  82.283  1.00  0.00     0.008 C 
BRANCH   9  11
ATOM     11  C   UNL     1      89.522  88.661  80.816  1.00  0.00    -0.002 C 
ATOM     12  C   UNL     1      88.588  88.522  82.030  1.00  0.00     0.005 C 
ATOM     13  C   UNL     1      88.592  89.062  79.619  1.00  0.00    -0.026 C 
ATOM     14  C   UNL     1      87.160  88.444  81.480  1.00  0.00     0.005 C 
ATOM     15  C   UNL     1      87.322  88.244  79.965  1.00  0.00    -0.001 C 
ATOM     16  C   UNL     1      88.247  90.590  79.595  1.00  0.00     0.007 C 
ATOM     17  C   UNL     1      89.212  88.612  78.265  1.00  0.00     0.012 C 
ATOM     18  C   UNL     1      86.065  88.532  79.088  1.00  0.00     0.000 C 
ATOM     19  C   UNL     1      86.795  90.963  79.220  1.00  0.00     0.005 C 
ATOM     20  C   UNL     1      86.073  89.905  78.359  1.00  0.00     0.003 C 
ATOM     21  C   UNL     1      84.732  88.299  79.830  1.00  0.00     0.031 C 
ATOM     22  C   UNL     1      84.632  90.363  77.807  1.00  0.00    -0.008 C 
ATOM     23  C   UNL     1      83.618  88.300  78.826  1.00  0.00    -0.027 C 
ATOM     24  C   UNL     1      83.604  89.217  77.837  1.00  0.00    -0.065 C 
ATOM     25  C   UNL     1      84.815  90.796  76.321  1.00  0.00     0.014 C 
ATOM     26  C   UNL     1      84.032  91.532  78.633  1.00  0.00     0.016 C 
ATOM     27  C   UNL     1      82.603  89.046  76.717  1.00  0.00     0.063 C 
ATOM     28  C   UNL     1      83.523  91.160  75.562  1.00  0.00     0.033 C 
ATOM     29  C   UNL     1      82.268  90.378  76.021  1.00  0.00     0.118 C 
BRANCH  29  30
ATOM     30  O   UNL     1      81.401  90.168  74.936  1.00  0.00    -0.393 OA
ATOM     31  H   UNL     1      81.740  90.696  74.168  1.00  0.00     0.210 HD
ENDBRANCH  29  30
ENDBRANCH   9  11
ENDBRANCH   1   9
TORSDOF 7
ENDMDL
MODEL 8
REMARK VINA RESULT:    -3.539     18.547     20.438
REMARK INTER + INTRA:          -6.875
REMARK INTER:                  -4.934
REMARK INTRA:                  -1.941
REMARK UNBOUND:                -1.991
REMARK SMILES CC[C@H](CC[C@H](C)[C@H]1CC[C@H]2[C@H]3CC=C4C[C@H](O)CC[C@]4(C)[C@H]3CC[C@@]12C)C(C)C
REMARK SMILES IDX 5 1 4 2 3 3 2 4 1 5 28 6 29 7 30 8 6 9 7 10 8 11 9 12 26 13
REMARK SMILES IDX 10 14 11 15 25 16 27 17 12 18 24 19 23 20 13 21 21 22 14 23
REMARK SMILES IDX 15 24 20 25 22 26 16 27 19 28 17 29 18 30
REMARK H PARENT 18 31
REMARK Flexibility Score: inf
ROOT
ATOM      1  C   UNL     1      91.594  89.041  80.757  1.00  0.00     0.004 C 
ENDROOT
BRANCH   1   2
ATOM      2  C   UNL     1      90.220  89.752  80.747  1.00  0.00     0.004 C 
BRANCH   2   3
ATOM      3  C   UNL     1      89.544  89.788  79.353  1.00  0.00    -0.009 C 
BRANCH   3   4
ATOM      4  C   UNL     1      90.284  88.837  78.358  1.00  0.00     0.000 C 
ATOM      5  C   UNL     1      89.444  87.641  77.893  1.00  0.00     0.004 C 
ENDBRANCH   3   4
BRANCH   3   6
ATOM      6  C   UNL     1      88.006  89.500  79.500  1.00  0.00    -0.014 C 
ATOM      7  C   UNL     1      87.095  90.615  78.952  1.00  0.00     0.007 C 
ATOM      8  C   UNL     1      87.591  89.145  80.931  1.00  0.00     0.007 C 
ENDBRANCH   3   6
ENDBRANCH   2   3
ENDBRANCH   1   2
BRANCH   1   9
ATOM      9  C   UNL     1      91.651  87.732  81.608  1.00  0.00    -0.011 C 
ATOM     10  C   UNL     1      92.002  86.516  80.729  1.00  0.00     0.008 C 
BRANCH   9  11
ATOM     11  C   UNL     1      90.412  87.581  82.577  1.00  0.00    -0.002 C 
ATOM     12  C   UNL     1      89.522  86.342  82.380  1.00  0.00     0.005 C 
ATOM     13  C   UNL     1      90.600  87.717  84.128  1.00  0.00    -0.026 C 
ATOM     14  C   UNL     1      88.899  86.027  83.743  1.00  0.00     0.005 C 
ATOM     15  C   UNL     1      89.206  87.251  84.620  1.00  0.00    -0.001 C 
ATOM     16  C   UNL     1      91.707  86.766  84.698  1.00  0.00     0.007 C 
ATOM     17  C   UNL     1      90.882  89.194  84.521  1.00  0.00     0.012 C 
ATOM     18  C   UNL     1      89.055  87.058  86.160  1.00  0.00     0.000 C 
ATOM     19  C   UNL     1      91.400  86.085  86.051  1.00  0.00     0.005 C 
ATOM     20  C   UNL     1      90.389  86.851  86.930  1.00  0.00     0.003 C 
ATOM     21  C   UNL     1      88.013  85.987  86.545  1.00  0.00     0.031 C 
ATOM     22  C   UNL     1      90.205  86.254  88.413  1.00  0.00    -0.008 C 
ATOM     23  C   UNL     1      87.727  86.103  88.013  1.00  0.00    -0.027 C 
ATOM     24  C   UNL     1      88.739  86.299  88.883  1.00  0.00    -0.065 C 
ATOM     25  C   UNL     1      91.041  87.141  89.384  1.00  0.00     0.014 C 
ATOM     26  C   UNL     1      90.667  84.775  88.511  1.00  0.00     0.016 C 
ATOM     27  C   UNL     1      88.396  86.640  90.315  1.00  0.00     0.063 C 
ATOM     28  C   UNL     1      90.906  86.809  90.883  1.00  0.00     0.033 C 
ATOM     29  C   UNL     1      89.520  86.256  91.295  1.00  0.00     0.118 C 
BRANCH  29  30
ATOM     30  O   UNL     1      89.201  86.664  92.602  1.00  0.00    -0.393 OA
ATOM     31  H   UNL     1      88.439  87.296  92.546  1.00  0.00     0.210 HD
ENDBRANCH  29  30
ENDBRANCH   9  11
ENDBRANCH   1   9
TORSDOF 7
ENDMDL
MODEL 9
REMARK VINA RESULT:    -3.514     13.788     15.624
REMARK INTER + INTRA:          -6.841
REMARK INTER:                  -5.014
REMARK INTRA:                  -1.827
REMARK UNBOUND:                -1.991
REMARK SMILES CC[C@H](CC[C@H](C)[C@H]1CC[C@H]2[C@H]3CC=C4C[C@H](O)CC[C@]4(C)[C@H]3CC[C@@]12C)C(C)C
REMARK SMILES IDX 5 1 4 2 3 3 2 4 1 5 28 6 29 7 30 8 6 9 7 10 8 11 9 12 26 13
REMARK SMILES IDX 10 14 11 15 25 16 27 17 12 18 24 19 23 20 13 21 21 22 14 23
REMARK SMILES IDX 15 24 20 25 22 26 16 27 19 28 17 29 18 30
REMARK H PARENT 18 31
REMARK Flexibility Score: inf
ROOT
ATOM      1  C   UNL     1      83.819  88.036  75.385  1.00  0.00     0.004 C 
ENDROOT
BRANCH   1   2
ATOM      2  C   UNL     1      83.968  89.121  74.292  1.00  0.00     0.004 C 
BRANCH   2   3
ATOM      3  C   UNL     1      84.467  90.486  74.829  1.00  0.00    -0.009 C 
BRANCH   3   4
ATOM      4  C   UNL     1      84.137  91.629  73.817  1.00  0.00     0.000 C 
ATOM      5  C   UNL     1      82.948  91.326  72.897  1.00  0.00     0.004 C 
ENDBRANCH   3   4
BRANCH   3   6
ATOM      6  C   UNL     1      83.909  90.723  76.278  1.00  0.00    -0.014 C 
ATOM      7  C   UNL     1      82.827  91.817  76.372  1.00  0.00     0.007 C 
ATOM      8  C   UNL     1      85.005  90.987  77.314  1.00  0.00     0.007 C 
ENDBRANCH   3   6
ENDBRANCH   2   3
ENDBRANCH   1   2
BRANCH   1   9
ATOM      9  C   UNL     1      82.405  87.377  75.468  1.00  0.00    -0.011 C 
ATOM     10  C   UNL     1      82.241  86.284  74.393  1.00  0.00     0.008 C 
BRANCH   9  11
ATOM     11  C   UNL     1      81.243  88.439  75.590  1.00  0.00    -0.002 C 
ATOM     12  C   UNL     1      80.234  88.504  74.430  1.00  0.00     0.005 C 
ATOM     13  C   UNL     1      80.380  88.522  76.897  1.00  0.00    -0.026 C 
ATOM     14  C   UNL     1      78.914  89.006  75.023  1.00  0.00     0.005 C 
ATOM     15  C   UNL     1      79.266  89.496  76.436  1.00  0.00    -0.001 C 
ATOM     16  C   UNL     1      79.747  87.147  77.302  1.00  0.00     0.007 C 
ATOM     17  C   UNL     1      81.211  89.116  78.070  1.00  0.00     0.012 C 
ATOM     18  C   UNL     1      78.074  89.685  77.423  1.00  0.00     0.000 C 
ATOM     19  C   UNL     1      78.295  87.187  77.832  1.00  0.00     0.005 C 
ATOM     20  C   UNL     1      77.887  88.539  78.455  1.00  0.00     0.003 C 
ATOM     21  C   UNL     1      76.744  90.029  76.720  1.00  0.00     0.031 C 
ATOM     22  C   UNL     1      76.449  88.534  79.177  1.00  0.00    -0.008 C 
ATOM     23  C   UNL     1      75.760  90.489  77.755  1.00  0.00    -0.027 C 
ATOM     24  C   UNL     1      75.667  89.838  78.932  1.00  0.00    -0.065 C 
ATOM     25  C   UNL     1      76.694  88.410  80.712  1.00  0.00     0.014 C 
ATOM     26  C   UNL     1      75.549  87.368  78.686  1.00  0.00     0.016 C 
ATOM     27  C   UNL     1      74.839  90.463  80.032  1.00  0.00     0.063 C 
ATOM     28  C   UNL     1      75.440  88.508  81.604  1.00  0.00     0.033 C 
ATOM     29  C   UNL     1      74.323  89.421  81.041  1.00  0.00     0.118 C 
BRANCH  29  30
ATOM     30  O   UNL     1      73.630  90.047  82.091  1.00  0.00    -0.393 OA
ATOM     31  H   UNL     1      72.883  89.452  82.360  1.00  0.00     0.210 HD
ENDBRANCH  29  30
ENDBRANCH   9  11
ENDBRANCH   1   9
TORSDOF 7
ENDMDL
