MODEL 1
REMARK VINA RESULT:    -2.615      0.000      0.000
REMARK INTER + INTRA:          -2.615
REMARK INTER:                  -2.615
REMARK INTRA:                   0.000
REMARK UNBOUND:                 0.000
REMARK SMILES CC(=O)[O-]
REMARK SMILES IDX 1 1 2 2 3 3 4 4
REMARK H PARENT
REMARK Flexibility Score: inf
ROOT
ATOM      1  C   UNL     1      38.906  51.679  35.604  1.00  0.00     0.063 C 
ATOM      2  C   UNL     1      39.174  50.815  34.419  1.00  0.00     0.038 C 
ATOM      3  O   UNL     1      38.228  50.205  33.855  1.00  0.00    -0.550 OA
ATOM      4  O   UNL     1      40.460  50.724  33.900  1.00  0.00    -0.550 OA
ENDROOT
TORSDOF 0
ENDMDL
MODEL 2
REMARK VINA RESULT:    -2.306      1.690      1.951
REMARK INTER + INTRA:          -2.306
REMARK INTER:                  -2.306
REMARK INTRA:                   0.000
REMARK UNBOUND:                 0.000
REMARK SMILES CC(=O)[O-]
REMARK SMILES IDX 1 1 2 2 3 3 4 4
REMARK H PARENT
REMARK Flexibility Score: inf
ROOT
ATOM      1  C   UNL     1      38.848  50.618  34.049  1.00  0.00     0.063 C 
ATOM      2  C   UNL     1      39.370  51.338  35.246  1.00  0.00     0.038 C 
ATOM      3  O   UNL     1      38.574  51.762  36.125  1.00  0.00    -0.550 OA
ATOM      4  O   UNL     1      40.739  51.494  35.423  1.00  0.00    -0.550 OA
ENDROOT
TORSDOF 0
ENDMDL
MODEL 3
REMARK VINA RESULT:    -2.144     18.528     18.823
REMARK INTER + INTRA:          -2.144
REMARK INTER:                  -2.144
REMARK INTRA:                   0.000
REMARK UNBOUND:                 0.000
REMARK SMILES CC(=O)[O-]
REMARK SMILES IDX 1 1 2 2 3 3 4 4
REMARK H PARENT
REMARK Flexibility Score: inf
ROOT
ATOM      1  C   UNL     1      38.440  39.744  19.294  1.00  0.00     0.063 C 
ATOM      2  C   UNL     1      37.360  39.038  20.041  1.00  0.00     0.038 C 
ATOM      3  O   UNL     1      36.309  39.652  20.364  1.00  0.00    -0.550 OA
ATOM      4  O   UNL     1      37.486  37.686  20.336  1.00  0.00    -0.550 OA
ENDROOT
TORSDOF 0
ENDMDL
MODEL 4
REMARK VINA RESULT:    -2.069     18.463     18.735
REMARK INTER + INTRA:          -2.069
REMARK INTER:                  -2.069
REMARK INTRA:                   0.000
REMARK UNBOUND:                 0.000
REMARK SMILES CC(=O)[O-]
REMARK SMILES IDX 1 1 2 2 3 3 4 4
REMARK H PARENT
REMARK Flexibility Score: inf
ROOT
ATOM      1  C   UNL     1      37.624  37.770  20.167  1.00  0.00     0.063 C 
ATOM      2  C   UNL     1      37.343  39.222  19.979  1.00  0.00     0.038 C 
ATOM      3  O   UNL     1      36.267  39.717  20.406  1.00  0.00    -0.550 OA
ATOM      4  O   UNL     1      38.290  40.043  19.380  1.00  0.00    -0.550 OA
ENDROOT
TORSDOF 0
ENDMDL
MODEL 5
REMARK VINA RESULT:    -2.047     18.976     19.179
REMARK INTER + INTRA:          -2.047
REMARK INTER:                  -2.047
REMARK INTRA:                   0.000
REMARK UNBOUND:                 0.000
REMARK SMILES CC(=O)[O-]
REMARK SMILES IDX 1 1 2 2 3 3 4 4
REMARK H PARENT
REMARK Flexibility Score: inf
ROOT
ATOM      1  C   UNL     1      36.913  39.474  20.244  1.00  0.00     0.063 C 
ATOM      2  C   UNL     1      37.757  38.258  20.066  1.00  0.00     0.038 C 
ATOM      3  O   UNL     1      37.404  37.163  20.578  1.00  0.00    -0.550 OA
ATOM      4  O   UNL     1      38.907  38.317  19.289  1.00  0.00    -0.550 OA
ENDROOT
TORSDOF 0
ENDMDL
MODEL 6
REMARK VINA RESULT:    -2.022     11.280     11.823
REMARK INTER + INTRA:          -2.022
REMARK INTER:                  -2.022
REMARK INTRA:                   0.000
REMARK UNBOUND:                 0.000
REMARK SMILES CC(=O)[O-]
REMARK SMILES IDX 1 1 2 2 3 3 4 4
REMARK H PARENT
REMARK Flexibility Score: inf
ROOT
ATOM      1  C   UNL     1      35.083  46.906  24.145  1.00  0.00     0.063 C 
ATOM      2  C   UNL     1      34.032  46.243  24.970  1.00  0.00     0.038 C 
ATOM      3  O   UNL     1      33.229  45.432  24.436  1.00  0.00    -0.550 OA
ATOM      4  O   UNL     1      33.971  46.475  26.338  1.00  0.00    -0.550 OA
ENDROOT
TORSDOF 0
ENDMDL
MODEL 7
REMARK VINA RESULT:    -1.975     11.205     11.771
REMARK INTER + INTRA:          -1.975
REMARK INTER:                  -1.975
REMARK INTRA:                   0.000
REMARK UNBOUND:                 0.000
REMARK SMILES CC(=O)[O-]
REMARK SMILES IDX 1 1 2 2 3 3 4 4
REMARK H PARENT
REMARK Flexibility Score: inf
ROOT
ATOM      1  C   UNL     1      33.055  45.546  24.332  1.00  0.00     0.063 C 
ATOM      2  C   UNL     1      34.074  46.346  25.070  1.00  0.00     0.038 C 
ATOM      3  O   UNL     1      33.985  46.484  26.319  1.00  0.00    -0.550 OA
ATOM      4  O   UNL     1      35.153  46.895  24.391  1.00  0.00    -0.550 OA
ENDROOT
TORSDOF 0
ENDMDL
MODEL 8
REMARK VINA RESULT:    -1.973     11.029     11.458
REMARK INTER + INTRA:          -1.973
REMARK INTER:                  -1.973
REMARK INTRA:                   0.000
REMARK UNBOUND:                 0.000
REMARK SMILES CC(=O)[O-]
REMARK SMILES IDX 1 1 2 2 3 3 4 4
REMARK H PARENT
REMARK Flexibility Score: inf
ROOT
ATOM      1  C   UNL     1      33.628  47.211  26.345  1.00  0.00     0.063 C 
ATOM      2  C   UNL     1      34.084  46.418  25.168  1.00  0.00     0.038 C 
ATOM      3  O   UNL     1      33.487  45.355  24.853  1.00  0.00    -0.550 OA
ATOM      4  O   UNL     1      35.134  46.878  24.383  1.00  0.00    -0.550 OA
ENDROOT
TORSDOF 0
ENDMDL
MODEL 9
REMARK VINA RESULT:    -1.692     27.603     27.940
REMARK INTER + INTRA:          -1.692
REMARK INTER:                  -1.692
REMARK INTRA:                   0.000
REMARK UNBOUND:                 0.000
REMARK SMILES CC(=O)[O-]
REMARK SMILES IDX 1 1 2 2 3 3 4 4
REMARK H PARENT
REMARK Flexibility Score: inf
ROOT
ATOM      1  C   UNL     1      21.453  37.117  18.074  1.00  0.00     0.063 C 
ATOM      2  C   UNL     1      22.482  36.681  17.087  1.00  0.00     0.038 C 
ATOM      3  O   UNL     1      22.372  37.004  15.875  1.00  0.00    -0.550 OA
ATOM      4  O   UNL     1      23.594  35.965  17.512  1.00  0.00    -0.550 OA
ENDROOT
TORSDOF 0
ENDMDL
