MODEL 1
REMARK VINA RESULT:    -3.092      0.000      0.000
REMARK INTER + INTRA:          -3.813
REMARK INTER:                  -3.725
REMARK INTRA:                  -0.089
REMARK UNBOUND:                -0.089
REMARK SMILES CC[C@@H](C)[C@@H]([NH3+])C(=O)[O-]
REMARK SMILES IDX 3 1 4 2 5 3 6 4 7 8 8 9 9 10 2 11 1 12
REMARK H PARENT 6 5 6 6 6 7
REMARK Flexibility Score: inf
ROOT
ATOM      1  C   UNL     1     143.184 109.908 103.777  1.00  0.00     0.050 C 
ATOM      2  C   UNL     1     144.312 109.509 102.803  1.00  0.00     0.014 C 
ENDROOT
BRANCH   1   3
ATOM      3  C   UNL     1     142.699 108.719 104.664  1.00  0.00     0.230 C 
BRANCH   3   4
ATOM      4  N   UNL     1     142.659 109.074 106.091  1.00  0.00    -0.350 N 
ATOM      5  H   UNL     1     142.356 108.242 106.647  1.00  0.00     0.345 HD
ATOM      6  H   UNL     1     143.612 109.353 106.418  1.00  0.00     0.345 HD
ATOM      7  H   UNL     1     141.990 109.855 106.276  1.00  0.00     0.345 HD
ENDBRANCH   3   4
BRANCH   3   8
ATOM      8  C   UNL     1     141.371 108.159 104.211  1.00  0.00     0.099 C 
ATOM      9  O   UNL     1     140.488 107.835 105.048  1.00  0.00    -0.544 OA
ATOM     10  O   UNL     1     141.103 108.032 102.853  1.00  0.00    -0.544 OA
ENDBRANCH   3   8
ENDBRANCH   1   3
BRANCH   1  11
ATOM     11  C   UNL     1     143.607 111.111 104.659  1.00  0.00     0.006 C 
ATOM     12  C   UNL     1     145.095 111.446 104.542  1.00  0.00     0.004 C 
ENDBRANCH   1  11
TORSDOF 4
ENDMDL
MODEL 2
REMARK VINA RESULT:    -3.076      6.818      7.666
REMARK INTER + INTRA:          -3.794
REMARK INTER:                  -3.644
REMARK INTRA:                  -0.150
REMARK UNBOUND:                -0.089
REMARK SMILES CC[C@@H](C)[C@@H]([NH3+])C(=O)[O-]
REMARK SMILES IDX 3 1 4 2 5 3 6 4 7 8 8 9 9 10 2 11 1 12
REMARK H PARENT 6 5 6 6 6 7
REMARK Flexibility Score: inf
ROOT
ATOM      1  C   UNL     1     136.729 106.408 100.318  1.00  0.00     0.050 C 
ATOM      2  C   UNL     1     135.705 106.669  99.194  1.00  0.00     0.014 C 
ENDROOT
BRANCH   1   3
ATOM      3  C   UNL     1     137.990 105.633  99.823  1.00  0.00     0.230 C 
BRANCH   3   4
ATOM      4  N   UNL     1     139.186 106.489  99.786  1.00  0.00    -0.350 N 
ATOM      5  H   UNL     1     139.883 106.141 100.483  1.00  0.00     0.345 HD
ATOM      6  H   UNL     1     139.627 106.448  98.839  1.00  0.00     0.345 HD
ATOM      7  H   UNL     1     138.957 107.482 100.016  1.00  0.00     0.345 HD
ENDBRANCH   3   4
BRANCH   3   8
ATOM      8  C   UNL     1     138.251 104.378 100.622  1.00  0.00     0.099 C 
ATOM      9  O   UNL     1     138.292 104.411 101.881  1.00  0.00    -0.544 OA
ATOM     10  O   UNL     1     138.413 103.163  99.967  1.00  0.00    -0.544 OA
ENDBRANCH   3   8
ENDBRANCH   1   3
BRANCH   1  11
ATOM     11  C   UNL     1     137.140 107.729 101.018  1.00  0.00     0.006 C 
ATOM     12  C   UNL     1     136.915 107.702 102.531  1.00  0.00     0.004 C 
ENDBRANCH   1  11
TORSDOF 4
ENDMDL
MODEL 3
REMARK VINA RESULT:    -3.070      1.909      3.171
REMARK INTER + INTRA:          -3.787
REMARK INTER:                  -3.636
REMARK INTRA:                  -0.151
REMARK UNBOUND:                -0.089
REMARK SMILES CC[C@@H](C)[C@@H]([NH3+])C(=O)[O-]
REMARK SMILES IDX 3 1 4 2 5 3 6 4 7 8 8 9 9 10 2 11 1 12
REMARK H PARENT 6 5 6 6 6 7
REMARK Flexibility Score: inf
ROOT
ATOM      1  C   UNL     1     143.152 110.188 104.577  1.00  0.00     0.050 C 
ATOM      2  C   UNL     1     143.763 111.455 105.210  1.00  0.00     0.014 C 
ENDROOT
BRANCH   1   3
ATOM      3  C   UNL     1     144.162 109.411 103.676  1.00  0.00     0.230 C 
BRANCH   3   4
ATOM      4  N   UNL     1     144.586 108.142 104.286  1.00  0.00    -0.350 N 
ATOM      5  H   UNL     1     145.603 107.988 104.099  1.00  0.00     0.345 HD
ATOM      6  H   UNL     1     144.449 108.179 105.322  1.00  0.00     0.345 HD
ATOM      7  H   UNL     1     144.054 107.330 103.898  1.00  0.00     0.345 HD
ENDBRANCH   3   4
BRANCH   3   8
ATOM      8  C   UNL     1     143.639 109.187 102.276  1.00  0.00     0.099 C 
ATOM      9  O   UNL     1     142.490 108.709 102.085  1.00  0.00    -0.544 OA
ATOM     10  O   UNL     1     144.419 109.545 101.183  1.00  0.00    -0.544 OA
ENDBRANCH   3   8
ENDBRANCH   1   3
BRANCH   1  11
ATOM     11  C   UNL     1     142.557 109.253 105.661  1.00  0.00     0.006 C 
ATOM     12  C   UNL     1     141.123 108.818 105.357  1.00  0.00     0.004 C 
ENDBRANCH   1  11
TORSDOF 4
ENDMDL
MODEL 4
REMARK VINA RESULT:    -3.049      8.018      8.634
REMARK INTER + INTRA:          -3.761
REMARK INTER:                  -3.708
REMARK INTRA:                  -0.053
REMARK UNBOUND:                -0.089
REMARK SMILES CC[C@@H](C)[C@@H]([NH3+])C(=O)[O-]
REMARK SMILES IDX 3 1 4 2 5 3 6 4 7 8 8 9 9 10 2 11 1 12
REMARK H PARENT 6 5 6 6 6 7
REMARK Flexibility Score: inf
ROOT
ATOM      1  C   UNL     1     141.018 101.977 107.826  1.00  0.00     0.050 C 
ATOM      2  C   UNL     1     140.283 100.666 108.176  1.00  0.00     0.014 C 
ENDROOT
BRANCH   1   3
ATOM      3  C   UNL     1     141.328 102.110 106.302  1.00  0.00     0.230 C 
BRANCH   3   4
ATOM      4  N   UNL     1     142.374 103.109 106.036  1.00  0.00    -0.350 N 
ATOM      5  H   UNL     1     142.028 103.794 105.327  1.00  0.00     0.345 HD
ATOM      6  H   UNL     1     142.599 103.636 106.911  1.00  0.00     0.345 HD
ATOM      7  H   UNL     1     143.246 102.667 105.668  1.00  0.00     0.345 HD
ENDBRANCH   3   4
BRANCH   3   8
ATOM      8  C   UNL     1     141.673 100.786 105.662  1.00  0.00     0.099 C 
ATOM      9  O   UNL     1     142.798 100.252 105.849  1.00  0.00    -0.544 OA
ATOM     10  O   UNL     1     140.727 100.129 104.884  1.00  0.00    -0.544 OA
ENDBRANCH   3   8
ENDBRANCH   1   3
BRANCH   1  11
ATOM     11  C   UNL     1     140.229 103.212 108.332  1.00  0.00     0.006 C 
ATOM     12  C   UNL     1     139.083 103.615 107.402  1.00  0.00     0.004 C 
ENDBRANCH   1  11
TORSDOF 4
ENDMDL
MODEL 5
REMARK VINA RESULT:    -3.044      7.649      8.588
REMARK INTER + INTRA:          -3.755
REMARK INTER:                  -3.633
REMARK INTRA:                  -0.122
REMARK UNBOUND:                -0.089
REMARK SMILES CC[C@@H](C)[C@@H]([NH3+])C(=O)[O-]
REMARK SMILES IDX 3 1 4 2 5 3 6 4 7 8 8 9 9 10 2 11 1 12
REMARK H PARENT 6 5 6 6 6 7
REMARK Flexibility Score: inf
ROOT
ATOM      1  C   UNL     1     141.302 101.932 107.905  1.00  0.00     0.050 C 
ATOM      2  C   UNL     1     140.292 101.015 108.624  1.00  0.00     0.014 C 
ENDROOT
BRANCH   1   3
ATOM      3  C   UNL     1     141.925 101.272 106.635  1.00  0.00     0.230 C 
BRANCH   3   4
ATOM      4  N   UNL     1     140.936 101.093 105.562  1.00  0.00    -0.350 N 
ATOM      5  H   UNL     1     141.263 100.344 104.910  1.00  0.00     0.345 HD
ATOM      6  H   UNL     1     140.019 100.792 105.966  1.00  0.00     0.345 HD
ATOM      7  H   UNL     1     140.798 101.971 105.013  1.00  0.00     0.345 HD
ENDBRANCH   3   4
BRANCH   3   8
ATOM      8  C   UNL     1     143.138 102.017 106.130  1.00  0.00     0.099 C 
ATOM      9  O   UNL     1     143.190 102.436 104.943  1.00  0.00    -0.544 OA
ATOM     10  O   UNL     1     144.197 102.277 106.991  1.00  0.00    -0.544 OA
ENDBRANCH   3   8
ENDBRANCH   1   3
BRANCH   1  11
ATOM     11  C   UNL     1     140.661 103.299 107.551  1.00  0.00     0.006 C 
ATOM     12  C   UNL     1     139.166 103.361 107.868  1.00  0.00     0.004 C 
ENDBRANCH   1  11
TORSDOF 4
ENDMDL
MODEL 6
REMARK VINA RESULT:    -3.031     17.395     18.525
REMARK INTER + INTRA:          -3.740
REMARK INTER:                  -3.684
REMARK INTRA:                  -0.056
REMARK UNBOUND:                -0.089
REMARK SMILES CC[C@@H](C)[C@@H]([NH3+])C(=O)[O-]
REMARK SMILES IDX 3 1 4 2 5 3 6 4 7 8 8 9 9 10 2 11 1 12
REMARK H PARENT 6 5 6 6 6 7
REMARK Flexibility Score: inf
ROOT
ATOM      1  C   UNL     1     126.196 114.589 110.247  1.00  0.00     0.050 C 
ATOM      2  C   UNL     1     125.699 113.854 111.509  1.00  0.00     0.014 C 
ENDROOT
BRANCH   1   3
ATOM      3  C   UNL     1     126.847 115.971 110.565  1.00  0.00     0.230 C 
BRANCH   3   4
ATOM      4  N   UNL     1     125.951 117.092 110.244  1.00  0.00    -0.350 N 
ATOM      5  H   UNL     1     125.597 116.984 109.266  1.00  0.00     0.345 HD
ATOM      6  H   UNL     1     125.127 117.089 110.888  1.00  0.00     0.345 HD
ATOM      7  H   UNL     1     126.441 118.012 110.317  1.00  0.00     0.345 HD
ENDBRANCH   3   4
BRANCH   3   8
ATOM      8  C   UNL     1     127.339 116.067 111.990  1.00  0.00     0.099 C 
ATOM      9  O   UNL     1     128.450 115.575 112.324  1.00  0.00    -0.544 OA
ATOM     10  O   UNL     1     126.577 116.736 112.940  1.00  0.00    -0.544 OA
ENDBRANCH   3   8
ENDBRANCH   1   3
BRANCH   1  11
ATOM     11  C   UNL     1     127.171 113.701 109.431  1.00  0.00     0.006 C 
ATOM     12  C   UNL     1     127.909 112.674 110.292  1.00  0.00     0.004 C 
ENDBRANCH   1  11
TORSDOF 4
ENDMDL
MODEL 7
REMARK VINA RESULT:    -3.028      7.302      8.447
REMARK INTER + INTRA:          -3.736
REMARK INTER:                  -3.609
REMARK INTRA:                  -0.128
REMARK UNBOUND:                -0.089
REMARK SMILES CC[C@@H](C)[C@@H]([NH3+])C(=O)[O-]
REMARK SMILES IDX 3 1 4 2 5 3 6 4 7 8 8 9 9 10 2 11 1 12
REMARK H PARENT 6 5 6 6 6 7
REMARK Flexibility Score: inf
ROOT
ATOM      1  C   UNL     1     140.568 101.453 107.491  1.00  0.00     0.050 C 
ATOM      2  C   UNL     1     140.683 100.951 108.945  1.00  0.00     0.014 C 
ENDROOT
BRANCH   1   3
ATOM      3  C   UNL     1     140.630 103.009 107.379  1.00  0.00     0.230 C 
BRANCH   3   4
ATOM      4  N   UNL     1     141.791 103.462 106.599  1.00  0.00    -0.350 N 
ATOM      5  H   UNL     1     142.523 102.715 106.601  1.00  0.00     0.345 HD
ATOM      6  H   UNL     1     141.511 103.637 105.607  1.00  0.00     0.345 HD
ATOM      7  H   UNL     1     142.209 104.332 106.998  1.00  0.00     0.345 HD
ENDBRANCH   3   4
BRANCH   3   8
ATOM      8  C   UNL     1     139.351 103.604 106.836  1.00  0.00     0.099 C 
ATOM      9  O   UNL     1     138.663 104.398 107.531  1.00  0.00    -0.544 OA
ATOM     10  O   UNL     1     138.945 103.301 105.542  1.00  0.00    -0.544 OA
ENDBRANCH   3   8
ENDBRANCH   1   3
BRANCH   1  11
ATOM     11  C   UNL     1     141.643 100.798 106.587  1.00  0.00     0.006 C 
ATOM     12  C   UNL     1     141.047 100.014 105.417  1.00  0.00     0.004 C 
ENDBRANCH   1  11
TORSDOF 4
ENDMDL
MODEL 8
REMARK VINA RESULT:    -3.021      6.164      7.258
REMARK INTER + INTRA:          -3.728
REMARK INTER:                  -3.605
REMARK INTRA:                  -0.123
REMARK UNBOUND:                -0.089
REMARK SMILES CC[C@@H](C)[C@@H]([NH3+])C(=O)[O-]
REMARK SMILES IDX 3 1 4 2 5 3 6 4 7 8 8 9 9 10 2 11 1 12
REMARK H PARENT 6 5 6 6 6 7
REMARK Flexibility Score: inf
ROOT
ATOM      1  C   UNL     1     137.115 107.596 100.976  1.00  0.00     0.050 C 
ATOM      2  C   UNL     1     136.854 107.763 102.487  1.00  0.00     0.014 C 
ENDROOT
BRANCH   1   3
ATOM      3  C   UNL     1     138.424 106.803 100.669  1.00  0.00     0.230 C 
BRANCH   3   4
ATOM      4  N   UNL     1     139.580 107.693 100.485  1.00  0.00    -0.350 N 
ATOM      5  H   UNL     1     140.214 107.614 101.313  1.00  0.00     0.345 HD
ATOM      6  H   UNL     1     140.120 107.409  99.636  1.00  0.00     0.345 HD
ATOM      7  H   UNL     1     139.287 108.691 100.388  1.00  0.00     0.345 HD
ENDBRANCH   3   4
BRANCH   3   8
ATOM      8  C   UNL     1     138.718 105.745 101.707  1.00  0.00     0.099 C 
ATOM      9  O   UNL     1     138.115 104.639 101.691  1.00  0.00    -0.544 OA
ATOM     10  O   UNL     1     139.691 105.977 102.671  1.00  0.00    -0.544 OA
ENDBRANCH   3   8
ENDBRANCH   1   3
BRANCH   1  11
ATOM     11  C   UNL     1     135.901 106.941 100.269  1.00  0.00     0.006 C 
ATOM     12  C   UNL     1     136.235 106.407  98.875  1.00  0.00     0.004 C 
ENDBRANCH   1  11
TORSDOF 4
ENDMDL
MODEL 9
REMARK VINA RESULT:    -2.994     16.573     17.271
REMARK INTER + INTRA:          -3.695
REMARK INTER:                  -3.625
REMARK INTRA:                  -0.070
REMARK UNBOUND:                -0.089
REMARK SMILES CC[C@@H](C)[C@@H]([NH3+])C(=O)[O-]
REMARK SMILES IDX 3 1 4 2 5 3 6 4 7 8 8 9 9 10 2 11 1 12
REMARK H PARENT 6 5 6 6 6 7
REMARK Flexibility Score: inf
ROOT
ATOM      1  C   UNL     1     131.229 117.053 113.950  1.00  0.00     0.050 C 
ATOM      2  C   UNL     1     130.639 115.789 113.292  1.00  0.00     0.014 C 
ENDROOT
BRANCH   1   3
ATOM      3  C   UNL     1     131.705 116.809 115.417  1.00  0.00     0.230 C 
BRANCH   3   4
ATOM      4  N   UNL     1     132.054 118.064 116.100  1.00  0.00    -0.350 N 
ATOM      5  H   UNL     1     133.093 118.182 116.100  1.00  0.00     0.345 HD
ATOM      6  H   UNL     1     131.636 118.877 115.594  1.00  0.00     0.345 HD
ATOM      7  H   UNL     1     131.723 118.069 117.091  1.00  0.00     0.345 HD
ENDBRANCH   3   4
BRANCH   3   8
ATOM      8  C   UNL     1     130.708 116.014 116.226  1.00  0.00     0.099 C 
ATOM      9  O   UNL     1     129.588 116.503 116.531  1.00  0.00    -0.544 OA
ATOM     10  O   UNL     1     131.012 114.714 116.611  1.00  0.00    -0.544 OA
ENDBRANCH   3   8
ENDBRANCH   1   3
BRANCH   1  11
ATOM     11  C   UNL     1     132.379 117.643 113.094  1.00  0.00     0.006 C 
ATOM     12  C   UNL     1     132.786 116.738 111.930  1.00  0.00     0.004 C 
ENDBRANCH   1  11
TORSDOF 4
ENDMDL
