MODEL 1
REMARK VINA RESULT:    -4.523      0.000      0.000
REMARK INTER + INTRA:          -9.277
REMARK INTER:                  -7.696
REMARK INTRA:                  -1.581
REMARK UNBOUND:                -1.581
REMARK SMILES CCCCCCCCCCCCCC(=O)[O-]
REMARK SMILES IDX 8 1 9 2 10 3 11 4 12 5 13 6 14 7 15 8 16 9 7 10 6 11 5 12
REMARK SMILES IDX 4 13 3 14 2 15 1 16
REMARK H PARENT
REMARK Flexibility Score: inf
ROOT
ATOM      1  C   UNL     1      13.425  35.973  21.613  1.00  0.00     0.000 C 
ENDROOT
BRANCH   1   2
ATOM      2  C   UNL     1      12.841  37.384  21.785  1.00  0.00     0.000 C 
BRANCH   2   3
ATOM      3  C   UNL     1      12.960  37.903  23.227  1.00  0.00     0.000 C 
BRANCH   3   4
ATOM      4  C   UNL     1      11.726  38.724  23.618  1.00  0.00     0.000 C 
BRANCH   4   5
ATOM      5  C   UNL     1      10.771  37.900  24.494  1.00  0.00     0.006 C 
BRANCH   5   6
ATOM      6  C   UNL     1       9.313  38.357  24.353  1.00  0.00     0.053 C 
BRANCH   6   7
ATOM      7  C   UNL     1       8.873  39.183  25.523  1.00  0.00     0.041 C 
ATOM      8  O   UNL     1       8.242  38.651  26.473  1.00  0.00    -0.550 OA
ATOM      9  O   UNL     1       9.191  40.534  25.578  1.00  0.00    -0.550 OA
ENDBRANCH   6   7
ENDBRANCH   5   6
ENDBRANCH   4   5
ENDBRANCH   3   4
ENDBRANCH   2   3
ENDBRANCH   1   2
BRANCH   1  10
ATOM     10  C   UNL     1      12.375  34.870  21.824  1.00  0.00     0.000 C 
BRANCH  10  11
ATOM     11  C   UNL     1      10.946  35.425  21.955  1.00  0.00    -0.000 C 
BRANCH  11  12
ATOM     12  C   UNL     1      10.141  34.799  23.113  1.00  0.00    -0.000 C 
BRANCH  12  13
ATOM     13  C   UNL     1      10.568  33.347  23.397  1.00  0.00    -0.000 C 
BRANCH  13  14
ATOM     14  C   UNL     1      11.038  33.139  24.845  1.00  0.00    -0.000 C 
BRANCH  14  15
ATOM     15  C   UNL     1      11.422  34.456  25.537  1.00  0.00    -0.003 C 
ATOM     16  C   UNL     1      12.907  34.756  25.360  1.00  0.00     0.004 C 
ENDBRANCH  14  15
ENDBRANCH  13  14
ENDBRANCH  12  13
ENDBRANCH  11  12
ENDBRANCH  10  11
ENDBRANCH   1  10
TORSDOF 12
ENDMDL
MODEL 2
REMARK VINA RESULT:    -4.364      1.013      3.456
REMARK INTER + INTRA:          -9.006
REMARK INTER:                  -7.839
REMARK INTRA:                  -1.166
REMARK UNBOUND:                -1.581
REMARK SMILES CCCCCCCCCCCCCC(=O)[O-]
REMARK SMILES IDX 8 1 9 2 10 3 11 4 12 5 13 6 14 7 15 8 16 9 7 10 6 11 5 12
REMARK SMILES IDX 4 13 3 14 2 15 1 16
REMARK H PARENT
REMARK Flexibility Score: inf
ROOT
ATOM      1  C   UNL     1      10.484  33.168  23.257  1.00  0.00     0.000 C 
ENDROOT
BRANCH   1   2
ATOM      2  C   UNL     1       9.326  34.149  23.018  1.00  0.00     0.000 C 
BRANCH   2   3
ATOM      3  C   UNL     1       9.777  35.439  22.314  1.00  0.00     0.000 C 
BRANCH   3   4
ATOM      4  C   UNL     1       8.796  36.585  22.588  1.00  0.00     0.000 C 
BRANCH   4   5
ATOM      5  C   UNL     1       9.241  37.413  23.802  1.00  0.00     0.006 C 
BRANCH   5   6
ATOM      6  C   UNL     1       8.145  38.373  24.283  1.00  0.00     0.053 C 
BRANCH   6   7
ATOM      7  C   UNL     1       8.568  39.132  25.504  1.00  0.00     0.041 C 
ATOM      8  O   UNL     1       8.191  38.757  26.645  1.00  0.00    -0.550 OA
ATOM      9  O   UNL     1       9.405  40.234  25.383  1.00  0.00    -0.550 OA
ENDBRANCH   6   7
ENDBRANCH   5   6
ENDBRANCH   4   5
ENDBRANCH   3   4
ENDBRANCH   2   3
ENDBRANCH   1   2
BRANCH   1  10
ATOM     10  C   UNL     1      10.796  32.975  24.751  1.00  0.00     0.000 C 
BRANCH  10  11
ATOM     11  C   UNL     1      11.608  34.140  25.345  1.00  0.00    -0.000 C 
BRANCH  11  12
ATOM     12  C   UNL     1      12.836  34.535  24.498  1.00  0.00    -0.000 C 
BRANCH  12  13
ATOM     13  C   UNL     1      12.669  35.920  23.848  1.00  0.00    -0.000 C 
BRANCH  13  14
ATOM     14  C   UNL     1      13.030  35.923  22.355  1.00  0.00    -0.000 C 
BRANCH  14  15
ATOM     15  C   UNL     1      13.137  37.341  21.774  1.00  0.00    -0.003 C 
ATOM     16  C   UNL     1      13.038  38.394  22.874  1.00  0.00     0.004 C 
ENDBRANCH  14  15
ENDBRANCH  13  14
ENDBRANCH  12  13
ENDBRANCH  11  12
ENDBRANCH  10  11
ENDBRANCH   1  10
TORSDOF 12
ENDMDL
MODEL 3
REMARK VINA RESULT:    -4.239      2.675      5.118
REMARK INTER + INTRA:          -8.794
REMARK INTER:                  -7.928
REMARK INTRA:                  -0.866
REMARK UNBOUND:                -1.581
REMARK SMILES CCCCCCCCCCCCCC(=O)[O-]
REMARK SMILES IDX 8 1 9 2 10 3 11 4 12 5 13 6 14 7 15 8 16 9 7 10 6 11 5 12
REMARK SMILES IDX 4 13 3 14 2 15 1 16
REMARK H PARENT
REMARK Flexibility Score: inf
ROOT
ATOM      1  C   UNL     1      13.492  37.334  22.462  1.00  0.00     0.000 C 
ENDROOT
BRANCH   1   2
ATOM      2  C   UNL     1      12.961  37.111  21.037  1.00  0.00     0.000 C 
BRANCH   2   3
ATOM      3  C   UNL     1      12.367  35.708  20.838  1.00  0.00     0.000 C 
BRANCH   3   4
ATOM      4  C   UNL     1      12.785  34.769  21.976  1.00  0.00     0.000 C 
BRANCH   4   5
ATOM      5  C   UNL     1      11.562  34.284  22.768  1.00  0.00     0.006 C 
BRANCH   5   6
ATOM      6  C   UNL     1      11.844  34.194  24.274  1.00  0.00     0.053 C 
BRANCH   6   7
ATOM      7  C   UNL     1      11.047  33.105  24.925  1.00  0.00     0.041 C 
ATOM      8  O   UNL     1      10.923  33.072  26.177  1.00  0.00    -0.550 OA
ATOM      9  O   UNL     1      10.414  32.146  24.145  1.00  0.00    -0.550 OA
ENDBRANCH   6   7
ENDBRANCH   5   6
ENDBRANCH   4   5
ENDBRANCH   3   4
ENDBRANCH   2   3
ENDBRANCH   1   2
BRANCH   1  10
ATOM     10  C   UNL     1      13.190  38.747  22.990  1.00  0.00     0.000 C 
BRANCH  10  11
ATOM     11  C   UNL     1      11.913  38.803  23.846  1.00  0.00    -0.000 C 
BRANCH  11  12
ATOM     12  C   UNL     1      10.983  37.587  23.651  1.00  0.00    -0.000 C 
BRANCH  12  13
ATOM     13  C   UNL     1       9.670  37.729  24.444  1.00  0.00    -0.000 C 
BRANCH  13  14
ATOM     14  C   UNL     1       9.483  39.134  25.035  1.00  0.00    -0.000 C 
BRANCH  14  15
ATOM     15  C   UNL     1       8.108  39.320  25.694  1.00  0.00    -0.003 C 
ATOM     16  C   UNL     1       8.197  40.259  26.894  1.00  0.00     0.004 C 
ENDBRANCH  14  15
ENDBRANCH  13  14
ENDBRANCH  12  13
ENDBRANCH  11  12
ENDBRANCH  10  11
ENDBRANCH   1  10
TORSDOF 12
ENDMDL
MODEL 4
REMARK VINA RESULT:    -4.204     17.112     19.068
REMARK INTER + INTRA:          -8.734
REMARK INTER:                  -7.970
REMARK INTRA:                  -0.764
REMARK UNBOUND:                -1.581
REMARK SMILES CCCCCCCCCCCCCC(=O)[O-]
REMARK SMILES IDX 8 1 9 2 10 3 11 4 12 5 13 6 14 7 15 8 16 9 7 10 6 11 5 12
REMARK SMILES IDX 4 13 3 14 2 15 1 16
REMARK H PARENT
REMARK Flexibility Score: inf
ROOT
ATOM      1  C   UNL     1      24.254  27.487  22.256  1.00  0.00     0.000 C 
ENDROOT
BRANCH   1   2
ATOM      2  C   UNL     1      23.332  26.368  21.747  1.00  0.00     0.000 C 
BRANCH   2   3
ATOM      3  C   UNL     1      24.105  25.221  21.077  1.00  0.00     0.000 C 
BRANCH   3   4
ATOM      4  C   UNL     1      24.012  23.936  21.908  1.00  0.00     0.000 C 
BRANCH   4   5
ATOM      5  C   UNL     1      25.084  22.924  21.482  1.00  0.00     0.006 C 
BRANCH   5   6
ATOM      6  C   UNL     1      26.483  23.552  21.418  1.00  0.00     0.053 C 
BRANCH   6   7
ATOM      7  C   UNL     1      27.081  23.442  20.049  1.00  0.00     0.041 C 
ATOM      8  O   UNL     1      27.678  22.389  19.701  1.00  0.00    -0.550 OA
ATOM      9  O   UNL     1      26.948  24.488  19.145  1.00  0.00    -0.550 OA
ENDBRANCH   6   7
ENDBRANCH   5   6
ENDBRANCH   4   5
ENDBRANCH   3   4
ENDBRANCH   2   3
ENDBRANCH   1   2
BRANCH   1  10
ATOM     10  C   UNL     1      25.658  26.975  22.617  1.00  0.00     0.000 C 
BRANCH  10  11
ATOM     11  C   UNL     1      26.255  27.687  23.844  1.00  0.00    -0.000 C 
BRANCH  11  12
ATOM     12  C   UNL     1      27.383  28.680  23.496  1.00  0.00    -0.000 C 
BRANCH  12  13
ATOM     13  C   UNL     1      27.488  29.821  24.524  1.00  0.00    -0.000 C 
BRANCH  13  14
ATOM     14  C   UNL     1      26.129  30.471  24.830  1.00  0.00    -0.000 C 
BRANCH  14  15
ATOM     15  C   UNL     1      26.265  31.778  25.625  1.00  0.00    -0.003 C 
ATOM     16  C   UNL     1      27.698  31.984  26.105  1.00  0.00     0.004 C 
ENDBRANCH  14  15
ENDBRANCH  13  14
ENDBRANCH  12  13
ENDBRANCH  11  12
ENDBRANCH  10  11
ENDBRANCH   1  10
TORSDOF 12
ENDMDL
MODEL 5
REMARK VINA RESULT:    -4.174      2.986      4.105
REMARK INTER + INTRA:          -8.683
REMARK INTER:                  -7.268
REMARK INTRA:                  -1.415
REMARK UNBOUND:                -1.581
REMARK SMILES CCCCCCCCCCCCCC(=O)[O-]
REMARK SMILES IDX 8 1 9 2 10 3 11 4 12 5 13 6 14 7 15 8 16 9 7 10 6 11 5 12
REMARK SMILES IDX 4 13 3 14 2 15 1 16
REMARK H PARENT
REMARK Flexibility Score: inf
ROOT
ATOM      1  C   UNL     1       9.048  36.866  23.009  1.00  0.00     0.000 C 
ENDROOT
BRANCH   1   2
ATOM      2  C   UNL     1      10.417  36.848  23.707  1.00  0.00     0.000 C 
BRANCH   2   3
ATOM      3  C   UNL     1      10.946  38.258  24.012  1.00  0.00     0.000 C 
BRANCH   3   4
ATOM      4  C   UNL     1      12.279  38.510  23.299  1.00  0.00     0.000 C 
BRANCH   4   5
ATOM      5  C   UNL     1      12.922  37.191  22.850  1.00  0.00     0.006 C 
BRANCH   5   6
ATOM      6  C   UNL     1      13.142  37.139  21.332  1.00  0.00     0.053 C 
BRANCH   6   7
ATOM      7  C   UNL     1      12.460  35.958  20.710  1.00  0.00     0.041 C 
ATOM      8  O   UNL     1      11.508  36.128  19.904  1.00  0.00    -0.550 OA
ATOM      9  O   UNL     1      12.900  34.672  20.996  1.00  0.00    -0.550 OA
ENDBRANCH   6   7
ENDBRANCH   5   6
ENDBRANCH   4   5
ENDBRANCH   3   4
ENDBRANCH   2   3
ENDBRANCH   1   2
BRANCH   1  10
ATOM     10  C   UNL     1       8.697  35.515  22.363  1.00  0.00     0.000 C 
BRANCH  10  11
ATOM     11  C   UNL     1       9.816  34.471  22.521  1.00  0.00    -0.000 C 
BRANCH  11  12
ATOM     12  C   UNL     1       9.325  33.113  23.066  1.00  0.00    -0.000 C 
BRANCH  12  13
ATOM     13  C   UNL     1      10.448  32.330  23.769  1.00  0.00    -0.000 C 
BRANCH  13  14
ATOM     14  C   UNL     1      11.035  33.086  24.971  1.00  0.00    -0.000 C 
BRANCH  14  15
ATOM     15  C   UNL     1      12.354  33.798  24.636  1.00  0.00    -0.003 C 
ATOM     16  C   UNL     1      12.654  34.902  25.646  1.00  0.00     0.004 C 
ENDBRANCH  14  15
ENDBRANCH  13  14
ENDBRANCH  12  13
ENDBRANCH  11  12
ENDBRANCH  10  11
ENDBRANCH   1  10
TORSDOF 12
ENDMDL
MODEL 6
REMARK VINA RESULT:    -4.121     16.560     18.091
REMARK INTER + INTRA:          -8.593
REMARK INTER:                  -7.611
REMARK INTRA:                  -0.982
REMARK UNBOUND:                -1.581
REMARK SMILES CCCCCCCCCCCCCC(=O)[O-]
REMARK SMILES IDX 8 1 9 2 10 3 11 4 12 5 13 6 14 7 15 8 16 9 7 10 6 11 5 12
REMARK SMILES IDX 4 13 3 14 2 15 1 16
REMARK H PARENT
REMARK Flexibility Score: inf
ROOT
ATOM      1  C   UNL     1      26.810  26.144  22.794  1.00  0.00     0.000 C 
ENDROOT
BRANCH   1   2
ATOM      2  C   UNL     1      26.700  27.198  23.907  1.00  0.00     0.000 C 
BRANCH   2   3
ATOM      3  C   UNL     1      26.287  28.581  23.376  1.00  0.00     0.000 C 
BRANCH   3   4
ATOM      4  C   UNL     1      26.316  29.629  24.495  1.00  0.00     0.000 C 
BRANCH   4   5
ATOM      5  C   UNL     1      27.740  30.158  24.718  1.00  0.00     0.006 C 
BRANCH   5   6
ATOM      6  C   UNL     1      27.891  30.868  26.070  1.00  0.00     0.053 C 
BRANCH   6   7
ATOM      7  C   UNL     1      27.503  32.313  25.986  1.00  0.00     0.041 C 
ATOM      8  O   UNL     1      26.790  32.831  26.885  1.00  0.00    -0.550 OA
ATOM      9  O   UNL     1      27.959  33.095  24.933  1.00  0.00    -0.550 OA
ENDBRANCH   6   7
ENDBRANCH   5   6
ENDBRANCH   4   5
ENDBRANCH   3   4
ENDBRANCH   2   3
ENDBRANCH   1   2
BRANCH   1  10
ATOM     10  C   UNL     1      27.099  24.737  23.341  1.00  0.00     0.000 C 
BRANCH  10  11
ATOM     11  C   UNL     1      27.356  23.706  22.228  1.00  0.00    -0.000 C 
BRANCH  11  12
ATOM     12  C   UNL     1      26.068  23.190  21.552  1.00  0.00    -0.000 C 
BRANCH  12  13
ATOM     13  C   UNL     1      24.921  23.001  22.561  1.00  0.00    -0.000 C 
BRANCH  13  14
ATOM     14  C   UNL     1      23.572  23.509  22.027  1.00  0.00    -0.000 C 
BRANCH  14  15
ATOM     15  C   UNL     1      23.733  24.558  20.916  1.00  0.00    -0.003 C 
ATOM     16  C   UNL     1      23.445  25.961  21.440  1.00  0.00     0.004 C 
ENDBRANCH  14  15
ENDBRANCH  13  14
ENDBRANCH  12  13
ENDBRANCH  11  12
ENDBRANCH  10  11
ENDBRANCH   1  10
TORSDOF 12
ENDMDL
MODEL 7
REMARK VINA RESULT:    -4.079      2.094      5.036
REMARK INTER + INTRA:          -8.522
REMARK INTER:                  -7.233
REMARK INTRA:                  -1.289
REMARK UNBOUND:                -1.581
REMARK SMILES CCCCCCCCCCCCCC(=O)[O-]
REMARK SMILES IDX 8 1 9 2 10 3 11 4 12 5 13 6 14 7 15 8 16 9 7 10 6 11 5 12
REMARK SMILES IDX 4 13 3 14 2 15 1 16
REMARK H PARENT
REMARK Flexibility Score: inf
ROOT
ATOM      1  C   UNL     1       8.935  36.539  23.002  1.00  0.00     0.000 C 
ENDROOT
BRANCH   1   2
ATOM      2  C   UNL     1       9.820  35.340  22.625  1.00  0.00     0.000 C 
BRANCH   2   3
ATOM      3  C   UNL     1       9.030  34.024  22.538  1.00  0.00     0.000 C 
BRANCH   3   4
ATOM      4  C   UNL     1       9.733  32.909  23.320  1.00  0.00     0.000 C 
BRANCH   4   5
ATOM      5  C   UNL     1      11.105  33.374  23.830  1.00  0.00     0.006 C 
BRANCH   5   6
ATOM      6  C   UNL     1      11.213  33.296  25.358  1.00  0.00     0.053 C 
BRANCH   6   7
ATOM      7  C   UNL     1      11.836  34.531  25.935  1.00  0.00     0.041 C 
ATOM      8  O   UNL     1      12.977  34.902  25.554  1.00  0.00    -0.550 OA
ATOM      9  O   UNL     1      11.141  35.289  26.868  1.00  0.00    -0.550 OA
ENDBRANCH   6   7
ENDBRANCH   5   6
ENDBRANCH   4   5
ENDBRANCH   3   4
ENDBRANCH   2   3
ENDBRANCH   1   2
BRANCH   1  10
ATOM     10  C   UNL     1       9.698  37.608  23.802  1.00  0.00     0.000 C 
BRANCH  10  11
ATOM     11  C   UNL     1      11.218  37.368  23.818  1.00  0.00    -0.000 C 
BRANCH  11  12
ATOM     12  C   UNL     1      12.048  38.632  23.511  1.00  0.00    -0.000 C 
BRANCH  12  13
ATOM     13  C   UNL     1      13.355  38.300  22.768  1.00  0.00    -0.000 C 
BRANCH  13  14
ATOM     14  C   UNL     1      13.138  37.348  21.582  1.00  0.00    -0.000 C 
BRANCH  14  15
ATOM     15  C   UNL     1      13.496  35.893  21.919  1.00  0.00    -0.003 C 
ATOM     16  C   UNL     1      12.754  34.920  21.007  1.00  0.00     0.004 C 
ENDBRANCH  14  15
ENDBRANCH  13  14
ENDBRANCH  12  13
ENDBRANCH  11  12
ENDBRANCH  10  11
ENDBRANCH   1  10
TORSDOF 12
ENDMDL
MODEL 8
REMARK VINA RESULT:    -3.979     16.904     18.451
REMARK INTER + INTRA:          -8.351
REMARK INTER:                  -6.900
REMARK INTRA:                  -1.451
REMARK UNBOUND:                -1.581
REMARK SMILES CCCCCCCCCCCCCC(=O)[O-]
REMARK SMILES IDX 8 1 9 2 10 3 11 4 12 5 13 6 14 7 15 8 16 9 7 10 6 11 5 12
REMARK SMILES IDX 4 13 3 14 2 15 1 16
REMARK H PARENT
REMARK Flexibility Score: inf
ROOT
ATOM      1  C   UNL     1      24.470  26.785  22.251  1.00  0.00     0.000 C 
ENDROOT
BRANCH   1   2
ATOM      2  C   UNL     1      25.923  26.284  22.252  1.00  0.00     0.000 C 
BRANCH   2   3
ATOM      3  C   UNL     1      26.624  26.501  23.603  1.00  0.00     0.000 C 
BRANCH   3   4
ATOM      4  C   UNL     1      28.023  27.098  23.406  1.00  0.00     0.000 C 
BRANCH   4   5
ATOM      5  C   UNL     1      27.969  28.632  23.376  1.00  0.00     0.006 C 
BRANCH   5   6
ATOM      6  C   UNL     1      27.817  29.235  24.779  1.00  0.00     0.053 C 
BRANCH   6   7
ATOM      7  C   UNL     1      26.618  30.129  24.873  1.00  0.00     0.041 C 
ATOM      8  O   UNL     1      26.745  31.321  25.258  1.00  0.00    -0.550 OA
ATOM      9  O   UNL     1      25.366  29.655  24.502  1.00  0.00    -0.550 OA
ENDBRANCH   6   7
ENDBRANCH   5   6
ENDBRANCH   4   5
ENDBRANCH   3   4
ENDBRANCH   2   3
ENDBRANCH   1   2
BRANCH   1  10
ATOM     10  C   UNL     1      23.521  25.838  21.497  1.00  0.00     0.000 C 
BRANCH  10  11
ATOM     11  C   UNL     1      24.139  24.452  21.244  1.00  0.00    -0.000 C 
BRANCH  11  12
ATOM     12  C   UNL     1      23.683  23.376  22.251  1.00  0.00    -0.000 C 
BRANCH  12  13
ATOM     13  C   UNL     1      24.747  22.283  22.454  1.00  0.00    -0.000 C 
BRANCH  13  14
ATOM     14  C   UNL     1      25.893  22.734  23.373  1.00  0.00    -0.000 C 
BRANCH  14  15
ATOM     15  C   UNL     1      27.275  22.328  22.839  1.00  0.00    -0.003 C 
ATOM     16  C   UNL     1      27.640  23.130  21.594  1.00  0.00     0.004 C 
ENDBRANCH  14  15
ENDBRANCH  13  14
ENDBRANCH  12  13
ENDBRANCH  11  12
ENDBRANCH  10  11
ENDBRANCH   1  10
TORSDOF 12
ENDMDL
MODEL 9
REMARK VINA RESULT:    -3.951     17.718     19.701
REMARK INTER + INTRA:          -8.303
REMARK INTER:                  -7.339
REMARK INTRA:                  -0.965
REMARK UNBOUND:                -1.581
REMARK SMILES CCCCCCCCCCCCCC(=O)[O-]
REMARK SMILES IDX 8 1 9 2 10 3 11 4 12 5 13 6 14 7 15 8 16 9 7 10 6 11 5 12
REMARK SMILES IDX 4 13 3 14 2 15 1 16
REMARK H PARENT
REMARK Flexibility Score: inf
ROOT
ATOM      1  C   UNL     1      27.555  26.075  22.926  1.00  0.00     0.000 C 
ENDROOT
BRANCH   1   2
ATOM      2  C   UNL     1      27.343  24.951  23.952  1.00  0.00     0.000 C 
BRANCH   2   3
ATOM      3  C   UNL     1      27.124  23.580  23.293  1.00  0.00     0.000 C 
BRANCH   3   4
ATOM      4  C   UNL     1      25.647  23.372  22.936  1.00  0.00     0.000 C 
BRANCH   4   5
ATOM      5  C   UNL     1      25.498  22.789  21.524  1.00  0.00     0.006 C 
BRANCH   5   6
ATOM      6  C   UNL     1      25.592  23.868  20.437  1.00  0.00     0.053 C 
BRANCH   6   7
ATOM      7  C   UNL     1      26.912  23.831  19.728  1.00  0.00     0.041 C 
ATOM      8  O   UNL     1      27.458  24.901  19.350  1.00  0.00    -0.550 OA
ATOM      9  O   UNL     1      27.554  22.618  19.517  1.00  0.00    -0.550 OA
ENDBRANCH   6   7
ENDBRANCH   5   6
ENDBRANCH   4   5
ENDBRANCH   3   4
ENDBRANCH   2   3
ENDBRANCH   1   2
BRANCH   1  10
ATOM     10  C   UNL     1      26.257  26.836  22.609  1.00  0.00     0.000 C 
BRANCH  10  11
ATOM     11  C   UNL     1      26.145  28.167  23.373  1.00  0.00    -0.000 C 
BRANCH  11  12
ATOM     12  C   UNL     1      27.510  28.785  23.745  1.00  0.00    -0.000 C 
BRANCH  12  13
ATOM     13  C   UNL     1      27.398  29.771  24.921  1.00  0.00    -0.000 C 
BRANCH  13  14
ATOM     14  C   UNL     1      26.096  30.587  24.889  1.00  0.00    -0.000 C 
BRANCH  14  15
ATOM     15  C   UNL     1      26.227  31.938  25.609  1.00  0.00    -0.003 C 
ATOM     16  C   UNL     1      27.678  32.412  25.628  1.00  0.00     0.004 C 
ENDBRANCH  14  15
ENDBRANCH  13  14
ENDBRANCH  12  13
ENDBRANCH  11  12
ENDBRANCH  10  11
ENDBRANCH   1  10
TORSDOF 12
ENDMDL
