MODEL 1
REMARK VINA RESULT:    -1.981      0.000      0.000
REMARK INTER + INTRA:          -5.702
REMARK INTER:                  -5.223
REMARK INTRA:                  -0.479
REMARK UNBOUND:                -0.479
REMARK SMILES CCCCCCCCCCCCCCCCCCCCCCCCCCCCCC(=O)[O-]
REMARK SMILES IDX 16 1 17 2 18 3 19 4 20 5 21 6 22 7 23 8 24 9 25 10 26 11
REMARK SMILES IDX 27 12 28 13 29 14 30 15 31 16 32 17 15 18 14 19 13 20 12 21
REMARK SMILES IDX 11 22 10 23 9 24 8 25 7 26 6 27 5 28 4 29 3 30 2 31 1 32
REMARK H PARENT
REMARK Flexibility Score: inf
ROOT
ATOM      1  C   UNL     1       3.269  23.627  22.934  1.00  0.00     0.000 C 
ENDROOT
BRANCH   1   2
ATOM      2  C   UNL     1       1.996  22.770  22.833  1.00  0.00     0.000 C 
BRANCH   2   3
ATOM      3  C   UNL     1       1.092  22.908  24.070  1.00  0.00     0.000 C 
BRANCH   3   4
ATOM      4  C   UNL     1       1.869  22.717  25.391  1.00  0.00     0.000 C 
BRANCH   4   5
ATOM      5  C   UNL     1       0.965  22.483  26.617  1.00  0.00     0.000 C 
BRANCH   5   6
ATOM      6  C   UNL     1      -0.477  23.003  26.468  1.00  0.00     0.000 C 
BRANCH   6   7
ATOM      7  C   UNL     1      -0.746  24.372  27.125  1.00  0.00     0.000 C 
BRANCH   7   8
ATOM      8  C   UNL     1      -0.720  25.578  26.165  1.00  0.00     0.000 C 
BRANCH   8   9
ATOM      9  C   UNL     1       0.681  26.110  25.821  1.00  0.00     0.000 C 
BRANCH   9  10
ATOM     10  C   UNL     1       0.965  26.114  24.308  1.00  0.00     0.000 C 
BRANCH  10  11
ATOM     11  C   UNL     1       0.065  27.103  23.548  1.00  0.00     0.000 C 
BRANCH  11  12
ATOM     12  C   UNL     1       0.872  28.038  22.632  1.00  0.00     0.000 C 
BRANCH  12  13
ATOM     13  C   UNL     1       0.318  28.088  21.199  1.00  0.00     0.006 C 
BRANCH  13  14
ATOM     14  C   UNL     1       0.398  29.489  20.577  1.00  0.00     0.053 C 
BRANCH  14  15
ATOM     15  C   UNL     1      -0.973  30.011  20.283  1.00  0.00     0.041 C 
ATOM     16  O   UNL     1      -1.989  29.316  20.552  1.00  0.00    -0.550 OA
ATOM     17  O   UNL     1      -1.132  31.275  19.728  1.00  0.00    -0.550 OA
ENDBRANCH  14  15
ENDBRANCH  13  14
ENDBRANCH  12  13
ENDBRANCH  11  12
ENDBRANCH  10  11
ENDBRANCH   9  10
ENDBRANCH   8   9
ENDBRANCH   7   8
ENDBRANCH   6   7
ENDBRANCH   5   6
ENDBRANCH   4   5
ENDBRANCH   3   4
ENDBRANCH   2   3
ENDBRANCH   1   2
BRANCH   1  18
ATOM     18  C   UNL     1       3.732  23.820  24.388  1.00  0.00     0.000 C 
BRANCH  18  19
ATOM     19  C   UNL     1       5.261  23.891  24.520  1.00  0.00     0.000 C 
BRANCH  19  20
ATOM     20  C   UNL     1       5.715  24.542  25.837  1.00  0.00     0.000 C 
BRANCH  20  21
ATOM     21  C   UNL     1       6.375  23.508  26.763  1.00  0.00     0.000 C 
BRANCH  21  22
ATOM     22  C   UNL     1       5.960  22.062  26.439  1.00  0.00     0.000 C 
BRANCH  22  23
ATOM     23  C   UNL     1       7.125  21.059  26.313  1.00  0.00     0.000 C 
BRANCH  23  24
ATOM     24  C   UNL     1       6.953  19.760  27.119  1.00  0.00    -0.000 C 
BRANCH  24  25
ATOM     25  C   UNL     1       5.505  19.241  27.111  1.00  0.00    -0.000 C 
BRANCH  25  26
ATOM     26  C   UNL     1       5.434  17.712  26.964  1.00  0.00    -0.000 C 
BRANCH  26  27
ATOM     27  C   UNL     1       6.068  17.220  25.651  1.00  0.00    -0.000 C 
BRANCH  27  28
ATOM     28  C   UNL     1       6.022  15.690  25.508  1.00  0.00    -0.000 C 
BRANCH  28  29
ATOM     29  C   UNL     1       4.854  15.010  26.249  1.00  0.00    -0.000 C 
BRANCH  29  30
ATOM     30  C   UNL     1       3.522  15.038  25.466  1.00  0.00    -0.000 C 
BRANCH  30  31
ATOM     31  C   UNL     1       3.553  15.960  24.235  1.00  0.00    -0.003 C 
ATOM     32  C   UNL     1       3.858  15.203  22.943  1.00  0.00     0.004 C 
ENDBRANCH  30  31
ENDBRANCH  29  30
ENDBRANCH  28  29
ENDBRANCH  27  28
ENDBRANCH  26  27
ENDBRANCH  25  26
ENDBRANCH  24  25
ENDBRANCH  23  24
ENDBRANCH  22  23
ENDBRANCH  21  22
ENDBRANCH  20  21
ENDBRANCH  19  20
ENDBRANCH  18  19
ENDBRANCH   1  18
TORSDOF 28
ENDMDL
MODEL 2
REMARK VINA RESULT:    -0.726      4.492      9.528
REMARK INTER + INTRA:          -2.394
REMARK INTER:                  -1.553
REMARK INTRA:                  -0.841
REMARK UNBOUND:                -0.479
REMARK SMILES CCCCCCCCCCCCCCCCCCCCCCCCCCCCCC(=O)[O-]
REMARK SMILES IDX 16 1 17 2 18 3 19 4 20 5 21 6 22 7 23 8 24 9 25 10 26 11
REMARK SMILES IDX 27 12 28 13 29 14 30 15 31 16 32 17 15 18 14 19 13 20 12 21
REMARK SMILES IDX 11 22 10 23 9 24 8 25 7 26 6 27 5 28 4 29 3 30 2 31 1 32
REMARK H PARENT
REMARK Flexibility Score: inf
ROOT
ATOM      1  C   UNL     1       2.665  24.398  22.182  1.00  0.00     0.000 C 
ENDROOT
BRANCH   1   2
ATOM      2  C   UNL     1       3.725  23.923  23.189  1.00  0.00     0.000 C 
BRANCH   2   3
ATOM      3  C   UNL     1       5.047  24.699  23.066  1.00  0.00     0.000 C 
BRANCH   3   4
ATOM      4  C   UNL     1       6.255  23.766  22.823  1.00  0.00     0.000 C 
BRANCH   4   5
ATOM      5  C   UNL     1       7.070  23.459  24.095  1.00  0.00     0.000 C 
BRANCH   5   6
ATOM      6  C   UNL     1       6.377  22.519  25.098  1.00  0.00     0.000 C 
BRANCH   6   7
ATOM      7  C   UNL     1       7.075  22.401  26.469  1.00  0.00     0.000 C 
BRANCH   7   8
ATOM      8  C   UNL     1       7.099  20.983  27.074  1.00  0.00     0.000 C 
BRANCH   8   9
ATOM      9  C   UNL     1       7.082  19.835  26.050  1.00  0.00     0.000 C 
BRANCH   9  10
ATOM     10  C   UNL     1       6.783  18.468  26.690  1.00  0.00     0.000 C 
BRANCH  10  11
ATOM     11  C   UNL     1       6.518  17.377  25.640  1.00  0.00     0.000 C 
BRANCH  11  12
ATOM     12  C   UNL     1       5.240  17.648  24.828  1.00  0.00     0.000 C 
BRANCH  12  13
ATOM     13  C   UNL     1       4.829  16.454  23.952  1.00  0.00     0.006 C 
BRANCH  13  14
ATOM     14  C   UNL     1       4.672  15.153  24.752  1.00  0.00     0.053 C 
BRANCH  14  15
ATOM     15  C   UNL     1       3.231  14.898  25.061  1.00  0.00     0.041 C 
ATOM     16  O   UNL     1       2.886  14.511  26.209  1.00  0.00    -0.550 OA
ATOM     17  O   UNL     1       2.263  15.106  24.085  1.00  0.00    -0.550 OA
ENDBRANCH  14  15
ENDBRANCH  13  14
ENDBRANCH  12  13
ENDBRANCH  11  12
ENDBRANCH  10  11
ENDBRANCH   9  10
ENDBRANCH   8   9
ENDBRANCH   7   8
ENDBRANCH   6   7
ENDBRANCH   5   6
ENDBRANCH   4   5
ENDBRANCH   3   4
ENDBRANCH   2   3
ENDBRANCH   1   2
BRANCH   1  18
ATOM     18  C   UNL     1       1.484  25.108  22.865  1.00  0.00     0.000 C 
BRANCH  18  19
ATOM     19  C   UNL     1       1.911  25.910  24.105  1.00  0.00     0.000 C 
BRANCH  19  20
ATOM     20  C   UNL     1       0.720  26.546  24.841  1.00  0.00     0.000 C 
BRANCH  20  21
ATOM     21  C   UNL     1       0.596  25.992  26.269  1.00  0.00     0.000 C 
BRANCH  21  22
ATOM     22  C   UNL     1      -0.854  25.656  26.658  1.00  0.00     0.000 C 
BRANCH  22  23
ATOM     23  C   UNL     1      -1.396  24.330  26.084  1.00  0.00     0.000 C 
BRANCH  23  24
ATOM     24  C   UNL     1      -1.543  23.192  27.108  1.00  0.00    -0.000 C 
BRANCH  24  25
ATOM     25  C   UNL     1      -0.337  22.237  27.114  1.00  0.00    -0.000 C 
BRANCH  25  26
ATOM     26  C   UNL     1       1.004  22.989  27.103  1.00  0.00    -0.000 C 
BRANCH  26  27
ATOM     27  C   UNL     1       1.726  22.878  25.748  1.00  0.00    -0.000 C 
BRANCH  27  28
ATOM     28  C   UNL     1       3.239  22.652  25.901  1.00  0.00    -0.000 C 
BRANCH  28  29
ATOM     29  C   UNL     1       3.875  23.357  27.116  1.00  0.00    -0.000 C 
BRANCH  29  30
ATOM     30  C   UNL     1       4.401  24.776  26.804  1.00  0.00    -0.000 C 
BRANCH  30  31
ATOM     31  C   UNL     1       5.931  24.899  26.901  1.00  0.00    -0.003 C 
ATOM     32  C   UNL     1       6.453  26.204  26.300  1.00  0.00     0.004 C 
ENDBRANCH  30  31
ENDBRANCH  29  30
ENDBRANCH  28  29
ENDBRANCH  27  28
ENDBRANCH  26  27
ENDBRANCH  25  26
ENDBRANCH  24  25
ENDBRANCH  23  24
ENDBRANCH  22  23
ENDBRANCH  21  22
ENDBRANCH  20  21
ENDBRANCH  19  20
ENDBRANCH  18  19
ENDBRANCH   1  18
TORSDOF 28
ENDMDL
MODEL 3
REMARK VINA RESULT:    -0.501      1.551      3.370
REMARK INTER + INTRA:          -1.799
REMARK INTER:                  -1.009
REMARK INTRA:                  -0.790
REMARK UNBOUND:                -0.479
REMARK SMILES CCCCCCCCCCCCCCCCCCCCCCCCCCCCCC(=O)[O-]
REMARK SMILES IDX 16 1 17 2 18 3 19 4 20 5 21 6 22 7 23 8 24 9 25 10 26 11
REMARK SMILES IDX 27 12 28 13 29 14 30 15 31 16 32 17 15 18 14 19 13 20 12 21
REMARK SMILES IDX 11 22 10 23 9 24 8 25 7 26 6 27 5 28 4 29 3 30 2 31 1 32
REMARK H PARENT
REMARK Flexibility Score: inf
ROOT
ATOM      1  C   UNL     1       1.457  22.730  23.952  1.00  0.00     0.000 C 
ENDROOT
BRANCH   1   2
ATOM      2  C   UNL     1       1.598  22.788  22.422  1.00  0.00     0.000 C 
BRANCH   2   3
ATOM      3  C   UNL     1       2.805  23.628  21.971  1.00  0.00     0.000 C 
BRANCH   3   4
ATOM      4  C   UNL     1       3.376  24.497  23.114  1.00  0.00     0.000 C 
BRANCH   4   5
ATOM      5  C   UNL     1       4.780  24.065  23.582  1.00  0.00     0.000 C 
BRANCH   5   6
ATOM      6  C   UNL     1       4.884  23.710  25.077  1.00  0.00     0.000 C 
BRANCH   6   7
ATOM      7  C   UNL     1       4.357  24.792  26.041  1.00  0.00     0.000 C 
BRANCH   7   8
ATOM      8  C   UNL     1       3.190  24.353  26.947  1.00  0.00     0.000 C 
BRANCH   8   9
ATOM      9  C   UNL     1       1.811  24.318  26.265  1.00  0.00     0.000 C 
BRANCH   9  10
ATOM     10  C   UNL     1       0.788  25.252  26.937  1.00  0.00     0.000 C 
BRANCH  10  11
ATOM     11  C   UNL     1       0.081  26.168  25.924  1.00  0.00     0.000 C 
BRANCH  11  12
ATOM     12  C   UNL     1       0.842  26.258  24.591  1.00  0.00     0.000 C 
BRANCH  12  13
ATOM     13  C   UNL     1       0.262  27.324  23.647  1.00  0.00     0.006 C 
BRANCH  13  14
ATOM     14  C   UNL     1       0.993  27.389  22.299  1.00  0.00     0.053 C 
BRANCH  14  15
ATOM     15  C   UNL     1       0.372  28.426  21.416  1.00  0.00     0.041 C 
ATOM     16  O   UNL     1       0.976  29.507  21.183  1.00  0.00    -0.550 OA
ATOM     17  O   UNL     1      -0.868  28.191  20.834  1.00  0.00    -0.550 OA
ENDBRANCH  14  15
ENDBRANCH  13  14
ENDBRANCH  12  13
ENDBRANCH  11  12
ENDBRANCH  10  11
ENDBRANCH   9  10
ENDBRANCH   8   9
ENDBRANCH   7   8
ENDBRANCH   6   7
ENDBRANCH   5   6
ENDBRANCH   4   5
ENDBRANCH   3   4
ENDBRANCH   2   3
ENDBRANCH   1   2
BRANCH   1  18
ATOM     18  C   UNL     1       2.322  21.623  24.578  1.00  0.00     0.000 C 
BRANCH  18  19
ATOM     19  C   UNL     1       1.982  21.367  26.055  1.00  0.00     0.000 C 
BRANCH  19  20
ATOM     20  C   UNL     1       3.218  21.010  26.897  1.00  0.00     0.000 C 
BRANCH  20  21
ATOM     21  C   UNL     1       3.406  19.487  26.979  1.00  0.00     0.000 C 
BRANCH  21  22
ATOM     22  C   UNL     1       4.592  18.982  26.138  1.00  0.00     0.000 C 
BRANCH  22  23
ATOM     23  C   UNL     1       5.660  18.192  26.920  1.00  0.00     0.000 C 
BRANCH  23  24
ATOM     24  C   UNL     1       5.344  16.701  27.125  1.00  0.00    -0.000 C 
BRANCH  24  25
ATOM     25  C   UNL     1       5.571  15.864  25.854  1.00  0.00    -0.000 C 
BRANCH  25  26
ATOM     26  C   UNL     1       5.399  14.357  26.109  1.00  0.00    -0.000 C 
BRANCH  26  27
ATOM     27  C   UNL     1       3.995  14.009  26.633  1.00  0.00    -0.000 C 
BRANCH  27  28
ATOM     28  C   UNL     1       3.116  15.253  26.844  1.00  0.00    -0.000 C 
BRANCH  28  29
ATOM     29  C   UNL     1       1.870  15.321  25.938  1.00  0.00    -0.000 C 
BRANCH  29  30
ATOM     30  C   UNL     1       2.180  15.757  24.489  1.00  0.00    -0.000 C 
BRANCH  30  31
ATOM     31  C   UNL     1       2.816  14.646  23.636  1.00  0.00    -0.003 C 
ATOM     32  C   UNL     1       3.799  15.193  22.601  1.00  0.00     0.004 C 
ENDBRANCH  30  31
ENDBRANCH  29  30
ENDBRANCH  28  29
ENDBRANCH  27  28
ENDBRANCH  26  27
ENDBRANCH  25  26
ENDBRANCH  24  25
ENDBRANCH  23  24
ENDBRANCH  22  23
ENDBRANCH  21  22
ENDBRANCH  20  21
ENDBRANCH  19  20
ENDBRANCH  18  19
ENDBRANCH   1  18
TORSDOF 28
ENDMDL
MODEL 4
REMARK VINA RESULT:    -0.033      4.359      9.546
REMARK INTER + INTRA:          -0.567
REMARK INTER:                  -2.932
REMARK INTRA:                   2.364
REMARK UNBOUND:                -0.479
REMARK SMILES CCCCCCCCCCCCCCCCCCCCCCCCCCCCCC(=O)[O-]
REMARK SMILES IDX 16 1 17 2 18 3 19 4 20 5 21 6 22 7 23 8 24 9 25 10 26 11
REMARK SMILES IDX 27 12 28 13 29 14 30 15 31 16 32 17 15 18 14 19 13 20 12 21
REMARK SMILES IDX 11 22 10 23 9 24 8 25 7 26 6 27 5 28 4 29 3 30 2 31 1 32
REMARK H PARENT
REMARK Flexibility Score: inf
ROOT
ATOM      1  C   UNL     1       1.323  22.393  24.148  1.00  0.00     0.000 C 
ENDROOT
BRANCH   1   2
ATOM      2  C   UNL     1       1.474  21.632  25.476  1.00  0.00     0.000 C 
BRANCH   2   3
ATOM      3  C   UNL     1       2.917  21.655  26.010  1.00  0.00     0.000 C 
BRANCH   3   4
ATOM      4  C   UNL     1       3.188  20.520  27.021  1.00  0.00     0.000 C 
BRANCH   4   5
ATOM      5  C   UNL     1       4.650  20.032  27.033  1.00  0.00     0.000 C 
BRANCH   5   6
ATOM      6  C   UNL     1       4.824  18.504  27.099  1.00  0.00     0.000 C 
BRANCH   6   7
ATOM      7  C   UNL     1       6.220  17.989  26.690  1.00  0.00     0.000 C 
BRANCH   7   8
ATOM      8  C   UNL     1       6.511  18.011  25.177  1.00  0.00     0.000 C 
BRANCH   8   9
ATOM      9  C   UNL     1       7.096  16.708  24.605  1.00  0.00     0.000 C 
BRANCH   9  10
ATOM     10  C   UNL     1       7.125  15.564  25.635  1.00  0.00     0.000 C 
BRANCH  10  11
ATOM     11  C   UNL     1       5.724  15.228  26.173  1.00  0.00     0.000 C 
BRANCH  11  12
ATOM     12  C   UNL     1       4.821  14.603  25.095  1.00  0.00     0.000 C 
BRANCH  12  13
ATOM     13  C   UNL     1       3.385  14.367  25.588  1.00  0.00     0.006 C 
BRANCH  13  14
ATOM     14  C   UNL     1       2.337  15.115  24.752  1.00  0.00     0.053 C 
BRANCH  14  15
ATOM     15  C   UNL     1       2.999  15.911  23.672  1.00  0.00     0.041 C 
ATOM     16  O   UNL     1       3.535  17.020  23.936  1.00  0.00    -0.550 OA
ATOM     17  O   UNL     1       3.040  15.419  22.372  1.00  0.00    -0.550 OA
ENDBRANCH  14  15
ENDBRANCH  13  14
ENDBRANCH  12  13
ENDBRANCH  11  12
ENDBRANCH  10  11
ENDBRANCH   9  10
ENDBRANCH   8   9
ENDBRANCH   7   8
ENDBRANCH   6   7
ENDBRANCH   5   6
ENDBRANCH   4   5
ENDBRANCH   3   4
ENDBRANCH   2   3
ENDBRANCH   1   2
BRANCH   1  18
ATOM     18  C   UNL     1       1.427  21.465  22.926  1.00  0.00     0.000 C 
BRANCH  18  19
ATOM     19  C   UNL     1       1.813  22.216  21.641  1.00  0.00     0.000 C 
BRANCH  19  20
ATOM     20  C   UNL     1       2.118  23.702  21.890  1.00  0.00     0.000 C 
BRANCH  20  21
ATOM     21  C   UNL     1       3.030  23.878  23.114  1.00  0.00     0.000 C 
BRANCH  21  22
ATOM     22  C   UNL     1       3.903  25.143  23.034  1.00  0.00     0.000 C 
BRANCH  22  23
ATOM     23  C   UNL     1       5.386  24.940  23.408  1.00  0.00     0.000 C 
BRANCH  23  24
ATOM     24  C   UNL     1       5.637  23.916  24.528  1.00  0.00    -0.000 C 
BRANCH  24  25
ATOM     25  C   UNL     1       7.061  24.002  25.106  1.00  0.00    -0.000 C 
BRANCH  25  26
ATOM     26  C   UNL     1       7.090  24.684  26.484  1.00  0.00    -0.000 C 
BRANCH  26  27
ATOM     27  C   UNL     1       5.683  25.064  26.979  1.00  0.00    -0.000 C 
BRANCH  27  28
ATOM     28  C   UNL     1       4.627  24.001  26.634  1.00  0.00    -0.000 C 
BRANCH  28  29
ATOM     29  C   UNL     1       3.202  24.328  27.122  1.00  0.00    -0.000 C 
BRANCH  29  30
ATOM     30  C   UNL     1       2.288  24.911  26.021  1.00  0.00    -0.000 C 
BRANCH  30  31
ATOM     31  C   UNL     1       0.835  25.126  26.480  1.00  0.00    -0.003 C 
ATOM     32  C   UNL     1       0.087  26.130  25.603  1.00  0.00     0.004 C 
ENDBRANCH  30  31
ENDBRANCH  29  30
ENDBRANCH  28  29
ENDBRANCH  27  28
ENDBRANCH  26  27
ENDBRANCH  25  26
ENDBRANCH  24  25
ENDBRANCH  23  24
ENDBRANCH  22  23
ENDBRANCH  21  22
ENDBRANCH  20  21
ENDBRANCH  19  20
ENDBRANCH  18  19
ENDBRANCH   1  18
TORSDOF 28
ENDMDL
MODEL 5
REMARK VINA RESULT:     0.833      4.663     11.783
REMARK INTER + INTRA:           1.717
REMARK INTER:                   3.102
REMARK INTRA:                  -1.385
REMARK UNBOUND:                -0.479
REMARK SMILES CCCCCCCCCCCCCCCCCCCCCCCCCCCCCC(=O)[O-]
REMARK SMILES IDX 16 1 17 2 18 3 19 4 20 5 21 6 22 7 23 8 24 9 25 10 26 11
REMARK SMILES IDX 27 12 28 13 29 14 30 15 31 16 32 17 15 18 14 19 13 20 12 21
REMARK SMILES IDX 11 22 10 23 9 24 8 25 7 26 6 27 5 28 4 29 3 30 2 31 1 32
REMARK H PARENT
REMARK Flexibility Score: inf
ROOT
ATOM      1  C   UNL     1       1.308  23.501  26.641  1.00  0.00     0.000 C 
ENDROOT
BRANCH   1   2
ATOM      2  C   UNL     1       2.693  24.144  26.823  1.00  0.00     0.000 C 
BRANCH   2   3
ATOM      3  C   UNL     1       3.504  24.183  25.517  1.00  0.00     0.000 C 
BRANCH   3   4
ATOM      4  C   UNL     1       4.722  23.233  25.552  1.00  0.00     0.000 C 
BRANCH   4   5
ATOM      5  C   UNL     1       4.504  21.974  26.414  1.00  0.00     0.000 C 
BRANCH   5   6
ATOM      6  C   UNL     1       5.765  21.448  27.125  1.00  0.00     0.000 C 
BRANCH   6   7
ATOM      7  C   UNL     1       6.676  20.554  26.258  1.00  0.00     0.000 C 
BRANCH   7   8
ATOM      8  C   UNL     1       7.125  19.236  26.921  1.00  0.00     0.000 C 
BRANCH   8   9
ATOM      9  C   UNL     1       6.401  17.974  26.422  1.00  0.00     0.000 C 
BRANCH   9  10
ATOM     10  C   UNL     1       4.868  18.113  26.455  1.00  0.00     0.000 C 
BRANCH  10  11
ATOM     11  C   UNL     1       4.156  16.759  26.293  1.00  0.00     0.000 C 
BRANCH  11  12
ATOM     12  C   UNL     1       3.685  16.519  24.848  1.00  0.00     0.000 C 
BRANCH  12  13
ATOM     13  C   UNL     1       3.646  15.028  24.477  1.00  0.00     0.006 C 
BRANCH  13  14
ATOM     14  C   UNL     1       4.962  14.301  24.790  1.00  0.00     0.053 C 
BRANCH  14  15
ATOM     15  C   UNL     1       5.928  14.457  23.658  1.00  0.00     0.041 C 
ATOM     16  O   UNL     1       5.713  13.887  22.555  1.00  0.00    -0.550 OA
ATOM     17  O   UNL     1       7.061  15.247  23.815  1.00  0.00    -0.550 OA
ENDBRANCH  14  15
ENDBRANCH  13  14
ENDBRANCH  12  13
ENDBRANCH  11  12
ENDBRANCH  10  11
ENDBRANCH   9  10
ENDBRANCH   8   9
ENDBRANCH   7   8
ENDBRANCH   6   7
ENDBRANCH   5   6
ENDBRANCH   4   5
ENDBRANCH   3   4
ENDBRANCH   2   3
ENDBRANCH   1   2
BRANCH   1  18
ATOM     18  C   UNL     1       0.167  24.436  27.076  1.00  0.00     0.000 C 
BRANCH  18  19
ATOM     19  C   UNL     1      -0.420  25.242  25.906  1.00  0.00     0.000 C 
BRANCH  19  20
ATOM     20  C   UNL     1       0.616  26.161  25.238  1.00  0.00     0.000 C 
BRANCH  20  21
ATOM     21  C   UNL     1       0.077  26.727  23.915  1.00  0.00     0.000 C 
BRANCH  21  22
ATOM     22  C   UNL     1       1.191  27.229  22.979  1.00  0.00     0.000 C 
BRANCH  22  23
ATOM     23  C   UNL     1       2.017  26.123  22.291  1.00  0.00     0.000 C 
BRANCH  23  24
ATOM     24  C   UNL     1       1.271  25.346  21.193  1.00  0.00    -0.000 C 
BRANCH  24  25
ATOM     25  C   UNL     1       0.650  26.266  20.128  1.00  0.00    -0.000 C 
BRANCH  25  26
ATOM     26  C   UNL     1      -0.805  26.638  20.454  1.00  0.00    -0.000 C 
BRANCH  26  27
ATOM     27  C   UNL     1      -1.009  28.160  20.566  1.00  0.00    -0.000 C 
BRANCH  27  28
ATOM     28  C   UNL     1       0.211  28.958  20.078  1.00  0.00    -0.000 C 
BRANCH  28  29
ATOM     29  C   UNL     1       0.373  30.346  20.729  1.00  0.00    -0.000 C 
BRANCH  29  30
ATOM     30  C   UNL     1      -0.881  31.240  20.603  1.00  0.00    -0.000 C 
BRANCH  30  31
ATOM     31  C   UNL     1      -1.765  30.892  19.393  1.00  0.00    -0.003 C 
ATOM     32  C   UNL     1      -2.237  32.133  18.636  1.00  0.00     0.004 C 
ENDBRANCH  30  31
ENDBRANCH  29  30
ENDBRANCH  28  29
ENDBRANCH  27  28
ENDBRANCH  26  27
ENDBRANCH  25  26
ENDBRANCH  24  25
ENDBRANCH  23  24
ENDBRANCH  22  23
ENDBRANCH  21  22
ENDBRANCH  20  21
ENDBRANCH  19  20
ENDBRANCH  18  19
ENDBRANCH   1  18
TORSDOF 28
ENDMDL
