MODEL 1
REMARK VINA RESULT:    -5.147      0.000      0.000
REMARK INTER + INTRA:          -5.544
REMARK INTER:                  -5.448
REMARK INTRA:                  -0.096
REMARK UNBOUND:                -0.096
REMARK SMILES C=C(C)[C@H]1CC=C(C)C(=O)C1
REMARK SMILES IDX 8 1 7 2 6 3 5 4 4 5 11 6 9 7 10 8 2 9 1 10 3 11
REMARK H PARENT
REMARK Flexibility Score: inf
ROOT
ATOM      1  C   UNL     1     -29.850  19.382 -33.470  1.00  0.00     0.048 C 
ATOM      2  C   UNL     1     -28.376  19.669 -33.559  1.00  0.00    -0.012 C 
ATOM      3  C   UNL     1     -27.926  20.645 -34.366  1.00  0.00    -0.019 C 
ATOM      4  C   UNL     1     -26.455  20.916 -34.549  1.00  0.00     0.036 C 
ATOM      5  C   UNL     1     -25.663  20.566 -33.275  1.00  0.00     0.025 C 
ATOM      6  C   UNL     1     -25.940  19.112 -32.854  1.00  0.00     0.089 C 
ATOM      7  C   UNL     1     -27.420  18.856 -32.767  1.00  0.00     0.158 C 
ATOM      8  O   UNL     1     -27.838  17.911 -32.047  1.00  0.00    -0.295 OA
ENDROOT
BRANCH   5   9
ATOM      9  C   UNL     1     -24.172  20.818 -33.459  1.00  0.00    -0.077 C 
ATOM     10  C   UNL     1     -23.508  20.221 -34.461  1.00  0.00     0.008 C 
ATOM     11  C   UNL     1     -23.410  21.735 -32.535  1.00  0.00     0.039 C 
ENDBRANCH   5   9
TORSDOF 1
ENDMDL
MODEL 2
REMARK VINA RESULT:    -4.732      6.465      8.717
REMARK INTER + INTRA:          -5.104
REMARK INTER:                  -5.017
REMARK INTRA:                  -0.088
REMARK UNBOUND:                -0.096
REMARK SMILES C=C(C)[C@H]1CC=C(C)C(=O)C1
REMARK SMILES IDX 8 1 7 2 6 3 5 4 4 5 11 6 9 7 10 8 2 9 1 10 3 11
REMARK H PARENT
REMARK Flexibility Score: inf
ROOT
ATOM      1  C   UNL     1     -22.600  14.548 -30.211  1.00  0.00     0.048 C 
ATOM      2  C   UNL     1     -24.000  14.000 -30.154  1.00  0.00    -0.012 C 
ATOM      3  C   UNL     1     -24.208  12.715 -29.823  1.00  0.00    -0.019 C 
ATOM      4  C   UNL     1     -25.584  12.101 -29.829  1.00  0.00     0.036 C 
ATOM      5  C   UNL     1     -26.662  13.149 -29.498  1.00  0.00     0.025 C 
ATOM      6  C   UNL     1     -26.555  14.350 -30.454  1.00  0.00     0.089 C 
ATOM      7  C   UNL     1     -25.147  14.881 -30.486  1.00  0.00     0.158 C 
ATOM      8  O   UNL     1     -24.948  16.072 -30.842  1.00  0.00    -0.295 OA
ENDROOT
BRANCH   5   9
ATOM      9  C   UNL     1     -28.058  12.540 -29.523  1.00  0.00    -0.077 C 
ATOM     10  C   UNL     1     -28.897  12.739 -28.494  1.00  0.00     0.008 C 
ATOM     11  C   UNL     1     -28.532  11.710 -30.689  1.00  0.00     0.039 C 
ENDBRANCH   5   9
TORSDOF 1
ENDMDL
MODEL 3
REMARK VINA RESULT:    -4.541     11.678     13.186
REMARK INTER + INTRA:          -4.902
REMARK INTER:                  -4.804
REMARK INTRA:                  -0.098
REMARK UNBOUND:                -0.096
REMARK SMILES C=C(C)[C@H]1CC=C(C)C(=O)C1
REMARK SMILES IDX 8 1 7 2 6 3 5 4 4 5 11 6 9 7 10 8 2 9 1 10 3 11
REMARK H PARENT
REMARK Flexibility Score: inf
ROOT
ATOM      1  C   UNL     1     -13.502  16.467 -32.392  1.00  0.00     0.048 C 
ATOM      2  C   UNL     1     -14.352  15.417 -31.729  1.00  0.00    -0.012 C 
ATOM      3  C   UNL     1     -14.039  14.973 -30.501  1.00  0.00    -0.019 C 
ATOM      4  C   UNL     1     -14.811  13.867 -29.830  1.00  0.00     0.036 C 
ATOM      5  C   UNL     1     -16.285  13.867 -30.279  1.00  0.00     0.025 C 
ATOM      6  C   UNL     1     -16.378  13.796 -31.814  1.00  0.00     0.089 C 
ATOM      7  C   UNL     1     -15.524  14.860 -32.448  1.00  0.00     0.158 C 
ATOM      8  O   UNL     1     -15.790  15.243 -33.618  1.00  0.00    -0.295 OA
ENDROOT
BRANCH   5   9
ATOM      9  C   UNL     1     -17.068  12.739 -29.621  1.00  0.00    -0.077 C 
ATOM     10  C   UNL     1     -16.418  11.716 -29.045  1.00  0.00     0.008 C 
ATOM     11  C   UNL     1     -18.576  12.740 -29.596  1.00  0.00     0.039 C 
ENDBRANCH   5   9
TORSDOF 1
ENDMDL
MODEL 4
REMARK VINA RESULT:    -4.497      7.058      8.252
REMARK INTER + INTRA:          -4.856
REMARK INTER:                  -4.760
REMARK INTRA:                  -0.096
REMARK UNBOUND:                -0.096
REMARK SMILES C=C(C)[C@H]1CC=C(C)C(=O)C1
REMARK SMILES IDX 8 1 7 2 6 3 5 4 4 5 11 6 9 7 10 8 2 9 1 10 3 11
REMARK H PARENT
REMARK Flexibility Score: inf
ROOT
ATOM      1  C   UNL     1     -30.123  10.890 -31.079  1.00  0.00     0.048 C 
ATOM      2  C   UNL     1     -28.772  11.493 -30.808  1.00  0.00    -0.012 C 
ATOM      3  C   UNL     1     -27.809  11.437 -31.743  1.00  0.00    -0.019 C 
ATOM      4  C   UNL     1     -26.417  11.954 -31.489  1.00  0.00     0.036 C 
ATOM      5  C   UNL     1     -26.435  13.130 -30.494  1.00  0.00     0.025 C 
ATOM      6  C   UNL     1     -27.153  12.723 -29.195  1.00  0.00     0.089 C 
ATOM      7  C   UNL     1     -28.502  12.130 -29.496  1.00  0.00     0.158 C 
ATOM      8  O   UNL     1     -29.390  12.141 -28.602  1.00  0.00    -0.295 OA
ENDROOT
BRANCH   5   9
ATOM      9  C   UNL     1     -25.029  13.646 -30.215  1.00  0.00    -0.077 C 
ATOM     10  C   UNL     1     -24.159  12.889 -29.529  1.00  0.00     0.008 C 
ATOM     11  C   UNL     1     -24.580  15.002 -30.698  1.00  0.00     0.039 C 
ENDBRANCH   5   9
TORSDOF 1
ENDMDL
MODEL 5
REMARK VINA RESULT:    -4.493      7.239      9.307
REMARK INTER + INTRA:          -4.852
REMARK INTER:                  -4.755
REMARK INTRA:                  -0.097
REMARK UNBOUND:                -0.096
REMARK SMILES C=C(C)[C@H]1CC=C(C)C(=O)C1
REMARK SMILES IDX 8 1 7 2 6 3 5 4 4 5 11 6 9 7 10 8 2 9 1 10 3 11
REMARK H PARENT
REMARK Flexibility Score: inf
ROOT
ATOM      1  C   UNL     1     -23.282  14.254 -30.221  1.00  0.00     0.048 C 
ATOM      2  C   UNL     1     -24.643  13.668 -29.961  1.00  0.00    -0.012 C 
ATOM      3  C   UNL     1     -25.744  14.423 -30.118  1.00  0.00    -0.019 C 
ATOM      4  C   UNL     1     -27.120  13.905 -29.793  1.00  0.00     0.036 C 
ATOM      5  C   UNL     1     -27.210  12.384 -30.022  1.00  0.00     0.025 C 
ATOM      6  C   UNL     1     -26.111  11.657 -29.227  1.00  0.00     0.089 C 
ATOM      7  C   UNL     1     -24.762  12.259 -29.511  1.00  0.00     0.158 C 
ATOM      8  O   UNL     1     -23.728  11.566 -29.319  1.00  0.00    -0.295 OA
ENDROOT
BRANCH   5   9
ATOM      9  C   UNL     1     -28.594  11.850 -29.676  1.00  0.00    -0.077 C 
ATOM     10  C   UNL     1     -29.171  12.182 -28.511  1.00  0.00     0.008 C 
ATOM     11  C   UNL     1     -29.346  10.946 -30.621  1.00  0.00     0.039 C 
ENDBRANCH   5   9
TORSDOF 1
ENDMDL
MODEL 6
REMARK VINA RESULT:    -4.456     11.913     13.815
REMARK INTER + INTRA:          -4.813
REMARK INTER:                  -4.716
REMARK INTRA:                  -0.097
REMARK UNBOUND:                -0.096
REMARK SMILES C=C(C)[C@H]1CC=C(C)C(=O)C1
REMARK SMILES IDX 8 1 7 2 6 3 5 4 4 5 11 6 9 7 10 8 2 9 1 10 3 11
REMARK H PARENT
REMARK Flexibility Score: inf
ROOT
ATOM      1  C   UNL     1     -17.223  13.359 -30.922  1.00  0.00     0.048 C 
ATOM      2  C   UNL     1     -15.823  13.877 -31.108  1.00  0.00    -0.012 C 
ATOM      3  C   UNL     1     -14.876  13.607 -30.193  1.00  0.00    -0.019 C 
ATOM      4  C   UNL     1     -13.483  14.170 -30.294  1.00  0.00     0.036 C 
ATOM      5  C   UNL     1     -13.073  14.379 -31.765  1.00  0.00     0.025 C 
ATOM      6  C   UNL     1     -14.111  15.253 -32.492  1.00  0.00     0.089 C 
ATOM      7  C   UNL     1     -15.499  14.707 -32.294  1.00  0.00     0.158 C 
ATOM      8  O   UNL     1     -16.397  14.999 -33.127  1.00  0.00    -0.295 OA
ENDROOT
BRANCH   5   9
ATOM      9  C   UNL     1     -11.673  14.967 -31.875  1.00  0.00    -0.077 C 
ATOM     10  C   UNL     1     -11.234  15.442 -33.051  1.00  0.00     0.008 C 
ATOM     11  C   UNL     1     -10.753  15.035 -30.682  1.00  0.00     0.039 C 
ENDBRANCH   5   9
TORSDOF 1
ENDMDL
MODEL 7
REMARK VINA RESULT:    -4.385      1.699      2.309
REMARK INTER + INTRA:          -4.737
REMARK INTER:                  -4.640
REMARK INTRA:                  -0.097
REMARK UNBOUND:                -0.096
REMARK SMILES C=C(C)[C@H]1CC=C(C)C(=O)C1
REMARK SMILES IDX 8 1 7 2 6 3 5 4 4 5 11 6 9 7 10 8 2 9 1 10 3 11
REMARK H PARENT
REMARK Flexibility Score: inf
ROOT
ATOM      1  C   UNL     1     -30.004  19.476 -33.816  1.00  0.00     0.048 C 
ATOM      2  C   UNL     1     -28.541  19.600 -33.489  1.00  0.00    -0.012 C 
ATOM      3  C   UNL     1     -27.934  18.659 -32.746  1.00  0.00    -0.019 C 
ATOM      4  C   UNL     1     -26.493  18.779 -32.325  1.00  0.00     0.036 C 
ATOM      5  C   UNL     1     -25.673  19.562 -33.368  1.00  0.00     0.025 C 
ATOM      6  C   UNL     1     -26.319  20.933 -33.639  1.00  0.00     0.089 C 
ATOM      7  C   UNL     1     -27.778  20.777 -33.970  1.00  0.00     0.158 C 
ATOM      8  O   UNL     1     -28.358  21.683 -34.626  1.00  0.00    -0.295 OA
ENDROOT
BRANCH   5   9
ATOM      9  C   UNL     1     -24.219  19.706 -32.940  1.00  0.00    -0.077 C 
ATOM     10  C   UNL     1     -23.681  18.828 -32.079  1.00  0.00     0.008 C 
ATOM     11  C   UNL     1     -23.352  20.824 -33.464  1.00  0.00     0.039 C 
ENDBRANCH   5   9
TORSDOF 1
ENDMDL
MODEL 8
REMARK VINA RESULT:    -4.340     11.844     12.745
REMARK INTER + INTRA:          -4.690
REMARK INTER:                  -4.594
REMARK INTRA:                  -0.096
REMARK UNBOUND:                -0.096
REMARK SMILES C=C(C)[C@H]1CC=C(C)C(=O)C1
REMARK SMILES IDX 8 1 7 2 6 3 5 4 4 5 11 6 9 7 10 8 2 9 1 10 3 11
REMARK H PARENT
REMARK Flexibility Score: inf
ROOT
ATOM      1  C   UNL     1     -18.549  12.242 -29.656  1.00  0.00     0.048 C 
ATOM      2  C   UNL     1     -17.304  12.978 -30.068  1.00  0.00    -0.012 C 
ATOM      3  C   UNL     1     -17.206  13.501 -31.302  1.00  0.00    -0.019 C 
ATOM      4  C   UNL     1     -15.950  14.176 -31.787  1.00  0.00     0.036 C 
ATOM      5  C   UNL     1     -15.194  14.844 -30.623  1.00  0.00     0.025 C 
ATOM      6  C   UNL     1     -14.913  13.821 -29.508  1.00  0.00     0.089 C 
ATOM      7  C   UNL     1     -16.176  13.106 -29.112  1.00  0.00     0.158 C 
ATOM      8  O   UNL     1     -16.249  12.575 -27.972  1.00  0.00    -0.295 OA
ENDROOT
BRANCH   5   9
ATOM      9  C   UNL     1     -13.911  15.512 -31.102  1.00  0.00    -0.077 C 
ATOM     10  C   UNL     1     -13.889  16.160 -32.277  1.00  0.00     0.008 C 
ATOM     11  C   UNL     1     -12.648  15.467 -30.280  1.00  0.00     0.039 C 
ENDBRANCH   5   9
TORSDOF 1
ENDMDL
MODEL 9
REMARK VINA RESULT:    -4.322     12.193     14.171
REMARK INTER + INTRA:          -4.671
REMARK INTER:                  -4.582
REMARK INTRA:                  -0.088
REMARK UNBOUND:                -0.096
REMARK SMILES C=C(C)[C@H]1CC=C(C)C(=O)C1
REMARK SMILES IDX 8 1 7 2 6 3 5 4 4 5 11 6 9 7 10 8 2 9 1 10 3 11
REMARK H PARENT
REMARK Flexibility Score: inf
ROOT
ATOM      1  C   UNL     1     -11.579  15.074 -32.183  1.00  0.00     0.048 C 
ATOM      2  C   UNL     1     -12.884  14.681 -31.547  1.00  0.00    -0.012 C 
ATOM      3  C   UNL     1     -13.785  15.623 -31.218  1.00  0.00    -0.019 C 
ATOM      4  C   UNL     1     -15.069  15.286 -30.507  1.00  0.00     0.036 C 
ATOM      5  C   UNL     1     -15.557  13.873 -30.879  1.00  0.00     0.025 C 
ATOM      6  C   UNL     1     -14.453  12.836 -30.610  1.00  0.00     0.089 C 
ATOM      7  C   UNL     1     -13.162  13.251 -31.264  1.00  0.00     0.158 C 
ATOM      8  O   UNL     1     -12.299  12.374 -31.528  1.00  0.00    -0.295 OA
ENDROOT
BRANCH   5   9
ATOM      9  C   UNL     1     -16.845  13.518 -30.148  1.00  0.00    -0.077 C 
ATOM     10  C   UNL     1     -17.857  12.936 -30.811  1.00  0.00     0.008 C 
ATOM     11  C   UNL     1     -17.018  13.804 -28.677  1.00  0.00     0.039 C 
ENDBRANCH   5   9
TORSDOF 1
ENDMDL
