MODEL 1
REMARK VINA RESULT:    -5.528      0.000      0.000
REMARK INTER + INTRA:          -6.631
REMARK INTER:                  -6.497
REMARK INTRA:                  -0.134
REMARK UNBOUND:                -0.134
REMARK SMILES O=C([O-])C=Cc1ccc(O)c(O)c1
REMARK SMILES IDX 6 1 13 2 7 3 11 4 8 5 9 6 5 7 4 8 2 9 1 10 3 11 12 12 10 14
REMARK H PARENT 12 13 10 15
REMARK Flexibility Score: inf
ROOT
ATOM      1  C   UNL     1      18.981  -7.894  20.766  1.00  0.00    -0.022 A 
ATOM      2  C   UNL     1      19.856  -7.917  19.661  1.00  0.00     0.058 A 
ATOM      3  C   UNL     1      17.605  -8.066  20.545  1.00  0.00     0.012 A 
ATOM      4  C   UNL     1      19.366  -8.133  18.368  1.00  0.00     0.157 A 
ATOM      5  C   UNL     1      17.114  -8.283  19.255  1.00  0.00     0.051 A 
ATOM      6  C   UNL     1      17.989  -8.320  18.163  1.00  0.00     0.157 A 
ENDROOT
BRANCH   1   7
ATOM      7  C   UNL     1      19.453  -7.657  22.154  1.00  0.00     0.010 C 
ATOM      8  C   UNL     1      19.433  -8.590  23.116  1.00  0.00     0.025 C 
BRANCH   8   9
ATOM      9  C   UNL     1      19.900  -8.306  24.482  1.00  0.00     0.064 C 
ATOM     10  O   UNL     1      20.786  -7.431  24.666  1.00  0.00    -0.545 OA
ATOM     11  O   UNL     1      19.381  -8.990  25.576  1.00  0.00    -0.545 OA
ENDBRANCH   8   9
ENDBRANCH   1   7
BRANCH   4  12
ATOM     12  O   UNL     1      20.261  -8.152  17.299  1.00  0.00    -0.504 OA
ATOM     13  H   UNL     1      21.173  -7.716  17.353  1.00  0.00     0.293 HD
ENDBRANCH   4  12
BRANCH   6  14
ATOM     14  O   UNL     1      17.496  -8.539  16.877  1.00  0.00    -0.504 OA
ATOM     15  H   UNL     1      17.603  -7.848  16.144  1.00  0.00     0.293 HD
ENDBRANCH   6  14
TORSDOF 4
ENDMDL
MODEL 2
REMARK VINA RESULT:    -5.470      0.795      1.824
REMARK INTER + INTRA:          -6.563
REMARK INTER:                  -6.433
REMARK INTRA:                  -0.130
REMARK UNBOUND:                -0.134
REMARK SMILES O=C([O-])C=Cc1ccc(O)c(O)c1
REMARK SMILES IDX 6 1 13 2 7 3 11 4 8 5 9 6 5 7 4 8 2 9 1 10 3 11 12 12 10 14
REMARK H PARENT 12 13 10 15
REMARK Flexibility Score: inf
ROOT
ATOM      1  C   UNL     1      19.121  -8.014  20.772  1.00  0.00    -0.022 A 
ATOM      2  C   UNL     1      17.787  -7.794  20.372  1.00  0.00     0.058 A 
ATOM      3  C   UNL     1      20.027  -8.550  19.844  1.00  0.00     0.012 A 
ATOM      4  C   UNL     1      17.378  -8.082  19.065  1.00  0.00     0.157 A 
ATOM      5  C   UNL     1      19.621  -8.837  18.538  1.00  0.00     0.051 A 
ATOM      6  C   UNL     1      18.299  -8.601  18.142  1.00  0.00     0.157 A 
ENDROOT
BRANCH   1   7
ATOM      7  C   UNL     1      19.597  -7.735  22.151  1.00  0.00     0.010 C 
ATOM      8  C   UNL     1      19.437  -8.580  23.179  1.00  0.00     0.025 C 
BRANCH   8   9
ATOM      9  C   UNL     1      19.916  -8.257  24.532  1.00  0.00     0.064 C 
ATOM     10  O   UNL     1      20.806  -7.380  24.682  1.00  0.00    -0.545 OA
ATOM     11  O   UNL     1      19.401  -8.904  25.650  1.00  0.00    -0.545 OA
ENDBRANCH   8   9
ENDBRANCH   1   7
BRANCH   4  12
ATOM     12  O   UNL     1      16.051  -7.848  18.704  1.00  0.00    -0.504 OA
ATOM     13  H   UNL     1      15.430  -8.597  18.425  1.00  0.00     0.293 HD
ENDBRANCH   4  12
BRANCH   6  14
ATOM     14  O   UNL     1      17.898  -8.887  16.837  1.00  0.00    -0.504 OA
ATOM     15  H   UNL     1      17.219  -8.311  16.353  1.00  0.00     0.293 HD
ENDBRANCH   6  14
TORSDOF 4
ENDMDL
MODEL 3
REMARK VINA RESULT:    -5.375      7.411      9.927
REMARK INTER + INTRA:          -6.452
REMARK INTER:                  -6.313
REMARK INTRA:                  -0.139
REMARK UNBOUND:                -0.134
REMARK SMILES O=C([O-])C=Cc1ccc(O)c(O)c1
REMARK SMILES IDX 6 1 13 2 7 3 11 4 8 5 9 6 5 7 4 8 2 9 1 10 3 11 12 12 10 14
REMARK H PARENT 12 13 10 15
REMARK Flexibility Score: inf
ROOT
ATOM      1  C   UNL     1      19.341 -15.071  16.287  1.00  0.00    -0.022 A 
ATOM      2  C   UNL     1      20.254 -14.990  17.357  1.00  0.00     0.058 A 
ATOM      3  C   UNL     1      17.974 -14.881  16.547  1.00  0.00     0.012 A 
ATOM      4  C   UNL     1      19.811 -14.700  18.653  1.00  0.00     0.157 A 
ATOM      5  C   UNL     1      17.530 -14.590  17.839  1.00  0.00     0.051 A 
ATOM      6  C   UNL     1      18.444 -14.495  18.896  1.00  0.00     0.157 A 
ENDROOT
BRANCH   1   7
ATOM      7  C   UNL     1      19.762 -15.388  14.899  1.00  0.00     0.010 C 
ATOM      8  C   UNL     1      19.505 -14.601  13.845  1.00  0.00     0.025 C 
BRANCH   8   9
ATOM      9  C   UNL     1      19.933 -14.962  12.484  1.00  0.00     0.064 C 
ATOM     10  O   UNL     1      20.888 -15.766  12.326  1.00  0.00    -0.545 OA
ATOM     11  O   UNL     1      19.299 -14.428  11.367  1.00  0.00    -0.545 OA
ENDBRANCH   8   9
ENDBRANCH   1   7
BRANCH   4  12
ATOM     12  O   UNL     1      20.745 -14.624  19.687  1.00  0.00    -0.504 OA
ATOM     13  H   UNL     1      21.623 -14.130  19.584  1.00  0.00     0.293 HD
ENDBRANCH   4  12
BRANCH   6  14
ATOM     14  O   UNL     1      17.997 -14.202  20.184  1.00  0.00    -0.504 OA
ATOM     15  H   UNL     1      18.431 -13.477  20.744  1.00  0.00     0.293 HD
ENDBRANCH   6  14
TORSDOF 4
ENDMDL
MODEL 4
REMARK VINA RESULT:    -5.332      2.128      3.008
REMARK INTER + INTRA:          -6.400
REMARK INTER:                  -6.276
REMARK INTRA:                  -0.124
REMARK UNBOUND:                -0.134
REMARK SMILES O=C([O-])C=Cc1ccc(O)c(O)c1
REMARK SMILES IDX 6 1 13 2 7 3 11 4 8 5 9 6 5 7 4 8 2 9 1 10 3 11 12 12 10 14
REMARK H PARENT 12 13 10 15
REMARK Flexibility Score: inf
ROOT
ATOM      1  C   UNL     1      19.869  -8.930  22.934  1.00  0.00    -0.022 A 
ATOM      2  C   UNL     1      20.034  -7.567  22.615  1.00  0.00     0.058 A 
ATOM      3  C   UNL     1      19.702  -9.855  21.891  1.00  0.00     0.012 A 
ATOM      4  C   UNL     1      20.057  -7.146  21.280  1.00  0.00     0.157 A 
ATOM      5  C   UNL     1      19.726  -9.436  20.559  1.00  0.00     0.051 A 
ATOM      6  C   UNL     1      19.906  -8.084  20.247  1.00  0.00     0.157 A 
ENDROOT
BRANCH   1   7
ATOM      7  C   UNL     1      19.827  -9.423  24.334  1.00  0.00     0.010 C 
ATOM      8  C   UNL     1      19.559  -8.643  25.390  1.00  0.00     0.025 C 
BRANCH   8   9
ATOM      9  C   UNL     1      19.540  -9.173  26.763  1.00  0.00     0.064 C 
ATOM     10  O   UNL     1      20.616  -9.263  27.409  1.00  0.00    -0.545 OA
ATOM     11  O   UNL     1      18.350  -9.576  27.360  1.00  0.00    -0.545 OA
ENDBRANCH   8   9
ENDBRANCH   1   7
BRANCH   4  12
ATOM     12  O   UNL     1      20.226  -5.789  21.002  1.00  0.00    -0.504 OA
ATOM     13  H   UNL     1      20.019  -5.070  21.684  1.00  0.00     0.293 HD
ENDBRANCH   4  12
BRANCH   6  14
ATOM     14  O   UNL     1      19.931  -7.669  18.915  1.00  0.00    -0.504 OA
ATOM     15  H   UNL     1      20.459  -6.855  18.623  1.00  0.00     0.293 HD
ENDBRANCH   6  14
TORSDOF 4
ENDMDL
MODEL 5
REMARK VINA RESULT:    -5.278      8.226     11.189
REMARK INTER + INTRA:          -6.337
REMARK INTER:                  -6.214
REMARK INTRA:                  -0.123
REMARK UNBOUND:                -0.134
REMARK SMILES O=C([O-])C=Cc1ccc(O)c(O)c1
REMARK SMILES IDX 6 1 13 2 7 3 11 4 8 5 9 6 5 7 4 8 2 9 1 10 3 11 12 12 10 14
REMARK H PARENT 12 13 10 15
REMARK Flexibility Score: inf
ROOT
ATOM      1  C   UNL     1      19.832 -14.320  14.136  1.00  0.00    -0.022 A 
ATOM      2  C   UNL     1      19.973 -15.680  14.477  1.00  0.00     0.058 A 
ATOM      3  C   UNL     1      19.910 -13.355  15.153  1.00  0.00     0.012 A 
ATOM      4  C   UNL     1      20.211 -16.062  15.802  1.00  0.00     0.157 A 
ATOM      5  C   UNL     1      20.149 -13.734  16.476  1.00  0.00     0.051 A 
ATOM      6  C   UNL     1      20.304 -15.085  16.807  1.00  0.00     0.157 A 
ENDROOT
BRANCH   1   7
ATOM      7  C   UNL     1      19.566 -13.868  12.747  1.00  0.00     0.010 C 
ATOM      8  C   UNL     1      20.025 -14.501  11.658  1.00  0.00     0.025 C 
BRANCH   8   9
ATOM      9  C   UNL     1      19.746 -14.010  10.299  1.00  0.00     0.064 C 
ATOM     10  O   UNL     1      18.562 -13.742   9.967  1.00  0.00    -0.545 OA
ATOM     11  O   UNL     1      20.770 -13.836   9.374  1.00  0.00    -0.545 OA
ENDBRANCH   8   9
ENDBRANCH   1   7
BRANCH   4  12
ATOM     12  O   UNL     1      20.349 -17.418  16.102  1.00  0.00    -0.504 OA
ATOM     13  H   UNL     1      20.210 -18.140  15.406  1.00  0.00     0.293 HD
ENDBRANCH   4  12
BRANCH   6  14
ATOM     14  O   UNL     1      20.545 -15.460  18.128  1.00  0.00    -0.504 OA
ATOM     15  H   UNL     1      21.479 -15.451  18.520  1.00  0.00     0.293 HD
ENDBRANCH   6  14
TORSDOF 4
ENDMDL
MODEL 6
REMARK VINA RESULT:    -5.241      7.379     10.074
REMARK INTER + INTRA:          -6.293
REMARK INTER:                  -6.165
REMARK INTRA:                  -0.128
REMARK UNBOUND:                -0.134
REMARK SMILES O=C([O-])C=Cc1ccc(O)c(O)c1
REMARK SMILES IDX 6 1 13 2 7 3 11 4 8 5 9 6 5 7 4 8 2 9 1 10 3 11 12 12 10 14
REMARK H PARENT 12 13 10 15
REMARK Flexibility Score: inf
ROOT
ATOM      1  C   UNL     1      19.321 -15.047  16.178  1.00  0.00    -0.022 A 
ATOM      2  C   UNL     1      17.946 -14.938  16.471  1.00  0.00     0.058 A 
ATOM      3  C   UNL     1      20.251 -14.865  17.214  1.00  0.00     0.012 A 
ATOM      4  C   UNL     1      17.514 -14.679  17.777  1.00  0.00     0.157 A 
ATOM      5  C   UNL     1      19.822 -14.608  18.518  1.00  0.00     0.051 A 
ATOM      6  C   UNL     1      18.455 -14.518  18.807  1.00  0.00     0.157 A 
ENDROOT
BRANCH   1   7
ATOM      7  C   UNL     1      19.827 -15.308  14.806  1.00  0.00     0.010 C 
ATOM      8  C   UNL     1      19.444 -14.612  13.727  1.00  0.00     0.025 C 
BRANCH   8   9
ATOM      9  C   UNL     1      19.964 -14.914  12.384  1.00  0.00     0.064 C 
ATOM     10  O   UNL     1      20.906 -15.738  12.253  1.00  0.00    -0.545 OA
ATOM     11  O   UNL     1      19.431 -14.304  11.253  1.00  0.00    -0.545 OA
ENDBRANCH   8   9
ENDBRANCH   1   7
BRANCH   4  12
ATOM     12  O   UNL     1      16.146 -14.582  18.031  1.00  0.00    -0.504 OA
ATOM     13  H   UNL     1      15.676 -13.689  18.111  1.00  0.00     0.293 HD
ENDBRANCH   4  12
BRANCH   6  14
ATOM     14  O   UNL     1      18.029 -14.263  20.110  1.00  0.00    -0.504 OA
ATOM     15  H   UNL     1      18.551 -14.596  20.913  1.00  0.00     0.293 HD
ENDBRANCH   6  14
TORSDOF 4
ENDMDL
MODEL 7
REMARK VINA RESULT:    -5.178      6.714      9.561
REMARK INTER + INTRA:          -6.220
REMARK INTER:                  -6.094
REMARK INTRA:                  -0.126
REMARK UNBOUND:                -0.134
REMARK SMILES O=C([O-])C=Cc1ccc(O)c(O)c1
REMARK SMILES IDX 6 1 13 2 7 3 11 4 8 5 9 6 5 7 4 8 2 9 1 10 3 11 12 12 10 14
REMARK H PARENT 12 13 10 15
REMARK Flexibility Score: inf
ROOT
ATOM      1  C   UNL     1      18.800 -14.198  15.701  1.00  0.00    -0.022 A 
ATOM      2  C   UNL     1      19.014 -12.865  16.108  1.00  0.00     0.058 A 
ATOM      3  C   UNL     1      17.969 -15.019  16.478  1.00  0.00     0.012 A 
ATOM      4  C   UNL     1      18.387 -12.362  17.254  1.00  0.00     0.157 A 
ATOM      5  C   UNL     1      17.341 -14.518  17.621  1.00  0.00     0.051 A 
ATOM      6  C   UNL     1      17.544 -13.189  18.012  1.00  0.00     0.157 A 
ENDROOT
BRANCH   1   7
ATOM      7  C   UNL     1      19.452 -14.780  14.500  1.00  0.00     0.010 C 
ATOM      8  C   UNL     1      19.458 -14.190  13.297  1.00  0.00     0.025 C 
BRANCH   8   9
ATOM      9  C   UNL     1      20.107 -14.810  12.131  1.00  0.00     0.064 C 
ATOM     10  O   UNL     1      20.873 -15.795  12.297  1.00  0.00    -0.545 OA
ATOM     11  O   UNL     1      19.890 -14.325  10.846  1.00  0.00    -0.545 OA
ENDBRANCH   8   9
ENDBRANCH   1   7
BRANCH   4  12
ATOM     12  O   UNL     1      18.618 -11.037  17.625  1.00  0.00    -0.504 OA
ATOM     13  H   UNL     1      19.547 -10.690  17.832  1.00  0.00     0.293 HD
ENDBRANCH   4  12
BRANCH   6  14
ATOM     14  O   UNL     1      16.915 -12.691  19.153  1.00  0.00    -0.504 OA
ATOM     15  H   UNL     1      17.115 -11.763  19.507  1.00  0.00     0.293 HD
ENDBRANCH   6  14
TORSDOF 4
ENDMDL
MODEL 8
REMARK VINA RESULT:    -5.156      1.707      1.924
REMARK INTER + INTRA:          -6.194
REMARK INTER:                  -6.068
REMARK INTRA:                  -0.126
REMARK UNBOUND:                -0.134
REMARK SMILES O=C([O-])C=Cc1ccc(O)c(O)c1
REMARK SMILES IDX 6 1 13 2 7 3 11 4 8 5 9 6 5 7 4 8 2 9 1 10 3 11 12 12 10 14
REMARK H PARENT 12 13 10 15
REMARK Flexibility Score: inf
ROOT
ATOM      1  C   UNL     1      18.715  -8.760  21.359  1.00  0.00    -0.022 A 
ATOM      2  C   UNL     1      18.830 -10.091  20.911  1.00  0.00     0.058 A 
ATOM      3  C   UNL     1      17.939  -7.859  20.614  1.00  0.00     0.012 A 
ATOM      4  C   UNL     1      18.161 -10.515  19.757  1.00  0.00     0.157 A 
ATOM      5  C   UNL     1      17.269  -8.280  19.463  1.00  0.00     0.051 A 
ATOM      6  C   UNL     1      17.373  -9.607  19.031  1.00  0.00     0.157 A 
ENDROOT
BRANCH   1   7
ATOM      7  C   UNL     1      19.416  -8.262  22.570  1.00  0.00     0.010 C 
ATOM      8  C   UNL     1      19.414  -8.903  23.747  1.00  0.00     0.025 C 
BRANCH   8   9
ATOM      9  C   UNL     1      20.113  -8.366  24.925  1.00  0.00     0.064 C 
ATOM     10  O   UNL     1      20.826  -7.335  24.807  1.00  0.00    -0.545 OA
ATOM     11  O   UNL     1      20.000  -8.978  26.169  1.00  0.00    -0.545 OA
ENDBRANCH   8   9
ENDBRANCH   1   7
BRANCH   4  12
ATOM     12  O   UNL     1      18.294 -11.841  19.344  1.00  0.00    -0.504 OA
ATOM     13  H   UNL     1      17.885 -12.180  18.483  1.00  0.00     0.293 HD
ENDBRANCH   4  12
BRANCH   6  14
ATOM     14  O   UNL     1      16.702 -10.025  17.882  1.00  0.00    -0.504 OA
ATOM     15  H   UNL     1      17.040  -9.791  16.955  1.00  0.00     0.293 HD
ENDBRANCH   6  14
TORSDOF 4
ENDMDL
MODEL 9
REMARK VINA RESULT:    -5.122      2.118      2.853
REMARK INTER + INTRA:          -6.154
REMARK INTER:                  -6.009
REMARK INTRA:                  -0.145
REMARK UNBOUND:                -0.134
REMARK SMILES O=C([O-])C=Cc1ccc(O)c(O)c1
REMARK SMILES IDX 6 1 13 2 7 3 11 4 8 5 9 6 5 7 4 8 2 9 1 10 3 11 12 12 10 14
REMARK H PARENT 12 13 10 15
REMARK Flexibility Score: inf
ROOT
ATOM      1  C   UNL     1      19.848  -8.942  22.885  1.00  0.00    -0.022 A 
ATOM      2  C   UNL     1      19.813  -9.820  21.783  1.00  0.00     0.058 A 
ATOM      3  C   UNL     1      19.906  -7.560  22.648  1.00  0.00     0.012 A 
ATOM      4  C   UNL     1      19.811  -9.322  20.475  1.00  0.00     0.157 A 
ATOM      5  C   UNL     1      19.903  -7.060  21.344  1.00  0.00     0.051 A 
ATOM      6  C   UNL     1      19.852  -7.936  20.253  1.00  0.00     0.157 A 
ENDROOT
BRANCH   1   7
ATOM      7  C   UNL     1      19.863  -9.424  24.290  1.00  0.00     0.010 C 
ATOM      8  C   UNL     1      19.475  -8.681  25.335  1.00  0.00     0.025 C 
BRANCH   8   9
ATOM      9  C   UNL     1      19.519  -9.196  26.713  1.00  0.00     0.064 C 
ATOM     10  O   UNL     1      20.622  -9.270  27.314  1.00  0.00    -0.545 OA
ATOM     11  O   UNL     1      18.359  -9.604  27.364  1.00  0.00    -0.545 OA
ENDBRANCH   8   9
ENDBRANCH   1   7
BRANCH   4  12
ATOM     12  O   UNL     1      19.772 -10.221  19.408  1.00  0.00    -0.504 OA
ATOM     13  H   UNL     1      20.284 -10.059  18.550  1.00  0.00     0.293 HD
ENDBRANCH   4  12
BRANCH   6  14
ATOM     14  O   UNL     1      19.847  -7.435  18.951  1.00  0.00    -0.504 OA
ATOM     15  H   UNL     1      20.565  -6.799  18.625  1.00  0.00     0.293 HD
ENDBRANCH   6  14
TORSDOF 4
ENDMDL
