MODEL 1
REMARK VINA RESULT:    -4.182      0.000      0.000
REMARK INTER + INTRA:          -4.549
REMARK INTER:                  -4.549
REMARK INTRA:                   0.000
REMARK UNBOUND:                 0.000
REMARK SMILES Cc1cc(O)c2c(c1)C(=O)c1cc(O)cc(O)c1C2=O
REMARK SMILES IDX 1 1 2 2 8 3 7 4 6 5 4 6 3 7 19 8 20 9 18 10 11 11 9 12 10 13
REMARK SMILES IDX 12 14 13 15 15 16 16 17 5 18 17 20 14 22
REMARK H PARENT 5 19 17 21 14 23
REMARK Flexibility Score: inf
ROOT
ATOM      1  C   UNL     1      17.316  23.010   9.716  1.00  0.00     0.044 C 
ATOM      2  C   UNL     1      17.033  22.565   8.312  1.00  0.00    -0.047 A 
ATOM      3  C   UNL     1      17.225  23.445   7.242  1.00  0.00     0.016 A 
ATOM      4  C   UNL     1      17.004  23.025   5.920  1.00  0.00     0.038 A 
ATOM      5  C   UNL     1      16.612  21.692   5.661  1.00  0.00     0.076 A 
ATOM      6  C   UNL     1      16.375  20.817   6.753  1.00  0.00     0.127 A 
ATOM      7  C   UNL     1      16.620  21.253   8.059  1.00  0.00     0.050 A 
ATOM      8  C   UNL     1      16.534  21.245   4.246  1.00  0.00     0.201 C 
ATOM      9  O   UNL     1      16.760  20.041   3.955  1.00  0.00    -0.288 OA
ATOM     10  C   UNL     1      16.376  22.250   3.163  1.00  0.00     0.076 A 
ATOM     11  C   UNL     1      16.770  23.582   3.426  1.00  0.00     0.041 A 
ATOM     12  C   UNL     1      17.179  23.974   4.795  1.00  0.00     0.194 C 
ATOM     13  O   UNL     1      17.653  25.125   5.006  1.00  0.00    -0.289 OA
ATOM     14  C   UNL     1      16.766  24.529   2.388  1.00  0.00     0.059 A 
ATOM     15  C   UNL     1      16.361  24.171   1.102  1.00  0.00     0.120 A 
ATOM     16  C   UNL     1      15.933  22.866   0.846  1.00  0.00     0.093 A 
ATOM     17  C   UNL     1      15.908  21.910   1.866  1.00  0.00     0.131 A 
ENDROOT
BRANCH   6  18
ATOM     18  O   UNL     1      15.869  19.525   6.589  1.00  0.00    -0.507 OA
ATOM     19  H   UNL     1      15.653  18.908   7.361  1.00  0.00     0.293 HD
ENDBRANCH   6  18
BRANCH  17  20
ATOM     20  O   UNL     1      15.382  20.653   1.559  1.00  0.00    -0.507 OA
ATOM     21  H   UNL     1      14.546  20.516   1.008  1.00  0.00     0.293 HD
ENDBRANCH  17  20
BRANCH  15  22
ATOM     22  O   UNL     1      16.379  25.124   0.086  1.00  0.00    -0.508 OA
ATOM     23  H   UNL     1      16.197  24.874  -0.878  1.00  0.00     0.293 HD
ENDBRANCH  15  22
TORSDOF 3
ENDMDL
MODEL 2
REMARK VINA RESULT:    -3.223      1.602      5.564
REMARK INTER + INTRA:          -3.506
REMARK INTER:                  -3.506
REMARK INTRA:                   0.000
REMARK UNBOUND:                 0.000
REMARK SMILES Cc1cc(O)c2c(c1)C(=O)c1cc(O)cc(O)c1C2=O
REMARK SMILES IDX 1 1 2 2 8 3 7 4 6 5 4 6 3 7 19 8 20 9 18 10 11 11 9 12 10 13
REMARK SMILES IDX 12 14 13 15 15 16 16 17 5 18 17 20 14 22
REMARK H PARENT 5 19 17 21 14 23
REMARK Flexibility Score: inf
ROOT
ATOM      1  C   UNL     1      15.907  22.714   0.713  1.00  0.00     0.044 C 
ATOM      2  C   UNL     1      16.123  22.294   2.137  1.00  0.00    -0.047 A 
ATOM      3  C   UNL     1      16.265  23.257   3.142  1.00  0.00     0.016 A 
ATOM      4  C   UNL     1      16.425  22.873   4.484  1.00  0.00     0.038 A 
ATOM      5  C   UNL     1      16.415  21.503   4.830  1.00  0.00     0.076 A 
ATOM      6  C   UNL     1      16.317  20.531   3.802  1.00  0.00     0.127 A 
ATOM      7  C   UNL     1      16.139  20.937   2.476  1.00  0.00     0.050 A 
ATOM      8  C   UNL     1      16.437  21.144   6.273  1.00  0.00     0.201 C 
ATOM      9  O   UNL     1      15.878  20.085   6.664  1.00  0.00    -0.288 OA
ATOM     10  C   UNL     1      16.950  22.120   7.268  1.00  0.00     0.076 A 
ATOM     11  C   UNL     1      16.958  23.489   6.917  1.00  0.00     0.041 A 
ATOM     12  C   UNL     1      16.607  23.900   5.538  1.00  0.00     0.194 C 
ATOM     13  O   UNL     1      16.487  25.124   5.255  1.00  0.00    -0.289 OA
ATOM     14  C   UNL     1      17.304  24.454   7.879  1.00  0.00     0.059 A 
ATOM     15  C   UNL     1      17.656  24.073   9.173  1.00  0.00     0.120 A 
ATOM     16  C   UNL     1      17.688  22.718   9.513  1.00  0.00     0.093 A 
ATOM     17  C   UNL     1      17.368  21.737   8.570  1.00  0.00     0.131 A 
ENDROOT
BRANCH   6  18
ATOM     18  O   UNL     1      16.422  19.160   4.047  1.00  0.00    -0.507 OA
ATOM     19  H   UNL     1      16.383  18.752   4.971  1.00  0.00     0.293 HD
ENDBRANCH   6  18
BRANCH  17  20
ATOM     20  O   UNL     1      17.512  20.401   8.954  1.00  0.00    -0.507 OA
ATOM     21  H   UNL     1      16.732  19.790   9.154  1.00  0.00     0.293 HD
ENDBRANCH  17  20
BRANCH  15  22
ATOM     22  O   UNL     1      17.983  25.048  10.112  1.00  0.00    -0.508 OA
ATOM     23  H   UNL     1      17.806  24.913  11.100  1.00  0.00     0.293 HD
ENDBRANCH  15  22
TORSDOF 3
ENDMDL
MODEL 3
REMARK VINA RESULT:    -3.045      2.067      5.832
REMARK INTER + INTRA:          -3.312
REMARK INTER:                  -3.312
REMARK INTRA:                   0.000
REMARK UNBOUND:                 0.000
REMARK SMILES Cc1cc(O)c2c(c1)C(=O)c1cc(O)cc(O)c1C2=O
REMARK SMILES IDX 1 1 2 2 8 3 7 4 6 5 4 6 3 7 19 8 20 9 18 10 11 11 9 12 10 13
REMARK SMILES IDX 12 14 13 15 15 16 16 17 5 18 17 20 14 22
REMARK H PARENT 5 19 17 21 14 23
REMARK Flexibility Score: inf
ROOT
ATOM      1  C   UNL     1      17.442  25.123   1.741  1.00  0.00     0.044 C 
ATOM      2  C   UNL     1      17.189  24.370   3.014  1.00  0.00    -0.047 A 
ATOM      3  C   UNL     1      17.101  22.974   3.001  1.00  0.00     0.016 A 
ATOM      4  C   UNL     1      16.908  22.257   4.194  1.00  0.00     0.038 A 
ATOM      5  C   UNL     1      16.829  22.947   5.424  1.00  0.00     0.076 A 
ATOM      6  C   UNL     1      16.873  24.365   5.426  1.00  0.00     0.127 A 
ATOM      7  C   UNL     1      17.085  25.055   4.229  1.00  0.00     0.050 A 
ATOM      8  C   UNL     1      16.774  22.146   6.675  1.00  0.00     0.201 C 
ATOM      9  O   UNL     1      17.262  22.611   7.739  1.00  0.00    -0.288 OA
ATOM     10  C   UNL     1      16.317  20.733   6.627  1.00  0.00     0.076 A 
ATOM     11  C   UNL     1      16.398  20.047   5.394  1.00  0.00     0.041 A 
ATOM     12  C   UNL     1      16.784  20.780   4.165  1.00  0.00     0.194 C 
ATOM     13  O   UNL     1      16.982  20.149   3.090  1.00  0.00    -0.289 OA
ATOM     14  C   UNL     1      16.106  18.673   5.338  1.00  0.00     0.059 A 
ATOM     15  C   UNL     1      15.722  17.982   6.487  1.00  0.00     0.120 A 
ATOM     16  C   UNL     1      15.602  18.665   7.700  1.00  0.00     0.093 A 
ATOM     17  C   UNL     1      15.866  20.035   7.778  1.00  0.00     0.131 A 
ENDROOT
BRANCH   6  18
ATOM     18  O   UNL     1      16.679  25.125   6.582  1.00  0.00    -0.507 OA
ATOM     19  H   UNL     1      16.851  26.120   6.632  1.00  0.00     0.293 HD
ENDBRANCH   6  18
BRANCH  17  20
ATOM     20  O   UNL     1      15.636  20.668   9.003  1.00  0.00    -0.507 OA
ATOM     21  H   UNL     1      15.989  21.586   9.233  1.00  0.00     0.293 HD
ENDBRANCH  17  20
BRANCH  15  22
ATOM     22  O   UNL     1      15.451  16.618   6.410  1.00  0.00    -0.508 OA
ATOM     23  H   UNL     1      14.912  16.144   7.123  1.00  0.00     0.293 HD
ENDBRANCH  15  22
TORSDOF 3
ENDMDL
MODEL 4
REMARK VINA RESULT:    -2.400      1.976      3.946
REMARK INTER + INTRA:          -2.610
REMARK INTER:                  -2.610
REMARK INTRA:                   0.000
REMARK UNBOUND:                 0.000
REMARK SMILES Cc1cc(O)c2c(c1)C(=O)c1cc(O)cc(O)c1C2=O
REMARK SMILES IDX 1 1 2 2 8 3 7 4 6 5 4 6 3 7 19 8 20 9 18 10 11 11 9 12 10 13
REMARK SMILES IDX 12 14 13 15 15 16 16 17 5 18 17 20 14 22
REMARK H PARENT 5 19 17 21 14 23
REMARK Flexibility Score: inf
ROOT
ATOM      1  C   UNL     1      15.625  16.718   6.373  1.00  0.00     0.044 C 
ATOM      2  C   UNL     1      15.956  18.180   6.437  1.00  0.00    -0.047 A 
ATOM      3  C   UNL     1      16.115  18.918   5.260  1.00  0.00     0.016 A 
ATOM      4  C   UNL     1      16.382  20.297   5.309  1.00  0.00     0.038 A 
ATOM      5  C   UNL     1      16.464  20.953   6.557  1.00  0.00     0.076 A 
ATOM      6  C   UNL     1      16.346  20.192   7.748  1.00  0.00     0.127 A 
ATOM      7  C   UNL     1      16.061  18.824   7.674  1.00  0.00     0.050 A 
ATOM      8  C   UNL     1      16.599  22.434   6.564  1.00  0.00     0.201 C 
ATOM      9  O   UNL     1      16.121  23.103   7.518  1.00  0.00    -0.288 OA
ATOM     10  C   UNL     1      17.127  23.132   5.364  1.00  0.00     0.076 A 
ATOM     11  C   UNL     1      17.043  22.471   4.117  1.00  0.00     0.041 A 
ATOM     12  C   UNL     1      16.582  21.064   4.056  1.00  0.00     0.194 C 
ATOM     13  O   UNL     1      16.383  20.513   2.938  1.00  0.00    -0.289 OA
ATOM     14  C   UNL     1      17.403  23.150   2.941  1.00  0.00     0.059 A 
ATOM     15  C   UNL     1      17.858  24.467   2.993  1.00  0.00     0.120 A 
ATOM     16  C   UNL     1      17.981  25.112   4.227  1.00  0.00     0.093 A 
ATOM     17  C   UNL     1      17.649  24.451   5.413  1.00  0.00     0.131 A 
ENDROOT
BRANCH   6  18
ATOM     18  O   UNL     1      16.536  20.741   9.019  1.00  0.00    -0.507 OA
ATOM     19  H   UNL     1      15.811  21.223   9.533  1.00  0.00     0.293 HD
ENDBRANCH   6  18
BRANCH  17  20
ATOM     20  O   UNL     1      17.884  25.125   6.614  1.00  0.00    -0.507 OA
ATOM     21  H   UNL     1      17.149  25.432   7.236  1.00  0.00     0.293 HD
ENDBRANCH  17  20
BRANCH  15  22
ATOM     22  O   UNL     1      18.197  25.125   1.813  1.00  0.00    -0.508 OA
ATOM     23  H   UNL     1      18.984  25.760   1.767  1.00  0.00     0.293 HD
ENDBRANCH  15  22
TORSDOF 3
ENDMDL
MODEL 5
REMARK VINA RESULT:    -1.267      1.799      6.313
REMARK INTER + INTRA:          -1.378
REMARK INTER:                  -1.378
REMARK INTRA:                   0.000
REMARK UNBOUND:                 0.000
REMARK SMILES Cc1cc(O)c2c(c1)C(=O)c1cc(O)cc(O)c1C2=O
REMARK SMILES IDX 1 1 2 2 8 3 7 4 6 5 4 6 3 7 19 8 20 9 18 10 11 11 9 12 10 13
REMARK SMILES IDX 12 14 13 15 15 16 16 17 5 18 17 20 14 22
REMARK H PARENT 5 19 17 21 14 23
REMARK Flexibility Score: inf
ROOT
ATOM      1  C   UNL     1      15.320  23.250  -1.117  1.00  0.00     0.044 C 
ATOM      2  C   UNL     1      15.690  23.060   0.324  1.00  0.00    -0.047 A 
ATOM      3  C   UNL     1      15.634  21.788   0.905  1.00  0.00     0.016 A 
ATOM      4  C   UNL     1      16.020  21.592   2.241  1.00  0.00     0.038 A 
ATOM      5  C   UNL     1      16.498  22.683   3.002  1.00  0.00     0.076 A 
ATOM      6  C   UNL     1      16.510  23.978   2.423  1.00  0.00     0.127 A 
ATOM      7  C   UNL     1      16.139  24.144   1.085  1.00  0.00     0.050 A 
ATOM      8  C   UNL     1      17.036  22.408   4.361  1.00  0.00     0.201 C 
ATOM      9  O   UNL     1      17.946  23.139   4.834  1.00  0.00    -0.288 OA
ATOM     10  C   UNL     1      16.635  21.170   5.076  1.00  0.00     0.076 A 
ATOM     11  C   UNL     1      16.158  20.081   4.310  1.00  0.00     0.041 A 
ATOM     12  C   UNL     1      15.927  20.247   2.856  1.00  0.00     0.194 C 
ATOM     13  O   UNL     1      15.626  19.247   2.147  1.00  0.00    -0.289 OA
ATOM     14  C   UNL     1      15.901  18.848   4.934  1.00  0.00     0.059 A 
ATOM     15  C   UNL     1      16.097  18.692   6.306  1.00  0.00     0.120 A 
ATOM     16  C   UNL     1      16.530  19.776   7.073  1.00  0.00     0.093 A 
ATOM     17  C   UNL     1      16.774  21.019   6.481  1.00  0.00     0.131 A 
ENDROOT
BRANCH   6  18
ATOM     18  O   UNL     1      16.850  25.125   3.144  1.00  0.00    -0.507 OA
ATOM     19  H   UNL     1      17.228  25.104   4.082  1.00  0.00     0.293 HD
ENDBRANCH   6  18
BRANCH  17  20
ATOM     20  O   UNL     1      17.115  22.080   7.324  1.00  0.00    -0.507 OA
ATOM     21  H   UNL     1      16.920  23.048   7.111  1.00  0.00     0.293 HD
ENDBRANCH  17  20
BRANCH  15  22
ATOM     22  O   UNL     1      15.848  17.457   6.899  1.00  0.00    -0.508 OA
ATOM     23  H   UNL     1      15.970  16.590   6.390  1.00  0.00     0.293 HD
ENDBRANCH  15  22
TORSDOF 3
ENDMDL
