MODEL 1
REMARK VINA RESULT:    58.339      0.000      0.000
REMARK INTER + INTRA:          78.188
REMARK INTER:                  78.802
REMARK INTRA:                  -0.614
REMARK UNBOUND:                -0.614
REMARK SMILES O=c1c(-c2ccc(O)cc2)coc2c([C@@H]3O[C@@H](CO)[C@@H](O)[C@@H](O)[C@@H]3O)c(O)ccc12
REMARK SMILES IDX 3 1 11 2 12 3 13 4 30 5 2 6 1 7 29 8 28 9 26 10 14 11 4 12
REMARK SMILES IDX 5 13 6 14 7 15 10 16 9 17 8 18 15 20 24 21 16 22 22 23 17 24
REMARK SMILES IDX 20 25 25 26 23 28 18 30 19 31 21 33 27 35
REMARK H PARENT 8 19 25 27 23 29 19 32 21 34 27 36
REMARK Flexibility Score: inf
ROOT
ATOM      1  C   UNL     1       6.661  -2.268   3.119  1.00  0.00     0.065 A 
ATOM      2  C   UNL     1       5.311  -2.594   3.307  1.00  0.00     0.208 A 
ATOM      3  O   UNL     1       4.411  -2.350   2.363  1.00  0.00    -0.463 OA
ATOM      4  C   UNL     1       4.714  -1.786   1.196  1.00  0.00     0.147 A 
ATOM      5  C   UNL     1       6.052  -1.416   0.925  1.00  0.00     0.066 A 
ATOM      6  C   UNL     1       7.031  -1.659   1.906  1.00  0.00     0.200 A 
ATOM      7  O   UNL     1       8.229  -1.313   1.709  1.00  0.00    -0.288 OA
ATOM      8  C   UNL     1       6.370  -0.815  -0.305  1.00  0.00     0.020 A 
ATOM      9  C   UNL     1       5.369  -0.560  -1.240  1.00  0.00     0.047 A 
ATOM     10  C   UNL     1       4.037  -0.905  -0.973  1.00  0.00     0.125 A 
ATOM     11  C   UNL     1       3.699  -1.556   0.237  1.00  0.00     0.069 A 
ENDROOT
BRANCH   1  12
ATOM     12  C   UNL     1       7.650  -2.556   4.189  1.00  0.00    -0.011 A 
ATOM     13  C   UNL     1       8.194  -3.844   4.325  1.00  0.00     0.013 A 
ATOM     14  C   UNL     1       9.135  -4.113   5.323  1.00  0.00     0.047 A 
ATOM     15  C   UNL     1       9.548  -3.098   6.196  1.00  0.00     0.115 A 
ATOM     16  C   UNL     1       8.071  -1.542   5.069  1.00  0.00     0.013 A 
ATOM     17  C   UNL     1       9.012  -1.815   6.066  1.00  0.00     0.047 A 
BRANCH  15  18
ATOM     18  O   UNL     1      10.486  -3.354   7.193  1.00  0.00    -0.508 OA
ATOM     19  H   UNL     1      11.112  -2.635   7.527  1.00  0.00     0.293 HD
ENDBRANCH  15  18
ENDBRANCH   1  12
BRANCH  11  20
ATOM     20  C   UNL     1       2.257  -1.926   0.573  1.00  0.00     0.188 C 
ATOM     21  C   UNL     1       1.739  -1.048   1.729  1.00  0.00     0.179 C 
ATOM     22  O   UNL     1       1.429  -1.813  -0.577  1.00  0.00    -0.362 OA
ATOM     23  C   UNL     1       0.328  -1.503   2.125  1.00  0.00     0.177 C 
ATOM     24  C   UNL     1       0.088  -2.231  -0.348  1.00  0.00     0.176 C 
ATOM     25  C   UNL     1      -0.584  -1.554   0.885  1.00  0.00     0.177 C 
BRANCH  21  26
ATOM     26  O   UNL     1       1.693   0.303   1.339  1.00  0.00    -0.387 OA
ATOM     27  H   UNL     1       1.025   0.371   0.610  1.00  0.00     0.211 HD
ENDBRANCH  21  26
BRANCH  23  28
ATOM     28  O   UNL     1       0.367  -2.759   2.750  1.00  0.00    -0.387 OA
ATOM     29  H   UNL     1      -0.558  -2.984   3.029  1.00  0.00     0.211 HD
ENDBRANCH  23  28
BRANCH  24  30
ATOM     30  C   UNL     1      -0.081  -3.765  -0.460  1.00  0.00     0.191 C 
BRANCH  30  31
ATOM     31  O   UNL     1      -1.243  -4.123  -1.155  1.00  0.00    -0.394 OA
ATOM     32  H   UNL     1      -1.130  -3.779  -2.076  1.00  0.00     0.210 HD
ENDBRANCH  30  31
ENDBRANCH  24  30
BRANCH  25  33
ATOM     33  O   UNL     1      -1.799  -2.191   1.194  1.00  0.00    -0.388 OA
ATOM     34  H   UNL     1      -2.377  -2.112   0.391  1.00  0.00     0.211 HD
ENDBRANCH  25  33
ENDBRANCH  11  20
BRANCH  10  35
ATOM     35  O   UNL     1       3.056  -0.595  -1.915  1.00  0.00    -0.507 OA
ATOM     36  H   UNL     1       2.478   0.231  -1.829  1.00  0.00     0.293 HD
ENDBRANCH  10  35
TORSDOF 9
ENDMDL
