MODEL 1
REMARK VINA RESULT:    -4.486      0.000      0.000
REMARK INTER + INTRA:          -6.335
REMARK INTER:                  -6.060
REMARK INTRA:                  -0.275
REMARK UNBOUND:                -0.275
REMARK SMILES O=C[C@@H](O)[C@@H](O)[C@H](O)CO
REMARK SMILES IDX 7 1 9 2 10 3 5 5 3 6 2 7 1 8 4 9 6 11 8 13
REMARK H PARENT 10 4 4 10 6 12 8 14
REMARK Flexibility Score: inf
ROOT
ATOM      1  C   UNL     1       0.279 -48.768 -13.038  1.00  0.00     0.171 C 
ENDROOT
BRANCH   1   2
ATOM      2  C   UNL     1       0.808 -47.453 -12.447  1.00  0.00     0.190 C 
BRANCH   2   3
ATOM      3  O   UNL     1      -0.248 -46.658 -11.976  1.00  0.00    -0.394 OA
ATOM      4  H   UNL     1      -0.143 -46.592 -10.991  1.00  0.00     0.210 HD
ENDBRANCH   2   3
ENDBRANCH   1   2
BRANCH   1   5
ATOM      5  C   UNL     1       0.776 -48.989 -14.492  1.00  0.00     0.181 C 
BRANCH   5   6
ATOM      6  C   UNL     1       0.117 -50.225 -15.162  1.00  0.00     0.209 C 
BRANCH   6   7
ATOM      7  C   UNL     1       0.330 -51.473 -14.346  1.00  0.00     0.258 C 
ATOM      8  O   UNL     1      -0.523 -52.345 -14.304  1.00  0.00    -0.300 OA
ENDBRANCH   6   7
BRANCH   6   9
ATOM      9  O   UNL     1      -1.258 -50.019 -15.380  1.00  0.00    -0.383 OA
ATOM     10  H   UNL     1      -1.435 -49.045 -15.300  1.00  0.00     0.211 HD
ENDBRANCH   6   9
ENDBRANCH   5   6
BRANCH   5  11
ATOM     11  O   UNL     1       0.573 -47.835 -15.273  1.00  0.00    -0.387 OA
ATOM     12  H   UNL     1      -0.377 -47.829 -15.564  1.00  0.00     0.211 HD
ENDBRANCH   5  11
ENDBRANCH   1   5
BRANCH   1  13
ATOM     13  O   UNL     1      -1.126 -48.744 -12.998  1.00  0.00    -0.388 OA
ATOM     14  H   UNL     1      -1.445 -49.632 -13.305  1.00  0.00     0.211 HD
ENDBRANCH   1  13
TORSDOF 8
ENDMDL
MODEL 2
REMARK VINA RESULT:    -4.473     15.126     15.796
REMARK INTER + INTRA:          -6.318
REMARK INTER:                  -5.662
REMARK INTRA:                  -0.655
REMARK UNBOUND:                -0.275
REMARK SMILES O=C[C@@H](O)[C@@H](O)[C@H](O)CO
REMARK SMILES IDX 7 1 9 2 10 3 5 5 3 6 2 7 1 8 4 9 6 11 8 13
REMARK H PARENT 10 4 4 10 6 12 8 14
REMARK Flexibility Score: inf
ROOT
ATOM      1  C   UNL     1     -14.080 -39.972 -15.434  1.00  0.00     0.171 C 
ENDROOT
BRANCH   1   2
ATOM      2  C   UNL     1     -15.573 -40.287 -15.256  1.00  0.00     0.190 C 
BRANCH   2   3
ATOM      3  O   UNL     1     -15.962 -40.112 -13.918  1.00  0.00    -0.394 OA
ATOM      4  H   UNL     1     -16.770 -40.672 -13.778  1.00  0.00     0.210 HD
ENDBRANCH   2   3
ENDBRANCH   1   2
BRANCH   1   5
ATOM      5  C   UNL     1     -13.215 -41.261 -15.442  1.00  0.00     0.181 C 
BRANCH   5   6
ATOM      6  C   UNL     1     -11.820 -41.043 -14.796  1.00  0.00     0.209 C 
BRANCH   6   7
ATOM      7  C   UNL     1     -11.094 -42.348 -14.597  1.00  0.00     0.258 C 
ATOM      8  O   UNL     1     -11.271 -43.013 -13.589  1.00  0.00    -0.300 OA
ENDBRANCH   6   7
BRANCH   6   9
ATOM      9  O   UNL     1     -11.031 -40.164 -15.561  1.00  0.00    -0.383 OA
ATOM     10  H   UNL     1     -10.110 -40.183 -15.191  1.00  0.00     0.211 HD
ENDBRANCH   6   9
ENDBRANCH   5   6
BRANCH   5  11
ATOM     11  O   UNL     1     -13.891 -42.324 -14.813  1.00  0.00    -0.387 OA
ATOM     12  H   UNL     1     -13.791 -43.128 -15.387  1.00  0.00     0.211 HD
ENDBRANCH   5  11
ENDBRANCH   1   5
BRANCH   1  13
ATOM     13  O   UNL     1     -13.676 -39.116 -14.395  1.00  0.00    -0.388 OA
ATOM     14  H   UNL     1     -13.929 -38.193 -14.658  1.00  0.00     0.211 HD
ENDBRANCH   1  13
TORSDOF 8
ENDMDL
MODEL 3
REMARK VINA RESULT:    -4.467     14.974     15.532
REMARK INTER + INTRA:          -6.309
REMARK INTER:                  -5.601
REMARK INTRA:                  -0.708
REMARK UNBOUND:                -0.275
REMARK SMILES O=C[C@@H](O)[C@@H](O)[C@H](O)CO
REMARK SMILES IDX 7 1 9 2 10 3 5 5 3 6 2 7 1 8 4 9 6 11 8 13
REMARK H PARENT 10 4 4 10 6 12 8 14
REMARK Flexibility Score: inf
ROOT
ATOM      1  C   UNL     1     -13.479 -40.001 -15.441  1.00  0.00     0.171 C 
ENDROOT
BRANCH   1   2
ATOM      2  C   UNL     1     -14.854 -39.429 -15.063  1.00  0.00     0.190 C 
BRANCH   2   3
ATOM      3  O   UNL     1     -15.088 -39.564 -13.686  1.00  0.00    -0.394 OA
ATOM      4  H   UNL     1     -15.170 -40.536 -13.501  1.00  0.00     0.210 HD
ENDBRANCH   2   3
ENDBRANCH   1   2
BRANCH   1   5
ATOM      5  C   UNL     1     -13.566 -41.500 -15.833  1.00  0.00     0.181 C 
BRANCH   5   6
ATOM      6  C   UNL     1     -12.179 -42.099 -16.194  1.00  0.00     0.209 C 
BRANCH   6   7
ATOM      7  C   UNL     1     -11.664 -42.995 -15.098  1.00  0.00     0.258 C 
ATOM      8  O   UNL     1     -11.356 -42.537 -14.010  1.00  0.00    -0.300 OA
ENDBRANCH   6   7
BRANCH   6   9
ATOM      9  O   UNL     1     -12.225 -42.803 -17.411  1.00  0.00    -0.383 OA
ATOM     10  H   UNL     1     -13.133 -42.684 -17.796  1.00  0.00     0.211 HD
ENDBRANCH   6   9
ENDBRANCH   5   6
BRANCH   5  11
ATOM     11  O   UNL     1     -14.179 -42.252 -14.812  1.00  0.00    -0.387 OA
ATOM     12  H   UNL     1     -14.448 -43.126 -15.199  1.00  0.00     0.211 HD
ENDBRANCH   5  11
ENDBRANCH   1   5
BRANCH   1  13
ATOM     13  O   UNL     1     -12.608 -39.827 -14.352  1.00  0.00    -0.388 OA
ATOM     14  H   UNL     1     -12.953 -39.065 -13.817  1.00  0.00     0.211 HD
ENDBRANCH   1  13
TORSDOF 8
ENDMDL
MODEL 4
REMARK VINA RESULT:    -4.385     15.287     15.918
REMARK INTER + INTRA:          -6.198
REMARK INTER:                  -5.702
REMARK INTRA:                  -0.496
REMARK UNBOUND:                -0.275
REMARK SMILES O=C[C@@H](O)[C@@H](O)[C@H](O)CO
REMARK SMILES IDX 7 1 9 2 10 3 5 5 3 6 2 7 1 8 4 9 6 11 8 13
REMARK H PARENT 10 4 4 10 6 12 8 14
REMARK Flexibility Score: inf
ROOT
ATOM      1  C   UNL     1     -14.044 -40.418 -15.520  1.00  0.00     0.171 C 
ENDROOT
BRANCH   1   2
ATOM      2  C   UNL     1     -15.474 -39.893 -15.318  1.00  0.00     0.190 C 
BRANCH   2   3
ATOM      3  O   UNL     1     -15.826 -39.916 -13.960  1.00  0.00    -0.394 OA
ATOM      4  H   UNL     1     -16.812 -40.021 -13.919  1.00  0.00     0.210 HD
ENDBRANCH   2   3
ENDBRANCH   1   2
BRANCH   1   5
ATOM      5  C   UNL     1     -14.004 -41.968 -15.599  1.00  0.00     0.181 C 
BRANCH   5   6
ATOM      6  C   UNL     1     -12.558 -42.527 -15.510  1.00  0.00     0.209 C 
BRANCH   6   7
ATOM      7  C   UNL     1     -11.634 -41.818 -16.466  1.00  0.00     0.258 C 
ATOM      8  O   UNL     1     -10.730 -41.111 -16.051  1.00  0.00    -0.300 OA
ENDBRANCH   6   7
BRANCH   6   9
ATOM      9  O   UNL     1     -12.054 -42.444 -14.200  1.00  0.00    -0.383 OA
ATOM     10  H   UNL     1     -11.949 -43.370 -13.855  1.00  0.00     0.211 HD
ENDBRANCH   6   9
ENDBRANCH   5   6
BRANCH   5  11
ATOM     11  O   UNL     1     -14.819 -42.542 -14.605  1.00  0.00    -0.387 OA
ATOM     12  H   UNL     1     -15.716 -42.698 -15.002  1.00  0.00     0.211 HD
ENDBRANCH   5  11
ENDBRANCH   1   5
BRANCH   1  13
ATOM     13  O   UNL     1     -13.245 -39.958 -14.459  1.00  0.00    -0.388 OA
ATOM     14  H   UNL     1     -13.040 -40.741 -13.884  1.00  0.00     0.211 HD
ENDBRANCH   1  13
TORSDOF 8
ENDMDL
MODEL 5
REMARK VINA RESULT:    -4.324     16.187     16.866
REMARK INTER + INTRA:          -6.116
REMARK INTER:                  -5.624
REMARK INTRA:                  -0.491
REMARK UNBOUND:                -0.275
REMARK SMILES O=C[C@@H](O)[C@@H](O)[C@H](O)CO
REMARK SMILES IDX 7 1 9 2 10 3 5 5 3 6 2 7 1 8 4 9 6 11 8 13
REMARK H PARENT 10 4 4 10 6 12 8 14
REMARK Flexibility Score: inf
ROOT
ATOM      1  C   UNL     1     -13.844 -41.928 -15.591  1.00  0.00     0.171 C 
ENDROOT
BRANCH   1   2
ATOM      2  C   UNL     1     -12.430 -42.512 -15.450  1.00  0.00     0.190 C 
BRANCH   2   3
ATOM      3  O   UNL     1     -12.082 -42.654 -14.098  1.00  0.00    -0.394 OA
ATOM      4  H   UNL     1     -12.679 -42.051 -13.581  1.00  0.00     0.210 HD
ENDBRANCH   2   3
ENDBRANCH   1   2
BRANCH   1   5
ATOM      5  C   UNL     1     -13.845 -40.380 -15.467  1.00  0.00     0.181 C 
BRANCH   5   6
ATOM      6  C   UNL     1     -15.277 -39.799 -15.318  1.00  0.00     0.209 C 
BRANCH   6   7
ATOM      7  C   UNL     1     -16.204 -40.339 -16.376  1.00  0.00     0.258 C 
ATOM      8  O   UNL     1     -17.051 -41.172 -16.098  1.00  0.00    -0.300 OA
ENDBRANCH   6   7
BRANCH   6   9
ATOM      9  O   UNL     1     -15.804 -40.054 -14.039  1.00  0.00    -0.383 OA
ATOM     10  H   UNL     1     -16.530 -40.724 -14.139  1.00  0.00     0.211 HD
ENDBRANCH   6   9
ENDBRANCH   5   6
BRANCH   5  11
ATOM     11  O   UNL     1     -13.026 -39.961 -14.402  1.00  0.00    -0.387 OA
ATOM     12  H   UNL     1     -12.973 -38.970 -14.432  1.00  0.00     0.211 HD
ENDBRANCH   5  11
ENDBRANCH   1   5
BRANCH   1  13
ATOM     13  O   UNL     1     -14.665 -42.500 -14.603  1.00  0.00    -0.388 OA
ATOM     14  H   UNL     1     -14.460 -43.471 -14.576  1.00  0.00     0.211 HD
ENDBRANCH   1  13
TORSDOF 8
ENDMDL
MODEL 6
REMARK VINA RESULT:    -4.159     16.846     17.289
REMARK INTER + INTRA:          -5.893
REMARK INTER:                  -4.916
REMARK INTRA:                  -0.977
REMARK UNBOUND:                -0.275
REMARK SMILES O=C[C@@H](O)[C@@H](O)[C@H](O)CO
REMARK SMILES IDX 7 1 9 2 10 3 5 5 3 6 2 7 1 8 4 9 6 11 8 13
REMARK H PARENT 10 4 4 10 6 12 8 14
REMARK Flexibility Score: inf
ROOT
ATOM      1  C   UNL     1     -13.889 -40.263 -15.704  1.00  0.00     0.171 C 
ENDROOT
BRANCH   1   2
ATOM      2  C   UNL     1     -14.619 -39.217 -14.847  1.00  0.00     0.190 C 
BRANCH   2   3
ATOM      3  O   UNL     1     -15.556 -39.831 -14.003  1.00  0.00    -0.394 OA
ATOM      4  H   UNL     1     -15.832 -40.677 -14.444  1.00  0.00     0.210 HD
ENDBRANCH   2   3
ENDBRANCH   1   2
BRANCH   1   5
ATOM      5  C   UNL     1     -14.777 -40.776 -16.869  1.00  0.00     0.181 C 
BRANCH   5   6
ATOM      6  C   UNL     1     -14.988 -42.314 -16.820  1.00  0.00     0.209 C 
BRANCH   6   7
ATOM      7  C   UNL     1     -16.293 -42.670 -16.157  1.00  0.00     0.258 C 
ATOM      8  O   UNL     1     -16.467 -42.461 -14.968  1.00  0.00    -0.300 OA
ENDBRANCH   6   7
BRANCH   6   9
ATOM      9  O   UNL     1     -14.928 -42.882 -18.106  1.00  0.00    -0.383 OA
ATOM     10  H   UNL     1     -14.521 -43.784 -18.020  1.00  0.00     0.211 HD
ENDBRANCH   6   9
ENDBRANCH   5   6
BRANCH   5  11
ATOM     11  O   UNL     1     -16.015 -40.107 -16.889  1.00  0.00    -0.387 OA
ATOM     12  H   UNL     1     -16.304 -40.033 -17.837  1.00  0.00     0.211 HD
ENDBRANCH   5  11
ENDBRANCH   1   5
BRANCH   1  13
ATOM     13  O   UNL     1     -13.502 -41.329 -14.874  1.00  0.00    -0.388 OA
ATOM     14  H   UNL     1     -14.329 -41.806 -14.602  1.00  0.00     0.211 HD
ENDBRANCH   1  13
TORSDOF 8
ENDMDL
MODEL 7
REMARK VINA RESULT:    -4.118     15.093     15.743
REMARK INTER + INTRA:          -5.838
REMARK INTER:                  -5.141
REMARK INTRA:                  -0.697
REMARK UNBOUND:                -0.275
REMARK SMILES O=C[C@@H](O)[C@@H](O)[C@H](O)CO
REMARK SMILES IDX 7 1 9 2 10 3 5 5 3 6 2 7 1 8 4 9 6 11 8 13
REMARK H PARENT 10 4 4 10 6 12 8 14
REMARK Flexibility Score: inf
ROOT
ATOM      1  C   UNL     1     -14.086 -40.264 -15.898  1.00  0.00     0.171 C 
ENDROOT
BRANCH   1   2
ATOM      2  C   UNL     1     -14.729 -39.117 -15.105  1.00  0.00     0.190 C 
BRANCH   2   3
ATOM      3  O   UNL     1     -14.990 -39.510 -13.783  1.00  0.00    -0.394 OA
ATOM      4  H   UNL     1     -15.961 -39.373 -13.627  1.00  0.00     0.210 HD
ENDBRANCH   2   3
ENDBRANCH   1   2
BRANCH   1   5
ATOM      5  C   UNL     1     -12.948 -40.953 -15.098  1.00  0.00     0.181 C 
BRANCH   5   6
ATOM      6  C   UNL     1     -11.980 -41.752 -16.011  1.00  0.00     0.209 C 
BRANCH   6   7
ATOM      7  C   UNL     1     -10.640 -41.074 -16.123  1.00  0.00     0.258 C 
ATOM      8  O   UNL     1     -10.540 -39.969 -16.632  1.00  0.00    -0.300 OA
ENDBRANCH   6   7
BRANCH   6   9
ATOM      9  O   UNL     1     -11.816 -43.073 -15.555  1.00  0.00    -0.383 OA
ATOM     10  H   UNL     1     -11.122 -43.064 -14.844  1.00  0.00     0.211 HD
ENDBRANCH   6   9
ENDBRANCH   5   6
BRANCH   5  11
ATOM     11  O   UNL     1     -12.237 -40.013 -14.326  1.00  0.00    -0.387 OA
ATOM     12  H   UNL     1     -12.652 -39.985 -13.425  1.00  0.00     0.211 HD
ENDBRANCH   5  11
ENDBRANCH   1   5
BRANCH   1  13
ATOM     13  O   UNL     1     -13.593 -39.750 -17.110  1.00  0.00    -0.388 OA
ATOM     14  H   UNL     1     -13.032 -38.962 -16.888  1.00  0.00     0.211 HD
ENDBRANCH   1  13
TORSDOF 8
ENDMDL
MODEL 8
REMARK VINA RESULT:    -4.084     14.829     15.329
REMARK INTER + INTRA:          -5.791
REMARK INTER:                  -4.811
REMARK INTRA:                  -0.980
REMARK UNBOUND:                -0.275
REMARK SMILES O=C[C@@H](O)[C@@H](O)[C@H](O)CO
REMARK SMILES IDX 7 1 9 2 10 3 5 5 3 6 2 7 1 8 4 9 6 11 8 13
REMARK H PARENT 10 4 4 10 6 12 8 14
REMARK Flexibility Score: inf
ROOT
ATOM      1  C   UNL     1     -12.172 -42.645 -15.345  1.00  0.00     0.171 C 
ENDROOT
BRANCH   1   2
ATOM      2  C   UNL     1     -11.175 -41.602 -14.819  1.00  0.00     0.190 C 
BRANCH   2   3
ATOM      3  O   UNL     1     -11.799 -40.355 -14.655  1.00  0.00    -0.394 OA
ATOM      4  H   UNL     1     -11.715 -39.875 -15.520  1.00  0.00     0.210 HD
ENDBRANCH   2   3
ENDBRANCH   1   2
BRANCH   1   5
ATOM      5  C   UNL     1     -12.467 -42.452 -16.857  1.00  0.00     0.181 C 
BRANCH   5   6
ATOM      6  C   UNL     1     -13.974 -42.203 -17.140  1.00  0.00     0.209 C 
BRANCH   6   7
ATOM      7  C   UNL     1     -14.269 -40.734 -17.297  1.00  0.00     0.258 C 
ATOM      8  O   UNL     1     -14.098 -39.960 -16.369  1.00  0.00    -0.300 OA
ENDBRANCH   6   7
BRANCH   6   9
ATOM      9  O   UNL     1     -14.405 -42.907 -18.279  1.00  0.00    -0.383 OA
ATOM     10  H   UNL     1     -13.760 -43.643 -18.444  1.00  0.00     0.211 HD
ENDBRANCH   6   9
ENDBRANCH   5   6
BRANCH   5  11
ATOM     11  O   UNL     1     -11.684 -41.411 -17.392  1.00  0.00    -0.387 OA
ATOM     12  H   UNL     1     -12.274 -40.849 -17.960  1.00  0.00     0.211 HD
ENDBRANCH   5  11
ENDBRANCH   1   5
BRANCH   1  13
ATOM     13  O   UNL     1     -13.358 -42.548 -14.597  1.00  0.00    -0.388 OA
ATOM     14  H   UNL     1     -13.922 -43.328 -14.836  1.00  0.00     0.211 HD
ENDBRANCH   1  13
TORSDOF 8
ENDMDL
MODEL 9
REMARK VINA RESULT:    -4.079     14.790     15.366
REMARK INTER + INTRA:          -5.785
REMARK INTER:                  -4.897
REMARK INTRA:                  -0.888
REMARK UNBOUND:                -0.275
REMARK SMILES O=C[C@@H](O)[C@@H](O)[C@H](O)CO
REMARK SMILES IDX 7 1 9 2 10 3 5 5 3 6 2 7 1 8 4 9 6 11 8 13
REMARK H PARENT 10 4 4 10 6 12 8 14
REMARK Flexibility Score: inf
ROOT
ATOM      1  C   UNL     1     -11.719 -41.114 -14.823  1.00  0.00     0.171 C 
ENDROOT
BRANCH   1   2
ATOM      2  C   UNL     1     -10.770 -40.691 -15.954  1.00  0.00     0.190 C 
BRANCH   2   3
ATOM      3  O   UNL     1     -11.473 -40.028 -16.972  1.00  0.00    -0.394 OA
ATOM      4  H   UNL     1     -11.229 -39.067 -16.912  1.00  0.00     0.210 HD
ENDBRANCH   2   3
ENDBRANCH   1   2
BRANCH   1   5
ATOM      5  C   UNL     1     -12.643 -42.286 -15.251  1.00  0.00     0.181 C 
BRANCH   5   6
ATOM      6  C   UNL     1     -14.101 -41.823 -15.519  1.00  0.00     0.209 C 
BRANCH   6   7
ATOM      7  C   UNL     1     -14.486 -42.023 -16.962  1.00  0.00     0.258 C 
ATOM      8  O   UNL     1     -13.974 -41.352 -17.844  1.00  0.00    -0.300 OA
ENDBRANCH   6   7
BRANCH   6   9
ATOM      9  O   UNL     1     -15.013 -42.489 -14.680  1.00  0.00    -0.383 OA
ATOM     10  H   UNL     1     -15.612 -43.033 -15.255  1.00  0.00     0.211 HD
ENDBRANCH   6   9
ENDBRANCH   5   6
BRANCH   5  11
ATOM     11  O   UNL     1     -12.120 -42.952 -16.376  1.00  0.00    -0.387 OA
ATOM     12  H   UNL     1     -11.358 -42.415 -16.719  1.00  0.00     0.211 HD
ENDBRANCH   5  11
ENDBRANCH   1   5
BRANCH   1  13
ATOM     13  O   UNL     1     -12.485 -39.999 -14.440  1.00  0.00    -0.388 OA
ATOM     14  H   UNL     1     -12.017 -39.568 -13.679  1.00  0.00     0.211 HD
ENDBRANCH   1  13
TORSDOF 8
ENDMDL
