MODEL 1
REMARK VINA RESULT:    -3.329      0.000      0.000
REMARK INTER + INTRA:          -5.468
REMARK INTER:                  -4.885
REMARK INTRA:                  -0.583
REMARK UNBOUND:                -0.583
REMARK SMILES O=C([O-])CCCCCCCC(=O)[O-]
REMARK SMILES IDX 7 1 6 2 5 3 4 4 2 5 1 6 3 7 8 8 9 9 10 10 11 11 12 12 13 13
REMARK H PARENT
REMARK Flexibility Score: inf
ROOT
ATOM      1  C   UNL     1      57.972  29.166  50.823  1.00  0.00     0.000 C 
ENDROOT
BRANCH   1   2
ATOM      2  C   UNL     1      56.468  28.877  50.685  1.00  0.00     0.000 C 
BRANCH   2   3
ATOM      3  C   UNL     1      56.090  27.443  51.096  1.00  0.00     0.006 C 
BRANCH   3   4
ATOM      4  C   UNL     1      55.885  26.489  49.905  1.00  0.00     0.053 C 
BRANCH   4   5
ATOM      5  C   UNL     1      54.440  26.310  49.549  1.00  0.00     0.041 C 
ATOM      6  O   UNL     1      53.960  25.155  49.400  1.00  0.00    -0.550 OA
ATOM      7  O   UNL     1      53.613  27.418  49.419  1.00  0.00    -0.550 OA
ENDBRANCH   4   5
ENDBRANCH   3   4
ENDBRANCH   2   3
ENDBRANCH   1   2
BRANCH   1   8
ATOM      8  C   UNL     1      58.691  29.252  49.466  1.00  0.00     0.000 C 
BRANCH   8   9
ATOM      9  C   UNL     1      59.853  28.257  49.279  1.00  0.00     0.006 C 
BRANCH   9  10
ATOM     10  C   UNL     1      59.466  26.787  49.527  1.00  0.00     0.053 C 
BRANCH  10  11
ATOM     11  C   UNL     1      60.309  26.141  50.585  1.00  0.00     0.041 C 
ATOM     12  O   UNL     1      59.964  26.200  51.795  1.00  0.00    -0.550 OA
ATOM     13  O   UNL     1      61.499  25.512  50.241  1.00  0.00    -0.550 OA
ENDBRANCH  10  11
ENDBRANCH   9  10
ENDBRANCH   8   9
ENDBRANCH   1   8
TORSDOF 8
ENDMDL
MODEL 2
REMARK VINA RESULT:    -3.327      1.183      5.419
REMARK INTER + INTRA:          -5.466
REMARK INTER:                  -5.063
REMARK INTRA:                  -0.403
REMARK UNBOUND:                -0.583
REMARK SMILES O=C([O-])CCCCCCCC(=O)[O-]
REMARK SMILES IDX 7 1 6 2 5 3 4 4 2 5 1 6 3 7 8 8 9 9 10 10 11 11 12 12 13 13
REMARK H PARENT
REMARK Flexibility Score: inf
ROOT
ATOM      1  C   UNL     1      57.376  28.502  50.779  1.00  0.00     0.000 C 
ENDROOT
BRANCH   1   2
ATOM      2  C   UNL     1      58.436  29.274  49.975  1.00  0.00     0.000 C 
BRANCH   2   3
ATOM      3  C   UNL     1      59.400  28.352  49.208  1.00  0.00     0.006 C 
BRANCH   3   4
ATOM      4  C   UNL     1      59.256  26.862  49.571  1.00  0.00     0.053 C 
BRANCH   4   5
ATOM      5  C   UNL     1      60.566  26.222  49.917  1.00  0.00     0.041 C 
ATOM      6  O   UNL     1      61.585  26.932  50.126  1.00  0.00    -0.550 OA
ATOM      7  O   UNL     1      60.653  24.842  50.047  1.00  0.00    -0.550 OA
ENDBRANCH   4   5
ENDBRANCH   3   4
ENDBRANCH   2   3
ENDBRANCH   1   2
BRANCH   1   8
ATOM      8  C   UNL     1      55.985  29.156  50.717  1.00  0.00     0.000 C 
BRANCH   8   9
ATOM      9  C   UNL     1      54.808  28.222  51.061  1.00  0.00     0.006 C 
BRANCH   9  10
ATOM     10  C   UNL     1      54.002  27.752  49.837  1.00  0.00     0.053 C 
BRANCH  10  11
ATOM     11  C   UNL     1      54.318  26.340  49.446  1.00  0.00     0.041 C 
ATOM     12  O   UNL     1      53.529  25.695  48.707  1.00  0.00    -0.550 OA
ATOM     13  O   UNL     1      55.461  25.720  49.934  1.00  0.00    -0.550 OA
ENDBRANCH  10  11
ENDBRANCH   9  10
ENDBRANCH   8   9
ENDBRANCH   1   8
TORSDOF 8
ENDMDL
MODEL 3
REMARK VINA RESULT:    -3.319      0.869      1.401
REMARK INTER + INTRA:          -5.454
REMARK INTER:                  -4.849
REMARK INTRA:                  -0.605
REMARK UNBOUND:                -0.583
REMARK SMILES O=C([O-])CCCCCCCC(=O)[O-]
REMARK SMILES IDX 7 1 6 2 5 3 4 4 2 5 1 6 3 7 8 8 9 9 10 10 11 11 12 12 13 13
REMARK H PARENT
REMARK Flexibility Score: inf
ROOT
ATOM      1  C   UNL     1      58.083  28.787  51.496  1.00  0.00     0.000 C 
ENDROOT
BRANCH   1   2
ATOM      2  C   UNL     1      56.570  28.728  51.768  1.00  0.00     0.000 C 
BRANCH   2   3
ATOM      3  C   UNL     1      55.740  28.477  50.496  1.00  0.00     0.006 C 
BRANCH   3   4
ATOM      4  C   UNL     1      55.492  26.986  50.200  1.00  0.00     0.053 C 
BRANCH   4   5
ATOM      5  C   UNL     1      54.169  26.738  49.542  1.00  0.00     0.041 C 
ATOM      6  O   UNL     1      53.312  27.660  49.470  1.00  0.00    -0.550 OA
ATOM      7  O   UNL     1      53.895  25.502  48.973  1.00  0.00    -0.550 OA
ENDBRANCH   4   5
ENDBRANCH   3   4
ENDBRANCH   2   3
ENDBRANCH   1   2
BRANCH   1   8
ATOM      8  C   UNL     1      58.420  29.398  50.125  1.00  0.00     0.000 C 
BRANCH   8   9
ATOM      9  C   UNL     1      59.301  28.518  49.217  1.00  0.00     0.006 C 
BRANCH   9  10
ATOM     10  C   UNL     1      59.280  27.022  49.583  1.00  0.00     0.053 C 
BRANCH  10  11
ATOM     11  C   UNL     1      60.645  26.488  49.897  1.00  0.00     0.041 C 
ATOM     12  O   UNL     1      61.668  27.182  49.659  1.00  0.00    -0.550 OA
ATOM     13  O   UNL     1      60.791  25.206  50.410  1.00  0.00    -0.550 OA
ENDBRANCH  10  11
ENDBRANCH   9  10
ENDBRANCH   8   9
ENDBRANCH   1   8
TORSDOF 8
ENDMDL
MODEL 4
REMARK VINA RESULT:    -3.285     12.194     14.057
REMARK INTER + INTRA:          -5.404
REMARK INTER:                  -4.902
REMARK INTRA:                  -0.502
REMARK UNBOUND:                -0.583
REMARK SMILES O=C([O-])CCCCCCCC(=O)[O-]
REMARK SMILES IDX 7 1 6 2 5 3 4 4 2 5 1 6 3 7 8 8 9 9 10 10 11 11 12 12 13 13
REMARK H PARENT
REMARK Flexibility Score: inf
ROOT
ATOM      1  C   UNL     1      61.631  32.366  59.938  1.00  0.00     0.000 C 
ENDROOT
BRANCH   1   2
ATOM      2  C   UNL     1      61.038  31.591  61.127  1.00  0.00     0.000 C 
BRANCH   2   3
ATOM      3  C   UNL     1      61.910  30.401  61.565  1.00  0.00     0.006 C 
BRANCH   3   4
ATOM      4  C   UNL     1      63.417  30.618  61.339  1.00  0.00     0.053 C 
BRANCH   4   5
ATOM      5  C   UNL     1      64.103  29.400  60.798  1.00  0.00     0.041 C 
ATOM      6  O   UNL     1      65.355  29.387  60.653  1.00  0.00    -0.550 OA
ATOM      7  O   UNL     1      63.366  28.265  60.492  1.00  0.00    -0.550 OA
ENDBRANCH   4   5
ENDBRANCH   3   4
ENDBRANCH   2   3
ENDBRANCH   1   2
BRANCH   1   8
ATOM      8  C   UNL     1      61.848  33.858  60.247  1.00  0.00     0.000 C 
BRANCH   8   9
ATOM      9  C   UNL     1      63.276  34.376  59.990  1.00  0.00     0.006 C 
BRANCH   9  10
ATOM     10  C   UNL     1      64.164  34.416  61.247  1.00  0.00     0.053 C 
BRANCH  10  11
ATOM     11  C   UNL     1      64.923  35.703  61.375  1.00  0.00     0.041 C 
ATOM     12  O   UNL     1      65.896  35.943  60.614  1.00  0.00    -0.550 OA
ATOM     13  O   UNL     1      64.583  36.618  62.364  1.00  0.00    -0.550 OA
ENDBRANCH  10  11
ENDBRANCH   9  10
ENDBRANCH   8   9
ENDBRANCH   1   8
TORSDOF 8
ENDMDL
MODEL 5
REMARK VINA RESULT:    -3.267     12.046     14.107
REMARK INTER + INTRA:          -5.378
REMARK INTER:                  -5.073
REMARK INTRA:                  -0.305
REMARK UNBOUND:                -0.583
REMARK SMILES O=C([O-])CCCCCCCC(=O)[O-]
REMARK SMILES IDX 7 1 6 2 5 3 4 4 2 5 1 6 3 7 8 8 9 9 10 10 11 11 12 12 13 13
REMARK H PARENT
REMARK Flexibility Score: inf
ROOT
ATOM      1  C   UNL     1      62.083  32.910  60.365  1.00  0.00     0.000 C 
ENDROOT
BRANCH   1   2
ATOM      2  C   UNL     1      61.631  34.361  60.128  1.00  0.00     0.000 C 
BRANCH   2   3
ATOM      3  C   UNL     1      62.535  35.394  60.824  1.00  0.00     0.006 C 
BRANCH   3   4
ATOM      4  C   UNL     1      63.956  34.879  61.117  1.00  0.00     0.053 C 
BRANCH   4   5
ATOM      5  C   UNL     1      65.002  35.938  60.945  1.00  0.00     0.041 C 
ATOM      6  O   UNL     1      65.663  36.012  59.875  1.00  0.00    -0.550 OA
ATOM      7  O   UNL     1      65.220  36.871  61.950  1.00  0.00    -0.550 OA
ENDBRANCH   4   5
ENDBRANCH   3   4
ENDBRANCH   2   3
ENDBRANCH   1   2
BRANCH   1   8
ATOM      8  C   UNL     1      60.903  31.936  60.530  1.00  0.00     0.000 C 
BRANCH   8   9
ATOM      9  C   UNL     1      61.047  30.926  61.685  1.00  0.00     0.006 C 
BRANCH   9  10
ATOM     10  C   UNL     1      62.290  30.024  61.577  1.00  0.00     0.053 C 
BRANCH  10  11
ATOM     11  C   UNL     1      61.980  28.688  60.973  1.00  0.00     0.041 C 
ATOM     12  O   UNL     1      61.917  27.662  61.700  1.00  0.00    -0.550 OA
ATOM     13  O   UNL     1      61.804  28.566  59.600  1.00  0.00    -0.550 OA
ENDBRANCH  10  11
ENDBRANCH   9  10
ENDBRANCH   8   9
ENDBRANCH   1   8
TORSDOF 8
ENDMDL
MODEL 6
REMARK VINA RESULT:    -3.226     12.246     14.044
REMARK INTER + INTRA:          -5.318
REMARK INTER:                  -4.924
REMARK INTRA:                  -0.394
REMARK UNBOUND:                -0.583
REMARK SMILES O=C([O-])CCCCCCCC(=O)[O-]
REMARK SMILES IDX 7 1 6 2 5 3 4 4 2 5 1 6 3 7 8 8 9 9 10 10 11 11 12 12 13 13
REMARK H PARENT
REMARK Flexibility Score: inf
ROOT
ATOM      1  C   UNL     1      61.913  32.423  60.097  1.00  0.00     0.000 C 
ENDROOT
BRANCH   1   2
ATOM      2  C   UNL     1      61.545  33.912  60.202  1.00  0.00     0.000 C 
BRANCH   2   3
ATOM      3  C   UNL     1      62.764  34.844  60.080  1.00  0.00     0.006 C 
BRANCH   3   4
ATOM      4  C   UNL     1      63.917  34.488  61.036  1.00  0.00     0.053 C 
BRANCH   4   5
ATOM      5  C   UNL     1      64.855  35.634  61.264  1.00  0.00     0.041 C 
ATOM      6  O   UNL     1      64.878  36.226  62.376  1.00  0.00    -0.550 OA
ATOM      7  O   UNL     1      65.734  36.023  60.262  1.00  0.00    -0.550 OA
ENDBRANCH   4   5
ENDBRANCH   3   4
ENDBRANCH   2   3
ENDBRANCH   1   2
BRANCH   1   8
ATOM      8  C   UNL     1      61.021  31.524  60.971  1.00  0.00     0.000 C 
BRANCH   8   9
ATOM      9  C   UNL     1      61.741  30.329  61.626  1.00  0.00     0.006 C 
BRANCH   9  10
ATOM     10  C   UNL     1      63.229  30.210  61.247  1.00  0.00     0.053 C 
BRANCH  10  11
ATOM     11  C   UNL     1      63.578  28.856  60.706  1.00  0.00     0.041 C 
ATOM     12  O   UNL     1      63.020  27.826  61.168  1.00  0.00    -0.550 OA
ATOM     13  O   UNL     1      64.550  28.726  59.723  1.00  0.00    -0.550 OA
ENDBRANCH  10  11
ENDBRANCH   9  10
ENDBRANCH   8   9
ENDBRANCH   1   8
TORSDOF 8
ENDMDL
MODEL 7
REMARK VINA RESULT:    -3.178      1.986      5.345
REMARK INTER + INTRA:          -5.247
REMARK INTER:                  -4.533
REMARK INTRA:                  -0.715
REMARK UNBOUND:                -0.583
REMARK SMILES O=C([O-])CCCCCCCC(=O)[O-]
REMARK SMILES IDX 7 1 6 2 5 3 4 4 2 5 1 6 3 7 8 8 9 9 10 10 11 11 12 12 13 13
REMARK H PARENT
REMARK Flexibility Score: inf
ROOT
ATOM      1  C   UNL     1      58.314  26.227  49.726  1.00  0.00     0.000 C 
ENDROOT
BRANCH   1   2
ATOM      2  C   UNL     1      59.701  26.875  49.875  1.00  0.00     0.000 C 
BRANCH   2   3
ATOM      3  C   UNL     1      59.764  28.301  49.299  1.00  0.00     0.006 C 
BRANCH   3   4
ATOM      4  C   UNL     1      58.526  29.158  49.622  1.00  0.00     0.053 C 
BRANCH   4   5
ATOM      5  C   UNL     1      58.499  29.620  51.047  1.00  0.00     0.041 C 
ATOM      6  O   UNL     1      57.443  29.523  51.727  1.00  0.00    -0.550 OA
ATOM      7  O   UNL     1      59.651  30.122  51.638  1.00  0.00    -0.550 OA
ENDBRANCH   4   5
ENDBRANCH   3   4
ENDBRANCH   2   3
ENDBRANCH   1   2
BRANCH   1   8
ATOM      8  C   UNL     1      57.674  25.869  51.079  1.00  0.00     0.000 C 
BRANCH   8   9
ATOM      9  C   UNL     1      56.150  26.081  51.155  1.00  0.00     0.006 C 
BRANCH   9  10
ATOM     10  C   UNL     1      55.579  26.949  50.019  1.00  0.00     0.053 C 
BRANCH  10  11
ATOM     11  C   UNL     1      54.227  26.488  49.566  1.00  0.00     0.041 C 
ATOM     12  O   UNL     1      53.311  27.324  49.351  1.00  0.00    -0.550 OA
ATOM     13  O   UNL     1      53.964  25.131  49.423  1.00  0.00    -0.550 OA
ENDBRANCH  10  11
ENDBRANCH   9  10
ENDBRANCH   8   9
ENDBRANCH   1   8
TORSDOF 8
ENDMDL
MODEL 8
REMARK VINA RESULT:    -3.154     12.019     13.324
REMARK INTER + INTRA:          -5.212
REMARK INTER:                  -4.647
REMARK INTRA:                  -0.565
REMARK UNBOUND:                -0.583
REMARK SMILES O=C([O-])CCCCCCCC(=O)[O-]
REMARK SMILES IDX 7 1 6 2 5 3 4 4 2 5 1 6 3 7 8 8 9 9 10 10 11 11 12 12 13 13
REMARK H PARENT
REMARK Flexibility Score: inf
ROOT
ATOM      1  C   UNL     1      61.052  31.890  60.965  1.00  0.00     0.000 C 
ENDROOT
BRANCH   1   2
ATOM      2  C   UNL     1      61.020  32.344  59.496  1.00  0.00     0.000 C 
BRANCH   2   3
ATOM      3  C   UNL     1      61.816  33.638  59.248  1.00  0.00     0.006 C 
BRANCH   3   4
ATOM      4  C   UNL     1      62.357  34.291  60.533  1.00  0.00     0.053 C 
BRANCH   4   5
ATOM      5  C   UNL     1      63.848  34.194  60.648  1.00  0.00     0.041 C 
ATOM      6  O   UNL     1      64.509  33.528  59.808  1.00  0.00    -0.550 OA
ATOM      7  O   UNL     1      64.513  34.871  61.661  1.00  0.00    -0.550 OA
ENDBRANCH   4   5
ENDBRANCH   3   4
ENDBRANCH   2   3
ENDBRANCH   1   2
BRANCH   1   8
ATOM      8  C   UNL     1      60.824  30.377  61.127  1.00  0.00     0.000 C 
BRANCH   8   9
ATOM      9  C   UNL     1      62.098  29.551  61.391  1.00  0.00     0.006 C 
BRANCH   9  10
ATOM     10  C   UNL     1      63.396  30.379  61.381  1.00  0.00     0.053 C 
BRANCH  10  11
ATOM     11  C   UNL     1      64.518  29.681  60.672  1.00  0.00     0.041 C 
ATOM     12  O   UNL     1      65.352  30.344  60.001  1.00  0.00    -0.550 OA
ATOM     13  O   UNL     1      64.617  28.297  60.716  1.00  0.00    -0.550 OA
ENDBRANCH  10  11
ENDBRANCH   9  10
ENDBRANCH   8   9
ENDBRANCH   1   8
TORSDOF 8
ENDMDL
MODEL 9
REMARK VINA RESULT:    -3.101     11.624     13.215
REMARK INTER + INTRA:          -5.134
REMARK INTER:                  -4.677
REMARK INTRA:                  -0.457
REMARK UNBOUND:                -0.583
REMARK SMILES O=C([O-])CCCCCCCC(=O)[O-]
REMARK SMILES IDX 7 1 6 2 5 3 4 4 2 5 1 6 3 7 8 8 9 9 10 10 11 11 12 12 13 13
REMARK H PARENT
REMARK Flexibility Score: inf
ROOT
ATOM      1  C   UNL     1      63.176  32.216  60.305  1.00  0.00     0.000 C 
ENDROOT
BRANCH   1   2
ATOM      2  C   UNL     1      63.646  30.923  60.992  1.00  0.00     0.000 C 
BRANCH   2   3
ATOM      3  C   UNL     1      62.490  30.117  61.612  1.00  0.00     0.006 C 
BRANCH   3   4
ATOM      4  C   UNL     1      61.106  30.763  61.417  1.00  0.00     0.053 C 
BRANCH   4   5
ATOM      5  C   UNL     1      60.267  30.040  60.408  1.00  0.00     0.041 C 
ATOM      6  O   UNL     1      59.693  28.961  60.714  1.00  0.00    -0.550 OA
ATOM      7  O   UNL     1      60.085  30.578  59.141  1.00  0.00    -0.550 OA
ENDBRANCH   4   5
ENDBRANCH   3   4
ENDBRANCH   2   3
ENDBRANCH   1   2
BRANCH   1   8
ATOM      8  C   UNL     1      64.063  33.427  60.641  1.00  0.00     0.000 C 
BRANCH   8   9
ATOM      9  C   UNL     1      63.310  34.762  60.807  1.00  0.00     0.006 C 
BRANCH   9  10
ATOM     10  C   UNL     1      61.808  34.679  60.477  1.00  0.00     0.053 C 
BRANCH  10  11
ATOM     11  C   UNL     1      61.140  36.021  60.495  1.00  0.00     0.041 C 
ATOM     12  O   UNL     1      61.647  36.973  61.145  1.00  0.00    -0.550 OA
ATOM     13  O   UNL     1      59.935  36.210  59.831  1.00  0.00    -0.550 OA
ENDBRANCH  10  11
ENDBRANCH   9  10
ENDBRANCH   8   9
ENDBRANCH   1   8
TORSDOF 8
ENDMDL
