MODEL 1
REMARK VINA RESULT:    -3.397      0.000      0.000
REMARK INTER + INTRA:          -3.850
REMARK INTER:                  -3.794
REMARK INTRA:                  -0.055
REMARK UNBOUND:                -0.055
REMARK SMILES CCCC(=O)[O-]
REMARK SMILES IDX 3 1 4 2 5 3 6 4 2 5 1 6
REMARK H PARENT
REMARK Flexibility Score: inf
ROOT
ATOM      1  C   UNL     1      13.399  75.169  69.203  1.00  0.00     0.052 C 
ENDROOT
BRANCH   1   2
ATOM      2  C   UNL     1      14.778  74.699  68.865  1.00  0.00     0.041 C 
ATOM      3  O   UNL     1      15.040  74.286  67.705  1.00  0.00    -0.550 OA
ATOM      4  O   UNL     1      15.763  74.673  69.844  1.00  0.00    -0.550 OA
ENDBRANCH   1   2
BRANCH   1   5
ATOM      5  C   UNL     1      13.459  76.341  70.188  1.00  0.00     0.003 C 
ATOM      6  C   UNL     1      13.761  77.651  69.467  1.00  0.00     0.004 C 
ENDBRANCH   1   5
TORSDOF 2
ENDMDL
MODEL 2
REMARK VINA RESULT:    -3.367      1.487      1.929
REMARK INTER + INTRA:          -3.816
REMARK INTER:                  -3.793
REMARK INTRA:                  -0.023
REMARK UNBOUND:                -0.055
REMARK SMILES CCCC(=O)[O-]
REMARK SMILES IDX 3 1 4 2 5 3 6 4 2 5 1 6
REMARK H PARENT
REMARK Flexibility Score: inf
ROOT
ATOM      1  C   UNL     1      14.237  73.677  69.562  1.00  0.00     0.052 C 
ENDROOT
BRANCH   1   2
ATOM      2  C   UNL     1      15.084  73.295  68.389  1.00  0.00     0.041 C 
ATOM      3  O   UNL     1      15.254  74.104  67.441  1.00  0.00    -0.550 OA
ATOM      4  O   UNL     1      15.646  72.027  68.323  1.00  0.00    -0.550 OA
ENDBRANCH   1   2
BRANCH   1   5
ATOM      5  C   UNL     1      13.384  74.905  69.229  1.00  0.00     0.003 C 
ATOM      6  C   UNL     1      13.255  75.830  70.435  1.00  0.00     0.004 C 
ENDBRANCH   1   5
TORSDOF 2
ENDMDL
MODEL 3
REMARK VINA RESULT:    -3.339      2.096      3.645
REMARK INTER + INTRA:          -3.784
REMARK INTER:                  -3.769
REMARK INTRA:                  -0.015
REMARK UNBOUND:                -0.055
REMARK SMILES CCCC(=O)[O-]
REMARK SMILES IDX 3 1 4 2 5 3 6 4 2 5 1 6
REMARK H PARENT
REMARK Flexibility Score: inf
ROOT
ATOM      1  C   UNL     1      14.342  73.783  69.704  1.00  0.00     0.052 C 
ENDROOT
BRANCH   1   2
ATOM      2  C   UNL     1      13.414  74.944  69.535  1.00  0.00     0.041 C 
ATOM      3  O   UNL     1      12.944  75.531  70.544  1.00  0.00    -0.550 OA
ATOM      4  O   UNL     1      13.032  75.349  68.263  1.00  0.00    -0.550 OA
ENDBRANCH   1   2
BRANCH   1   5
ATOM      5  C   UNL     1      15.091  73.501  68.398  1.00  0.00     0.003 C 
ATOM      6  C   UNL     1      15.503  72.036  68.305  1.00  0.00     0.004 C 
ENDBRANCH   1   5
TORSDOF 2
ENDMDL
MODEL 4
REMARK VINA RESULT:    -3.333      2.101      3.445
REMARK INTER + INTRA:          -3.778
REMARK INTER:                  -3.757
REMARK INTRA:                  -0.021
REMARK UNBOUND:                -0.055
REMARK SMILES CCCC(=O)[O-]
REMARK SMILES IDX 3 1 4 2 5 3 6 4 2 5 1 6
REMARK H PARENT
REMARK Flexibility Score: inf
ROOT
ATOM      1  C   UNL     1      14.312  73.665  69.683  1.00  0.00     0.052 C 
ENDROOT
BRANCH   1   2
ATOM      2  C   UNL     1      13.490  74.892  69.443  1.00  0.00     0.041 C 
ATOM      3  O   UNL     1      13.318  75.320  68.272  1.00  0.00    -0.550 OA
ATOM      4  O   UNL     1      12.954  75.590  70.517  1.00  0.00    -0.550 OA
ENDBRANCH   1   2
BRANCH   1   5
ATOM      5  C   UNL     1      15.199  73.369  68.470  1.00  0.00     0.003 C 
ATOM      6  C   UNL     1      15.394  71.868  68.284  1.00  0.00     0.004 C 
ENDBRANCH   1   5
TORSDOF 2
ENDMDL
MODEL 5
REMARK VINA RESULT:    -3.268      1.428      1.978
REMARK INTER + INTRA:          -3.706
REMARK INTER:                  -3.659
REMARK INTRA:                  -0.047
REMARK UNBOUND:                -0.055
REMARK SMILES CCCC(=O)[O-]
REMARK SMILES IDX 3 1 4 2 5 3 6 4 2 5 1 6
REMARK H PARENT
REMARK Flexibility Score: inf
ROOT
ATOM      1  C   UNL     1      13.482  75.308  70.397  1.00  0.00     0.052 C 
ENDROOT
BRANCH   1   2
ATOM      2  C   UNL     1      14.566  74.303  70.170  1.00  0.00     0.041 C 
ATOM      3  O   UNL     1      15.766  74.602  70.401  1.00  0.00    -0.550 OA
ATOM      4  O   UNL     1      14.255  73.049  69.660  1.00  0.00    -0.550 OA
ENDBRANCH   1   2
BRANCH   1   5
ATOM      5  C   UNL     1      13.476  76.351  69.275  1.00  0.00     0.003 C 
ATOM      6  C   UNL     1      12.865  75.783  67.998  1.00  0.00     0.004 C 
ENDBRANCH   1   5
TORSDOF 2
ENDMDL
MODEL 6
REMARK VINA RESULT:    -3.228      2.110      3.063
REMARK INTER + INTRA:          -3.661
REMARK INTER:                  -3.628
REMARK INTRA:                  -0.033
REMARK UNBOUND:                -0.055
REMARK SMILES CCCC(=O)[O-]
REMARK SMILES IDX 3 1 4 2 5 3 6 4 2 5 1 6
REMARK H PARENT
REMARK Flexibility Score: inf
ROOT
ATOM      1  C   UNL     1      13.552  75.345  70.374  1.00  0.00     0.052 C 
ENDROOT
BRANCH   1   2
ATOM      2  C   UNL     1      13.377  76.217  69.171  1.00  0.00     0.041 C 
ATOM      3  O   UNL     1      13.547  77.461  69.261  1.00  0.00    -0.550 OA
ATOM      4  O   UNL     1      12.981  75.661  67.961  1.00  0.00    -0.550 OA
ENDBRANCH   1   2
BRANCH   1   5
ATOM      5  C   UNL     1      14.219  74.022  69.984  1.00  0.00     0.003 C 
ATOM      6  C   UNL     1      15.710  74.041  70.308  1.00  0.00     0.004 C 
ENDBRANCH   1   5
TORSDOF 2
ENDMDL
MODEL 7
REMARK VINA RESULT:    -3.193      2.070      2.796
REMARK INTER + INTRA:          -3.621
REMARK INTER:                  -3.556
REMARK INTRA:                  -0.065
REMARK UNBOUND:                -0.055
REMARK SMILES CCCC(=O)[O-]
REMARK SMILES IDX 3 1 4 2 5 3 6 4 2 5 1 6
REMARK H PARENT
REMARK Flexibility Score: inf
ROOT
ATOM      1  C   UNL     1      13.136  75.671  70.261  1.00  0.00     0.052 C 
ENDROOT
BRANCH   1   2
ATOM      2  C   UNL     1      14.364  76.418  70.675  1.00  0.00     0.041 C 
ATOM      3  O   UNL     1      14.895  77.246  69.891  1.00  0.00    -0.550 OA
ATOM      4  O   UNL     1      14.949  76.164  71.909  1.00  0.00    -0.550 OA
ENDBRANCH   1   2
BRANCH   1   5
ATOM      5  C   UNL     1      13.328  75.051  68.874  1.00  0.00     0.003 C 
ATOM      6  C   UNL     1      14.279  73.860  68.929  1.00  0.00     0.004 C 
ENDBRANCH   1   5
TORSDOF 2
ENDMDL
MODEL 8
REMARK VINA RESULT:    -3.144      1.421      2.110
REMARK INTER + INTRA:          -3.567
REMARK INTER:                  -3.507
REMARK INTRA:                  -0.060
REMARK UNBOUND:                -0.055
REMARK SMILES CCCC(=O)[O-]
REMARK SMILES IDX 3 1 4 2 5 3 6 4 2 5 1 6
REMARK H PARENT
REMARK Flexibility Score: inf
ROOT
ATOM      1  C   UNL     1      13.327  75.357  70.373  1.00  0.00     0.052 C 
ENDROOT
BRANCH   1   2
ATOM      2  C   UNL     1      14.687  74.991  70.879  1.00  0.00     0.041 C 
ATOM      3  O   UNL     1      14.925  74.995  72.115  1.00  0.00    -0.550 OA
ATOM      4  O   UNL     1      15.704  74.691  69.983  1.00  0.00    -0.550 OA
ENDBRANCH   1   2
BRANCH   1   5
ATOM      5  C   UNL     1      13.440  76.229  69.119  1.00  0.00     0.003 C 
ATOM      6  C   UNL     1      13.754  77.677  69.481  1.00  0.00     0.004 C 
ENDBRANCH   1   5
TORSDOF 2
ENDMDL
MODEL 9
REMARK VINA RESULT:    -3.119      1.918      2.543
REMARK INTER + INTRA:          -3.539
REMARK INTER:                  -3.504
REMARK INTRA:                  -0.034
REMARK UNBOUND:                -0.055
REMARK SMILES CCCC(=O)[O-]
REMARK SMILES IDX 3 1 4 2 5 3 6 4 2 5 1 6
REMARK H PARENT
REMARK Flexibility Score: inf
ROOT
ATOM      1  C   UNL     1      13.481  76.265  70.537  1.00  0.00     0.052 C 
ENDROOT
BRANCH   1   2
ATOM      2  C   UNL     1      13.417  75.334  69.368  1.00  0.00     0.041 C 
ATOM      3  O   UNL     1      13.832  74.151  69.478  1.00  0.00    -0.550 OA
ATOM      4  O   UNL     1      12.942  75.786  68.144  1.00  0.00    -0.550 OA
ENDBRANCH   1   2
BRANCH   1   5
ATOM      5  C   UNL     1      14.913  76.351  71.076  1.00  0.00     0.003 C 
ATOM      6  C   UNL     1      14.961  76.025  72.566  1.00  0.00     0.004 C 
ENDBRANCH   1   5
TORSDOF 2
ENDMDL
