MODEL 1
REMARK VINA RESULT:    -3.715      0.000      0.000
REMARK INTER + INTRA:          -4.336
REMARK INTER:                  -4.259
REMARK INTRA:                  -0.077
REMARK UNBOUND:                -0.077
REMARK SMILES COc1cc(C(=O)[O-])ccc1O
REMARK SMILES IDX 5 1 9 2 4 3 10 4 3 5 11 6 6 7 7 8 8 9 2 10 1 11 12 12
REMARK H PARENT 12 13
REMARK Flexibility Score: inf
ROOT
ATOM      1  C   UNL     1      24.539   0.356  12.311  1.00  0.00     0.001 A 
ATOM      2  C   UNL     1      25.773  -0.279  12.088  1.00  0.00     0.014 A 
ATOM      3  C   UNL     1      24.068   1.284  11.366  1.00  0.00     0.060 A 
ATOM      4  C   UNL     1      26.520   0.010  10.946  1.00  0.00     0.051 A 
ATOM      5  C   UNL     1      24.819   1.580  10.209  1.00  0.00     0.161 A 
ATOM      6  C   UNL     1      26.051   0.934  10.007  1.00  0.00     0.157 A 
ENDROOT
BRANCH   1   7
ATOM      7  C   UNL     1      23.744   0.052  13.522  1.00  0.00     0.072 C 
ATOM      8  O   UNL     1      23.363  -1.125  13.759  1.00  0.00    -0.545 OA
ATOM      9  O   UNL     1      23.406   1.062  14.415  1.00  0.00    -0.545 OA
ENDBRANCH   1   7
BRANCH   5  10
ATOM     10  O   UNL     1      24.373   2.502   9.249  1.00  0.00    -0.493 OA
ATOM     11  C   UNL     1      23.005   2.773   8.961  1.00  0.00     0.278 C 
ENDBRANCH   5  10
BRANCH   6  12
ATOM     12  O   UNL     1      26.826   1.196   8.876  1.00  0.00    -0.504 OA
ATOM     13  H   UNL     1      27.688   0.698   8.687  1.00  0.00     0.293 HD
ENDBRANCH   6  12
TORSDOF 3
ENDMDL
MODEL 2
REMARK VINA RESULT:    -3.473      1.262      2.587
REMARK INTER + INTRA:          -4.058
REMARK INTER:                  -4.109
REMARK INTRA:                   0.051
REMARK UNBOUND:                -0.077
REMARK SMILES COc1cc(C(=O)[O-])ccc1O
REMARK SMILES IDX 5 1 9 2 4 3 10 4 3 5 11 6 6 7 7 8 8 9 2 10 1 11 12 12
REMARK H PARENT 12 13
REMARK Flexibility Score: inf
ROOT
ATOM      1  C   UNL     1      24.529   0.490  12.210  1.00  0.00     0.001 A 
ATOM      2  C   UNL     1      24.587   1.846  11.847  1.00  0.00     0.014 A 
ATOM      3  C   UNL     1      25.234  -0.453  11.442  1.00  0.00     0.060 A 
ATOM      4  C   UNL     1      25.332   2.250  10.739  1.00  0.00     0.051 A 
ATOM      5  C   UNL     1      25.990  -0.051  10.320  1.00  0.00     0.161 A 
ATOM      6  C   UNL     1      26.033   1.311   9.975  1.00  0.00     0.157 A 
ENDROOT
BRANCH   1   7
ATOM      7  C   UNL     1      23.739   0.058  13.385  1.00  0.00     0.072 C 
ATOM      8  O   UNL     1      23.314  -1.125  13.471  1.00  0.00    -0.545 OA
ATOM      9  O   UNL     1      23.452   0.952  14.409  1.00  0.00    -0.545 OA
ENDBRANCH   1   7
BRANCH   5  10
ATOM     10  O   UNL     1      26.703  -0.971   9.536  1.00  0.00    -0.493 OA
ATOM     11  C   UNL     1      28.122  -1.073   9.498  1.00  0.00     0.278 C 
ENDBRANCH   5  10
BRANCH   6  12
ATOM     12  O   UNL     1      26.768   1.753   8.875  1.00  0.00    -0.504 OA
ATOM     13  H   UNL     1      26.346   1.890   7.964  1.00  0.00     0.293 HD
ENDBRANCH   6  12
TORSDOF 3
ENDMDL
MODEL 3
REMARK VINA RESULT:    -2.854      1.480      4.679
REMARK INTER + INTRA:          -3.348
REMARK INTER:                  -3.813
REMARK INTRA:                   0.466
REMARK UNBOUND:                -0.077
REMARK SMILES COc1cc(C(=O)[O-])ccc1O
REMARK SMILES IDX 5 1 9 2 4 3 10 4 3 5 11 6 6 7 7 8 8 9 2 10 1 11 12 12
REMARK H PARENT 12 13
REMARK Flexibility Score: inf
ROOT
ATOM      1  C   UNL     1      25.330   0.517  10.721  1.00  0.00     0.001 A 
ATOM      2  C   UNL     1      25.081   1.863  11.039  1.00  0.00     0.014 A 
ATOM      3  C   UNL     1      24.927  -0.483  11.624  1.00  0.00     0.060 A 
ATOM      4  C   UNL     1      24.447   2.202  12.234  1.00  0.00     0.051 A 
ATOM      5  C   UNL     1      24.285  -0.147  12.834  1.00  0.00     0.161 A 
ATOM      6  C   UNL     1      24.047   1.207  13.131  1.00  0.00     0.157 A 
ENDROOT
BRANCH   1   7
ATOM      7  C   UNL     1      26.004   0.155   9.454  1.00  0.00     0.072 C 
ATOM      8  O   UNL     1      25.744  -0.937   8.880  1.00  0.00    -0.545 OA
ATOM      9  O   UNL     1      26.934   1.013   8.879  1.00  0.00    -0.545 OA
ENDBRANCH   1   7
BRANCH   5  10
ATOM     10  O   UNL     1      23.873  -1.124  13.753  1.00  0.00    -0.493 OA
ATOM     11  C   UNL     1      22.639  -1.099  14.463  1.00  0.00     0.278 C 
ENDBRANCH   5  10
BRANCH   6  12
ATOM     12  O   UNL     1      23.414   1.585  14.316  1.00  0.00    -0.504 OA
ATOM     13  H   UNL     1      22.519   2.060  14.321  1.00  0.00     0.293 HD
ENDBRANCH   6  12
TORSDOF 3
ENDMDL
MODEL 4
REMARK VINA RESULT:    -2.381      1.890      4.072
REMARK INTER + INTRA:          -2.806
REMARK INTER:                  -2.729
REMARK INTRA:                  -0.077
REMARK UNBOUND:                -0.077
REMARK SMILES COc1cc(C(=O)[O-])ccc1O
REMARK SMILES IDX 5 1 9 2 4 3 10 4 3 5 11 6 6 7 7 8 8 9 2 10 1 11 12 12
REMARK H PARENT 12 13
REMARK Flexibility Score: inf
ROOT
ATOM      1  C   UNL     1      24.223   1.641  10.237  1.00  0.00     0.001 A 
ATOM      2  C   UNL     1      24.089   1.812  11.625  1.00  0.00     0.014 A 
ATOM      3  C   UNL     1      25.223   0.781   9.749  1.00  0.00     0.060 A 
ATOM      4  C   UNL     1      24.938   1.140  12.506  1.00  0.00     0.051 A 
ATOM      5  C   UNL     1      26.084   0.099  10.633  1.00  0.00     0.161 A 
ATOM      6  C   UNL     1      25.932   0.286  12.019  1.00  0.00     0.157 A 
ENDROOT
BRANCH   1   7
ATOM      7  C   UNL     1      23.325   2.353   9.300  1.00  0.00     0.072 C 
ATOM      8  O   UNL     1      22.276   1.801   8.875  1.00  0.00    -0.545 OA
ATOM      9  O   UNL     1      23.628   3.641   8.875  1.00  0.00    -0.545 OA
ENDBRANCH   1   7
BRANCH   5  10
ATOM     10  O   UNL     1      27.090  -0.765  10.173  1.00  0.00    -0.493 OA
ATOM     11  C   UNL     1      27.842  -0.569   8.981  1.00  0.00     0.278 C 
ENDBRANCH   5  10
BRANCH   6  12
ATOM     12  O   UNL     1      26.760  -0.370  12.930  1.00  0.00    -0.504 OA
ATOM     13  H   UNL     1      26.473  -1.216  13.408  1.00  0.00     0.293 HD
ENDBRANCH   6  12
TORSDOF 3
ENDMDL
MODEL 5
REMARK VINA RESULT:    -2.121      1.408      4.533
REMARK INTER + INTRA:          -2.508
REMARK INTER:                  -2.942
REMARK INTRA:                   0.434
REMARK UNBOUND:                -0.077
REMARK SMILES COc1cc(C(=O)[O-])ccc1O
REMARK SMILES IDX 5 1 9 2 4 3 10 4 3 5 11 6 6 7 7 8 8 9 2 10 1 11 12 12
REMARK H PARENT 12 13
REMARK Flexibility Score: inf
ROOT
ATOM      1  C   UNL     1      24.979   1.311  10.378  1.00  0.00     0.001 A 
ATOM      2  C   UNL     1      24.395   0.089  10.003  1.00  0.00     0.014 A 
ATOM      3  C   UNL     1      24.906   1.718  11.722  1.00  0.00     0.060 A 
ATOM      4  C   UNL     1      23.751  -0.707  10.951  1.00  0.00     0.051 A 
ATOM      5  C   UNL     1      24.256   0.917  12.685  1.00  0.00     0.161 A 
ATOM      6  C   UNL     1      23.679  -0.301  12.286  1.00  0.00     0.157 A 
ENDROOT
BRANCH   1   7
ATOM      7  C   UNL     1      25.662   2.159   9.376  1.00  0.00     0.072 C 
ATOM      8  O   UNL     1      26.761   1.799   8.875  1.00  0.00    -0.545 OA
ATOM      9  O   UNL     1      25.102   3.365   8.972  1.00  0.00    -0.545 OA
ENDBRANCH   1   7
BRANCH   5  10
ATOM     10  O   UNL     1      24.169   1.299  14.033  1.00  0.00    -0.493 OA
ATOM     11  C   UNL     1      22.994   1.189  14.830  1.00  0.00     0.278 C 
ENDBRANCH   5  10
BRANCH   6  12
ATOM     12  O   UNL     1      23.028  -1.125  13.205  1.00  0.00    -0.504 OA
ATOM     13  H   UNL     1      23.141  -1.012  14.206  1.00  0.00     0.293 HD
ENDBRANCH   6  12
TORSDOF 3
ENDMDL
