MODEL 1
REMARK VINA RESULT:    -6.721      0.000      0.000
REMARK INTER + INTRA:          -8.179
REMARK INTER:                  -7.900
REMARK INTRA:                  -0.279
REMARK UNBOUND:                -0.279
REMARK SMILES O=c1cc(-c2ccc(O)c(O)c2)oc2cc(O)cc(O)c12
REMARK SMILES IDX 4 1 3 2 2 3 1 4 21 5 19 6 18 7 16 8 15 9 14 10 13 11 5 12
REMARK SMILES IDX 6 13 7 14 8 15 12 16 10 17 9 18 11 20 20 22 17 24
REMARK H PARENT 9 19 11 21 20 23 17 25
REMARK Flexibility Score: inf
ROOT
ATOM      1  C   UNL     1      20.781  49.586  45.793  1.00  0.00     0.138 A 
ATOM      2  C   UNL     1      19.741  50.015  44.956  1.00  0.00     0.100 A 
ATOM      3  C   UNL     1      19.255  49.160  43.966  1.00  0.00     0.197 A 
ATOM      4  O   UNL     1      18.280  49.550  43.272  1.00  0.00    -0.289 OA
ATOM      5  C   UNL     1      19.834  47.880  43.795  1.00  0.00     0.107 A 
ATOM      6  C   UNL     1      19.448  46.940  42.793  1.00  0.00     0.134 A 
ATOM      7  C   UNL     1      20.014  45.660  42.793  1.00  0.00     0.093 A 
ATOM      8  C   UNL     1      20.996  45.306  43.721  1.00  0.00     0.123 A 
ATOM      9  C   UNL     1      21.419  46.234  44.670  1.00  0.00     0.094 A 
ATOM     10  C   UNL     1      20.849  47.509  44.717  1.00  0.00     0.146 A 
ATOM     11  O   UNL     1      21.271  48.360  45.647  1.00  0.00    -0.456 OA
ENDROOT
BRANCH   1  12
ATOM     12  C   UNL     1      21.337  50.455  46.862  1.00  0.00     0.021 A 
ATOM     13  C   UNL     1      22.716  50.492  47.142  1.00  0.00     0.016 A 
ATOM     14  C   UNL     1      23.211  51.312  48.160  1.00  0.00     0.051 A 
ATOM     15  C   UNL     1      22.337  52.101  48.919  1.00  0.00     0.157 A 
ATOM     16  C   UNL     1      20.467  51.241  47.638  1.00  0.00     0.062 A 
ATOM     17  C   UNL     1      20.959  52.064  48.656  1.00  0.00     0.158 A 
BRANCH  15  18
ATOM     18  O   UNL     1      22.835  52.919  49.933  1.00  0.00    -0.504 OA
ATOM     19  H   UNL     1      22.873  52.607  50.897  1.00  0.00     0.293 HD
ENDBRANCH  15  18
BRANCH  17  20
ATOM     20  O   UNL     1      20.063  52.835  49.396  1.00  0.00    -0.504 OA
ATOM     21  H   UNL     1      19.776  52.576  50.333  1.00  0.00     0.293 HD
ENDBRANCH  17  20
ENDBRANCH   1  12
BRANCH   6  22
ATOM     22  O   UNL     1      18.539  47.221  41.768  1.00  0.00    -0.507 OA
ATOM     23  H   UNL     1      18.790  47.406  40.809  1.00  0.00     0.293 HD
ENDBRANCH   6  22
BRANCH   8  24
ATOM     24  O   UNL     1      21.565  44.034  43.704  1.00  0.00    -0.508 OA
ATOM     25  H   UNL     1      22.305  43.776  44.346  1.00  0.00     0.293 HD
ENDBRANCH   8  24
TORSDOF 5
ENDMDL
MODEL 2
REMARK VINA RESULT:    -6.589      2.393      4.122
REMARK INTER + INTRA:          -8.024
REMARK INTER:                  -7.742
REMARK INTRA:                  -0.281
REMARK UNBOUND:                -0.279
REMARK SMILES O=c1cc(-c2ccc(O)c(O)c2)oc2cc(O)cc(O)c12
REMARK SMILES IDX 4 1 3 2 2 3 1 4 21 5 19 6 18 7 16 8 15 9 14 10 13 11 5 12
REMARK SMILES IDX 6 13 7 14 8 15 12 16 10 17 9 18 11 20 20 22 17 24
REMARK H PARENT 9 19 11 21 20 23 17 25
REMARK Flexibility Score: inf
ROOT
ATOM      1  C   UNL     1      19.847  48.391  43.827  1.00  0.00     0.138 A 
ATOM      2  C   UNL     1      20.063  47.102  43.318  1.00  0.00     0.100 A 
ATOM      3  C   UNL     1      19.110  46.523  42.480  1.00  0.00     0.197 A 
ATOM      4  O   UNL     1      19.360  45.391  41.989  1.00  0.00    -0.289 OA
ATOM      5  C   UNL     1      17.921  47.227  42.174  1.00  0.00     0.107 A 
ATOM      6  C   UNL     1      16.861  46.720  41.363  1.00  0.00     0.134 A 
ATOM      7  C   UNL     1      15.785  47.552  41.035  1.00  0.00     0.093 A 
ATOM      8  C   UNL     1      15.700  48.853  41.537  1.00  0.00     0.123 A 
ATOM      9  C   UNL     1      16.702  49.339  42.373  1.00  0.00     0.094 A 
ATOM     10  C   UNL     1      17.806  48.545  42.692  1.00  0.00     0.146 A 
ATOM     11  O   UNL     1      18.747  49.052  43.481  1.00  0.00    -0.456 OA
ENDROOT
BRANCH   1  12
ATOM     12  C   UNL     1      20.827  49.054  44.725  1.00  0.00     0.021 A 
ATOM     13  C   UNL     1      22.175  49.219  44.354  1.00  0.00     0.016 A 
ATOM     14  C   UNL     1      23.079  49.837  45.223  1.00  0.00     0.051 A 
ATOM     15  C   UNL     1      22.654  50.293  46.477  1.00  0.00     0.157 A 
ATOM     16  C   UNL     1      20.413  49.502  45.991  1.00  0.00     0.062 A 
ATOM     17  C   UNL     1      21.315  50.123  46.863  1.00  0.00     0.158 A 
BRANCH  15  18
ATOM     18  O   UNL     1      23.558  50.910  47.341  1.00  0.00    -0.504 OA
ATOM     19  H   UNL     1      23.631  50.640  48.315  1.00  0.00     0.293 HD
ENDBRANCH  15  18
BRANCH  17  20
ATOM     20  O   UNL     1      20.862  50.561  48.106  1.00  0.00    -0.504 OA
ATOM     21  H   UNL     1      20.649  51.535  48.289  1.00  0.00     0.293 HD
ENDBRANCH  17  20
ENDBRANCH   1  12
BRANCH   6  22
ATOM     22  O   UNL     1      16.806  45.408  40.880  1.00  0.00    -0.507 OA
ATOM     23  H   UNL     1      16.855  44.580  41.453  1.00  0.00     0.293 HD
ENDBRANCH   6  22
BRANCH   8  24
ATOM     24  O   UNL     1      14.617  49.669  41.217  1.00  0.00    -0.508 OA
ATOM     25  H   UNL     1      14.541  50.119  40.312  1.00  0.00     0.293 HD
ENDBRANCH   8  24
TORSDOF 5
ENDMDL
MODEL 3
REMARK VINA RESULT:    -6.556      1.529      3.020
REMARK INTER + INTRA:          -7.984
REMARK INTER:                  -7.689
REMARK INTRA:                  -0.296
REMARK UNBOUND:                -0.279
REMARK SMILES O=c1cc(-c2ccc(O)c(O)c2)oc2cc(O)cc(O)c12
REMARK SMILES IDX 4 1 3 2 2 3 1 4 21 5 19 6 18 7 16 8 15 9 14 10 13 11 5 12
REMARK SMILES IDX 6 13 7 14 8 15 12 16 10 17 9 18 11 20 20 22 17 24
REMARK H PARENT 9 19 11 21 20 23 17 25
REMARK Flexibility Score: inf
ROOT
ATOM      1  C   UNL     1      20.735  48.553  44.956  1.00  0.00     0.138 A 
ATOM      2  C   UNL     1      21.357  47.342  44.620  1.00  0.00     0.100 A 
ATOM      3  C   UNL     1      20.763  46.498  43.680  1.00  0.00     0.197 A 
ATOM      4  O   UNL     1      21.376  45.449  43.354  1.00  0.00    -0.289 OA
ATOM      5  C   UNL     1      19.525  46.858  43.096  1.00  0.00     0.107 A 
ATOM      6  C   UNL     1      18.807  46.058  42.157  1.00  0.00     0.134 A 
ATOM      7  C   UNL     1      17.649  46.569  41.559  1.00  0.00     0.093 A 
ATOM      8  C   UNL     1      17.150  47.825  41.910  1.00  0.00     0.123 A 
ATOM      9  C   UNL     1      17.814  48.591  42.866  1.00  0.00     0.094 A 
ATOM     10  C   UNL     1      18.990  48.123  43.456  1.00  0.00     0.146 A 
ATOM     11  O   UNL     1      19.600  48.892  44.352  1.00  0.00    -0.456 OA
ENDROOT
BRANCH   1  12
ATOM     12  C   UNL     1      21.322  49.487  45.950  1.00  0.00     0.021 A 
ATOM     13  C   UNL     1      22.706  49.742  45.998  1.00  0.00     0.016 A 
ATOM     14  C   UNL     1      23.233  50.617  46.952  1.00  0.00     0.051 A 
ATOM     15  C   UNL     1      22.390  51.245  47.878  1.00  0.00     0.157 A 
ATOM     16  C   UNL     1      20.486  50.110  46.892  1.00  0.00     0.062 A 
ATOM     17  C   UNL     1      21.010  50.989  47.847  1.00  0.00     0.158 A 
BRANCH  15  18
ATOM     18  O   UNL     1      22.919  52.119  48.826  1.00  0.00    -0.504 OA
ATOM     19  H   UNL     1      22.403  52.931  49.146  1.00  0.00     0.293 HD
ENDBRANCH  15  18
BRANCH  17  20
ATOM     20  O   UNL     1      20.144  51.594  48.758  1.00  0.00    -0.504 OA
ATOM     21  H   UNL     1      20.483  52.160  49.528  1.00  0.00     0.293 HD
ENDBRANCH  17  20
ENDBRANCH   1  12
BRANCH   6  22
ATOM     22  O   UNL     1      19.172  44.756  41.799  1.00  0.00    -0.507 OA
ATOM     23  H   UNL     1      18.525  44.020  41.560  1.00  0.00     0.293 HD
ENDBRANCH   6  22
BRANCH   8  24
ATOM     24  O   UNL     1      15.988  48.319  41.321  1.00  0.00    -0.508 OA
ATOM     25  H   UNL     1      15.978  48.647  40.363  1.00  0.00     0.293 HD
ENDBRANCH   8  24
TORSDOF 5
ENDMDL
MODEL 4
REMARK VINA RESULT:    -6.436      3.521      6.911
REMARK INTER + INTRA:          -7.844
REMARK INTER:                  -7.536
REMARK INTRA:                  -0.307
REMARK UNBOUND:                -0.279
REMARK SMILES O=c1cc(-c2ccc(O)c(O)c2)oc2cc(O)cc(O)c12
REMARK SMILES IDX 4 1 3 2 2 3 1 4 21 5 19 6 18 7 16 8 15 9 14 10 13 11 5 12
REMARK SMILES IDX 6 13 7 14 8 15 12 16 10 17 9 18 11 20 20 22 17 24
REMARK H PARENT 9 19 11 21 20 23 17 25
REMARK Flexibility Score: inf
ROOT
ATOM      1  C   UNL     1      17.289  49.411  45.437  1.00  0.00     0.138 A 
ATOM      2  C   UNL     1      17.546  49.642  46.796  1.00  0.00     0.100 A 
ATOM      3  C   UNL     1      18.859  49.829  47.229  1.00  0.00     0.197 A 
ATOM      4  O   UNL     1      19.052  50.097  48.443  1.00  0.00    -0.289 OA
ATOM      5  C   UNL     1      19.923  49.754  46.299  1.00  0.00     0.107 A 
ATOM      6  C   UNL     1      21.305  49.888  46.632  1.00  0.00     0.134 A 
ATOM      7  C   UNL     1      22.262  49.910  45.610  1.00  0.00     0.093 A 
ATOM      8  C   UNL     1      21.893  49.744  44.273  1.00  0.00     0.123 A 
ATOM      9  C   UNL     1      20.553  49.558  43.943  1.00  0.00     0.094 A 
ATOM     10  C   UNL     1      19.570  49.564  44.936  1.00  0.00     0.146 A 
ATOM     11  O   UNL     1      18.302  49.398  44.576  1.00  0.00    -0.456 OA
ENDROOT
BRANCH   1  12
ATOM     12  C   UNL     1      15.911  49.204  44.923  1.00  0.00     0.021 A 
ATOM     13  C   UNL     1      14.904  48.629  45.721  1.00  0.00     0.016 A 
ATOM     14  C   UNL     1      13.618  48.436  45.208  1.00  0.00     0.051 A 
ATOM     15  C   UNL     1      13.319  48.806  43.890  1.00  0.00     0.157 A 
ATOM     16  C   UNL     1      15.606  49.559  43.598  1.00  0.00     0.062 A 
ATOM     17  C   UNL     1      14.319  49.369  43.082  1.00  0.00     0.158 A 
BRANCH  15  18
ATOM     18  O   UNL     1      12.035  48.614  43.383  1.00  0.00    -0.504 OA
ATOM     19  H   UNL     1      11.646  47.685  43.259  1.00  0.00     0.293 HD
ENDBRANCH  15  18
BRANCH  17  20
ATOM     20  O   UNL     1      14.055  49.744  41.765  1.00  0.00    -0.504 OA
ATOM     21  H   UNL     1      13.715  49.084  41.076  1.00  0.00     0.293 HD
ENDBRANCH  17  20
ENDBRANCH   1  12
BRANCH   6  22
ATOM     22  O   UNL     1      21.788  49.975  47.941  1.00  0.00    -0.507 OA
ATOM     23  H   UNL     1      22.654  50.417  48.208  1.00  0.00     0.293 HD
ENDBRANCH   6  22
BRANCH   8  24
ATOM     24  O   UNL     1      22.854  49.752  43.264  1.00  0.00    -0.508 OA
ATOM     25  H   UNL     1      23.784  49.379  43.415  1.00  0.00     0.293 HD
ENDBRANCH   8  24
TORSDOF 5
ENDMDL
MODEL 5
REMARK VINA RESULT:    -6.421      2.835      6.837
REMARK INTER + INTRA:          -7.825
REMARK INTER:                  -7.538
REMARK INTRA:                  -0.287
REMARK UNBOUND:                -0.279
REMARK SMILES O=c1cc(-c2ccc(O)c(O)c2)oc2cc(O)cc(O)c12
REMARK SMILES IDX 4 1 3 2 2 3 1 4 21 5 19 6 18 7 16 8 15 9 14 10 13 11 5 12
REMARK SMILES IDX 6 13 7 14 8 15 12 16 10 17 9 18 11 20 20 22 17 24
REMARK H PARENT 9 19 11 21 20 23 17 25
REMARK Flexibility Score: inf
ROOT
ATOM      1  C   UNL     1      18.429  49.593  44.541  1.00  0.00     0.138 A 
ATOM      2  C   UNL     1      19.438  49.141  43.679  1.00  0.00     0.100 A 
ATOM      3  C   UNL     1      20.774  49.228  44.075  1.00  0.00     0.197 A 
ATOM      4  O   UNL     1      21.652  48.757  43.307  1.00  0.00    -0.289 OA
ATOM      5  C   UNL     1      21.100  49.799  45.328  1.00  0.00     0.107 A 
ATOM      6  C   UNL     1      22.428  49.977  45.819  1.00  0.00     0.134 A 
ATOM      7  C   UNL     1      22.624  50.447  47.123  1.00  0.00     0.093 A 
ATOM      8  C   UNL     1      21.542  50.803  47.932  1.00  0.00     0.123 A 
ATOM      9  C   UNL     1      20.244  50.684  47.442  1.00  0.00     0.094 A 
ATOM     10  C   UNL     1      20.014  50.186  46.157  1.00  0.00     0.146 A 
ATOM     11  O   UNL     1      18.759  50.075  45.734  1.00  0.00    -0.456 OA
ENDROOT
BRANCH   1  12
ATOM     12  C   UNL     1      16.992  49.525  44.169  1.00  0.00     0.021 A 
ATOM     13  C   UNL     1      15.983  49.389  45.141  1.00  0.00     0.016 A 
ATOM     14  C   UNL     1      14.639  49.317  44.762  1.00  0.00     0.051 A 
ATOM     15  C   UNL     1      14.283  49.371  43.408  1.00  0.00     0.157 A 
ATOM     16  C   UNL     1      16.626  49.564  42.812  1.00  0.00     0.062 A 
ATOM     17  C   UNL     1      15.282  49.494  42.430  1.00  0.00     0.158 A 
BRANCH  15  18
ATOM     18  O   UNL     1      12.942  49.300  43.034  1.00  0.00    -0.504 OA
ATOM     19  H   UNL     1      12.416  48.436  43.103  1.00  0.00     0.293 HD
ENDBRANCH  15  18
BRANCH  17  20
ATOM     20  O   UNL     1      14.960  49.546  41.074  1.00  0.00    -0.504 OA
ATOM     21  H   UNL     1      14.228  48.972  40.672  1.00  0.00     0.293 HD
ENDBRANCH  17  20
ENDBRANCH   1  12
BRANCH   6  22
ATOM     22  O   UNL     1      23.580  49.733  45.064  1.00  0.00    -0.507 OA
ATOM     23  H   UNL     1      23.896  50.302  44.294  1.00  0.00     0.293 HD
ENDBRANCH   6  22
BRANCH   8  24
ATOM     24  O   UNL     1      21.748  51.285  49.223  1.00  0.00    -0.508 OA
ATOM     25  H   UNL     1      21.081  51.110  49.966  1.00  0.00     0.293 HD
ENDBRANCH   8  24
TORSDOF 5
ENDMDL
MODEL 6
REMARK VINA RESULT:    -6.401      2.214      3.061
REMARK INTER + INTRA:          -7.802
REMARK INTER:                  -7.525
REMARK INTRA:                  -0.277
REMARK UNBOUND:                -0.279
REMARK SMILES O=c1cc(-c2ccc(O)c(O)c2)oc2cc(O)cc(O)c12
REMARK SMILES IDX 4 1 3 2 2 3 1 4 21 5 19 6 18 7 16 8 15 9 14 10 13 11 5 12
REMARK SMILES IDX 6 13 7 14 8 15 12 16 10 17 9 18 11 20 20 22 17 24
REMARK H PARENT 9 19 11 21 20 23 17 25
REMARK Flexibility Score: inf
ROOT
ATOM      1  C   UNL     1      19.556  48.540  43.909  1.00  0.00     0.138 A 
ATOM      2  C   UNL     1      18.284  49.123  43.825  1.00  0.00     0.100 A 
ATOM      3  C   UNL     1      17.316  48.552  42.997  1.00  0.00     0.197 A 
ATOM      4  O   UNL     1      16.165  49.061  42.991  1.00  0.00    -0.289 OA
ATOM      5  C   UNL     1      17.635  47.408  42.227  1.00  0.00     0.107 A 
ATOM      6  C   UNL     1      16.742  46.765  41.318  1.00  0.00     0.134 A 
ATOM      7  C   UNL     1      17.131  45.572  40.698  1.00  0.00     0.093 A 
ATOM      8  C   UNL     1      18.402  45.031  40.906  1.00  0.00     0.123 A 
ATOM      9  C   UNL     1      19.301  45.681  41.750  1.00  0.00     0.094 A 
ATOM     10  C   UNL     1      18.931  46.855  42.410  1.00  0.00     0.146 A 
ATOM     11  O   UNL     1      19.813  47.435  43.217  1.00  0.00    -0.456 OA
ENDROOT
BRANCH   1  12
ATOM     12  C   UNL     1      20.623  49.107  44.773  1.00  0.00     0.021 A 
ATOM     13  C   UNL     1      21.957  49.199  44.335  1.00  0.00     0.016 A 
ATOM     14  C   UNL     1      22.943  49.728  45.172  1.00  0.00     0.051 A 
ATOM     15  C   UNL     1      22.615  50.166  46.462  1.00  0.00     0.157 A 
ATOM     16  C   UNL     1      20.305  49.537  46.073  1.00  0.00     0.062 A 
ATOM     17  C   UNL     1      21.290  50.069  46.913  1.00  0.00     0.158 A 
BRANCH  15  18
ATOM     18  O   UNL     1      23.601  50.694  47.294  1.00  0.00    -0.504 OA
ATOM     19  H   UNL     1      23.376  51.350  48.034  1.00  0.00     0.293 HD
ENDBRANCH  15  18
BRANCH  17  20
ATOM     20  O   UNL     1      20.931  50.492  48.193  1.00  0.00    -0.504 OA
ATOM     21  H   UNL     1      21.120  51.432  48.521  1.00  0.00     0.293 HD
ENDBRANCH  17  20
ENDBRANCH   1  12
BRANCH   6  22
ATOM     22  O   UNL     1      15.483  47.266  40.974  1.00  0.00    -0.507 OA
ATOM     23  H   UNL     1      14.640  46.715  40.915  1.00  0.00     0.293 HD
ENDBRANCH   6  22
BRANCH   8  24
ATOM     24  O   UNL     1      18.786  43.851  40.272  1.00  0.00    -0.508 OA
ATOM     25  H   UNL     1      18.167  43.369  39.632  1.00  0.00     0.293 HD
ENDBRANCH   8  24
TORSDOF 5
ENDMDL
MODEL 7
REMARK VINA RESULT:    -6.329      3.135      4.505
REMARK INTER + INTRA:          -7.717
REMARK INTER:                  -7.419
REMARK INTRA:                  -0.298
REMARK UNBOUND:                -0.279
REMARK SMILES O=c1cc(-c2ccc(O)c(O)c2)oc2cc(O)cc(O)c12
REMARK SMILES IDX 4 1 3 2 2 3 1 4 21 5 19 6 18 7 16 8 15 9 14 10 13 11 5 12
REMARK SMILES IDX 6 13 7 14 8 15 12 16 10 17 9 18 11 20 20 22 17 24
REMARK H PARENT 9 19 11 21 20 23 17 25
REMARK Flexibility Score: inf
ROOT
ATOM      1  C   UNL     1      18.705  49.965  44.618  1.00  0.00     0.138 A 
ATOM      2  C   UNL     1      18.593  50.276  43.256  1.00  0.00     0.100 A 
ATOM      3  C   UNL     1      17.364  50.128  42.612  1.00  0.00     0.197 A 
ATOM      4  O   UNL     1      17.280  50.474  41.406  1.00  0.00    -0.289 OA
ATOM      5  C   UNL     1      16.248  49.638  43.332  1.00  0.00     0.107 A 
ATOM      6  C   UNL     1      14.956  49.408  42.771  1.00  0.00     0.134 A 
ATOM      7  C   UNL     1      13.898  49.030  43.607  1.00  0.00     0.093 A 
ATOM      8  C   UNL     1      14.099  48.816  44.973  1.00  0.00     0.123 A 
ATOM      9  C   UNL     1      15.369  48.985  45.520  1.00  0.00     0.094 A 
ATOM     10  C   UNL     1      16.438  49.394  44.719  1.00  0.00     0.146 A 
ATOM     11  O   UNL     1      17.629  49.558  45.284  1.00  0.00    -0.456 OA
ENDROOT
BRANCH   1  12
ATOM     12  C   UNL     1      19.990  50.103  45.351  1.00  0.00     0.021 A 
ATOM     13  C   UNL     1      21.215  49.719  44.773  1.00  0.00     0.016 A 
ATOM     14  C   UNL     1      22.408  49.850  45.490  1.00  0.00     0.051 A 
ATOM     15  C   UNL     1      22.397  50.358  46.796  1.00  0.00     0.157 A 
ATOM     16  C   UNL     1      19.987  50.598  46.667  1.00  0.00     0.062 A 
ATOM     17  C   UNL     1      21.180  50.732  47.386  1.00  0.00     0.158 A 
BRANCH  15  18
ATOM     18  O   UNL     1      23.589  50.488  47.506  1.00  0.00    -0.504 OA
ATOM     19  H   UNL     1      23.595  50.667  48.504  1.00  0.00     0.293 HD
ENDBRANCH  15  18
BRANCH  17  20
ATOM     20  O   UNL     1      21.134  51.237  48.685  1.00  0.00    -0.504 OA
ATOM     21  H   UNL     1      20.295  51.654  49.071  1.00  0.00     0.293 HD
ENDBRANCH  17  20
ENDBRANCH   1  12
BRANCH   6  22
ATOM     22  O   UNL     1      14.667  49.511  41.407  1.00  0.00    -0.507 OA
ATOM     23  H   UNL     1      14.644  48.736  40.762  1.00  0.00     0.293 HD
ENDBRANCH   6  22
BRANCH   8  24
ATOM     24  O   UNL     1      13.044  48.426  45.794  1.00  0.00    -0.508 OA
ATOM     25  H   UNL     1      13.141  47.666  46.456  1.00  0.00     0.293 HD
ENDBRANCH   8  24
TORSDOF 5
ENDMDL
MODEL 8
REMARK VINA RESULT:    -6.317      2.746      7.174
REMARK INTER + INTRA:          -7.704
REMARK INTER:                  -7.438
REMARK INTRA:                  -0.266
REMARK UNBOUND:                -0.279
REMARK SMILES O=c1cc(-c2ccc(O)c(O)c2)oc2cc(O)cc(O)c12
REMARK SMILES IDX 4 1 3 2 2 3 1 4 21 5 19 6 18 7 16 8 15 9 14 10 13 11 5 12
REMARK SMILES IDX 6 13 7 14 8 15 12 16 10 17 9 18 11 20 20 22 17 24
REMARK H PARENT 9 19 11 21 20 23 17 25
REMARK Flexibility Score: inf
ROOT
ATOM      1  C   UNL     1      18.652  48.663  44.071  1.00  0.00     0.138 A 
ATOM      2  C   UNL     1      19.915  49.183  43.754  1.00  0.00     0.100 A 
ATOM      3  C   UNL     1      20.774  49.583  44.779  1.00  0.00     0.197 A 
ATOM      4  O   UNL     1      21.924  49.987  44.466  1.00  0.00    -0.289 OA
ATOM      5  C   UNL     1      20.353  49.489  46.127  1.00  0.00     0.107 A 
ATOM      6  C   UNL     1      21.127  49.905  47.251  1.00  0.00     0.134 A 
ATOM      7  C   UNL     1      20.653  49.657  48.545  1.00  0.00     0.093 A 
ATOM      8  C   UNL     1      19.406  49.063  48.754  1.00  0.00     0.123 A 
ATOM      9  C   UNL     1      18.619  48.703  47.663  1.00  0.00     0.094 A 
ATOM     10  C   UNL     1      19.078  48.907  46.360  1.00  0.00     0.146 A 
ATOM     11  O   UNL     1      18.302  48.536  45.347  1.00  0.00    -0.456 OA
ENDROOT
BRANCH   1  12
ATOM     12  C   UNL     1      17.699  48.224  43.020  1.00  0.00     0.021 A 
ATOM     13  C   UNL     1      17.835  46.983  42.371  1.00  0.00     0.016 A 
ATOM     14  C   UNL     1      16.929  46.600  41.378  1.00  0.00     0.051 A 
ATOM     15  C   UNL     1      15.879  47.451  41.012  1.00  0.00     0.157 A 
ATOM     16  C   UNL     1      16.650  49.078  42.637  1.00  0.00     0.062 A 
ATOM     17  C   UNL     1      15.740  48.696  41.645  1.00  0.00     0.158 A 
BRANCH  15  18
ATOM     18  O   UNL     1      14.976  47.065  40.022  1.00  0.00    -0.504 OA
ATOM     19  H   UNL     1      14.000  46.886  40.234  1.00  0.00     0.293 HD
ENDBRANCH  15  18
BRANCH  17  20
ATOM     20  O   UNL     1      14.708  49.569  41.301  1.00  0.00    -0.504 OA
ATOM     21  H   UNL     1      14.885  50.517  40.991  1.00  0.00     0.293 HD
ENDBRANCH  17  20
ENDBRANCH   1  12
BRANCH   6  22
ATOM     22  O   UNL     1      22.347  50.582  47.153  1.00  0.00    -0.507 OA
ATOM     23  H   UNL     1      23.254  50.154  47.254  1.00  0.00     0.293 HD
ENDBRANCH   6  22
BRANCH   8  24
ATOM     24  O   UNL     1      18.936  48.834  50.046  1.00  0.00    -0.508 OA
ATOM     25  H   UNL     1      18.119  48.260  50.218  1.00  0.00     0.293 HD
ENDBRANCH   8  24
TORSDOF 5
ENDMDL
MODEL 9
REMARK VINA RESULT:    -6.314      1.982      7.198
REMARK INTER + INTRA:          -7.700
REMARK INTER:                  -7.434
REMARK INTRA:                  -0.266
REMARK UNBOUND:                -0.279
REMARK SMILES O=c1cc(-c2ccc(O)c(O)c2)oc2cc(O)cc(O)c12
REMARK SMILES IDX 4 1 3 2 2 3 1 4 21 5 19 6 18 7 16 8 15 9 14 10 13 11 5 12
REMARK SMILES IDX 6 13 7 14 8 15 12 16 10 17 9 18 11 20 20 22 17 24
REMARK H PARENT 9 19 11 21 20 23 17 25
REMARK Flexibility Score: inf
ROOT
ATOM      1  C   UNL     1      20.103  48.577  44.309  1.00  0.00     0.138 A 
ATOM      2  C   UNL     1      21.372  49.045  43.941  1.00  0.00     0.100 A 
ATOM      3  C   UNL     1      22.181  49.667  44.894  1.00  0.00     0.197 A 
ATOM      4  O   UNL     1      23.339  50.020  44.550  1.00  0.00    -0.289 OA
ATOM      5  C   UNL     1      21.703  49.846  46.214  1.00  0.00     0.107 A 
ATOM      6  C   UNL     1      22.423  50.502  47.257  1.00  0.00     0.134 A 
ATOM      7  C   UNL     1      21.896  50.518  48.554  1.00  0.00     0.093 A 
ATOM      8  C   UNL     1      20.648  49.956  48.832  1.00  0.00     0.123 A 
ATOM      9  C   UNL     1      19.913  49.361  47.809  1.00  0.00     0.094 A 
ATOM     10  C   UNL     1      20.427  49.299  46.512  1.00  0.00     0.146 A 
ATOM     11  O   UNL     1      19.699  48.711  45.568  1.00  0.00    -0.456 OA
ENDROOT
BRANCH   1  12
ATOM     12  C   UNL     1      19.201  47.911  43.335  1.00  0.00     0.021 A 
ATOM     13  C   UNL     1      17.940  48.445  43.010  1.00  0.00     0.016 A 
ATOM     14  C   UNL     1      17.107  47.791  42.098  1.00  0.00     0.051 A 
ATOM     15  C   UNL     1      17.515  46.590  41.503  1.00  0.00     0.157 A 
ATOM     16  C   UNL     1      19.596  46.698  42.744  1.00  0.00     0.062 A 
ATOM     17  C   UNL     1      18.765  46.042  41.829  1.00  0.00     0.158 A 
BRANCH  15  18
ATOM     18  O   UNL     1      16.682  45.942  40.593  1.00  0.00    -0.504 OA
ATOM     19  H   UNL     1      16.406  46.379  39.720  1.00  0.00     0.293 HD
ENDBRANCH  15  18
BRANCH  17  20
ATOM     20  O   UNL     1      19.199  44.846  41.258  1.00  0.00    -0.504 OA
ATOM     21  H   UNL     1      19.909  44.821  40.535  1.00  0.00     0.293 HD
ENDBRANCH  17  20
ENDBRANCH   1  12
BRANCH   6  22
ATOM     22  O   UNL     1      23.638  51.169  47.068  1.00  0.00    -0.507 OA
ATOM     23  H   UNL     1      24.528  50.716  46.924  1.00  0.00     0.293 HD
ENDBRANCH   6  22
BRANCH   8  24
ATOM     24  O   UNL     1      20.125  49.991  50.123  1.00  0.00    -0.508 OA
ATOM     25  H   UNL     1      20.194  49.194  50.744  1.00  0.00     0.293 HD
ENDBRANCH   8  24
TORSDOF 5
ENDMDL
