MODEL 1
REMARK VINA RESULT:    -5.510      0.000      0.000
REMARK INTER + INTRA:          -8.455
REMARK INTER:                  -7.443
REMARK INTRA:                  -1.012
REMARK UNBOUND:                -1.012
REMARK SMILES O=c1c(-c2ccc(O)cc2)coc2c([C@@H]3O[C@@H](CO)[C@H](O)[C@@H](O)[C@@H]3O)c(O)ccc12
REMARK SMILES IDX 3 1 11 2 12 3 13 4 30 5 2 6 1 7 29 8 28 9 26 10 14 11 4 12
REMARK SMILES IDX 5 13 6 14 7 15 10 16 9 17 8 18 15 20 24 21 16 22 22 23 17 24
REMARK SMILES IDX 20 25 25 26 23 28 18 30 19 31 21 33 27 35
REMARK H PARENT 8 19 25 27 23 29 19 32 21 34 27 36
REMARK Flexibility Score: inf
ROOT
ATOM      1  C   UNL     1     144.446 143.806 156.828  1.00  0.00     0.065 A 
ATOM      2  C   UNL     1     144.123 145.128 157.165  1.00  0.00     0.208 A 
ATOM      3  O   UNL     1     143.023 145.408 157.852  1.00  0.00    -0.463 OA
ATOM      4  C   UNL     1     142.164 144.479 158.263  1.00  0.00     0.147 A 
ATOM      5  C   UNL     1     142.412 143.118 157.969  1.00  0.00     0.066 A 
ATOM      6  C   UNL     1     143.566 142.787 157.233  1.00  0.00     0.200 A 
ATOM      7  O   UNL     1     143.800 141.586 156.924  1.00  0.00    -0.288 OA
ATOM      8  C   UNL     1     141.515 142.137 158.416  1.00  0.00     0.020 A 
ATOM      9  C   UNL     1     140.395 142.497 159.160  1.00  0.00     0.047 A 
ATOM     10  C   UNL     1     140.141 143.840 159.463  1.00  0.00     0.125 A 
ATOM     11  C   UNL     1     141.009 144.852 158.996  1.00  0.00     0.069 A 
ENDROOT
BRANCH   1  12
ATOM     12  C   UNL     1     145.684 143.518 156.063  1.00  0.00    -0.011 A 
ATOM     13  C   UNL     1     146.922 143.433 156.724  1.00  0.00     0.013 A 
ATOM     14  C   UNL     1     148.090 143.153 156.007  1.00  0.00     0.047 A 
ATOM     15  C   UNL     1     148.034 142.948 154.623  1.00  0.00     0.115 A 
ATOM     16  C   UNL     1     145.636 143.304 154.674  1.00  0.00     0.013 A 
ATOM     17  C   UNL     1     146.805 143.023 153.960  1.00  0.00     0.047 A 
BRANCH  15  18
ATOM     18  O   UNL     1     149.190 142.667 153.899  1.00  0.00    -0.508 OA
ATOM     19  H   UNL     1     149.154 142.441 152.912  1.00  0.00     0.293 HD
ENDBRANCH  15  18
ENDBRANCH   1  12
BRANCH  11  20
ATOM     20  C   UNL     1     140.731 146.309 159.351  1.00  0.00     0.188 C 
ATOM     21  C   UNL     1     139.879 146.981 158.251  1.00  0.00     0.179 C 
ATOM     22  O   UNL     1     140.101 146.389 160.622  1.00  0.00    -0.362 OA
ATOM     23  C   UNL     1     139.618 148.452 158.610  1.00  0.00     0.177 C 
ATOM     24  C   UNL     1     139.931 147.727 161.071  1.00  0.00     0.176 C 
ATOM     25  C   UNL     1     139.124 148.601 160.068  1.00  0.00     0.177 C 
BRANCH  21  26
ATOM     26  O   UNL     1     138.652 146.313 158.086  1.00  0.00    -0.387 OA
ATOM     27  H   UNL     1     138.112 146.844 157.444  1.00  0.00     0.211 HD
ENDBRANCH  21  26
BRANCH  23  28
ATOM     28  O   UNL     1     140.798 149.190 158.416  1.00  0.00    -0.387 OA
ATOM     29  H   UNL     1     141.460 148.857 159.077  1.00  0.00     0.211 HD
ENDBRANCH  23  28
BRANCH  24  30
ATOM     30  C   UNL     1     141.261 148.366 161.523  1.00  0.00     0.191 C 
BRANCH  30  31
ATOM     31  O   UNL     1     141.146 149.762 161.521  1.00  0.00    -0.394 OA
ATOM     32  H   UNL     1     140.701 150.002 160.667  1.00  0.00     0.210 HD
ENDBRANCH  30  31
ENDBRANCH  24  30
BRANCH  25  33
ATOM     33  O   UNL     1     137.747 148.318 160.149  1.00  0.00    -0.388 OA
ATOM     34  H   UNL     1     137.609 147.368 159.898  1.00  0.00     0.211 HD
ENDBRANCH  25  33
ENDBRANCH  11  20
BRANCH  10  35
ATOM     35  O   UNL     1     139.024 144.169 160.232  1.00  0.00    -0.507 OA
ATOM     36  H   UNL     1     138.088 144.163 159.843  1.00  0.00     0.293 HD
ENDBRANCH  10  35
TORSDOF 9
ENDMDL
MODEL 2
REMARK VINA RESULT:    -5.140      2.330      3.666
REMARK INTER + INTRA:          -7.955
REMARK INTER:                  -7.547
REMARK INTRA:                  -0.408
REMARK UNBOUND:                -1.012
REMARK SMILES O=c1c(-c2ccc(O)cc2)coc2c([C@@H]3O[C@@H](CO)[C@H](O)[C@@H](O)[C@@H]3O)c(O)ccc12
REMARK SMILES IDX 3 1 11 2 12 3 13 4 30 5 2 6 1 7 29 8 28 9 26 10 14 11 4 12
REMARK SMILES IDX 5 13 6 14 7 15 10 16 9 17 8 18 15 20 24 21 16 22 22 23 17 24
REMARK SMILES IDX 20 25 25 26 23 28 18 30 19 31 21 33 27 35
REMARK H PARENT 8 19 25 27 23 29 19 32 21 34 27 36
REMARK Flexibility Score: inf
ROOT
ATOM      1  C   UNL     1     145.658 143.604 157.123  1.00  0.00     0.065 A 
ATOM      2  C   UNL     1     144.738 144.109 158.052  1.00  0.00     0.208 A 
ATOM      3  O   UNL     1     143.633 144.726 157.651  1.00  0.00    -0.463 OA
ATOM      4  C   UNL     1     143.323 144.908 156.370  1.00  0.00     0.147 A 
ATOM      5  C   UNL     1     144.195 144.428 155.365  1.00  0.00     0.066 A 
ATOM      6  C   UNL     1     145.381 143.777 155.756  1.00  0.00     0.200 A 
ATOM      7  O   UNL     1     146.197 143.367 154.885  1.00  0.00    -0.288 OA
ATOM      8  C   UNL     1     143.861 144.606 154.015  1.00  0.00     0.020 A 
ATOM      9  C   UNL     1     142.670 145.235 153.663  1.00  0.00     0.047 A 
ATOM     10  C   UNL     1     141.796 145.709 154.648  1.00  0.00     0.125 A 
ATOM     11  C   UNL     1     142.123 145.574 156.016  1.00  0.00     0.069 A 
ENDROOT
BRANCH   1  12
ATOM     12  C   UNL     1     146.884 142.913 157.596  1.00  0.00    -0.011 A 
ATOM     13  C   UNL     1     148.153 143.381 157.213  1.00  0.00     0.013 A 
ATOM     14  C   UNL     1     149.310 142.738 157.664  1.00  0.00     0.047 A 
ATOM     15  C   UNL     1     149.213 141.624 158.507  1.00  0.00     0.115 A 
ATOM     16  C   UNL     1     146.795 141.798 158.448  1.00  0.00     0.013 A 
ATOM     17  C   UNL     1     147.954 141.158 158.898  1.00  0.00     0.047 A 
BRANCH  15  18
ATOM     18  O   UNL     1     150.358 140.976 158.963  1.00  0.00    -0.508 OA
ATOM     19  H   UNL     1     150.699 140.130 158.522  1.00  0.00     0.293 HD
ENDBRANCH  15  18
ENDBRANCH   1  12
BRANCH  11  20
ATOM     20  C   UNL     1     141.152 146.078 157.078  1.00  0.00     0.188 C 
ATOM     21  C   UNL     1     140.189 144.949 157.510  1.00  0.00     0.179 C 
ATOM     22  O   UNL     1     141.869 146.604 158.185  1.00  0.00    -0.362 OA
ATOM     23  C   UNL     1     139.204 145.470 158.567  1.00  0.00     0.177 C 
ATOM     24  C   UNL     1     141.024 147.210 159.155  1.00  0.00     0.176 C 
ATOM     25  C   UNL     1     139.935 146.237 159.694  1.00  0.00     0.177 C 
BRANCH  21  26
ATOM     26  O   UNL     1     140.900 143.853 158.030  1.00  0.00    -0.387 OA
ATOM     27  H   UNL     1     141.510 144.203 158.730  1.00  0.00     0.211 HD
ENDBRANCH  21  26
BRANCH  23  28
ATOM     28  O   UNL     1     138.258 146.303 157.946  1.00  0.00    -0.387 OA
ATOM     29  H   UNL     1     138.636 146.565 157.066  1.00  0.00     0.211 HD
ENDBRANCH  23  28
BRANCH  24  30
ATOM     30  C   UNL     1     140.467 148.567 158.679  1.00  0.00     0.191 C 
BRANCH  30  31
ATOM     31  O   UNL     1     139.291 148.872 159.378  1.00  0.00    -0.394 OA
ATOM     32  H   UNL     1     138.640 148.157 159.151  1.00  0.00     0.210 HD
ENDBRANCH  30  31
ENDBRANCH  24  30
BRANCH  25  33
ATOM     33  O   UNL     1     140.484 145.333 160.624  1.00  0.00    -0.388 OA
ATOM     34  H   UNL     1     139.803 144.642 160.827  1.00  0.00     0.211 HD
ENDBRANCH  25  33
ENDBRANCH  11  20
BRANCH  10  35
ATOM     35  O   UNL     1     140.597 146.312 154.266  1.00  0.00    -0.507 OA
ATOM     36  H   UNL     1     139.918 146.630 154.950  1.00  0.00     0.293 HD
ENDBRANCH  10  35
TORSDOF 9
ENDMDL
MODEL 3
REMARK VINA RESULT:    -5.077      1.985      2.912
REMARK INTER + INTRA:          -7.870
REMARK INTER:                  -7.223
REMARK INTRA:                  -0.647
REMARK UNBOUND:                -1.012
REMARK SMILES O=c1c(-c2ccc(O)cc2)coc2c([C@@H]3O[C@@H](CO)[C@H](O)[C@@H](O)[C@@H]3O)c(O)ccc12
REMARK SMILES IDX 3 1 11 2 12 3 13 4 30 5 2 6 1 7 29 8 28 9 26 10 14 11 4 12
REMARK SMILES IDX 5 13 6 14 7 15 10 16 9 17 8 18 15 20 24 21 16 22 22 23 17 24
REMARK SMILES IDX 20 25 25 26 23 28 18 30 19 31 21 33 27 35
REMARK H PARENT 8 19 25 27 23 29 19 32 21 34 27 36
REMARK Flexibility Score: inf
ROOT
ATOM      1  C   UNL     1     144.991 144.023 157.439  1.00  0.00     0.065 A 
ATOM      2  C   UNL     1     144.434 144.452 158.653  1.00  0.00     0.208 A 
ATOM      3  O   UNL     1     143.282 145.110 158.679  1.00  0.00    -0.463 OA
ATOM      4  C   UNL     1     142.586 145.407 157.585  1.00  0.00     0.147 A 
ATOM      5  C   UNL     1     143.074 145.010 156.317  1.00  0.00     0.066 A 
ATOM      6  C   UNL     1     144.297 144.318 156.252  1.00  0.00     0.200 A 
ATOM      7  O   UNL     1     144.778 143.980 155.135  1.00  0.00    -0.288 OA
ATOM      8  C   UNL     1     142.332 145.309 155.165  1.00  0.00     0.020 A 
ATOM      9  C   UNL     1     141.114 145.976 155.266  1.00  0.00     0.047 A 
ATOM     10  C   UNL     1     140.618 146.369 156.515  1.00  0.00     0.125 A 
ATOM     11  C   UNL     1     141.361 146.112 157.690  1.00  0.00     0.069 A 
ENDROOT
BRANCH   1  12
ATOM     12  C   UNL     1     146.278 143.284 157.435  1.00  0.00    -0.011 A 
ATOM     13  C   UNL     1     147.281 143.612 156.507  1.00  0.00     0.013 A 
ATOM     14  C   UNL     1     148.498 142.924 156.507  1.00  0.00     0.047 A 
ATOM     15  C   UNL     1     148.730 141.903 157.437  1.00  0.00     0.115 A 
ATOM     16  C   UNL     1     146.521 142.263 158.371  1.00  0.00     0.013 A 
ATOM     17  C   UNL     1     147.739 141.576 158.369  1.00  0.00     0.047 A 
BRANCH  15  18
ATOM     18  O   UNL     1     149.938 141.211 157.447  1.00  0.00    -0.508 OA
ATOM     19  H   UNL     1     150.162 140.547 158.180  1.00  0.00     0.293 HD
ENDBRANCH  15  18
ENDBRANCH   1  12
BRANCH  11  20
ATOM     20  C   UNL     1     140.798 146.527 159.045  1.00  0.00     0.188 C 
ATOM     21  C   UNL     1     141.141 148.004 159.344  1.00  0.00     0.179 C 
ATOM     22  O   UNL     1     139.397 146.299 159.082  1.00  0.00    -0.362 OA
ATOM     23  C   UNL     1     140.584 148.408 160.717  1.00  0.00     0.177 C 
ATOM     24  C   UNL     1     138.830 146.543 160.362  1.00  0.00     0.176 C 
ATOM     25  C   UNL     1     139.105 147.986 160.877  1.00  0.00     0.177 C 
BRANCH  21  26
ATOM     26  O   UNL     1     140.613 148.853 158.355  1.00  0.00    -0.387 OA
ATOM     27  H   UNL     1     140.675 148.372 157.489  1.00  0.00     0.211 HD
ENDBRANCH  21  26
BRANCH  23  28
ATOM     28  O   UNL     1     141.370 147.821 161.724  1.00  0.00    -0.387 OA
ATOM     29  H   UNL     1     141.936 148.541 162.107  1.00  0.00     0.211 HD
ENDBRANCH  23  28
BRANCH  24  30
ATOM     30  C   UNL     1     139.188 145.440 161.381  1.00  0.00     0.191 C 
BRANCH  30  31
ATOM     31  O   UNL     1     139.165 145.965 162.680  1.00  0.00    -0.394 OA
ATOM     32  H   UNL     1     140.113 146.071 162.952  1.00  0.00     0.210 HD
ENDBRANCH  30  31
ENDBRANCH  24  30
BRANCH  25  33
ATOM     33  O   UNL     1     138.261 148.916 160.240  1.00  0.00    -0.388 OA
ATOM     34  H   UNL     1     137.832 148.469 159.466  1.00  0.00     0.211 HD
ENDBRANCH  25  33
ENDBRANCH  11  20
BRANCH  10  35
ATOM     35  O   UNL     1     139.383 147.013 156.589  1.00  0.00    -0.507 OA
ATOM     36  H   UNL     1     138.521 146.498 156.729  1.00  0.00     0.293 HD
ENDBRANCH  10  35
TORSDOF 9
ENDMDL
MODEL 4
REMARK VINA RESULT:    -5.024      3.235      5.191
REMARK INTER + INTRA:          -7.798
REMARK INTER:                  -6.885
REMARK INTRA:                  -0.913
REMARK UNBOUND:                -1.012
REMARK SMILES O=c1c(-c2ccc(O)cc2)coc2c([C@@H]3O[C@@H](CO)[C@H](O)[C@@H](O)[C@@H]3O)c(O)ccc12
REMARK SMILES IDX 3 1 11 2 12 3 13 4 30 5 2 6 1 7 29 8 28 9 26 10 14 11 4 12
REMARK SMILES IDX 5 13 6 14 7 15 10 16 9 17 8 18 15 20 24 21 16 22 22 23 17 24
REMARK SMILES IDX 20 25 25 26 23 28 18 30 19 31 21 33 27 35
REMARK H PARENT 8 19 25 27 23 29 19 32 21 34 27 36
REMARK Flexibility Score: inf
ROOT
ATOM      1  C   UNL     1     140.923 146.461 158.267  1.00  0.00     0.065 A 
ATOM      2  C   UNL     1     141.578 147.396 159.080  1.00  0.00     0.208 A 
ATOM      3  O   UNL     1     141.127 147.677 160.296  1.00  0.00    -0.463 OA
ATOM      4  C   UNL     1     140.047 147.107 160.823  1.00  0.00     0.147 A 
ATOM      5  C   UNL     1     139.325 146.149 160.072  1.00  0.00     0.066 A 
ATOM      6  C   UNL     1     139.771 145.835 158.775  1.00  0.00     0.200 A 
ATOM      7  O   UNL     1     139.131 145.010 158.065  1.00  0.00    -0.288 OA
ATOM      8  C   UNL     1     138.195 145.536 160.634  1.00  0.00     0.020 A 
ATOM      9  C   UNL     1     137.795 145.854 161.929  1.00  0.00     0.047 A 
ATOM     10  C   UNL     1     138.504 146.796 162.684  1.00  0.00     0.125 A 
ATOM     11  C   UNL     1     139.625 147.455 162.131  1.00  0.00     0.069 A 
ENDROOT
BRANCH   1  12
ATOM     12  C   UNL     1     141.449 146.160 156.912  1.00  0.00    -0.011 A 
ATOM     13  C   UNL     1     140.831 146.709 155.774  1.00  0.00     0.013 A 
ATOM     14  C   UNL     1     141.330 146.434 154.497  1.00  0.00     0.047 A 
ATOM     15  C   UNL     1     142.454 145.614 154.341  1.00  0.00     0.115 A 
ATOM     16  C   UNL     1     142.581 145.343 156.747  1.00  0.00     0.013 A 
ATOM     17  C   UNL     1     143.078 145.071 155.469  1.00  0.00     0.047 A 
BRANCH  15  18
ATOM     18  O   UNL     1     142.960 145.334 153.074  1.00  0.00    -0.508 OA
ATOM     19  H   UNL     1     142.503 144.674 152.455  1.00  0.00     0.293 HD
ENDBRANCH  15  18
ENDBRANCH   1  12
BRANCH  11  20
ATOM     20  C   UNL     1     140.399 148.463 162.973  1.00  0.00     0.188 C 
ATOM     21  C   UNL     1     139.940 149.903 162.651  1.00  0.00     0.179 C 
ATOM     22  O   UNL     1     140.250 148.163 164.353  1.00  0.00    -0.362 OA
ATOM     23  C   UNL     1     140.737 150.912 163.492  1.00  0.00     0.177 C 
ATOM     24  C   UNL     1     141.053 148.987 165.188  1.00  0.00     0.176 C 
ATOM     25  C   UNL     1     140.774 150.505 164.983  1.00  0.00     0.177 C 
BRANCH  21  26
ATOM     26  O   UNL     1     138.566 150.061 162.906  1.00  0.00    -0.387 OA
ATOM     27  H   UNL     1     138.253 149.234 163.357  1.00  0.00     0.211 HD
ENDBRANCH  21  26
BRANCH  23  28
ATOM     28  O   UNL     1     142.043 151.008 162.981  1.00  0.00    -0.387 OA
ATOM     29  H   UNL     1     142.663 150.894 163.747  1.00  0.00     0.211 HD
ENDBRANCH  23  28
BRANCH  24  30
ATOM     30  C   UNL     1     142.548 148.614 165.115  1.00  0.00     0.191 C 
BRANCH  30  31
ATOM     31  O   UNL     1     143.335 149.733 165.418  1.00  0.00    -0.394 OA
ATOM     32  H   UNL     1     143.457 150.225 164.565  1.00  0.00     0.210 HD
ENDBRANCH  30  31
ENDBRANCH  24  30
BRANCH  25  33
ATOM     33  O   UNL     1     139.579 150.887 165.623  1.00  0.00    -0.388 OA
ATOM     34  H   UNL     1     138.989 150.092 165.684  1.00  0.00     0.211 HD
ENDBRANCH  25  33
ENDBRANCH  11  20
BRANCH  10  35
ATOM     35  O   UNL     1     138.094 147.076 163.988  1.00  0.00    -0.507 OA
ATOM     36  H   UNL     1     137.463 147.842 164.196  1.00  0.00     0.293 HD
ENDBRANCH  10  35
TORSDOF 9
ENDMDL
MODEL 5
REMARK VINA RESULT:    -4.959      3.187      5.109
REMARK INTER + INTRA:          -7.711
REMARK INTER:                  -7.021
REMARK INTRA:                  -0.690
REMARK UNBOUND:                -1.012
REMARK SMILES O=c1c(-c2ccc(O)cc2)coc2c([C@@H]3O[C@@H](CO)[C@H](O)[C@@H](O)[C@@H]3O)c(O)ccc12
REMARK SMILES IDX 3 1 11 2 12 3 13 4 30 5 2 6 1 7 29 8 28 9 26 10 14 11 4 12
REMARK SMILES IDX 5 13 6 14 7 15 10 16 9 17 8 18 15 20 24 21 16 22 22 23 17 24
REMARK SMILES IDX 20 25 25 26 23 28 18 30 19 31 21 33 27 35
REMARK H PARENT 8 19 25 27 23 29 19 32 21 34 27 36
REMARK Flexibility Score: inf
ROOT
ATOM      1  C   UNL     1     140.765 146.195 158.288  1.00  0.00     0.065 A 
ATOM      2  C   UNL     1     141.172 147.260 159.105  1.00  0.00     0.208 A 
ATOM      3  O   UNL     1     140.653 147.428 160.314  1.00  0.00    -0.463 OA
ATOM      4  C   UNL     1     139.730 146.621 160.831  1.00  0.00     0.147 A 
ATOM      5  C   UNL     1     139.263 145.520 160.076  1.00  0.00     0.066 A 
ATOM      6  C   UNL     1     139.786 145.317 158.785  1.00  0.00     0.200 A 
ATOM      7  O   UNL     1     139.366 144.364 158.072  1.00  0.00    -0.288 OA
ATOM      8  C   UNL     1     138.302 144.660 160.627  1.00  0.00     0.020 A 
ATOM      9  C   UNL     1     137.822 144.876 161.916  1.00  0.00     0.047 A 
ATOM     10  C   UNL     1     138.280 145.960 162.675  1.00  0.00     0.125 A 
ATOM     11  C   UNL     1     139.223 146.862 162.133  1.00  0.00     0.069 A 
ENDROOT
BRANCH   1  12
ATOM     12  C   UNL     1     141.363 146.025 156.941  1.00  0.00    -0.011 A 
ATOM     13  C   UNL     1     140.772 146.634 155.820  1.00  0.00     0.013 A 
ATOM     14  C   UNL     1     141.339 146.482 154.551  1.00  0.00     0.047 A 
ATOM     15  C   UNL     1     142.505 145.725 154.387  1.00  0.00     0.115 A 
ATOM     16  C   UNL     1     142.539 145.272 156.768  1.00  0.00     0.013 A 
ATOM     17  C   UNL     1     143.104 145.123 155.498  1.00  0.00     0.047 A 
BRANCH  15  18
ATOM     18  O   UNL     1     143.079 145.568 153.127  1.00  0.00    -0.508 OA
ATOM     19  H   UNL     1     143.721 146.255 152.748  1.00  0.00     0.293 HD
ENDBRANCH  15  18
ENDBRANCH   1  12
BRANCH  11  20
ATOM     20  C   UNL     1     139.728 148.025 162.979  1.00  0.00     0.188 C 
ATOM     21  C   UNL     1     141.030 147.635 163.714  1.00  0.00     0.179 C 
ATOM     22  O   UNL     1     139.911 149.176 162.167  1.00  0.00    -0.362 OA
ATOM     23  C   UNL     1     141.521 148.808 164.576  1.00  0.00     0.177 C 
ATOM     24  C   UNL     1     140.257 150.333 162.917  1.00  0.00     0.176 C 
ATOM     25  C   UNL     1     141.537 150.132 163.778  1.00  0.00     0.177 C 
BRANCH  21  26
ATOM     26  O   UNL     1     142.034 147.272 162.799  1.00  0.00    -0.387 OA
ATOM     27  H   UNL     1     141.764 147.622 161.911  1.00  0.00     0.211 HD
ENDBRANCH  21  26
BRANCH  23  28
ATOM     28  O   UNL     1     140.693 148.929 165.705  1.00  0.00    -0.387 OA
ATOM     29  H   UNL     1     139.792 148.608 165.439  1.00  0.00     0.211 HD
ENDBRANCH  23  28
BRANCH  24  30
ATOM     30  C   UNL     1     139.058 150.898 163.707  1.00  0.00     0.191 C 
BRANCH  30  31
ATOM     31  O   UNL     1     139.513 151.582 164.841  1.00  0.00    -0.394 OA
ATOM     32  H   UNL     1     138.859 152.310 165.008  1.00  0.00     0.210 HD
ENDBRANCH  30  31
ENDBRANCH  24  30
BRANCH  25  33
ATOM     33  O   UNL     1     142.696 150.208 162.981  1.00  0.00    -0.388 OA
ATOM     34  H   UNL     1     142.423 150.169 162.028  1.00  0.00     0.211 HD
ENDBRANCH  25  33
ENDBRANCH  11  20
BRANCH  10  35
ATOM     35  O   UNL     1     137.800 146.137 163.973  1.00  0.00    -0.507 OA
ATOM     36  H   UNL     1     136.945 145.694 164.291  1.00  0.00     0.293 HD
ENDBRANCH  10  35
TORSDOF 9
ENDMDL
MODEL 6
REMARK VINA RESULT:    -4.957      4.787      9.699
REMARK INTER + INTRA:          -7.709
REMARK INTER:                  -6.648
REMARK INTRA:                  -1.061
REMARK UNBOUND:                -1.012
REMARK SMILES O=c1c(-c2ccc(O)cc2)coc2c([C@@H]3O[C@@H](CO)[C@H](O)[C@@H](O)[C@@H]3O)c(O)ccc12
REMARK SMILES IDX 3 1 11 2 12 3 13 4 30 5 2 6 1 7 29 8 28 9 26 10 14 11 4 12
REMARK SMILES IDX 5 13 6 14 7 15 10 16 9 17 8 18 15 20 24 21 16 22 22 23 17 24
REMARK SMILES IDX 20 25 25 26 23 28 18 30 19 31 21 33 27 35
REMARK H PARENT 8 19 25 27 23 29 19 32 21 34 27 36
REMARK Flexibility Score: inf
ROOT
ATOM      1  C   UNL     1     137.868 144.977 165.111  1.00  0.00     0.065 A 
ATOM      2  C   UNL     1     138.171 144.721 163.766  1.00  0.00     0.208 A 
ATOM      3  O   UNL     1     138.675 145.672 162.988  1.00  0.00    -0.463 OA
ATOM      4  C   UNL     1     138.924 146.907 163.414  1.00  0.00     0.147 A 
ATOM      5  C   UNL     1     138.650 147.252 164.758  1.00  0.00     0.066 A 
ATOM      6  C   UNL     1     138.106 146.271 165.608  1.00  0.00     0.200 A 
ATOM      7  O   UNL     1     137.818 146.554 166.804  1.00  0.00    -0.288 OA
ATOM      8  C   UNL     1     138.928 148.550 165.211  1.00  0.00     0.020 A 
ATOM      9  C   UNL     1     139.486 149.490 164.350  1.00  0.00     0.047 A 
ATOM     10  C   UNL     1     139.767 149.159 163.018  1.00  0.00     0.125 A 
ATOM     11  C   UNL     1     139.466 147.870 162.525  1.00  0.00     0.069 A 
ENDROOT
BRANCH   1  12
ATOM     12  C   UNL     1     137.309 143.897 165.962  1.00  0.00    -0.011 A 
ATOM     13  C   UNL     1     138.167 143.055 166.691  1.00  0.00     0.013 A 
ATOM     14  C   UNL     1     137.643 142.042 167.501  1.00  0.00     0.047 A 
ATOM     15  C   UNL     1     136.258 141.863 167.597  1.00  0.00     0.115 A 
ATOM     16  C   UNL     1     135.919 143.715 166.070  1.00  0.00     0.013 A 
ATOM     17  C   UNL     1     135.398 142.703 166.881  1.00  0.00     0.047 A 
BRANCH  15  18
ATOM     18  O   UNL     1     135.725 140.859 168.402  1.00  0.00    -0.508 OA
ATOM     19  H   UNL     1     134.734 140.647 168.397  1.00  0.00     0.293 HD
ENDBRANCH  15  18
ENDBRANCH   1  12
BRANCH  11  20
ATOM     20  C   UNL     1     139.796 147.518 161.079  1.00  0.00     0.188 C 
ATOM     21  C   UNL     1     138.687 148.027 160.131  1.00  0.00     0.179 C 
ATOM     22  O   UNL     1     141.067 148.046 160.727  1.00  0.00    -0.362 OA
ATOM     23  C   UNL     1     139.022 147.653 158.679  1.00  0.00     0.177 C 
ATOM     24  C   UNL     1     141.494 147.643 159.432  1.00  0.00     0.176 C 
ATOM     25  C   UNL     1     140.478 148.027 158.317  1.00  0.00     0.177 C 
BRANCH  21  26
ATOM     26  O   UNL     1     138.537 149.421 160.234  1.00  0.00    -0.387 OA
ATOM     27  H   UNL     1     139.181 149.737 160.921  1.00  0.00     0.211 HD
ENDBRANCH  21  26
BRANCH  23  28
ATOM     28  O   UNL     1     138.812 146.276 158.497  1.00  0.00    -0.387 OA
ATOM     29  H   UNL     1     139.437 145.979 157.785  1.00  0.00     0.211 HD
ENDBRANCH  23  28
BRANCH  24  30
ATOM     30  C   UNL     1     141.932 146.164 159.394  1.00  0.00     0.191 C 
BRANCH  30  31
ATOM     31  O   UNL     1     141.786 145.657 158.096  1.00  0.00    -0.394 OA
ATOM     32  H   UNL     1     142.673 145.748 157.662  1.00  0.00     0.210 HD
ENDBRANCH  30  31
ENDBRANCH  24  30
BRANCH  25  33
ATOM     33  O   UNL     1     140.568 149.397 158.006  1.00  0.00    -0.388 OA
ATOM     34  H   UNL     1     139.669 149.801 158.112  1.00  0.00     0.211 HD
ENDBRANCH  25  33
ENDBRANCH  11  20
BRANCH  10  35
ATOM     35  O   UNL     1     140.351 150.114 162.185  1.00  0.00    -0.507 OA
ATOM     36  H   UNL     1     141.234 150.555 162.416  1.00  0.00     0.293 HD
ENDBRANCH  10  35
TORSDOF 9
ENDMDL
MODEL 7
REMARK VINA RESULT:    -4.930      3.419      6.108
REMARK INTER + INTRA:          -7.672
REMARK INTER:                  -6.735
REMARK INTRA:                  -0.937
REMARK UNBOUND:                -1.012
REMARK SMILES O=c1c(-c2ccc(O)cc2)coc2c([C@@H]3O[C@@H](CO)[C@H](O)[C@@H](O)[C@@H]3O)c(O)ccc12
REMARK SMILES IDX 3 1 11 2 12 3 13 4 30 5 2 6 1 7 29 8 28 9 26 10 14 11 4 12
REMARK SMILES IDX 5 13 6 14 7 15 10 16 9 17 8 18 15 20 24 21 16 22 22 23 17 24
REMARK SMILES IDX 20 25 25 26 23 28 18 30 19 31 21 33 27 35
REMARK H PARENT 8 19 25 27 23 29 19 32 21 34 27 36
REMARK Flexibility Score: inf
ROOT
ATOM      1  C   UNL     1     140.733 146.102 158.017  1.00  0.00     0.065 A 
ATOM      2  C   UNL     1     140.466 144.941 158.757  1.00  0.00     0.208 A 
ATOM      3  O   UNL     1     139.937 145.014 159.972  1.00  0.00    -0.463 OA
ATOM      4  C   UNL     1     139.628 146.163 160.566  1.00  0.00     0.147 A 
ATOM      5  C   UNL     1     139.863 147.384 159.890  1.00  0.00     0.066 A 
ATOM      6  C   UNL     1     140.432 147.344 158.603  1.00  0.00     0.200 A 
ATOM      7  O   UNL     1     140.685 148.416 157.987  1.00  0.00    -0.288 OA
ATOM      8  C   UNL     1     139.523 148.596 160.510  1.00  0.00     0.020 A 
ATOM      9  C   UNL     1     138.942 148.598 161.775  1.00  0.00     0.047 A 
ATOM     10  C   UNL     1     138.700 147.397 162.451  1.00  0.00     0.125 A 
ATOM     11  C   UNL     1     139.064 146.163 161.866  1.00  0.00     0.069 A 
ENDROOT
BRANCH   1  12
ATOM     12  C   UNL     1     141.321 145.995 156.658  1.00  0.00    -0.011 A 
ATOM     13  C   UNL     1     142.600 145.441 156.481  1.00  0.00     0.013 A 
ATOM     14  C   UNL     1     143.152 145.331 155.200  1.00  0.00     0.047 A 
ATOM     15  C   UNL     1     142.431 145.768 154.083  1.00  0.00     0.115 A 
ATOM     16  C   UNL     1     140.600 146.425 155.530  1.00  0.00     0.013 A 
ATOM     17  C   UNL     1     141.154 146.313 154.251  1.00  0.00     0.047 A 
BRANCH  15  18
ATOM     18  O   UNL     1     142.970 145.663 152.803  1.00  0.00    -0.508 OA
ATOM     19  H   UNL     1     143.942 145.881 152.618  1.00  0.00     0.293 HD
ENDBRANCH  15  18
ENDBRANCH   1  12
BRANCH  11  20
ATOM     20  C   UNL     1     138.775 144.862 162.606  1.00  0.00     0.188 C 
ATOM     21  C   UNL     1     139.947 144.503 163.547  1.00  0.00     0.179 C 
ATOM     22  O   UNL     1     137.549 144.966 163.315  1.00  0.00    -0.362 OA
ATOM     23  C   UNL     1     139.654 143.182 164.275  1.00  0.00     0.177 C 
ATOM     24  C   UNL     1     137.155 143.742 163.921  1.00  0.00     0.176 C 
ATOM     25  C   UNL     1     138.234 143.175 164.889  1.00  0.00     0.177 C 
BRANCH  21  26
ATOM     26  O   UNL     1     140.164 145.521 164.492  1.00  0.00    -0.387 OA
ATOM     27  H   UNL     1     139.320 145.635 165.002  1.00  0.00     0.211 HD
ENDBRANCH  21  26
BRANCH  23  28
ATOM     28  O   UNL     1     139.799 142.115 163.372  1.00  0.00    -0.387 OA
ATOM     29  H   UNL     1     139.954 141.297 163.912  1.00  0.00     0.211 HD
ENDBRANCH  23  28
BRANCH  24  30
ATOM     30  C   UNL     1     136.644 142.715 162.889  1.00  0.00     0.191 C 
BRANCH  30  31
ATOM     31  O   UNL     1     136.840 141.414 163.372  1.00  0.00    -0.394 OA
ATOM     32  H   UNL     1     136.000 140.920 163.185  1.00  0.00     0.210 HD
ENDBRANCH  30  31
ENDBRANCH  24  30
BRANCH  25  33
ATOM     33  O   UNL     1     138.228 143.873 166.112  1.00  0.00    -0.388 OA
ATOM     34  H   UNL     1     139.156 143.901 166.461  1.00  0.00     0.211 HD
ENDBRANCH  25  33
ENDBRANCH  11  20
BRANCH  10  35
ATOM     35  O   UNL     1     138.092 147.429 163.707  1.00  0.00    -0.507 OA
ATOM     36  H   UNL     1     137.402 146.740 163.983  1.00  0.00     0.293 HD
ENDBRANCH  10  35
TORSDOF 9
ENDMDL
MODEL 8
REMARK VINA RESULT:    -4.922      1.347      2.488
REMARK INTER + INTRA:          -7.661
REMARK INTER:                  -7.367
REMARK INTRA:                  -0.294
REMARK UNBOUND:                -1.012
REMARK SMILES O=c1c(-c2ccc(O)cc2)coc2c([C@@H]3O[C@@H](CO)[C@H](O)[C@@H](O)[C@@H]3O)c(O)ccc12
REMARK SMILES IDX 3 1 11 2 12 3 13 4 30 5 2 6 1 7 29 8 28 9 26 10 14 11 4 12
REMARK SMILES IDX 5 13 6 14 7 15 10 16 9 17 8 18 15 20 24 21 16 22 22 23 17 24
REMARK SMILES IDX 20 25 25 26 23 28 18 30 19 31 21 33 27 35
REMARK H PARENT 8 19 25 27 23 29 19 32 21 34 27 36
REMARK Flexibility Score: inf
ROOT
ATOM      1  C   UNL     1     143.977 143.703 157.433  1.00  0.00     0.065 A 
ATOM      2  C   UNL     1     143.201 144.869 157.374  1.00  0.00     0.208 A 
ATOM      3  O   UNL     1     142.195 145.062 158.219  1.00  0.00    -0.463 OA
ATOM      4  C   UNL     1     141.856 144.187 159.162  1.00  0.00     0.147 A 
ATOM      5  C   UNL     1     142.588 142.984 159.294  1.00  0.00     0.066 A 
ATOM      6  C   UNL     1     143.655 142.742 158.408  1.00  0.00     0.200 A 
ATOM      7  O   UNL     1     144.307 141.664 158.476  1.00  0.00    -0.288 OA
ATOM      8  C   UNL     1     142.241 142.068 160.298  1.00  0.00     0.020 A 
ATOM      9  C   UNL     1     141.194 142.347 161.172  1.00  0.00     0.047 A 
ATOM     10  C   UNL     1     140.465 143.537 161.055  1.00  0.00     0.125 A 
ATOM     11  C   UNL     1     140.771 144.462 160.031  1.00  0.00     0.069 A 
ENDROOT
BRANCH   1  12
ATOM     12  C   UNL     1     145.099 143.512 156.481  1.00  0.00    -0.011 A 
ATOM     13  C   UNL     1     144.845 143.362 155.106  1.00  0.00     0.013 A 
ATOM     14  C   UNL     1     145.901 143.191 154.206  1.00  0.00     0.047 A 
ATOM     15  C   UNL     1     147.223 143.173 154.666  1.00  0.00     0.115 A 
ATOM     16  C   UNL     1     146.430 143.501 156.934  1.00  0.00     0.013 A 
ATOM     17  C   UNL     1     147.484 143.330 156.031  1.00  0.00     0.047 A 
BRANCH  15  18
ATOM     18  O   UNL     1     148.283 143.004 153.778  1.00  0.00    -0.508 OA
ATOM     19  H   UNL     1     148.434 143.643 153.007  1.00  0.00     0.293 HD
ENDBRANCH  15  18
ENDBRANCH   1  12
BRANCH  11  20
ATOM     20  C   UNL     1     139.982 145.763 159.929  1.00  0.00     0.188 C 
ATOM     21  C   UNL     1     140.737 146.911 160.635  1.00  0.00     0.179 C 
ATOM     22  O   UNL     1     139.722 146.070 158.566  1.00  0.00    -0.362 OA
ATOM     23  C   UNL     1     139.926 148.212 160.541  1.00  0.00     0.177 C 
ATOM     24  C   UNL     1     138.877 147.202 158.405  1.00  0.00     0.176 C 
ATOM     25  C   UNL     1     139.443 148.477 159.096  1.00  0.00     0.177 C 
BRANCH  21  26
ATOM     26  O   UNL     1     142.006 147.106 160.064  1.00  0.00    -0.387 OA
ATOM     27  H   UNL     1     141.890 147.094 159.078  1.00  0.00     0.211 HD
ENDBRANCH  21  26
BRANCH  23  28
ATOM     28  O   UNL     1     138.829 148.137 161.416  1.00  0.00    -0.387 OA
ATOM     29  H   UNL     1     138.715 149.038 161.816  1.00  0.00     0.211 HD
ENDBRANCH  23  28
BRANCH  24  30
ATOM     30  C   UNL     1     137.411 146.894 158.772  1.00  0.00     0.191 C 
BRANCH  30  31
ATOM     31  O   UNL     1     136.563 147.308 157.735  1.00  0.00    -0.394 OA
ATOM     32  H   UNL     1     136.678 146.649 157.003  1.00  0.00     0.210 HD
ENDBRANCH  30  31
ENDBRANCH  24  30
BRANCH  25  33
ATOM     33  O   UNL     1     140.480 149.045 158.331  1.00  0.00    -0.388 OA
ATOM     34  H   UNL     1     141.281 148.465 158.411  1.00  0.00     0.211 HD
ENDBRANCH  25  33
ENDBRANCH  11  20
BRANCH  10  35
ATOM     35  O   UNL     1     139.438 143.802 161.960  1.00  0.00    -0.507 OA
ATOM     36  H   UNL     1     138.543 144.173 161.659  1.00  0.00     0.293 HD
ENDBRANCH  10  35
TORSDOF 9
ENDMDL
MODEL 9
REMARK VINA RESULT:    -4.850      6.059      9.264
REMARK INTER + INTRA:          -7.564
REMARK INTER:                  -6.516
REMARK INTRA:                  -1.047
REMARK UNBOUND:                -1.012
REMARK SMILES O=c1c(-c2ccc(O)cc2)coc2c([C@@H]3O[C@@H](CO)[C@H](O)[C@@H](O)[C@@H]3O)c(O)ccc12
REMARK SMILES IDX 3 1 11 2 12 3 13 4 30 5 2 6 1 7 29 8 28 9 26 10 14 11 4 12
REMARK SMILES IDX 5 13 6 14 7 15 10 16 9 17 8 18 15 20 24 21 16 22 22 23 17 24
REMARK SMILES IDX 20 25 25 26 23 28 18 30 19 31 21 33 27 35
REMARK H PARENT 8 19 25 27 23 29 19 32 21 34 27 36
REMARK Flexibility Score: inf
ROOT
ATOM      1  C   UNL     1     139.322 147.697 163.874  1.00  0.00     0.065 A 
ATOM      2  C   UNL     1     138.270 146.808 163.612  1.00  0.00     0.208 A 
ATOM      3  O   UNL     1     137.880 146.562 162.367  1.00  0.00    -0.463 OA
ATOM      4  C   UNL     1     138.443 147.124 161.301  1.00  0.00     0.147 A 
ATOM      5  C   UNL     1     139.514 148.032 161.474  1.00  0.00     0.066 A 
ATOM      6  C   UNL     1     139.946 148.324 162.781  1.00  0.00     0.200 A 
ATOM      7  O   UNL     1     140.876 149.156 162.973  1.00  0.00    -0.288 OA
ATOM      8  C   UNL     1     140.118 148.614 160.350  1.00  0.00     0.020 A 
ATOM      9  C   UNL     1     139.680 148.286 159.069  1.00  0.00     0.047 A 
ATOM     10  C   UNL     1     138.625 147.385 158.885  1.00  0.00     0.125 A 
ATOM     11  C   UNL     1     137.975 146.810 160.000  1.00  0.00     0.069 A 
ENDROOT
BRANCH   1  12
ATOM     12  C   UNL     1     139.743 147.953 165.274  1.00  0.00    -0.011 A 
ATOM     13  C   UNL     1     139.041 148.877 166.067  1.00  0.00     0.013 A 
ATOM     14  C   UNL     1     139.430 149.114 167.390  1.00  0.00     0.047 A 
ATOM     15  C   UNL     1     140.520 148.427 167.937  1.00  0.00     0.115 A 
ATOM     16  C   UNL     1     140.832 147.262 165.833  1.00  0.00     0.013 A 
ATOM     17  C   UNL     1     141.219 147.500 167.156  1.00  0.00     0.047 A 
BRANCH  15  18
ATOM     18  O   UNL     1     140.916 148.654 169.253  1.00  0.00    -0.508 OA
ATOM     19  H   UNL     1     141.284 147.907 169.831  1.00  0.00     0.293 HD
ENDBRANCH  15  18
ENDBRANCH   1  12
BRANCH  11  20
ATOM     20  C   UNL     1     136.841 145.815 159.783  1.00  0.00     0.188 C 
ATOM     21  C   UNL     1     135.514 146.556 159.510  1.00  0.00     0.179 C 
ATOM     22  O   UNL     1     137.170 144.925 158.726  1.00  0.00    -0.362 OA
ATOM     23  C   UNL     1     134.375 145.545 159.310  1.00  0.00     0.177 C 
ATOM     24  C   UNL     1     136.211 143.888 158.558  1.00  0.00     0.176 C 
ATOM     25  C   UNL     1     134.774 144.432 158.313  1.00  0.00     0.177 C 
BRANCH  21  26
ATOM     26  O   UNL     1     135.620 147.376 158.373  1.00  0.00    -0.387 OA
ATOM     27  H   UNL     1     135.274 148.272 158.622  1.00  0.00     0.211 HD
ENDBRANCH  21  26
BRANCH  23  28
ATOM     28  O   UNL     1     134.031 144.986 160.552  1.00  0.00    -0.387 OA
ATOM     29  H   UNL     1     133.175 145.404 160.831  1.00  0.00     0.211 HD
ENDBRANCH  23  28
BRANCH  24  30
ATOM     30  C   UNL     1     136.294 142.828 159.676  1.00  0.00     0.191 C 
BRANCH  30  31
ATOM     31  O   UNL     1     135.032 142.256 159.885  1.00  0.00    -0.394 OA
ATOM     32  H   UNL     1     135.131 141.641 160.658  1.00  0.00     0.210 HD
ENDBRANCH  30  31
ENDBRANCH  24  30
BRANCH  25  33
ATOM     33  O   UNL     1     134.628 144.887 156.988  1.00  0.00    -0.388 OA
ATOM     34  H   UNL     1     134.807 144.129 156.375  1.00  0.00     0.211 HD
ENDBRANCH  25  33
ENDBRANCH  11  20
BRANCH  10  35
ATOM     35  O   UNL     1     138.225 147.056 157.589  1.00  0.00    -0.507 OA
ATOM     36  H   UNL     1     138.653 147.482 156.775  1.00  0.00     0.293 HD
ENDBRANCH  10  35
TORSDOF 9
ENDMDL
