MODEL 1
REMARK VINA RESULT:    -4.151      0.000      0.000
REMARK INTER + INTRA:          -8.923
REMARK INTER:                  -7.548
REMARK INTRA:                  -1.375
REMARK UNBOUND:                -1.375
REMARK SMILES CCCCCCCCCCCCCC[C@@H](C)C(=O)[O-]
REMARK SMILES IDX 9 1 10 2 11 3 12 4 13 5 14 6 15 7 16 8 17 9 18 10 19 11 8 12
REMARK SMILES IDX 7 13 6 14 5 15 4 16 3 17 2 18 1 19
REMARK H PARENT
REMARK Flexibility Score: inf
ROOT
ATOM      1  C   UNL     1       4.893  10.929   7.137  1.00  0.00     0.000 C 
ENDROOT
BRANCH   1   2
ATOM      2  C   UNL     1       4.927  10.573   8.632  1.00  0.00     0.000 C 
BRANCH   2   3
ATOM      3  C   UNL     1       5.312   9.105   8.894  1.00  0.00     0.000 C 
BRANCH   3   4
ATOM      4  C   UNL     1       4.152   8.095   8.815  1.00  0.00     0.000 C 
BRANCH   4   5
ATOM      5  C   UNL     1       4.131   7.108   9.995  1.00  0.00     0.001 C 
BRANCH   5   6
ATOM      6  C   UNL     1       3.431   5.777   9.644  1.00  0.00     0.009 C 
BRANCH   6   7
ATOM      7  C   UNL     1       3.842   5.208   8.267  1.00  0.00     0.032 C 
ATOM      8  C   UNL     1       5.100   4.341   8.396  1.00  0.00     0.014 C 
BRANCH   7   9
ATOM      9  C   UNL     1       2.736   4.402   7.645  1.00  0.00     0.044 C 
ATOM     10  O   UNL     1       1.877   3.840   8.374  1.00  0.00    -0.550 OA
ATOM     11  O   UNL     1       2.659   4.263   6.264  1.00  0.00    -0.550 OA
ENDBRANCH   7   9
ENDBRANCH   6   7
ENDBRANCH   5   6
ENDBRANCH   4   5
ENDBRANCH   3   4
ENDBRANCH   2   3
ENDBRANCH   1   2
BRANCH   1  12
ATOM     12  C   UNL     1       3.914  12.073   6.815  1.00  0.00     0.000 C 
BRANCH  12  13
ATOM     13  C   UNL     1       4.568  13.415   6.437  1.00  0.00    -0.000 C 
BRANCH  13  14
ATOM     14  C   UNL     1       5.356  14.047   7.598  1.00  0.00    -0.000 C 
BRANCH  14  15
ATOM     15  C   UNL     1       6.530  14.913   7.113  1.00  0.00    -0.000 C 
BRANCH  15  16
ATOM     16  C   UNL     1       7.889  14.405   7.617  1.00  0.00    -0.000 C 
BRANCH  16  17
ATOM     17  C   UNL     1       7.816  12.915   7.985  1.00  0.00    -0.000 C 
BRANCH  17  18
ATOM     18  C   UNL     1       8.767  12.050   7.145  1.00  0.00    -0.003 C 
ATOM     19  C   UNL     1       8.506  10.553   7.310  1.00  0.00     0.004 C 
ENDBRANCH  17  18
ENDBRANCH  16  17
ENDBRANCH  15  16
ENDBRANCH  14  15
ENDBRANCH  13  14
ENDBRANCH  12  13
ENDBRANCH   1  12
TORSDOF 14
ENDMDL
MODEL 2
REMARK VINA RESULT:    -4.067      3.418      7.881
REMARK INTER + INTRA:          -8.770
REMARK INTER:                  -7.222
REMARK INTRA:                  -1.548
REMARK UNBOUND:                -1.375
REMARK SMILES CCCCCCCCCCCCCC[C@@H](C)C(=O)[O-]
REMARK SMILES IDX 9 1 10 2 11 3 12 4 13 5 14 6 15 7 16 8 17 9 18 10 19 11 8 12
REMARK SMILES IDX 7 13 6 14 5 15 4 16 3 17 2 18 1 19
REMARK H PARENT
REMARK Flexibility Score: inf
ROOT
ATOM      1  C   UNL     1       5.002   9.946   7.282  1.00  0.00     0.000 C 
ENDROOT
BRANCH   1   2
ATOM      2  C   UNL     1       4.968  11.151   6.327  1.00  0.00     0.000 C 
BRANCH   2   3
ATOM      3  C   UNL     1       4.022  12.270   6.803  1.00  0.00     0.000 C 
BRANCH   3   4
ATOM      4  C   UNL     1       4.527  13.705   6.563  1.00  0.00     0.000 C 
BRANCH   4   5
ATOM      5  C   UNL     1       5.411  14.231   7.707  1.00  0.00     0.001 C 
BRANCH   5   6
ATOM      6  C   UNL     1       6.918  14.123   7.390  1.00  0.00     0.009 C 
BRANCH   6   7
ATOM      7  C   UNL     1       7.721  13.347   8.459  1.00  0.00     0.032 C 
ATOM      8  C   UNL     1       6.776  12.572   9.384  1.00  0.00     0.014 C 
BRANCH   7   9
ATOM      9  C   UNL     1       8.707  12.399   7.836  1.00  0.00     0.044 C 
ATOM     10  O   UNL     1       9.844  12.241   8.353  1.00  0.00    -0.550 OA
ATOM     11  O   UNL     1       8.375  11.699   6.682  1.00  0.00    -0.550 OA
ENDBRANCH   7   9
ENDBRANCH   6   7
ENDBRANCH   5   6
ENDBRANCH   4   5
ENDBRANCH   3   4
ENDBRANCH   2   3
ENDBRANCH   1   2
BRANCH   1  12
ATOM     12  C   UNL     1       4.029  10.093   8.467  1.00  0.00     0.000 C 
BRANCH  12  13
ATOM     13  C   UNL     1       4.489   9.437   9.783  1.00  0.00    -0.000 C 
BRANCH  13  14
ATOM     14  C   UNL     1       5.274   8.132   9.562  1.00  0.00    -0.000 C 
BRANCH  14  15
ATOM     15  C   UNL     1       4.509   6.892  10.051  1.00  0.00    -0.000 C 
BRANCH  15  16
ATOM     16  C   UNL     1       3.703   6.212   8.934  1.00  0.00    -0.000 C 
BRANCH  16  17
ATOM     17  C   UNL     1       2.871   5.046   9.489  1.00  0.00    -0.000 C 
BRANCH  17  18
ATOM     18  C   UNL     1       2.202   4.217   8.383  1.00  0.00    -0.003 C 
ATOM     19  C   UNL     1       3.048   4.135   7.112  1.00  0.00     0.004 C 
ENDBRANCH  17  18
ENDBRANCH  16  17
ENDBRANCH  15  16
ENDBRANCH  14  15
ENDBRANCH  13  14
ENDBRANCH  12  13
ENDBRANCH   1  12
TORSDOF 14
ENDMDL
MODEL 3
REMARK VINA RESULT:    -3.978      2.889      5.238
REMARK INTER + INTRA:          -8.609
REMARK INTER:                  -7.812
REMARK INTRA:                  -0.797
REMARK UNBOUND:                -1.375
REMARK SMILES CCCCCCCCCCCCCC[C@@H](C)C(=O)[O-]
REMARK SMILES IDX 9 1 10 2 11 3 12 4 13 5 14 6 15 7 16 8 17 9 18 10 19 11 8 12
REMARK SMILES IDX 7 13 6 14 5 15 4 16 3 17 2 18 1 19
REMARK H PARENT
REMARK Flexibility Score: inf
ROOT
ATOM      1  C   UNL     1       3.783   6.438   9.791  1.00  0.00     0.000 C 
ENDROOT
BRANCH   1   2
ATOM      2  C   UNL     1       3.269   5.309   8.883  1.00  0.00     0.000 C 
BRANCH   2   3
ATOM      3  C   UNL     1       4.366   4.717   7.978  1.00  0.00     0.000 C 
BRANCH   3   4
ATOM      4  C   UNL     1       4.472   3.181   7.989  1.00  0.00     0.000 C 
BRANCH   4   5
ATOM      5  C   UNL     1       5.920   2.676   7.871  1.00  0.00     0.001 C 
BRANCH   5   6
ATOM      6  C   UNL     1       6.723   3.426   6.785  1.00  0.00     0.009 C 
BRANCH   6   7
ATOM      7  C   UNL     1       8.115   2.811   6.511  1.00  0.00     0.032 C 
ATOM      8  C   UNL     1       8.419   1.695   7.517  1.00  0.00     0.014 C 
BRANCH   7   9
ATOM      9  C   UNL     1       8.219   2.272   5.112  1.00  0.00     0.044 C 
ATOM     10  O   UNL     1       8.282   3.061   4.133  1.00  0.00    -0.550 OA
ATOM     11  O   UNL     1       8.238   0.899   4.888  1.00  0.00    -0.550 OA
ENDBRANCH   7   9
ENDBRANCH   6   7
ENDBRANCH   5   6
ENDBRANCH   4   5
ENDBRANCH   3   4
ENDBRANCH   2   3
ENDBRANCH   1   2
BRANCH   1  12
ATOM     12  C   UNL     1       4.270   7.668   9.002  1.00  0.00     0.000 C 
BRANCH  12  13
ATOM     13  C   UNL     1       4.077   9.023   9.706  1.00  0.00    -0.000 C 
BRANCH  13  14
ATOM     14  C   UNL     1       4.138  10.218   8.738  1.00  0.00    -0.000 C 
BRANCH  14  15
ATOM     15  C   UNL     1       5.015   9.937   7.507  1.00  0.00    -0.000 C 
BRANCH  15  16
ATOM     16  C   UNL     1       5.266  11.192   6.659  1.00  0.00    -0.000 C 
BRANCH  16  17
ATOM     17  C   UNL     1       4.079  12.163   6.752  1.00  0.00    -0.000 C 
BRANCH  17  18
ATOM     18  C   UNL     1       4.516  13.635   6.750  1.00  0.00    -0.003 C 
ATOM     19  C   UNL     1       5.662  13.913   7.724  1.00  0.00     0.004 C 
ENDBRANCH  17  18
ENDBRANCH  16  17
ENDBRANCH  15  16
ENDBRANCH  14  15
ENDBRANCH  13  14
ENDBRANCH  12  13
ENDBRANCH   1  12
TORSDOF 14
ENDMDL
MODEL 4
REMARK VINA RESULT:    -3.889     15.018     17.131
REMARK INTER + INTRA:          -8.447
REMARK INTER:                  -7.099
REMARK INTRA:                  -1.349
REMARK UNBOUND:                -1.375
REMARK SMILES CCCCCCCCCCCCCC[C@@H](C)C(=O)[O-]
REMARK SMILES IDX 9 1 10 2 11 3 12 4 13 5 14 6 15 7 16 8 17 9 18 10 19 11 8 12
REMARK SMILES IDX 7 13 6 14 5 15 4 16 3 17 2 18 1 19
REMARK H PARENT
REMARK Flexibility Score: inf
ROOT
ATOM      1  C   UNL     1       2.947   7.875  -8.632  1.00  0.00     0.000 C 
ENDROOT
BRANCH   1   2
ATOM      2  C   UNL     1       4.208   8.560  -8.081  1.00  0.00     0.000 C 
BRANCH   2   3
ATOM      3  C   UNL     1       5.214   7.567  -7.468  1.00  0.00     0.000 C 
BRANCH   3   4
ATOM      4  C   UNL     1       6.622   7.587  -8.091  1.00  0.00     0.000 C 
BRANCH   4   5
ATOM      5  C   UNL     1       7.720   7.973  -7.084  1.00  0.00     0.001 C 
BRANCH   5   6
ATOM      6  C   UNL     1       7.207   8.926  -5.983  1.00  0.00     0.009 C 
BRANCH   6   7
ATOM      7  C   UNL     1       8.006  10.246  -5.887  1.00  0.00     0.032 C 
ATOM      8  C   UNL     1       7.146  11.431  -6.343  1.00  0.00     0.014 C 
BRANCH   7   9
ATOM      9  C   UNL     1       8.505  10.494  -4.491  1.00  0.00     0.044 C 
ATOM     10  O   UNL     1       8.711   9.526  -3.713  1.00  0.00    -0.550 OA
ATOM     11  O   UNL     1       8.734  11.792  -4.047  1.00  0.00    -0.550 OA
ENDBRANCH   7   9
ENDBRANCH   6   7
ENDBRANCH   5   6
ENDBRANCH   4   5
ENDBRANCH   3   4
ENDBRANCH   2   3
ENDBRANCH   1   2
BRANCH   1  12
ATOM     12  C   UNL     1       3.265   6.679  -9.549  1.00  0.00     0.000 C 
BRANCH  12  13
ATOM     13  C   UNL     1       2.332   5.464  -9.398  1.00  0.00    -0.000 C 
BRANCH  13  14
ATOM     14  C   UNL     1       3.088   4.160  -9.088  1.00  0.00    -0.000 C 
BRANCH  14  15
ATOM     15  C   UNL     1       4.612   4.317  -9.212  1.00  0.00    -0.000 C 
BRANCH  15  16
ATOM     16  C   UNL     1       5.379   3.517  -8.148  1.00  0.00    -0.000 C 
BRANCH  16  17
ATOM     17  C   UNL     1       4.688   2.173  -7.870  1.00  0.00    -0.000 C 
BRANCH  17  18
ATOM     18  C   UNL     1       4.863   1.707  -6.418  1.00  0.00    -0.003 C 
ATOM     19  C   UNL     1       3.995   0.496  -6.076  1.00  0.00     0.004 C 
ENDBRANCH  17  18
ENDBRANCH  16  17
ENDBRANCH  15  16
ENDBRANCH  14  15
ENDBRANCH  13  14
ENDBRANCH  12  13
ENDBRANCH   1  12
TORSDOF 14
ENDMDL
MODEL 5
REMARK VINA RESULT:    -3.881     15.305     16.306
REMARK INTER + INTRA:          -8.433
REMARK INTER:                  -7.068
REMARK INTRA:                  -1.365
REMARK UNBOUND:                -1.375
REMARK SMILES CCCCCCCCCCCCCC[C@@H](C)C(=O)[O-]
REMARK SMILES IDX 9 1 10 2 11 3 12 4 13 5 14 6 15 7 16 8 17 9 18 10 19 11 8 12
REMARK SMILES IDX 7 13 6 14 5 15 4 16 3 17 2 18 1 19
REMARK H PARENT
REMARK Flexibility Score: inf
ROOT
ATOM      1  C   UNL     1       2.902   8.120  -8.594  1.00  0.00     0.000 C 
ENDROOT
BRANCH   1   2
ATOM      2  C   UNL     1       1.880   7.087  -9.098  1.00  0.00     0.000 C 
BRANCH   2   3
ATOM      3  C   UNL     1       2.526   5.946  -9.907  1.00  0.00     0.000 C 
BRANCH   3   4
ATOM      4  C   UNL     1       2.319   4.532  -9.333  1.00  0.00     0.000 C 
BRANCH   4   5
ATOM      5  C   UNL     1       3.488   3.580  -9.642  1.00  0.00     0.001 C 
BRANCH   5   6
ATOM      6  C   UNL     1       4.687   3.784  -8.689  1.00  0.00     0.009 C 
BRANCH   6   7
ATOM      7  C   UNL     1       5.001   2.546  -7.818  1.00  0.00     0.032 C 
ATOM      8  C   UNL     1       5.044   1.279  -8.679  1.00  0.00     0.014 C 
BRANCH   7   9
ATOM      9  C   UNL     1       6.302   2.700  -7.081  1.00  0.00     0.044 C 
ATOM     10  O   UNL     1       6.311   3.133  -5.899  1.00  0.00    -0.550 OA
ATOM     11  O   UNL     1       7.503   2.375  -7.702  1.00  0.00    -0.550 OA
ENDBRANCH   7   9
ENDBRANCH   6   7
ENDBRANCH   5   6
ENDBRANCH   4   5
ENDBRANCH   3   4
ENDBRANCH   2   3
ENDBRANCH   1   2
BRANCH   1  12
ATOM     12  C   UNL     1       4.360   7.692  -8.842  1.00  0.00     0.000 C 
BRANCH  12  13
ATOM     13  C   UNL     1       5.170   7.344  -7.580  1.00  0.00    -0.000 C 
BRANCH  13  14
ATOM     14  C   UNL     1       6.616   6.919  -7.891  1.00  0.00    -0.000 C 
BRANCH  14  15
ATOM     15  C   UNL     1       7.657   7.820  -7.209  1.00  0.00    -0.000 C 
BRANCH  15  16
ATOM     16  C   UNL     1       7.057   9.139  -6.699  1.00  0.00    -0.000 C 
BRANCH  16  17
ATOM     17  C   UNL     1       7.983   9.801  -5.667  1.00  0.00    -0.000 C 
BRANCH  17  18
ATOM     18  C   UNL     1       8.037   9.029  -4.341  1.00  0.00    -0.003 C 
ATOM     19  C   UNL     1       9.401   8.387  -4.085  1.00  0.00     0.004 C 
ENDBRANCH  17  18
ENDBRANCH  16  17
ENDBRANCH  15  16
ENDBRANCH  14  15
ENDBRANCH  13  14
ENDBRANCH  12  13
ENDBRANCH   1  12
TORSDOF 14
ENDMDL
MODEL 6
REMARK VINA RESULT:    -3.775     15.242     16.258
REMARK INTER + INTRA:          -8.240
REMARK INTER:                  -6.707
REMARK INTRA:                  -1.533
REMARK UNBOUND:                -1.375
REMARK SMILES CCCCCCCCCCCCCC[C@@H](C)C(=O)[O-]
REMARK SMILES IDX 9 1 10 2 11 3 12 4 13 5 14 6 15 7 16 8 17 9 18 10 19 11 8 12
REMARK SMILES IDX 7 13 6 14 5 15 4 16 3 17 2 18 1 19
REMARK H PARENT
REMARK Flexibility Score: inf
ROOT
ATOM      1  C   UNL     1       3.119   8.376  -8.582  1.00  0.00     0.000 C 
ENDROOT
BRANCH   1   2
ATOM      2  C   UNL     1       3.383   6.951  -9.095  1.00  0.00     0.000 C 
BRANCH   2   3
ATOM      3  C   UNL     1       2.091   6.162  -9.376  1.00  0.00     0.000 C 
BRANCH   3   4
ATOM      4  C   UNL     1       2.247   4.630  -9.406  1.00  0.00     0.000 C 
BRANCH   4   5
ATOM      5  C   UNL     1       3.699   4.178  -9.637  1.00  0.00     0.001 C 
BRANCH   5   6
ATOM      6  C   UNL     1       4.152   3.099  -8.629  1.00  0.00     0.009 C 
BRANCH   6   7
ATOM      7  C   UNL     1       5.667   3.132  -8.327  1.00  0.00     0.032 C 
ATOM      8  C   UNL     1       6.170   4.579  -8.258  1.00  0.00     0.014 C 
BRANCH   7   9
ATOM      9  C   UNL     1       5.995   2.423  -7.043  1.00  0.00     0.044 C 
ATOM     10  O   UNL     1       5.769   1.190  -6.928  1.00  0.00    -0.550 OA
ATOM     11  O   UNL     1       6.539   3.124  -5.973  1.00  0.00    -0.550 OA
ENDBRANCH   7   9
ENDBRANCH   6   7
ENDBRANCH   5   6
ENDBRANCH   4   5
ENDBRANCH   3   4
ENDBRANCH   2   3
ENDBRANCH   1   2
BRANCH   1  12
ATOM     12  C   UNL     1       4.341   8.996  -7.877  1.00  0.00     0.000 C 
BRANCH  12  13
ATOM     13  C   UNL     1       5.249   8.000  -7.133  1.00  0.00    -0.000 C 
BRANCH  13  14
ATOM     14  C   UNL     1       6.747   8.309  -7.304  1.00  0.00    -0.000 C 
BRANCH  14  15
ATOM     15  C   UNL     1       7.330   9.082  -6.110  1.00  0.00    -0.000 C 
BRANCH  15  16
ATOM     16  C   UNL     1       8.021  10.388  -6.530  1.00  0.00    -0.000 C 
BRANCH  16  17
ATOM     17  C   UNL     1       7.227  11.610  -6.042  1.00  0.00    -0.000 C 
BRANCH  17  18
ATOM     18  C   UNL     1       6.191  12.091  -7.069  1.00  0.00    -0.003 C 
ATOM     19  C   UNL     1       6.739  12.112  -8.496  1.00  0.00     0.004 C 
ENDBRANCH  17  18
ENDBRANCH  16  17
ENDBRANCH  15  16
ENDBRANCH  14  15
ENDBRANCH  13  14
ENDBRANCH  12  13
ENDBRANCH   1  12
TORSDOF 14
ENDMDL
MODEL 7
REMARK VINA RESULT:    -3.775     15.380     16.420
REMARK INTER + INTRA:          -8.239
REMARK INTER:                  -7.016
REMARK INTRA:                  -1.223
REMARK UNBOUND:                -1.375
REMARK SMILES CCCCCCCCCCCCCC[C@@H](C)C(=O)[O-]
REMARK SMILES IDX 9 1 10 2 11 3 12 4 13 5 14 6 15 7 16 8 17 9 18 10 19 11 8 12
REMARK SMILES IDX 7 13 6 14 5 15 4 16 3 17 2 18 1 19
REMARK H PARENT
REMARK Flexibility Score: inf
ROOT
ATOM      1  C   UNL     1       1.884   6.621  -9.373  1.00  0.00     0.000 C 
ENDROOT
BRANCH   1   2
ATOM      2  C   UNL     1       2.097   5.237 -10.008  1.00  0.00     0.000 C 
BRANCH   2   3
ATOM      3  C   UNL     1       2.735   4.222  -9.040  1.00  0.00     0.000 C 
BRANCH   3   4
ATOM      4  C   UNL     1       4.080   3.628  -9.500  1.00  0.00     0.000 C 
BRANCH   4   5
ATOM      5  C   UNL     1       5.265   4.075  -8.628  1.00  0.00     0.001 C 
BRANCH   5   6
ATOM      6  C   UNL     1       5.875   2.913  -7.814  1.00  0.00     0.009 C 
BRANCH   6   7
ATOM      7  C   UNL     1       4.905   1.726  -7.609  1.00  0.00     0.032 C 
ATOM      8  C   UNL     1       5.361   0.512  -8.426  1.00  0.00     0.014 C 
BRANCH   7   9
ATOM      9  C   UNL     1       4.789   1.345  -6.160  1.00  0.00     0.044 C 
ATOM     10  O   UNL     1       5.520   1.903  -5.300  1.00  0.00    -0.550 OA
ATOM     11  O   UNL     1       3.882   0.370  -5.761  1.00  0.00    -0.550 OA
ENDBRANCH   7   9
ENDBRANCH   6   7
ENDBRANCH   5   6
ENDBRANCH   4   5
ENDBRANCH   3   4
ENDBRANCH   2   3
ENDBRANCH   1   2
BRANCH   1  12
ATOM     12  C   UNL     1       3.171   7.467  -9.332  1.00  0.00     0.000 C 
BRANCH  12  13
ATOM     13  C   UNL     1       3.327   8.371  -8.096  1.00  0.00    -0.000 C 
BRANCH  13  14
ATOM     14  C   UNL     1       4.776   8.837  -7.871  1.00  0.00    -0.000 C 
BRANCH  14  15
ATOM     15  C   UNL     1       5.719   7.680  -7.505  1.00  0.00    -0.000 C 
BRANCH  15  16
ATOM     16  C   UNL     1       7.189   7.988  -7.829  1.00  0.00    -0.000 C 
BRANCH  16  17
ATOM     17  C   UNL     1       8.039   8.006  -6.549  1.00  0.00    -0.000 C 
BRANCH  17  18
ATOM     18  C   UNL     1       7.593   9.089  -5.557  1.00  0.00    -0.003 C 
ATOM     19  C   UNL     1       7.706  10.501  -6.131  1.00  0.00     0.004 C 
ENDBRANCH  17  18
ENDBRANCH  16  17
ENDBRANCH  15  16
ENDBRANCH  14  15
ENDBRANCH  13  14
ENDBRANCH  12  13
ENDBRANCH   1  12
TORSDOF 14
ENDMDL
MODEL 8
REMARK VINA RESULT:    -3.775     17.928     21.591
REMARK INTER + INTRA:          -8.239
REMARK INTER:                  -5.995
REMARK INTRA:                  -2.244
REMARK UNBOUND:                -1.375
REMARK SMILES CCCCCCCCCCCCCC[C@@H](C)C(=O)[O-]
REMARK SMILES IDX 9 1 10 2 11 3 12 4 13 5 14 6 15 7 16 8 17 9 18 10 19 11 8 12
REMARK SMILES IDX 7 13 6 14 5 15 4 16 3 17 2 18 1 19
REMARK H PARENT
REMARK Flexibility Score: inf
ROOT
ATOM      1  C   UNL     1      -8.568  -0.273  -6.885  1.00  0.00     0.000 C 
ENDROOT
BRANCH   1   2
ATOM      2  C   UNL     1      -7.081  -0.216  -6.498  1.00  0.00     0.000 C 
BRANCH   2   3
ATOM      3  C   UNL     1      -6.540   1.222  -6.391  1.00  0.00     0.000 C 
BRANCH   3   4
ATOM      4  C   UNL     1      -7.551   2.270  -5.890  1.00  0.00     0.000 C 
BRANCH   4   5
ATOM      5  C   UNL     1      -7.279   2.726  -4.446  1.00  0.00     0.001 C 
BRANCH   5   6
ATOM      6  C   UNL     1      -8.205   2.035  -3.421  1.00  0.00     0.009 C 
BRANCH   6   7
ATOM      7  C   UNL     1      -7.543   0.841  -2.696  1.00  0.00     0.032 C 
ATOM      8  C   UNL     1      -6.019   1.007  -2.667  1.00  0.00     0.014 C 
BRANCH   7   9
ATOM      9  C   UNL     1      -8.060   0.684  -1.294  1.00  0.00     0.044 C 
ATOM     10  O   UNL     1      -9.262   0.366  -1.096  1.00  0.00    -0.550 OA
ATOM     11  O   UNL     1      -7.220   0.898  -0.207  1.00  0.00    -0.550 OA
ENDBRANCH   7   9
ENDBRANCH   6   7
ENDBRANCH   5   6
ENDBRANCH   4   5
ENDBRANCH   3   4
ENDBRANCH   2   3
ENDBRANCH   1   2
BRANCH   1  12
ATOM     12  C   UNL     1      -9.339  -1.378  -6.140  1.00  0.00     0.000 C 
BRANCH  12  13
ATOM     13  C   UNL     1      -9.304  -1.286  -4.603  1.00  0.00    -0.000 C 
BRANCH  13  14
ATOM     14  C   UNL     1      -8.927  -2.618  -3.930  1.00  0.00    -0.000 C 
BRANCH  14  15
ATOM     15  C   UNL     1      -8.769  -3.767  -4.940  1.00  0.00    -0.000 C 
BRANCH  15  16
ATOM     16  C   UNL     1      -7.614  -4.714  -4.585  1.00  0.00    -0.000 C 
BRANCH  16  17
ATOM     17  C   UNL     1      -6.792  -5.069  -5.834  1.00  0.00    -0.000 C 
BRANCH  17  18
ATOM     18  C   UNL     1      -7.277  -4.332  -7.090  1.00  0.00    -0.003 C 
ATOM     19  C   UNL     1      -6.164  -3.547  -7.784  1.00  0.00     0.004 C 
ENDBRANCH  17  18
ENDBRANCH  16  17
ENDBRANCH  15  16
ENDBRANCH  14  15
ENDBRANCH  13  14
ENDBRANCH  12  13
ENDBRANCH   1  12
TORSDOF 14
ENDMDL
MODEL 9
REMARK VINA RESULT:    -3.767      3.563      8.257
REMARK INTER + INTRA:          -8.224
REMARK INTER:                  -7.225
REMARK INTRA:                  -0.999
REMARK UNBOUND:                -1.375
REMARK SMILES CCCCCCCCCCCCCC[C@@H](C)C(=O)[O-]
REMARK SMILES IDX 9 1 10 2 11 3 12 4 13 5 14 6 15 7 16 8 17 9 18 10 19 11 8 12
REMARK SMILES IDX 7 13 6 14 5 15 4 16 3 17 2 18 1 19
REMARK H PARENT
REMARK Flexibility Score: inf
ROOT
ATOM      1  C   UNL     1       3.582   4.638   7.887  1.00  0.00     0.000 C 
ENDROOT
BRANCH   1   2
ATOM      2  C   UNL     1       3.010   5.273   9.165  1.00  0.00     0.000 C 
BRANCH   2   3
ATOM      3  C   UNL     1       3.853   6.456   9.679  1.00  0.00     0.000 C 
BRANCH   3   4
ATOM      4  C   UNL     1       4.179   7.536   8.631  1.00  0.00     0.000 C 
BRANCH   4   5
ATOM      5  C   UNL     1       4.113   8.965   9.199  1.00  0.00     0.001 C 
BRANCH   5   6
ATOM      6  C   UNL     1       3.806  10.021   8.115  1.00  0.00     0.009 C 
BRANCH   6   7
ATOM      7  C   UNL     1       4.904  11.099   7.973  1.00  0.00     0.032 C 
ATOM      8  C   UNL     1       6.289  10.448   7.876  1.00  0.00     0.014 C 
BRANCH   7   9
ATOM      9  C   UNL     1       4.674  11.974   6.773  1.00  0.00     0.044 C 
ATOM     10  O   UNL     1       4.596  13.224   6.909  1.00  0.00    -0.550 OA
ATOM     11  O   UNL     1       4.534  11.412   5.510  1.00  0.00    -0.550 OA
ENDBRANCH   7   9
ENDBRANCH   6   7
ENDBRANCH   5   6
ENDBRANCH   4   5
ENDBRANCH   3   4
ENDBRANCH   2   3
ENDBRANCH   1   2
BRANCH   1  12
ATOM     12  C   UNL     1       3.504   3.100   7.895  1.00  0.00     0.000 C 
BRANCH  12  13
ATOM     13  C   UNL     1       4.526   2.392   8.803  1.00  0.00    -0.000 C 
BRANCH  13  14
ATOM     14  C   UNL     1       5.939   2.993   8.701  1.00  0.00    -0.000 C 
BRANCH  14  15
ATOM     15  C   UNL     1       7.008   1.937   8.378  1.00  0.00    -0.000 C 
BRANCH  15  16
ATOM     16  C   UNL     1       7.554   2.065   6.948  1.00  0.00    -0.000 C 
BRANCH  16  17
ATOM     17  C   UNL     1       7.336   3.485   6.403  1.00  0.00    -0.000 C 
BRANCH  17  18
ATOM     18  C   UNL     1       7.756   3.624   4.932  1.00  0.00    -0.003 C 
ATOM     19  C   UNL     1       8.695   2.508   4.476  1.00  0.00     0.004 C 
ENDBRANCH  17  18
ENDBRANCH  16  17
ENDBRANCH  15  16
ENDBRANCH  14  15
ENDBRANCH  13  14
ENDBRANCH  12  13
ENDBRANCH   1  12
TORSDOF 14
ENDMDL
