MODEL 1
REMARK VINA RESULT:    -5.123      0.000      0.000
REMARK INTER + INTRA:          -8.197
REMARK INTER:                  -7.819
REMARK INTRA:                  -0.378
REMARK UNBOUND:                -0.378
REMARK SMILES CCCCCCCCCCC(=O)[O-]
REMARK SMILES IDX 7 1 8 2 9 3 10 4 11 5 12 6 13 7 6 8 5 9 4 10 3 11 2 12 1 13
REMARK H PARENT
REMARK Flexibility Score: inf
ROOT
ATOM      1  C   UNL     1      23.138  10.586  12.230  1.00  0.00     0.000 C 
ENDROOT
BRANCH   1   2
ATOM      2  C   UNL     1      22.672   9.308  12.950  1.00  0.00     0.000 C 
BRANCH   2   3
ATOM      3  C   UNL     1      21.350   8.756  12.384  1.00  0.00     0.006 C 
BRANCH   3   4
ATOM      4  C   UNL     1      20.535   7.915  13.379  1.00  0.00     0.053 C 
BRANCH   4   5
ATOM      5  C   UNL     1      19.468   8.721  14.057  1.00  0.00     0.041 C 
ATOM      6  O   UNL     1      18.917   8.289  15.103  1.00  0.00    -0.550 OA
ATOM      7  O   UNL     1      19.108   9.962  13.550  1.00  0.00    -0.550 OA
ENDBRANCH   4   5
ENDBRANCH   3   4
ENDBRANCH   2   3
ENDBRANCH   1   2
BRANCH   1   8
ATOM      8  C   UNL     1      24.289  11.291  12.965  1.00  0.00     0.000 C 
BRANCH   8   9
ATOM      9  C   UNL     1      25.230  12.044  12.012  1.00  0.00    -0.000 C 
BRANCH   9  10
ATOM     10  C   UNL     1      24.431  12.826  10.958  1.00  0.00    -0.000 C 
BRANCH  10  11
ATOM     11  C   UNL     1      25.287  13.239   9.750  1.00  0.00    -0.000 C 
BRANCH  11  12
ATOM     12  C   UNL     1      24.447  13.795   8.592  1.00  0.00    -0.003 C 
ATOM     13  C   UNL     1      23.214  12.930   8.344  1.00  0.00     0.004 C 
ENDBRANCH  11  12
ENDBRANCH  10  11
ENDBRANCH   9  10
ENDBRANCH   8   9
ENDBRANCH   1   8
TORSDOF 9
ENDMDL
MODEL 2
REMARK VINA RESULT:    -5.112      3.879      7.148
REMARK INTER + INTRA:          -8.179
REMARK INTER:                  -7.743
REMARK INTRA:                  -0.436
REMARK UNBOUND:                -0.378
REMARK SMILES CCCCCCCCCCC(=O)[O-]
REMARK SMILES IDX 7 1 8 2 9 3 10 4 11 5 12 6 13 7 6 8 5 9 4 10 3 11 2 12 1 13
REMARK H PARENT
REMARK Flexibility Score: inf
ROOT
ATOM      1  C   UNL     1      21.763  10.974  10.045  1.00  0.00     0.000 C 
ENDROOT
BRANCH   1   2
ATOM      2  C   UNL     1      22.264  12.427   9.964  1.00  0.00     0.000 C 
BRANCH   2   3
ATOM      3  C   UNL     1      22.874  12.769   8.592  1.00  0.00     0.006 C 
BRANCH   3   4
ATOM      4  C   UNL     1      23.810  13.988   8.599  1.00  0.00     0.053 C 
BRANCH   4   5
ATOM      5  C   UNL     1      25.253  13.590   8.658  1.00  0.00     0.041 C 
ATOM      6  O   UNL     1      25.719  13.052   9.696  1.00  0.00    -0.550 OA
ATOM      7  O   UNL     1      26.074  13.783   7.554  1.00  0.00    -0.550 OA
ENDBRANCH   4   5
ENDBRANCH   3   4
ENDBRANCH   2   3
ENDBRANCH   1   2
BRANCH   1   8
ATOM      8  C   UNL     1      21.233  10.610  11.442  1.00  0.00     0.000 C 
BRANCH   8   9
ATOM      9  C   UNL     1      22.341  10.123  12.390  1.00  0.00    -0.000 C 
BRANCH   9  10
ATOM     10  C   UNL     1      21.751   9.293  13.541  1.00  0.00    -0.000 C 
BRANCH  10  11
ATOM     11  C   UNL     1      21.016   8.036  13.049  1.00  0.00    -0.000 C 
BRANCH  11  12
ATOM     12  C   UNL     1      19.544   8.003  13.484  1.00  0.00    -0.003 C 
ATOM     13  C   UNL     1      19.139   9.316  14.149  1.00  0.00     0.004 C 
ENDBRANCH  11  12
ENDBRANCH  10  11
ENDBRANCH   9  10
ENDBRANCH   8   9
ENDBRANCH   1   8
TORSDOF 9
ENDMDL
MODEL 3
REMARK VINA RESULT:    -5.064      4.461      7.318
REMARK INTER + INTRA:          -8.107
REMARK INTER:                  -7.592
REMARK INTRA:                  -0.515
REMARK UNBOUND:                -0.378
REMARK SMILES CCCCCCCCCCC(=O)[O-]
REMARK SMILES IDX 7 1 8 2 9 3 10 4 11 5 12 6 13 7 6 8 5 9 4 10 3 11 2 12 1 13
REMARK H PARENT
REMARK Flexibility Score: inf
ROOT
ATOM      1  C   UNL     1      22.405  12.199  10.365  1.00  0.00     0.000 C 
ENDROOT
BRANCH   1   2
ATOM      2  C   UNL     1      23.646  12.707  11.119  1.00  0.00     0.000 C 
BRANCH   2   3
ATOM      3  C   UNL     1      24.817  13.043  10.176  1.00  0.00     0.006 C 
BRANCH   3   4
ATOM      4  C   UNL     1      24.394  13.436   8.752  1.00  0.00     0.053 C 
BRANCH   4   5
ATOM      5  C   UNL     1      25.459  14.215   8.043  1.00  0.00     0.041 C 
ATOM      6  O   UNL     1      26.471  13.627   7.578  1.00  0.00    -0.550 OA
ATOM      7  O   UNL     1      25.317  15.585   7.866  1.00  0.00    -0.550 OA
ENDBRANCH   4   5
ENDBRANCH   3   4
ENDBRANCH   2   3
ENDBRANCH   1   2
BRANCH   1   8
ATOM      8  C   UNL     1      21.751  10.989  11.053  1.00  0.00     0.000 C 
BRANCH   8   9
ATOM      9  C   UNL     1      22.691  10.290  12.047  1.00  0.00    -0.000 C 
BRANCH   9  10
ATOM     10  C   UNL     1      21.899   9.683  13.216  1.00  0.00    -0.000 C 
BRANCH  10  11
ATOM     11  C   UNL     1      21.227   8.351  12.847  1.00  0.00    -0.000 C 
BRANCH  11  12
ATOM     12  C   UNL     1      19.854   8.178  13.512  1.00  0.00    -0.003 C 
ATOM     13  C   UNL     1      19.167   9.526  13.711  1.00  0.00     0.004 C 
ENDBRANCH  11  12
ENDBRANCH  10  11
ENDBRANCH   9  10
ENDBRANCH   8   9
ENDBRANCH   1   8
TORSDOF 9
ENDMDL
MODEL 4
REMARK VINA RESULT:    -5.060      3.325      6.407
REMARK INTER + INTRA:          -8.099
REMARK INTER:                  -7.427
REMARK INTRA:                  -0.673
REMARK UNBOUND:                -0.378
REMARK SMILES CCCCCCCCCCC(=O)[O-]
REMARK SMILES IDX 7 1 8 2 9 3 10 4 11 5 12 6 13 7 6 8 5 9 4 10 3 11 2 12 1 13
REMARK H PARENT
REMARK Flexibility Score: inf
ROOT
ATOM      1  C   UNL     1      23.835  11.323  12.952  1.00  0.00     0.000 C 
ENDROOT
BRANCH   1   2
ATOM      2  C   UNL     1      25.276  11.579  12.476  1.00  0.00     0.000 C 
BRANCH   2   3
ATOM      3  C   UNL     1      25.335  12.395  11.171  1.00  0.00     0.006 C 
BRANCH   3   4
ATOM      4  C   UNL     1      23.961  12.801  10.613  1.00  0.00     0.053 C 
BRANCH   4   5
ATOM      5  C   UNL     1      24.029  13.171   9.163  1.00  0.00     0.041 C 
ATOM      6  O   UNL     1      25.069  13.704   8.693  1.00  0.00    -0.550 OA
ATOM      7  O   UNL     1      22.957  12.896   8.324  1.00  0.00    -0.550 OA
ENDBRANCH   4   5
ENDBRANCH   3   4
ENDBRANCH   2   3
ENDBRANCH   1   2
BRANCH   1   8
ATOM      8  C   UNL     1      23.606   9.866  13.384  1.00  0.00     0.000 C 
BRANCH   8   9
ATOM      9  C   UNL     1      22.887   9.033  12.310  1.00  0.00    -0.000 C 
BRANCH   9  10
ATOM     10  C   UNL     1      21.656   9.780  11.773  1.00  0.00    -0.000 C 
BRANCH  10  11
ATOM     11  C   UNL     1      20.493   9.805  12.777  1.00  0.00    -0.000 C 
BRANCH  11  12
ATOM     12  C   UNL     1      20.202   8.423  13.380  1.00  0.00    -0.003 C 
ATOM     13  C   UNL     1      19.182   8.522  14.511  1.00  0.00     0.004 C 
ENDBRANCH  11  12
ENDBRANCH  10  11
ENDBRANCH   9  10
ENDBRANCH   8   9
ENDBRANCH   1   8
TORSDOF 9
ENDMDL
MODEL 5
REMARK VINA RESULT:    -4.978      1.382      2.141
REMARK INTER + INTRA:          -7.975
REMARK INTER:                  -7.616
REMARK INTRA:                  -0.358
REMARK UNBOUND:                -0.378
REMARK SMILES CCCCCCCCCCC(=O)[O-]
REMARK SMILES IDX 7 1 8 2 9 3 10 4 11 5 12 6 13 7 6 8 5 9 4 10 3 11 2 12 1 13
REMARK H PARENT
REMARK Flexibility Score: inf
ROOT
ATOM      1  C   UNL     1      21.301  10.557  11.398  1.00  0.00     0.000 C 
ENDROOT
BRANCH   1   2
ATOM      2  C   UNL     1      22.243   9.451  11.903  1.00  0.00     0.000 C 
BRANCH   2   3
ATOM      3  C   UNL     1      21.768   8.826  13.229  1.00  0.00     0.006 C 
BRANCH   3   4
ATOM      4  C   UNL     1      20.384   8.162  13.158  1.00  0.00     0.053 C 
BRANCH   4   5
ATOM      5  C   UNL     1      19.386   8.844  14.044  1.00  0.00     0.041 C 
ATOM      6  O   UNL     1      18.852   9.925  13.681  1.00  0.00    -0.550 OA
ATOM      7  O   UNL     1      19.023   8.268  15.254  1.00  0.00    -0.550 OA
ENDBRANCH   4   5
ENDBRANCH   3   4
ENDBRANCH   2   3
ENDBRANCH   1   2
BRANCH   1   8
ATOM      8  C   UNL     1      21.847  11.274  10.153  1.00  0.00     0.000 C 
BRANCH   8   9
ATOM      9  C   UNL     1      22.144  12.761  10.405  1.00  0.00    -0.000 C 
BRANCH   9  10
ATOM     10  C   UNL     1      23.605  13.093  10.064  1.00  0.00    -0.000 C 
BRANCH  10  11
ATOM     11  C   UNL     1      23.867  13.131   8.550  1.00  0.00    -0.000 C 
BRANCH  11  12
ATOM     12  C   UNL     1      25.215  13.775   8.198  1.00  0.00    -0.003 C 
ATOM     13  C   UNL     1      26.277  13.427   9.237  1.00  0.00     0.004 C 
ENDBRANCH  11  12
ENDBRANCH  10  11
ENDBRANCH   9  10
ENDBRANCH   8   9
ENDBRANCH   1   8
TORSDOF 9
ENDMDL
MODEL 6
REMARK VINA RESULT:    -4.716      3.163      4.408
REMARK INTER + INTRA:          -7.575
REMARK INTER:                  -6.876
REMARK INTRA:                  -0.699
REMARK UNBOUND:                -0.378
REMARK SMILES CCCCCCCCCCC(=O)[O-]
REMARK SMILES IDX 7 1 8 2 9 3 10 4 11 5 12 6 13 7 6 8 5 9 4 10 3 11 2 12 1 13
REMARK H PARENT
REMARK Flexibility Score: inf
ROOT
ATOM      1  C   UNL     1      21.407   9.044  12.213  1.00  0.00     0.000 C 
ENDROOT
BRANCH   1   2
ATOM      2  C   UNL     1      22.890   8.825  12.560  1.00  0.00     0.000 C 
BRANCH   2   3
ATOM      3  C   UNL     1      23.393   9.787  13.652  1.00  0.00     0.006 C 
BRANCH   3   4
ATOM      4  C   UNL     1      24.298  10.917  13.135  1.00  0.00     0.053 C 
BRANCH   4   5
ATOM      5  C   UNL     1      25.739  10.685  13.475  1.00  0.00     0.041 C 
ATOM      6  O   UNL     1      26.633  11.419  12.978  1.00  0.00    -0.550 OA
ATOM      7  O   UNL     1      26.090   9.678  14.365  1.00  0.00    -0.550 OA
ENDBRANCH   4   5
ENDBRANCH   3   4
ENDBRANCH   2   3
ENDBRANCH   1   2
BRANCH   1   8
ATOM      8  C   UNL     1      21.103  10.499  11.819  1.00  0.00     0.000 C 
BRANCH   8   9
ATOM      9  C   UNL     1      21.569  10.839  10.394  1.00  0.00    -0.000 C 
BRANCH   9  10
ATOM     10  C   UNL     1      22.213  12.234  10.347  1.00  0.00    -0.000 C 
BRANCH  10  11
ATOM     11  C   UNL     1      22.555  12.681   8.917  1.00  0.00    -0.000 C 
BRANCH  11  12
ATOM     12  C   UNL     1      24.012  13.142   8.775  1.00  0.00    -0.003 C 
ATOM     13  C   UNL     1      24.731  13.115  10.121  1.00  0.00     0.004 C 
ENDBRANCH  11  12
ENDBRANCH  10  11
ENDBRANCH   9  10
ENDBRANCH   8   9
ENDBRANCH   1   8
TORSDOF 9
ENDMDL
MODEL 7
REMARK VINA RESULT:    -4.614      1.545      2.121
REMARK INTER + INTRA:          -7.419
REMARK INTER:                  -6.916
REMARK INTRA:                  -0.503
REMARK UNBOUND:                -0.378
REMARK SMILES CCCCCCCCCCC(=O)[O-]
REMARK SMILES IDX 7 1 8 2 9 3 10 4 11 5 12 6 13 7 6 8 5 9 4 10 3 11 2 12 1 13
REMARK H PARENT
REMARK Flexibility Score: inf
ROOT
ATOM      1  C   UNL     1      24.364  11.447  13.013  1.00  0.00     0.000 C 
ENDROOT
BRANCH   1   2
ATOM      2  C   UNL     1      24.251   9.993  13.501  1.00  0.00     0.000 C 
BRANCH   2   3
ATOM      3  C   UNL     1      22.790   9.513  13.603  1.00  0.00     0.006 C 
BRANCH   3   4
ATOM      4  C   UNL     1      22.106   9.267  12.248  1.00  0.00     0.053 C 
BRANCH   4   5
ATOM      5  C   UNL     1      20.939  10.182  12.033  1.00  0.00     0.041 C 
ATOM      6  O   UNL     1      20.926  10.971  11.052  1.00  0.00    -0.550 OA
ATOM      7  O   UNL     1      19.853  10.140  12.897  1.00  0.00    -0.550 OA
ENDBRANCH   4   5
ENDBRANCH   3   4
ENDBRANCH   2   3
ENDBRANCH   1   2
BRANCH   1   8
ATOM      8  C   UNL     1      25.820  11.940  12.959  1.00  0.00     0.000 C 
BRANCH   8   9
ATOM      9  C   UNL     1      26.286  12.261  11.530  1.00  0.00    -0.000 C 
BRANCH   9  10
ATOM     10  C   UNL     1      25.111  12.743  10.666  1.00  0.00    -0.000 C 
BRANCH  10  11
ATOM     11  C   UNL     1      25.570  13.470   9.392  1.00  0.00    -0.000 C 
BRANCH  11  12
ATOM     12  C   UNL     1      24.495  13.479   8.296  1.00  0.00    -0.003 C 
ATOM     13  C   UNL     1      23.101  13.308   8.893  1.00  0.00     0.004 C 
ENDBRANCH  11  12
ENDBRANCH  10  11
ENDBRANCH   9  10
ENDBRANCH   8   9
ENDBRANCH   1   8
TORSDOF 9
ENDMDL
MODEL 8
REMARK VINA RESULT:    -4.586      2.221      3.391
REMARK INTER + INTRA:          -7.377
REMARK INTER:                  -6.882
REMARK INTRA:                  -0.495
REMARK UNBOUND:                -0.378
REMARK SMILES CCCCCCCCCCC(=O)[O-]
REMARK SMILES IDX 7 1 8 2 9 3 10 4 11 5 12 6 13 7 6 8 5 9 4 10 3 11 2 12 1 13
REMARK H PARENT
REMARK Flexibility Score: inf
ROOT
ATOM      1  C   UNL     1      22.584  12.530   8.918  1.00  0.00     0.000 C 
ENDROOT
BRANCH   1   2
ATOM      2  C   UNL     1      22.122  12.215  10.351  1.00  0.00     0.000 C 
BRANCH   2   3
ATOM      3  C   UNL     1      21.633  10.763  10.513  1.00  0.00     0.006 C 
BRANCH   3   4
ATOM      4  C   UNL     1      20.913  10.479  11.840  1.00  0.00     0.053 C 
BRANCH   4   5
ATOM      5  C   UNL     1      21.396   9.215  12.484  1.00  0.00     0.041 C 
ATOM      6  O   UNL     1      20.598   8.488  13.132  1.00  0.00    -0.550 OA
ATOM      7  O   UNL     1      22.721   8.824  12.340  1.00  0.00    -0.550 OA
ENDBRANCH   4   5
ENDBRANCH   3   4
ENDBRANCH   2   3
ENDBRANCH   1   2
BRANCH   1   8
ATOM      8  C   UNL     1      23.767  13.511   8.882  1.00  0.00     0.000 C 
BRANCH   8   9
ATOM      9  C   UNL     1      24.856  13.168   9.911  1.00  0.00    -0.000 C 
BRANCH   9  10
ATOM     10  C   UNL     1      26.226  13.695   9.456  1.00  0.00    -0.000 C 
BRANCH  10  11
ATOM     11  C   UNL     1      26.360  13.754   7.926  1.00  0.00    -0.000 C 
BRANCH  11  12
ATOM     12  C   UNL     1      27.185  14.958   7.451  1.00  0.00    -0.003 C 
ATOM     13  C   UNL     1      26.931  16.179   8.330  1.00  0.00     0.004 C 
ENDBRANCH  11  12
ENDBRANCH  10  11
ENDBRANCH   9  10
ENDBRANCH   8   9
ENDBRANCH   1   8
TORSDOF 9
ENDMDL
MODEL 9
REMARK VINA RESULT:    -4.564     12.183     15.169
REMARK INTER + INTRA:          -7.343
REMARK INTER:                  -6.756
REMARK INTRA:                  -0.587
REMARK UNBOUND:                -0.378
REMARK SMILES CCCCCCCCCCC(=O)[O-]
REMARK SMILES IDX 7 1 8 2 9 3 10 4 11 5 12 6 13 7 6 8 5 9 4 10 3 11 2 12 1 13
REMARK H PARENT
REMARK Flexibility Score: inf
ROOT
ATOM      1  C   UNL     1      25.201  23.425   6.571  1.00  0.00     0.000 C 
ENDROOT
BRANCH   1   2
ATOM      2  C   UNL     1      25.394  24.920   6.263  1.00  0.00     0.000 C 
BRANCH   2   3
ATOM      3  C   UNL     1      24.105  25.739   6.465  1.00  0.00     0.006 C 
BRANCH   3   4
ATOM      4  C   UNL     1      24.233  26.887   7.479  1.00  0.00     0.053 C 
BRANCH   4   5
ATOM      5  C   UNL     1      24.881  26.441   8.754  1.00  0.00     0.041 C 
ATOM      6  O   UNL     1      25.894  27.045   9.194  1.00  0.00    -0.550 OA
ATOM      7  O   UNL     1      24.346  25.380   9.473  1.00  0.00    -0.550 OA
ENDBRANCH   4   5
ENDBRANCH   3   4
ENDBRANCH   2   3
ENDBRANCH   1   2
BRANCH   1   8
ATOM      8  C   UNL     1      23.883  22.872   6.005  1.00  0.00     0.000 C 
BRANCH   8   9
ATOM      9  C   UNL     1      23.974  22.530   4.509  1.00  0.00    -0.000 C 
BRANCH   9  10
ATOM     10  C   UNL     1      23.673  21.042   4.269  1.00  0.00    -0.000 C 
BRANCH  10  11
ATOM     11  C   UNL     1      22.167  20.734   4.274  1.00  0.00    -0.000 C 
BRANCH  11  12
ATOM     12  C   UNL     1      21.806  19.562   5.198  1.00  0.00    -0.003 C 
ATOM     13  C   UNL     1      21.738  20.014   6.654  1.00  0.00     0.004 C 
ENDBRANCH  11  12
ENDBRANCH  10  11
ENDBRANCH   9  10
ENDBRANCH   8   9
ENDBRANCH   1   8
TORSDOF 9
ENDMDL
