MODEL 1
REMARK VINA RESULT:    -1.045      0.000      0.000
REMARK INTER + INTRA:          -1.657
REMARK INTER:                  -1.289
REMARK INTRA:                  -0.368
REMARK UNBOUND:                -0.368
REMARK SMILES C=CC[C@H](C)C(=O)CC
REMARK SMILES IDX 4 1 5 2 6 3 7 4 8 5 9 6 3 7 2 8 1 9
REMARK H PARENT
REMARK Flexibility Score: inf
ROOT
ATOM      1  C   UNL     1      92.501  26.981  11.285  1.00  0.00     0.057 C 
ATOM      2  C   UNL     1      92.115  25.875  12.273  1.00  0.00     0.016 C 
ENDROOT
BRANCH   1   3
ATOM      3  C   UNL     1      91.361  27.966  11.109  1.00  0.00     0.135 C 
ATOM      4  O   UNL     1      90.269  27.550  10.752  1.00  0.00    -0.299 OA
BRANCH   3   5
ATOM      5  C   UNL     1      91.524  29.440  11.389  1.00  0.00     0.072 C 
ATOM      6  C   UNL     1      92.874  29.725  12.039  1.00  0.00     0.012 C 
ENDBRANCH   3   5
ENDBRANCH   1   3
BRANCH   1   7
ATOM      7  C   UNL     1      92.958  26.380   9.939  1.00  0.00     0.038 C 
BRANCH   7   8
ATOM      8  C   UNL     1      93.801  27.341   9.141  1.00  0.00    -0.034 C 
ATOM      9  C   UNL     1      95.006  27.000   8.674  1.00  0.00     0.004 C 
ENDBRANCH   7   8
ENDBRANCH   1   7
TORSDOF 4
ENDMDL
MODEL 2
REMARK VINA RESULT:    -1.035     22.408     24.262
REMARK INTER + INTRA:          -1.645
REMARK INTER:                  -1.313
REMARK INTRA:                  -0.332
REMARK UNBOUND:                -0.368
REMARK SMILES C=CC[C@H](C)C(=O)CC
REMARK SMILES IDX 4 1 5 2 6 3 7 4 8 5 9 6 3 7 2 8 1 9
REMARK H PARENT
REMARK Flexibility Score: inf
ROOT
ATOM      1  C   UNL     1      75.158  44.614   6.952  1.00  0.00     0.057 C 
ATOM      2  C   UNL     1      75.009  46.125   7.161  1.00  0.00     0.016 C 
ENDROOT
BRANCH   1   3
ATOM      3  C   UNL     1      76.510  44.135   7.444  1.00  0.00     0.135 C 
ATOM      4  O   UNL     1      76.730  44.114   8.646  1.00  0.00    -0.299 OA
BRANCH   3   5
ATOM      5  C   UNL     1      77.585  43.657   6.498  1.00  0.00     0.072 C 
ATOM      6  C   UNL     1      78.923  44.313   6.818  1.00  0.00     0.012 C 
ENDBRANCH   3   5
ENDBRANCH   1   3
BRANCH   1   7
ATOM      7  C   UNL     1      74.913  44.237   5.476  1.00  0.00     0.038 C 
BRANCH   7   8
ATOM      8  C   UNL     1      74.883  45.446   4.576  1.00  0.00    -0.034 C 
ATOM      9  C   UNL     1      75.311  45.393   3.311  1.00  0.00     0.004 C 
ENDBRANCH   7   8
ENDBRANCH   1   7
TORSDOF 4
ENDMDL
MODEL 3
REMARK VINA RESULT:    -1.035     22.537     24.427
REMARK INTER + INTRA:          -1.644
REMARK INTER:                  -1.178
REMARK INTRA:                  -0.467
REMARK UNBOUND:                -0.368
REMARK SMILES C=CC[C@H](C)C(=O)CC
REMARK SMILES IDX 4 1 5 2 6 3 7 4 8 5 9 6 3 7 2 8 1 9
REMARK H PARENT
REMARK Flexibility Score: inf
ROOT
ATOM      1  C   UNL     1      76.088  44.393   3.675  1.00  0.00     0.057 C 
ATOM      2  C   UNL     1      76.096  44.434   2.143  1.00  0.00     0.016 C 
ENDROOT
BRANCH   1   3
ATOM      3  C   UNL     1      76.041  42.962   4.174  1.00  0.00     0.135 C 
ATOM      4  O   UNL     1      75.398  42.136   3.543  1.00  0.00    -0.299 OA
BRANCH   3   5
ATOM      5  C   UNL     1      76.786  42.518   5.409  1.00  0.00     0.072 C 
ATOM      6  C   UNL     1      78.009  43.395   5.651  1.00  0.00     0.012 C 
ENDBRANCH   3   5
ENDBRANCH   1   3
BRANCH   1   7
ATOM      7  C   UNL     1      74.928  45.241   4.240  1.00  0.00     0.038 C 
BRANCH   7   8
ATOM      8  C   UNL     1      75.318  45.972   5.500  1.00  0.00    -0.034 C 
ATOM      9  C   UNL     1      74.876  45.587   6.701  1.00  0.00     0.004 C 
ENDBRANCH   7   8
ENDBRANCH   1   7
TORSDOF 4
ENDMDL
MODEL 4
REMARK VINA RESULT:    -1.032      6.054      6.870
REMARK INTER + INTRA:          -1.641
REMARK INTER:                  -1.178
REMARK INTRA:                  -0.463
REMARK UNBOUND:                -0.368
REMARK SMILES C=CC[C@H](C)C(=O)CC
REMARK SMILES IDX 4 1 5 2 6 3 7 4 8 5 9 6 3 7 2 8 1 9
REMARK H PARENT
REMARK Flexibility Score: inf
ROOT
ATOM      1  C   UNL     1      92.619  29.624  16.207  1.00  0.00     0.057 C 
ATOM      2  C   UNL     1      92.091  28.259  16.662  1.00  0.00     0.016 C 
ENDROOT
BRANCH   1   3
ATOM      3  C   UNL     1      93.867  30.002  16.982  1.00  0.00     0.135 C 
ATOM      4  O   UNL     1      94.002  29.591  18.125  1.00  0.00    -0.299 OA
BRANCH   3   5
ATOM      5  C   UNL     1      94.961  30.848  16.377  1.00  0.00     0.072 C 
ATOM      6  C   UNL     1      95.036  30.643  14.868  1.00  0.00     0.012 C 
ENDBRANCH   3   5
ENDBRANCH   1   3
BRANCH   1   7
ATOM      7  C   UNL     1      91.520  30.702  16.317  1.00  0.00     0.038 C 
BRANCH   7   8
ATOM      8  C   UNL     1      91.314  31.441  15.019  1.00  0.00    -0.034 C 
ATOM      9  C   UNL     1      91.813  32.665  14.819  1.00  0.00     0.004 C 
ENDBRANCH   7   8
ENDBRANCH   1   7
TORSDOF 4
ENDMDL
MODEL 5
REMARK VINA RESULT:    -1.032      1.689      1.944
REMARK INTER + INTRA:          -1.641
REMARK INTER:                  -1.150
REMARK INTRA:                  -0.490
REMARK UNBOUND:                -0.368
REMARK SMILES C=CC[C@H](C)C(=O)CC
REMARK SMILES IDX 4 1 5 2 6 3 7 4 8 5 9 6 3 7 2 8 1 9
REMARK H PARENT
REMARK Flexibility Score: inf
ROOT
ATOM      1  C   UNL     1      92.704  27.633  10.164  1.00  0.00     0.057 C 
ATOM      2  C   UNL     1      92.547  27.831  11.676  1.00  0.00     0.016 C 
ENDROOT
BRANCH   1   3
ATOM      3  C   UNL     1      91.468  28.114   9.429  1.00  0.00     0.135 C 
ATOM      4  O   UNL     1      90.381  27.638   9.722  1.00  0.00    -0.299 OA
BRANCH   3   5
ATOM      5  C   UNL     1      91.532  29.183   8.366  1.00  0.00     0.072 C 
ATOM      6  C   UNL     1      92.828  29.979   8.472  1.00  0.00     0.012 C 
ENDBRANCH   3   5
ENDBRANCH   1   3
BRANCH   1   7
ATOM      7  C   UNL     1      93.037  26.162   9.835  1.00  0.00     0.038 C 
BRANCH   7   8
ATOM      8  C   UNL     1      94.122  26.042   8.795  1.00  0.00    -0.034 C 
ATOM      9  C   UNL     1      95.059  26.983   8.645  1.00  0.00     0.004 C 
ENDBRANCH   7   8
ENDBRANCH   1   7
TORSDOF 4
ENDMDL
MODEL 6
REMARK VINA RESULT:    -1.030      3.045      4.389
REMARK INTER + INTRA:          -1.638
REMARK INTER:                  -1.153
REMARK INTRA:                  -0.486
REMARK UNBOUND:                -0.368
REMARK SMILES C=CC[C@H](C)C(=O)CC
REMARK SMILES IDX 4 1 5 2 6 3 7 4 8 5 9 6 3 7 2 8 1 9
REMARK H PARENT
REMARK Flexibility Score: inf
ROOT
ATOM      1  C   UNL     1      91.389  29.165  13.535  1.00  0.00     0.057 C 
ATOM      2  C   UNL     1      92.700  29.734  12.979  1.00  0.00     0.016 C 
ENDROOT
BRANCH   1   3
ATOM      3  C   UNL     1      91.558  28.745  14.982  1.00  0.00     0.135 C 
ATOM      4  O   UNL     1      92.357  29.348  15.685  1.00  0.00    -0.299 OA
BRANCH   3   5
ATOM      5  C   UNL     1      90.752  27.624  15.592  1.00  0.00     0.072 C 
ATOM      6  C   UNL     1      91.662  26.501  16.077  1.00  0.00     0.012 C 
ENDBRANCH   3   5
ENDBRANCH   1   3
BRANCH   1   7
ATOM      7  C   UNL     1      90.875  28.008  12.652  1.00  0.00     0.038 C 
BRANCH   7   8
ATOM      8  C   UNL     1      92.001  27.185  12.079  1.00  0.00    -0.034 C 
ATOM      9  C   UNL     1      92.131  25.883  12.354  1.00  0.00     0.004 C 
ENDBRANCH   7   8
ENDBRANCH   1   7
TORSDOF 4
ENDMDL
MODEL 7
REMARK VINA RESULT:    -0.994     23.316     24.868
REMARK INTER + INTRA:          -1.594
REMARK INTER:                  -1.099
REMARK INTRA:                  -0.495
REMARK UNBOUND:                -0.368
REMARK SMILES C=CC[C@H](C)C(=O)CC
REMARK SMILES IDX 4 1 5 2 6 3 7 4 8 5 9 6 3 7 2 8 1 9
REMARK H PARENT
REMARK Flexibility Score: inf
ROOT
ATOM      1  C   UNL     1      76.328  45.720   5.305  1.00  0.00     0.057 C 
ATOM      2  C   UNL     1      75.030  46.122   6.016  1.00  0.00     0.016 C 
ENDROOT
BRANCH   1   3
ATOM      3  C   UNL     1      76.120  45.661   3.803  1.00  0.00     0.135 C 
ATOM      4  O   UNL     1      76.988  46.108   3.068  1.00  0.00    -0.299 OA
BRANCH   3   5
ATOM      5  C   UNL     1      74.890  45.043   3.187  1.00  0.00     0.072 C 
ATOM      6  C   UNL     1      75.221  43.704   2.536  1.00  0.00     0.012 C 
ENDBRANCH   3   5
ENDBRANCH   1   3
BRANCH   1   7
ATOM      7  C   UNL     1      76.871  44.389   5.867  1.00  0.00     0.038 C 
BRANCH   7   8
ATOM      8  C   UNL     1      75.781  43.532   6.458  1.00  0.00    -0.034 C 
ATOM      9  C   UNL     1      75.551  42.289   6.026  1.00  0.00     0.004 C 
ENDBRANCH   7   8
ENDBRANCH   1   7
TORSDOF 4
ENDMDL
MODEL 8
REMARK VINA RESULT:    -0.695      5.217      6.267
REMARK INTER + INTRA:          -1.225
REMARK INTER:                  -0.723
REMARK INTRA:                  -0.502
REMARK UNBOUND:                -0.368
REMARK SMILES C=CC[C@H](C)C(=O)CC
REMARK SMILES IDX 4 1 5 2 6 3 7 4 8 5 9 6 3 7 2 8 1 9
REMARK H PARENT
REMARK Flexibility Score: inf
ROOT
ATOM      1  C   UNL     1      93.145  30.586  16.412  1.00  0.00     0.057 C 
ATOM      2  C   UNL     1      92.778  31.270  17.734  1.00  0.00     0.016 C 
ENDROOT
BRANCH   1   3
ATOM      3  C   UNL     1      92.456  29.241  16.294  1.00  0.00     0.135 C 
ATOM      4  O   UNL     1      92.599  28.421  17.189  1.00  0.00    -0.299 OA
BRANCH   3   5
ATOM      5  C   UNL     1      91.576  28.891  15.118  1.00  0.00     0.072 C 
ATOM      6  C   UNL     1      91.139  30.147  14.372  1.00  0.00     0.012 C 
ENDBRANCH   3   5
ENDBRANCH   1   3
BRANCH   1   7
ATOM      7  C   UNL     1      94.677  30.467  16.263  1.00  0.00     0.038 C 
BRANCH   7   8
ATOM      8  C   UNL     1      95.125  30.625  14.833  1.00  0.00    -0.034 C 
ATOM      9  C   UNL     1      94.604  31.560  14.032  1.00  0.00     0.004 C 
ENDBRANCH   7   8
ENDBRANCH   1   7
TORSDOF 4
ENDMDL
MODEL 9
REMARK VINA RESULT:    -0.614      1.891      3.268
REMARK INTER + INTRA:          -1.125
REMARK INTER:                  -0.631
REMARK INTRA:                  -0.494
REMARK UNBOUND:                -0.368
REMARK SMILES C=CC[C@H](C)C(=O)CC
REMARK SMILES IDX 4 1 5 2 6 3 7 4 8 5 9 6 3 7 2 8 1 9
REMARK H PARENT
REMARK Flexibility Score: inf
ROOT
ATOM      1  C   UNL     1      92.857  27.206   9.912  1.00  0.00     0.057 C 
ATOM      2  C   UNL     1      93.491  25.875   9.492  1.00  0.00     0.016 C 
ENDROOT
BRANCH   1   3
ATOM      3  C   UNL     1      92.503  27.190  11.387  1.00  0.00     0.135 C 
ATOM      4  O   UNL     1      92.501  28.243  12.007  1.00  0.00    -0.299 OA
BRANCH   3   5
ATOM      5  C   UNL     1      92.127  25.918  12.107  1.00  0.00     0.072 C 
ATOM      6  C   UNL     1      90.708  26.005  12.658  1.00  0.00     0.012 C 
ENDBRANCH   3   5
ENDBRANCH   1   3
BRANCH   1   7
ATOM      7  C   UNL     1      91.636  27.536   9.027  1.00  0.00     0.038 C 
BRANCH   7   8
ATOM      8  C   UNL     1      90.925  26.296   8.551  1.00  0.00    -0.034 C 
ATOM      9  C   UNL     1      89.661  26.032   8.899  1.00  0.00     0.004 C 
ENDBRANCH   7   8
ENDBRANCH   1   7
TORSDOF 4
ENDMDL
