MODEL 1
REMARK VINA RESULT:    -6.774      0.000      0.000
REMARK INTER + INTRA:          -9.120
REMARK INTER:                  -8.556
REMARK INTRA:                  -0.564
REMARK UNBOUND:                -0.564
REMARK SMILES Oc1cc(O)cc(CCc2ccccc2O)c1
REMARK SMILES IDX 9 1 10 2 12 3 13 4 11 5 14 6 15 7 16 8 8 10 7 11 6 12 17 13
REMARK SMILES IDX 4 14 2 15 3 16 5 17 1 19
REMARK H PARENT 16 9 5 18 1 20
REMARK Flexibility Score: inf
ROOT
ATOM      1  C   UNL     1      22.021   3.533 101.807  1.00  0.00     0.044 C 
ENDROOT
BRANCH   1   2
ATOM      2  C   UNL     1      22.528   4.864 101.270  1.00  0.00    -0.006 A 
ATOM      3  C   UNL     1      24.253   6.582 101.063  1.00  0.00     0.001 A 
ATOM      4  C   UNL     1      23.415   7.338 100.246  1.00  0.00     0.004 A 
ATOM      5  C   UNL     1      23.818   5.356 101.573  1.00  0.00     0.007 A 
ATOM      6  C   UNL     1      22.139   6.872  99.934  1.00  0.00     0.046 A 
ATOM      7  C   UNL     1      21.687   5.646 100.436  1.00  0.00     0.118 A 
BRANCH   7   8
ATOM      8  O   UNL     1      20.396   5.235 100.086  1.00  0.00    -0.508 OA
ATOM      9  H   UNL     1      19.864   5.650  99.332  1.00  0.00     0.293 HD
ENDBRANCH   7   8
ENDBRANCH   1   2
BRANCH   1  10
ATOM     10  C   UNL     1      22.664   3.049 103.116  1.00  0.00     0.040 C 
BRANCH  10  11
ATOM     11  C   UNL     1      21.795   3.406 104.293  1.00  0.00    -0.040 A 
ATOM     12  C   UNL     1      21.968   4.633 104.955  1.00  0.00     0.050 A 
ATOM     13  C   UNL     1      20.766   2.542 104.703  1.00  0.00     0.050 A 
ATOM     14  C   UNL     1      21.138   4.982 106.028  1.00  0.00     0.119 A 
ATOM     15  C   UNL     1      19.936   2.887 105.775  1.00  0.00     0.119 A 
ATOM     16  C   UNL     1      20.126   4.107 106.438  1.00  0.00     0.092 A 
BRANCH  14  17
ATOM     17  O   UNL     1      21.309   6.194 106.694  1.00  0.00    -0.508 OA
ATOM     18  H   UNL     1      22.223   6.504 107.003  1.00  0.00     0.293 HD
ENDBRANCH  14  17
BRANCH  15  19
ATOM     19  O   UNL     1      18.926   2.014 106.170  1.00  0.00    -0.508 OA
ATOM     20  H   UNL     1      18.042   2.355 106.530  1.00  0.00     0.293 HD
ENDBRANCH  15  19
ENDBRANCH  10  11
ENDBRANCH   1  10
TORSDOF 6
ENDMDL
MODEL 2
REMARK VINA RESULT:    -6.683      0.075      2.036
REMARK INTER + INTRA:          -9.005
REMARK INTER:                  -8.449
REMARK INTRA:                  -0.556
REMARK UNBOUND:                -0.564
REMARK SMILES Oc1cc(O)cc(CCc2ccccc2O)c1
REMARK SMILES IDX 9 1 10 2 12 3 13 4 11 5 14 6 15 7 16 8 8 10 7 11 6 12 17 13
REMARK SMILES IDX 4 14 2 15 3 16 5 17 1 19
REMARK H PARENT 16 9 5 18 1 20
REMARK Flexibility Score: inf
ROOT
ATOM      1  C   UNL     1      22.066   3.541 101.830  1.00  0.00     0.044 C 
ENDROOT
BRANCH   1   2
ATOM      2  C   UNL     1      22.529   4.874 101.259  1.00  0.00    -0.006 A 
ATOM      3  C   UNL     1      24.200   6.638 101.002  1.00  0.00     0.001 A 
ATOM      4  C   UNL     1      23.335   7.350 100.174  1.00  0.00     0.004 A 
ATOM      5  C   UNL     1      23.805   5.412 101.542  1.00  0.00     0.007 A 
ATOM      6  C   UNL     1      22.072   6.838  99.880  1.00  0.00     0.046 A 
ATOM      7  C   UNL     1      21.660   5.610 100.412  1.00  0.00     0.118 A 
BRANCH   7   8
ATOM      8  O   UNL     1      20.381   5.153 100.079  1.00  0.00    -0.508 OA
ATOM      9  H   UNL     1      20.139   4.173 100.011  1.00  0.00     0.293 HD
ENDBRANCH   7   8
ENDBRANCH   1   2
BRANCH   1  10
ATOM     10  C   UNL     1      22.693   3.130 103.171  1.00  0.00     0.040 C 
BRANCH  10  11
ATOM     11  C   UNL     1      21.769   3.472 104.310  1.00  0.00    -0.040 A 
ATOM     12  C   UNL     1      20.784   2.560 104.722  1.00  0.00     0.050 A 
ATOM     13  C   UNL     1      21.921   4.683 105.007  1.00  0.00     0.050 A 
ATOM     14  C   UNL     1      19.946   2.862 105.802  1.00  0.00     0.119 A 
ATOM     15  C   UNL     1      21.084   4.988 106.086  1.00  0.00     0.119 A 
ATOM     16  C   UNL     1      20.095   4.077 106.481  1.00  0.00     0.092 A 
BRANCH  14  17
ATOM     17  O   UNL     1      18.962   1.964 106.212  1.00  0.00    -0.508 OA
ATOM     18  H   UNL     1      17.978   2.204 106.176  1.00  0.00     0.293 HD
ENDBRANCH  14  17
BRANCH  15  19
ATOM     19  O   UNL     1      21.246   6.196 106.760  1.00  0.00    -0.508 OA
ATOM     20  H   UNL     1      22.165   6.546 107.006  1.00  0.00     0.293 HD
ENDBRANCH  15  19
ENDBRANCH  10  11
ENDBRANCH   1  10
TORSDOF 6
ENDMDL
MODEL 3
REMARK VINA RESULT:    -6.548      1.309      6.145
REMARK INTER + INTRA:          -8.834
REMARK INTER:                  -8.271
REMARK INTRA:                  -0.563
REMARK UNBOUND:                -0.564
REMARK SMILES Oc1cc(O)cc(CCc2ccccc2O)c1
REMARK SMILES IDX 9 1 10 2 12 3 13 4 11 5 14 6 15 7 16 8 8 10 7 11 6 12 17 13
REMARK SMILES IDX 4 14 2 15 3 16 5 17 1 19
REMARK H PARENT 16 9 5 18 1 20
REMARK Flexibility Score: inf
ROOT
ATOM      1  C   UNL     1      23.068   4.489 104.342  1.00  0.00     0.044 C 
ENDROOT
BRANCH   1   2
ATOM      2  C   UNL     1      21.795   3.867 104.901  1.00  0.00    -0.006 A 
ATOM      3  C   UNL     1      20.170   2.049 105.031  1.00  0.00     0.001 A 
ATOM      4  C   UNL     1      19.430   2.764 105.970  1.00  0.00     0.004 A 
ATOM      5  C   UNL     1      21.341   2.591 104.498  1.00  0.00     0.007 A 
ATOM      6  C   UNL     1      19.859   4.025 106.382  1.00  0.00     0.046 A 
ATOM      7  C   UNL     1      21.032   4.584 105.859  1.00  0.00     0.118 A 
BRANCH   7   8
ATOM      8  O   UNL     1      21.407   5.852 106.313  1.00  0.00    -0.508 OA
ATOM      9  H   UNL     1      22.067   6.445 105.828  1.00  0.00     0.293 HD
ENDBRANCH   7   8
ENDBRANCH   1   2
BRANCH   1  10
ATOM     10  C   UNL     1      23.530   3.958 102.976  1.00  0.00     0.040 C 
BRANCH  10  11
ATOM     11  C   UNL     1      23.034   4.852 101.869  1.00  0.00    -0.040 A 
ATOM     12  C   UNL     1      21.770   4.634 101.297  1.00  0.00     0.050 A 
ATOM     13  C   UNL     1      23.806   5.943 101.439  1.00  0.00     0.050 A 
ATOM     14  C   UNL     1      21.293   5.485 100.291  1.00  0.00     0.119 A 
ATOM     15  C   UNL     1      23.333   6.793 100.434  1.00  0.00     0.119 A 
ATOM     16  C   UNL     1      22.077   6.560  99.859  1.00  0.00     0.092 A 
BRANCH  14  17
ATOM     17  O   UNL     1      20.043   5.272  99.714  1.00  0.00    -0.508 OA
ATOM     18  H   UNL     1      19.886   5.413  98.722  1.00  0.00     0.293 HD
ENDBRANCH  14  17
BRANCH  15  19
ATOM     19  O   UNL     1      24.117   7.866 100.017  1.00  0.00    -0.508 OA
ATOM     20  H   UNL     1      25.020   8.056 100.435  1.00  0.00     0.293 HD
ENDBRANCH  15  19
ENDBRANCH  10  11
ENDBRANCH   1  10
TORSDOF 6
ENDMDL
MODEL 4
REMARK VINA RESULT:    -6.476      1.315      5.869
REMARK INTER + INTRA:          -8.743
REMARK INTER:                  -8.182
REMARK INTRA:                  -0.561
REMARK UNBOUND:                -0.564
REMARK SMILES Oc1cc(O)cc(CCc2ccccc2O)c1
REMARK SMILES IDX 9 1 10 2 12 3 13 4 11 5 14 6 15 7 16 8 8 10 7 11 6 12 17 13
REMARK SMILES IDX 4 14 2 15 3 16 5 17 1 19
REMARK H PARENT 16 9 5 18 1 20
REMARK Flexibility Score: inf
ROOT
ATOM      1  C   UNL     1      23.042   4.423 104.344  1.00  0.00     0.044 C 
ENDROOT
BRANCH   1   2
ATOM      2  C   UNL     1      21.767   3.804 104.902  1.00  0.00    -0.006 A 
ATOM      3  C   UNL     1      20.134   1.992 105.025  1.00  0.00     0.001 A 
ATOM      4  C   UNL     1      19.399   2.706 105.969  1.00  0.00     0.004 A 
ATOM      5  C   UNL     1      21.307   2.531 104.494  1.00  0.00     0.007 A 
ATOM      6  C   UNL     1      19.834   3.963 106.387  1.00  0.00     0.046 A 
ATOM      7  C   UNL     1      21.008   4.519 105.865  1.00  0.00     0.118 A 
BRANCH   7   8
ATOM      8  O   UNL     1      21.389   5.783 106.325  1.00  0.00    -0.508 OA
ATOM      9  H   UNL     1      21.783   6.499 105.728  1.00  0.00     0.293 HD
ENDBRANCH   7   8
ENDBRANCH   1   2
BRANCH   1  10
ATOM     10  C   UNL     1      23.478   3.926 102.958  1.00  0.00     0.040 C 
BRANCH  10  11
ATOM     11  C   UNL     1      22.999   4.868 101.885  1.00  0.00    -0.040 A 
ATOM     12  C   UNL     1      23.818   5.923 101.452  1.00  0.00     0.050 A 
ATOM     13  C   UNL     1      21.752   4.667 101.270  1.00  0.00     0.050 A 
ATOM     14  C   UNL     1      23.388   6.781 100.431  1.00  0.00     0.119 A 
ATOM     15  C   UNL     1      21.319   5.522 100.252  1.00  0.00     0.119 A 
ATOM     16  C   UNL     1      22.137   6.581  99.835  1.00  0.00     0.092 A 
BRANCH  14  17
ATOM     17  O   UNL     1      24.193   7.833 100.000  1.00  0.00    -0.508 OA
ATOM     18  H   UNL     1      24.695   8.419 100.657  1.00  0.00     0.293 HD
ENDBRANCH  14  17
BRANCH  15  19
ATOM     19  O   UNL     1      20.077   5.310  99.659  1.00  0.00    -0.508 OA
ATOM     20  H   UNL     1      19.215   5.552 100.135  1.00  0.00     0.293 HD
ENDBRANCH  15  19
ENDBRANCH  10  11
ENDBRANCH   1  10
TORSDOF 6
ENDMDL
MODEL 5
REMARK VINA RESULT:    -6.233      2.876      6.091
REMARK INTER + INTRA:          -8.436
REMARK INTER:                  -7.916
REMARK INTRA:                  -0.520
REMARK UNBOUND:                -0.564
REMARK SMILES Oc1cc(O)cc(CCc2ccccc2O)c1
REMARK SMILES IDX 9 1 10 2 12 3 13 4 11 5 14 6 15 7 16 8 8 10 7 11 6 12 17 13
REMARK SMILES IDX 4 14 2 15 3 16 5 17 1 19
REMARK H PARENT 16 9 5 18 1 20
REMARK Flexibility Score: inf
ROOT
ATOM      1  C   UNL     1      22.099   2.259 103.350  1.00  0.00     0.044 C 
ENDROOT
BRANCH   1   2
ATOM      2  C   UNL     1      22.652   0.894 102.962  1.00  0.00    -0.006 A 
ATOM      3  C   UNL     1      24.196  -0.971 103.288  1.00  0.00     0.001 A 
ATOM      4  C   UNL     1      23.636  -1.637 102.199  1.00  0.00     0.004 A 
ATOM      5  C   UNL     1      23.712   0.283 103.669  1.00  0.00     0.007 A 
ATOM      6  C   UNL     1      22.589  -1.053 101.488  1.00  0.00     0.046 A 
ATOM      7  C   UNL     1      22.091   0.203 101.857  1.00  0.00     0.118 A 
BRANCH   7   8
ATOM      8  O   UNL     1      21.041   0.734 101.102  1.00  0.00    -0.508 OA
ATOM      9  H   UNL     1      20.242   0.193 100.799  1.00  0.00     0.293 HD
ENDBRANCH   7   8
ENDBRANCH   1   2
BRANCH   1  10
ATOM     10  C   UNL     1      23.102   3.423 103.318  1.00  0.00     0.040 C 
BRANCH  10  11
ATOM     11  C   UNL     1      22.798   4.347 102.168  1.00  0.00    -0.040 A 
ATOM     12  C   UNL     1      21.549   4.294 101.528  1.00  0.00     0.050 A 
ATOM     13  C   UNL     1      23.739   5.309 101.763  1.00  0.00     0.050 A 
ATOM     14  C   UNL     1      21.252   5.176 100.480  1.00  0.00     0.119 A 
ATOM     15  C   UNL     1      23.446   6.190 100.717  1.00  0.00     0.119 A 
ATOM     16  C   UNL     1      22.202   6.120 100.075  1.00  0.00     0.092 A 
BRANCH  14  17
ATOM     17  O   UNL     1      20.017   5.125  99.837  1.00  0.00    -0.508 OA
ATOM     18  H   UNL     1      19.357   4.377 100.016  1.00  0.00     0.293 HD
ENDBRANCH  14  17
BRANCH  15  19
ATOM     19  O   UNL     1      24.395   7.131 100.326  1.00  0.00    -0.508 OA
ATOM     20  H   UNL     1      24.203   8.126 100.368  1.00  0.00     0.293 HD
ENDBRANCH  15  19
ENDBRANCH  10  11
ENDBRANCH   1  10
TORSDOF 6
ENDMDL
MODEL 6
REMARK VINA RESULT:    -6.125      2.834      3.946
REMARK INTER + INTRA:          -8.300
REMARK INTER:                  -7.816
REMARK INTRA:                  -0.483
REMARK UNBOUND:                -0.564
REMARK SMILES Oc1cc(O)cc(CCc2ccccc2O)c1
REMARK SMILES IDX 9 1 10 2 12 3 13 4 11 5 14 6 15 7 16 8 8 10 7 11 6 12 17 13
REMARK SMILES IDX 4 14 2 15 3 16 5 17 1 19
REMARK H PARENT 16 9 5 18 1 20
REMARK Flexibility Score: inf
ROOT
ATOM      1  C   UNL     1      24.077   4.356 102.881  1.00  0.00     0.044 C 
ENDROOT
BRANCH   1   2
ATOM      2  C   UNL     1      25.464   3.754 103.065  1.00  0.00    -0.006 A 
ATOM      3  C   UNL     1      27.200   2.139 102.477  1.00  0.00     0.001 A 
ATOM      4  C   UNL     1      28.042   2.677 103.449  1.00  0.00     0.004 A 
ATOM      5  C   UNL     1      25.922   2.669 102.284  1.00  0.00     0.007 A 
ATOM      6  C   UNL     1      27.610   3.747 104.230  1.00  0.00     0.046 A 
ATOM      7  C   UNL     1      26.333   4.291 104.049  1.00  0.00     0.118 A 
BRANCH   7   8
ATOM      8  O   UNL     1      25.961   5.364 104.866  1.00  0.00    -0.508 OA
ATOM      9  H   UNL     1      25.734   6.283 104.511  1.00  0.00     0.293 HD
ENDBRANCH   7   8
ENDBRANCH   1   2
BRANCH   1  10
ATOM     10  C   UNL     1      22.902   3.369 102.949  1.00  0.00     0.040 C 
BRANCH  10  11
ATOM     11  C   UNL     1      22.042   3.658 104.152  1.00  0.00    -0.040 A 
ATOM     12  C   UNL     1      22.146   4.890 104.818  1.00  0.00     0.050 A 
ATOM     13  C   UNL     1      21.090   2.720 104.585  1.00  0.00     0.050 A 
ATOM     14  C   UNL     1      21.324   5.174 105.916  1.00  0.00     0.119 A 
ATOM     15  C   UNL     1      20.269   3.000 105.682  1.00  0.00     0.119 A 
ATOM     16  C   UNL     1      20.389   4.226 106.348  1.00  0.00     0.092 A 
BRANCH  14  17
ATOM     17  O   UNL     1      21.426   6.392 106.585  1.00  0.00    -0.508 OA
ATOM     18  H   UNL     1      22.085   7.103 106.291  1.00  0.00     0.293 HD
ENDBRANCH  14  17
BRANCH  15  19
ATOM     19  O   UNL     1      19.335   2.054 106.099  1.00  0.00    -0.508 OA
ATOM     20  H   UNL     1      18.795   1.513 105.433  1.00  0.00     0.293 HD
ENDBRANCH  15  19
ENDBRANCH  10  11
ENDBRANCH   1  10
TORSDOF 6
ENDMDL
MODEL 7
REMARK VINA RESULT:    -5.896      9.443     10.678
REMARK INTER + INTRA:          -8.011
REMARK INTER:                  -7.468
REMARK INTRA:                  -0.543
REMARK UNBOUND:                -0.564
REMARK SMILES Oc1cc(O)cc(CCc2ccccc2O)c1
REMARK SMILES IDX 9 1 10 2 12 3 13 4 11 5 14 6 15 7 16 8 8 10 7 11 6 12 17 13
REMARK SMILES IDX 4 14 2 15 3 16 5 17 1 19
REMARK H PARENT 16 9 5 18 1 20
REMARK Flexibility Score: inf
ROOT
ATOM      1  C   UNL     1      32.482   2.801 102.246  1.00  0.00     0.044 C 
ENDROOT
BRANCH   1   2
ATOM      2  C   UNL     1      32.350   3.590 100.949  1.00  0.00    -0.006 A 
ATOM      3  C   UNL     1      31.762   3.752  98.584  1.00  0.00     0.001 A 
ATOM      4  C   UNL     1      32.126   5.097  98.576  1.00  0.00     0.004 A 
ATOM      5  C   UNL     1      31.871   3.001  99.756  1.00  0.00     0.007 A 
ATOM      6  C   UNL     1      32.600   5.698  99.742  1.00  0.00     0.046 A 
ATOM      7  C   UNL     1      32.716   4.960 100.926  1.00  0.00     0.118 A 
BRANCH   7   8
ATOM      8  O   UNL     1      33.199   5.622 102.059  1.00  0.00    -0.508 OA
ATOM      9  H   UNL     1      33.249   5.196 102.975  1.00  0.00     0.293 HD
ENDBRANCH   7   8
ENDBRANCH   1   2
BRANCH   1  10
ATOM     10  C   UNL     1      31.271   2.853 103.189  1.00  0.00     0.040 C 
BRANCH  10  11
ATOM     11  C   UNL     1      31.512   3.842 104.300  1.00  0.00    -0.040 A 
ATOM     12  C   UNL     1      30.544   4.813 104.606  1.00  0.00     0.050 A 
ATOM     13  C   UNL     1      32.681   3.766 105.076  1.00  0.00     0.050 A 
ATOM     14  C   UNL     1      30.752   5.711 105.661  1.00  0.00     0.119 A 
ATOM     15  C   UNL     1      32.891   4.663 106.128  1.00  0.00     0.119 A 
ATOM     16  C   UNL     1      31.926   5.637 106.418  1.00  0.00     0.092 A 
BRANCH  14  17
ATOM     17  O   UNL     1      29.799   6.681 105.967  1.00  0.00    -0.508 OA
ATOM     18  H   UNL     1      29.430   7.303 105.256  1.00  0.00     0.293 HD
ENDBRANCH  14  17
BRANCH  15  19
ATOM     19  O   UNL     1      34.060   4.575 106.881  1.00  0.00    -0.508 OA
ATOM     20  H   UNL     1      34.261   5.234 107.624  1.00  0.00     0.293 HD
ENDBRANCH  15  19
ENDBRANCH  10  11
ENDBRANCH   1  10
TORSDOF 6
ENDMDL
MODEL 8
REMARK VINA RESULT:    -5.869      9.435     10.678
REMARK INTER + INTRA:          -7.976
REMARK INTER:                  -7.426
REMARK INTRA:                  -0.550
REMARK UNBOUND:                -0.564
REMARK SMILES Oc1cc(O)cc(CCc2ccccc2O)c1
REMARK SMILES IDX 9 1 10 2 12 3 13 4 11 5 14 6 15 7 16 8 8 10 7 11 6 12 17 13
REMARK SMILES IDX 4 14 2 15 3 16 5 17 1 19
REMARK H PARENT 16 9 5 18 1 20
REMARK Flexibility Score: inf
ROOT
ATOM      1  C   UNL     1      32.464   2.789 102.166  1.00  0.00     0.044 C 
ENDROOT
BRANCH   1   2
ATOM      2  C   UNL     1      32.362   3.581 100.869  1.00  0.00    -0.006 A 
ATOM      3  C   UNL     1      31.848   3.746  98.487  1.00  0.00     0.001 A 
ATOM      4  C   UNL     1      32.194   5.096  98.496  1.00  0.00     0.004 A 
ATOM      5  C   UNL     1      31.930   2.992  99.659  1.00  0.00     0.007 A 
ATOM      6  C   UNL     1      32.621   5.698  99.679  1.00  0.00     0.046 A 
ATOM      7  C   UNL     1      32.709   4.957 100.863  1.00  0.00     0.118 A 
BRANCH   7   8
ATOM      8  O   UNL     1      33.146   5.620 102.014  1.00  0.00    -0.508 OA
ATOM      9  H   UNL     1      34.099   5.585 102.351  1.00  0.00     0.293 HD
ENDBRANCH   7   8
ENDBRANCH   1   2
BRANCH   1  10
ATOM     10  C   UNL     1      31.234   2.845 103.085  1.00  0.00     0.040 C 
BRANCH  10  11
ATOM     11  C   UNL     1      31.481   3.780 104.239  1.00  0.00    -0.040 A 
ATOM     12  C   UNL     1      32.683   3.709 104.963  1.00  0.00     0.050 A 
ATOM     13  C   UNL     1      30.537   4.767 104.567  1.00  0.00     0.050 A 
ATOM     14  C   UNL     1      32.929   4.600 106.016  1.00  0.00     0.119 A 
ATOM     15  C   UNL     1      30.780   5.657 105.618  1.00  0.00     0.119 A 
ATOM     16  C   UNL     1      31.976   5.570 106.344  1.00  0.00     0.092 A 
BRANCH  14  17
ATOM     17  O   UNL     1      34.117   4.531 106.742  1.00  0.00    -0.508 OA
ATOM     18  H   UNL     1      34.861   5.206 106.604  1.00  0.00     0.293 HD
ENDBRANCH  14  17
BRANCH  15  19
ATOM     19  O   UNL     1      29.829   6.625 105.932  1.00  0.00    -0.508 OA
ATOM     20  H   UNL     1      29.777   7.036 106.857  1.00  0.00     0.293 HD
ENDBRANCH  15  19
ENDBRANCH  10  11
ENDBRANCH   1  10
TORSDOF 6
ENDMDL
MODEL 9
REMARK VINA RESULT:    -5.765      9.267     11.580
REMARK INTER + INTRA:          -7.845
REMARK INTER:                  -7.302
REMARK INTRA:                  -0.543
REMARK UNBOUND:                -0.564
REMARK SMILES Oc1cc(O)cc(CCc2ccccc2O)c1
REMARK SMILES IDX 9 1 10 2 12 3 13 4 11 5 14 6 15 7 16 8 8 10 7 11 6 12 17 13
REMARK SMILES IDX 4 14 2 15 3 16 5 17 1 19
REMARK H PARENT 16 9 5 18 1 20
REMARK Flexibility Score: inf
ROOT
ATOM      1  C   UNL     1      23.781  -5.953 103.209  1.00  0.00     0.044 C 
ENDROOT
BRANCH   1   2
ATOM      2  C   UNL     1      23.085  -5.977 104.563  1.00  0.00    -0.006 A 
ATOM      3  C   UNL     1      23.080  -5.639 106.983  1.00  0.00     0.001 A 
ATOM      4  C   UNL     1      21.748  -6.042 107.046  1.00  0.00     0.004 A 
ATOM      5  C   UNL     1      23.747  -5.606 105.756  1.00  0.00     0.007 A 
ATOM      6  C   UNL     1      21.076  -6.412 105.882  1.00  0.00     0.046 A 
ATOM      7  C   UNL     1      21.728  -6.385 104.644  1.00  0.00     0.118 A 
BRANCH   7   8
ATOM      8  O   UNL     1      20.998  -6.769 103.515  1.00  0.00    -0.508 OA
ATOM      9  H   UNL     1      21.344  -6.678 102.569  1.00  0.00     0.293 HD
ENDBRANCH   7   8
ENDBRANCH   1   2
BRANCH   1  10
ATOM     10  C   UNL     1      23.632  -4.654 102.402  1.00  0.00     0.040 C 
BRANCH  10  11
ATOM     11  C   UNL     1      22.583  -4.816 101.333  1.00  0.00    -0.040 A 
ATOM     12  C   UNL     1      21.573  -3.851 101.181  1.00  0.00     0.050 A 
ATOM     13  C   UNL     1      22.637  -5.903 100.445  1.00  0.00     0.050 A 
ATOM     14  C   UNL     1      20.616  -3.983 100.166  1.00  0.00     0.119 A 
ATOM     15  C   UNL     1      21.682  -6.037  99.432  1.00  0.00     0.119 A 
ATOM     16  C   UNL     1      20.670  -5.077  99.296  1.00  0.00     0.092 A 
BRANCH  14  17
ATOM     17  O   UNL     1      19.608  -3.033 100.013  1.00  0.00    -0.508 OA
ATOM     18  H   UNL     1      19.078  -2.691 100.806  1.00  0.00     0.293 HD
ENDBRANCH  14  17
BRANCH  15  19
ATOM     19  O   UNL     1      21.749  -7.125  98.565  1.00  0.00    -0.508 OA
ATOM     20  H   UNL     1      21.003  -7.326  97.909  1.00  0.00     0.293 HD
ENDBRANCH  15  19
ENDBRANCH  10  11
ENDBRANCH   1  10
TORSDOF 6
ENDMDL
