MODEL 1
REMARK VINA RESULT:    -4.549      0.000      0.000
REMARK INTER + INTRA:          -5.388
REMARK INTER:                  -5.081
REMARK INTRA:                  -0.307
REMARK UNBOUND:                -0.307
REMARK SMILES CC(=O)c1ccc(O)cc1O
REMARK SMILES IDX 4 1 10 2 9 3 7 4 6 5 5 6 2 7 1 8 3 9 11 10 8 12
REMARK H PARENT 11 11 8 13
REMARK Flexibility Score: inf
ROOT
ATOM      1  C   UNL     1     -17.910 -38.039 209.516  1.00  0.00     0.059 A 
ATOM      2  C   UNL     1     -18.533 -38.685 210.612  1.00  0.00     0.130 A 
ATOM      3  C   UNL     1     -17.883 -38.746 211.854  1.00  0.00     0.093 A 
ATOM      4  C   UNL     1     -16.617 -38.176 212.022  1.00  0.00     0.119 A 
ATOM      5  C   UNL     1     -15.995 -37.542 210.946  1.00  0.00     0.047 A 
ATOM      6  C   UNL     1     -16.633 -37.472 209.705  1.00  0.00     0.019 A 
ENDROOT
BRANCH   1   7
ATOM      7  C   UNL     1     -18.581 -37.951 208.186  1.00  0.00     0.163 C 
ATOM      8  C   UNL     1     -18.865 -36.632 207.533  1.00  0.00     0.093 C 
ATOM      9  O   UNL     1     -18.954 -39.000 207.595  1.00  0.00    -0.294 OA
ENDBRANCH   1   7
BRANCH   2  10
ATOM     10  O   UNL     1     -19.789 -39.276 210.469  1.00  0.00    -0.507 OA
ATOM     11  H   UNL     1     -20.460 -38.944 209.784  1.00  0.00     0.293 HD
ENDBRANCH   2  10
BRANCH   4  12
ATOM     12  O   UNL     1     -15.968 -38.235 213.253  1.00  0.00    -0.508 OA
ATOM     13  H   UNL     1     -15.929 -39.093 213.791  1.00  0.00     0.293 HD
ENDBRANCH   4  12
TORSDOF 3
ENDMDL
MODEL 2
REMARK VINA RESULT:    -4.378      1.417      4.607
REMARK INTER + INTRA:          -5.196
REMARK INTER:                  -4.889
REMARK INTRA:                  -0.307
REMARK UNBOUND:                -0.307
REMARK SMILES CC(=O)c1ccc(O)cc1O
REMARK SMILES IDX 4 1 10 2 9 3 7 4 6 5 5 6 2 7 1 8 3 9 11 10 8 12
REMARK H PARENT 11 11 8 13
REMARK Flexibility Score: inf
ROOT
ATOM      1  C   UNL     1     -17.322 -38.679 211.328  1.00  0.00     0.059 A 
ATOM      2  C   UNL     1     -16.742 -37.746 210.434  1.00  0.00     0.130 A 
ATOM      3  C   UNL     1     -17.430 -37.364 209.273  1.00  0.00     0.093 A 
ATOM      4  C   UNL     1     -18.688 -37.900 208.984  1.00  0.00     0.119 A 
ATOM      5  C   UNL     1     -19.265 -38.822 209.857  1.00  0.00     0.047 A 
ATOM      6  C   UNL     1     -18.590 -39.209 211.018  1.00  0.00     0.019 A 
ENDROOT
BRANCH   1   7
ATOM      7  C   UNL     1     -16.617 -39.097 212.575  1.00  0.00     0.163 C 
ATOM      8  C   UNL     1     -16.464 -40.541 212.947  1.00  0.00     0.093 C 
ATOM      9  O   UNL     1     -16.157 -38.228 213.363  1.00  0.00    -0.294 OA
ENDBRANCH   1   7
BRANCH   2  10
ATOM     10  O   UNL     1     -15.480 -37.206 210.689  1.00  0.00    -0.507 OA
ATOM     11  H   UNL     1     -15.041 -36.554 210.050  1.00  0.00     0.293 HD
ENDBRANCH   2  10
BRANCH   4  12
ATOM     12  O   UNL     1     -19.375 -37.524 207.832  1.00  0.00    -0.508 OA
ATOM     13  H   UNL     1     -19.958 -38.179 207.325  1.00  0.00     0.293 HD
ENDBRANCH   4  12
TORSDOF 3
ENDMDL
MODEL 3
REMARK VINA RESULT:    -4.215      1.373      4.055
REMARK INTER + INTRA:          -5.014
REMARK INTER:                  -4.707
REMARK INTRA:                  -0.307
REMARK UNBOUND:                -0.307
REMARK SMILES CC(=O)c1ccc(O)cc1O
REMARK SMILES IDX 4 1 10 2 9 3 7 4 6 5 5 6 2 7 1 8 3 9 11 10 8 12
REMARK H PARENT 11 11 8 13
REMARK Flexibility Score: inf
ROOT
ATOM      1  C   UNL     1     -18.180 -38.538 210.579  1.00  0.00     0.059 A 
ATOM      2  C   UNL     1     -19.472 -39.036 210.279  1.00  0.00     0.130 A 
ATOM      3  C   UNL     1     -20.114 -38.654 209.091  1.00  0.00     0.093 A 
ATOM      4  C   UNL     1     -19.490 -37.779 208.197  1.00  0.00     0.119 A 
ATOM      5  C   UNL     1     -18.220 -37.282 208.487  1.00  0.00     0.047 A 
ATOM      6  C   UNL     1     -17.569 -37.656 209.665  1.00  0.00     0.019 A 
ENDROOT
BRANCH   1   7
ATOM      7  C   UNL     1     -17.471 -38.933 211.831  1.00  0.00     0.163 C 
ATOM      8  C   UNL     1     -16.838 -37.917 212.733  1.00  0.00     0.093 C 
ATOM      9  O   UNL     1     -17.364 -40.150 212.140  1.00  0.00    -0.294 OA
ENDBRANCH   1   7
BRANCH   2  10
ATOM     10  O   UNL     1     -20.125 -39.898 211.162  1.00  0.00    -0.507 OA
ATOM     11  H   UNL     1     -20.394 -39.603 212.093  1.00  0.00     0.293 HD
ENDBRANCH   2  10
BRANCH   4  12
ATOM     12  O   UNL     1     -20.125 -37.397 207.017  1.00  0.00    -0.508 OA
ATOM     13  H   UNL     1     -19.612 -37.295 206.149  1.00  0.00     0.293 HD
ENDBRANCH   4  12
TORSDOF 3
ENDMDL
MODEL 4
REMARK VINA RESULT:    -4.051     11.716     13.752
REMARK INTER + INTRA:          -4.831
REMARK INTER:                  -4.532
REMARK INTRA:                  -0.299
REMARK UNBOUND:                -0.307
REMARK SMILES CC(=O)c1ccc(O)cc1O
REMARK SMILES IDX 4 1 10 2 9 3 7 4 6 5 5 6 2 7 1 8 3 9 11 10 8 12
REMARK H PARENT 11 11 8 13
REMARK Flexibility Score: inf
ROOT
ATOM      1  C   UNL     1      -6.053 -39.890 217.035  1.00  0.00     0.059 A 
ATOM      2  C   UNL     1      -7.140 -40.705 216.636  1.00  0.00     0.130 A 
ATOM      3  C   UNL     1      -7.580 -40.688 215.304  1.00  0.00     0.093 A 
ATOM      4  C   UNL     1      -6.957 -39.866 214.361  1.00  0.00     0.119 A 
ATOM      5  C   UNL     1      -5.888 -39.058 214.746  1.00  0.00     0.047 A 
ATOM      6  C   UNL     1      -5.438 -39.068 216.069  1.00  0.00     0.019 A 
ENDROOT
BRANCH   1   7
ATOM      7  C   UNL     1      -5.558 -39.895 218.442  1.00  0.00     0.163 C 
ATOM      8  C   UNL     1      -5.147 -38.631 219.137  1.00  0.00     0.093 C 
ATOM      9  O   UNL     1      -5.448 -40.981 219.071  1.00  0.00    -0.294 OA
ENDBRANCH   1   7
BRANCH   2  10
ATOM     10  O   UNL     1      -7.792 -41.524 217.560  1.00  0.00    -0.507 OA
ATOM     11  H   UNL     1      -7.510 -41.559 218.533  1.00  0.00     0.293 HD
ENDBRANCH   2  10
BRANCH   4  12
ATOM     12  O   UNL     1      -7.391 -39.846 213.037  1.00  0.00    -0.508 OA
ATOM     13  H   UNL     1      -7.537 -40.701 212.514  1.00  0.00     0.293 HD
ENDBRANCH   4  12
TORSDOF 3
ENDMDL
MODEL 5
REMARK VINA RESULT:    -4.036     11.382     13.638
REMARK INTER + INTRA:          -4.815
REMARK INTER:                  -4.533
REMARK INTRA:                  -0.282
REMARK UNBOUND:                -0.307
REMARK SMILES CC(=O)c1ccc(O)cc1O
REMARK SMILES IDX 4 1 10 2 9 3 7 4 6 5 5 6 2 7 1 8 3 9 11 10 8 12
REMARK H PARENT 11 11 8 13
REMARK Flexibility Score: inf
ROOT
ATOM      1  C   UNL     1      -6.060 -39.738 216.580  1.00  0.00     0.059 A 
ATOM      2  C   UNL     1      -6.681 -40.658 217.458  1.00  0.00     0.130 A 
ATOM      3  C   UNL     1      -7.760 -41.437 217.012  1.00  0.00     0.093 A 
ATOM      4  C   UNL     1      -8.233 -41.311 215.703  1.00  0.00     0.119 A 
ATOM      5  C   UNL     1      -7.629 -40.404 214.833  1.00  0.00     0.047 A 
ATOM      6  C   UNL     1      -6.553 -39.624 215.264  1.00  0.00     0.019 A 
ENDROOT
BRANCH   1   7
ATOM      7  C   UNL     1      -4.906 -38.903 217.024  1.00  0.00     0.163 C 
ATOM      8  C   UNL     1      -3.771 -38.572 216.101  1.00  0.00     0.093 C 
ATOM      9  O   UNL     1      -4.850 -38.480 218.210  1.00  0.00    -0.294 OA
ENDBRANCH   1   7
BRANCH   2  10
ATOM     10  O   UNL     1      -6.239 -40.794 218.776  1.00  0.00    -0.507 OA
ATOM     11  H   UNL     1      -6.866 -40.671 219.563  1.00  0.00     0.293 HD
ENDBRANCH   2  10
BRANCH   4  12
ATOM     12  O   UNL     1      -9.304 -42.082 215.257  1.00  0.00    -0.508 OA
ATOM     13  H   UNL     1     -10.117 -41.660 214.823  1.00  0.00     0.293 HD
ENDBRANCH   4  12
TORSDOF 3
ENDMDL
MODEL 6
REMARK VINA RESULT:    -4.035     12.534     14.580
REMARK INTER + INTRA:          -4.813
REMARK INTER:                  -4.536
REMARK INTRA:                  -0.277
REMARK UNBOUND:                -0.307
REMARK SMILES CC(=O)c1ccc(O)cc1O
REMARK SMILES IDX 4 1 10 2 9 3 7 4 6 5 5 6 2 7 1 8 3 9 11 10 8 12
REMARK H PARENT 11 11 8 13
REMARK Flexibility Score: inf
ROOT
ATOM      1  C   UNL     1      -4.949 -39.468 214.987  1.00  0.00     0.059 A 
ATOM      2  C   UNL     1      -4.028 -40.482 214.628  1.00  0.00     0.130 A 
ATOM      3  C   UNL     1      -2.650 -40.223 214.657  1.00  0.00     0.093 A 
ATOM      4  C   UNL     1      -2.171 -38.965 215.036  1.00  0.00     0.119 A 
ATOM      5  C   UNL     1      -3.071 -37.960 215.388  1.00  0.00     0.047 A 
ATOM      6  C   UNL     1      -4.447 -38.206 215.365  1.00  0.00     0.019 A 
ENDROOT
BRANCH   1   7
ATOM      7  C   UNL     1      -6.419 -39.718 214.974  1.00  0.00     0.163 C 
ATOM      8  C   UNL     1      -7.334 -38.988 214.035  1.00  0.00     0.093 C 
ATOM      9  O   UNL     1      -6.930 -40.537 215.783  1.00  0.00    -0.294 OA
ENDBRANCH   1   7
BRANCH   2  10
ATOM     10  O   UNL     1      -4.478 -41.743 214.231  1.00  0.00    -0.507 OA
ATOM     11  H   UNL     1      -4.230 -42.137 213.331  1.00  0.00     0.293 HD
ENDBRANCH   2  10
BRANCH   4  12
ATOM     12  O   UNL     1      -0.803 -38.704 215.066  1.00  0.00    -0.508 OA
ATOM     13  H   UNL     1      -0.242 -38.722 214.223  1.00  0.00     0.293 HD
ENDBRANCH   4  12
TORSDOF 3
ENDMDL
MODEL 7
REMARK VINA RESULT:    -4.007     11.780     14.359
REMARK INTER + INTRA:          -4.782
REMARK INTER:                  -4.507
REMARK INTRA:                  -0.275
REMARK UNBOUND:                -0.307
REMARK SMILES CC(=O)c1ccc(O)cc1O
REMARK SMILES IDX 4 1 10 2 9 3 7 4 6 5 5 6 2 7 1 8 3 9 11 10 8 12
REMARK H PARENT 11 11 8 13
REMARK Flexibility Score: inf
ROOT
ATOM      1  C   UNL     1      -5.127 -39.601 216.431  1.00  0.00     0.059 A 
ATOM      2  C   UNL     1      -5.048 -38.556 215.479  1.00  0.00     0.130 A 
ATOM      3  C   UNL     1      -6.061 -38.401 214.520  1.00  0.00     0.093 A 
ATOM      4  C   UNL     1      -7.152 -39.275 214.491  1.00  0.00     0.119 A 
ATOM      5  C   UNL     1      -7.234 -40.309 215.424  1.00  0.00     0.047 A 
ATOM      6  C   UNL     1      -6.233 -40.473 216.385  1.00  0.00     0.019 A 
ENDROOT
BRANCH   1   7
ATOM      7  C   UNL     1      -4.069 -39.784 217.468  1.00  0.00     0.163 C 
ATOM      8  C   UNL     1      -4.330 -39.503 218.917  1.00  0.00     0.093 C 
ATOM      9  O   UNL     1      -2.913 -40.154 217.133  1.00  0.00    -0.294 OA
ENDBRANCH   1   7
BRANCH   2  10
ATOM     10  O   UNL     1      -3.963 -37.677 215.474  1.00  0.00    -0.507 OA
ATOM     11  H   UNL     1      -3.771 -37.064 216.258  1.00  0.00     0.293 HD
ENDBRANCH   2  10
BRANCH   4  12
ATOM     12  O   UNL     1      -8.159 -39.125 213.541  1.00  0.00    -0.508 OA
ATOM     13  H   UNL     1      -9.130 -39.311 213.764  1.00  0.00     0.293 HD
ENDBRANCH   4  12
TORSDOF 3
ENDMDL
MODEL 8
REMARK VINA RESULT:    -3.948     11.915     14.266
REMARK INTER + INTRA:          -4.716
REMARK INTER:                  -4.412
REMARK INTRA:                  -0.305
REMARK UNBOUND:                -0.307
REMARK SMILES CC(=O)c1ccc(O)cc1O
REMARK SMILES IDX 4 1 10 2 9 3 7 4 6 5 5 6 2 7 1 8 3 9 11 10 8 12
REMARK H PARENT 11 11 8 13
REMARK Flexibility Score: inf
ROOT
ATOM      1  C   UNL     1      -4.385 -39.702 215.030  1.00  0.00     0.059 A 
ATOM      2  C   UNL     1      -5.055 -40.752 214.355  1.00  0.00     0.130 A 
ATOM      3  C   UNL     1      -6.361 -40.560 213.878  1.00  0.00     0.093 A 
ATOM      4  C   UNL     1      -7.013 -39.337 214.066  1.00  0.00     0.119 A 
ATOM      5  C   UNL     1      -6.361 -38.301 214.732  1.00  0.00     0.047 A 
ATOM      6  C   UNL     1      -5.060 -38.478 215.211  1.00  0.00     0.019 A 
ENDROOT
BRANCH   1   7
ATOM      7  C   UNL     1      -2.994 -39.876 215.540  1.00  0.00     0.163 C 
ATOM      8  C   UNL     1      -1.869 -38.999 215.075  1.00  0.00     0.093 C 
ATOM      9  O   UNL     1      -2.730 -40.795 216.361  1.00  0.00    -0.294 OA
ENDBRANCH   1   7
BRANCH   2  10
ATOM     10  O   UNL     1      -4.434 -41.988 214.167  1.00  0.00    -0.507 OA
ATOM     11  H   UNL     1      -4.812 -42.683 213.533  1.00  0.00     0.293 HD
ENDBRANCH   2  10
BRANCH   4  12
ATOM     12  O   UNL     1      -8.309 -39.143 213.594  1.00  0.00    -0.508 OA
ATOM     13  H   UNL     1      -8.576 -39.412 212.654  1.00  0.00     0.293 HD
ENDBRANCH   4  12
TORSDOF 3
ENDMDL
MODEL 9
REMARK VINA RESULT:    -3.934     12.178     13.718
REMARK INTER + INTRA:          -4.701
REMARK INTER:                  -4.396
REMARK INTRA:                  -0.305
REMARK UNBOUND:                -0.307
REMARK SMILES CC(=O)c1ccc(O)cc1O
REMARK SMILES IDX 4 1 10 2 9 3 7 4 6 5 5 6 2 7 1 8 3 9 11 10 8 12
REMARK H PARENT 11 11 8 13
REMARK Flexibility Score: inf
ROOT
ATOM      1  C   UNL     1      -5.255 -39.738 215.766  1.00  0.00     0.059 A 
ATOM      2  C   UNL     1      -6.345 -40.185 214.980  1.00  0.00     0.130 A 
ATOM      3  C   UNL     1      -7.457 -40.779 215.596  1.00  0.00     0.093 A 
ATOM      4  C   UNL     1      -7.499 -40.939 216.984  1.00  0.00     0.119 A 
ATOM      5  C   UNL     1      -6.428 -40.505 217.764  1.00  0.00     0.047 A 
ATOM      6  C   UNL     1      -5.316 -39.909 217.163  1.00  0.00     0.019 A 
ENDROOT
BRANCH   1   7
ATOM      7  C   UNL     1      -4.063 -39.094 215.139  1.00  0.00     0.163 C 
ATOM      8  C   UNL     1      -3.644 -37.699 215.492  1.00  0.00     0.093 C 
ATOM      9  O   UNL     1      -3.397 -39.711 214.266  1.00  0.00    -0.294 OA
ENDBRANCH   1   7
BRANCH   2  10
ATOM     10  O   UNL     1      -6.324 -40.052 213.591  1.00  0.00    -0.507 OA
ATOM     11  H   UNL     1      -5.457 -40.080 213.067  1.00  0.00     0.293 HD
ENDBRANCH   2  10
BRANCH   4  12
ATOM     12  O   UNL     1      -8.602 -41.529 217.599  1.00  0.00    -0.508 OA
ATOM     13  H   UNL     1      -9.157 -42.233 217.128  1.00  0.00     0.293 HD
ENDBRANCH   4  12
TORSDOF 3
ENDMDL
