MODEL 1
REMARK VINA RESULT:    -9.280      0.000      0.000
REMARK INTER + INTRA:          -9.597
REMARK INTER:                 -10.094
REMARK INTRA:                   0.497
REMARK UNBOUND:                 0.497
REMARK SMILES C[C@@H]1[C@H](C)CC[C@@]2(C(=O)[O-])CC[C@@]3(C)C(=CC[C@@H]4[C@@]5(C)CC[C@@H](O)C(C)(C)[C@H]5CC[C@@]43C)[C@@H]12
REMARK SMILES IDX 7 1 6 2 11 3 33 4 5 5 12 6 15 7 2 8 3 9 13 10 16 11 1 12
REMARK SMILES IDX 4 13 14 14 31 15 17 16 18 17 30 18 32 19 19 20 29 21 28 22
REMARK SMILES IDX 21 23 20 24 25 25 22 26 23 27 26 28 27 29 8 30 9 31 10 32
REMARK SMILES IDX 24 33
REMARK H PARENT 24 34
REMARK Flexibility Score: inf
ROOT
ATOM      1  C   UNL     1     -35.645  37.973 -43.839  1.00  0.00     0.017 C 
ATOM      2  C   UNL     1     -36.078  39.417 -44.200  1.00  0.00     0.014 C 
ATOM      3  C   UNL     1     -34.696  37.430 -44.941  1.00  0.00     0.014 C 
ATOM      4  C   UNL     1     -34.950  37.941 -42.418  1.00  0.00     0.030 C 
ATOM      5  C   UNL     1     -34.937  40.454 -44.188  1.00  0.00     0.004 C 
ATOM      6  C   UNL     1     -34.247  36.003 -44.631  1.00  0.00     0.013 C 
ATOM      7  C   UNL     1     -33.997  36.753 -42.192  1.00  0.00    -0.063 C 
ATOM      8  C   UNL     1     -34.268  39.297 -41.982  1.00  0.00    -0.003 C 
ATOM      9  C   UNL     1     -33.799  40.141 -43.193  1.00  0.00    -0.011 C 
ATOM     10  C   UNL     1     -33.411  35.874 -43.315  1.00  0.00    -0.006 C 
ATOM     11  C   UNL     1     -33.652  36.475 -40.917  1.00  0.00    -0.027 C 
ATOM     12  C   UNL     1     -35.163  40.103 -41.015  1.00  0.00     0.008 C 
ATOM     13  C   UNL     1     -33.059  41.424 -42.779  1.00  0.00     0.008 C 
ATOM     14  C   UNL     1     -31.988  36.425 -43.643  1.00  0.00     0.017 C 
ATOM     15  C   UNL     1     -33.378  34.341 -42.806  1.00  0.00    -0.020 C 
ATOM     16  C   UNL     1     -32.558  35.514 -40.578  1.00  0.00     0.032 C 
ATOM     17  C   UNL     1     -32.660  34.185 -41.382  1.00  0.00     0.006 C 
ATOM     18  C   UNL     1     -32.715  33.413 -43.873  1.00  0.00     0.008 C 
ATOM     19  C   UNL     1     -34.860  33.829 -42.624  1.00  0.00     0.012 C 
ATOM     20  C   UNL     1     -31.343  33.295 -41.320  1.00  0.00    -0.025 C 
ATOM     21  C   UNL     1     -32.463  31.998 -43.353  1.00  0.00     0.005 C 
ATOM     22  C   UNL     1     -31.548  31.913 -42.088  1.00  0.00     0.003 C 
ATOM     23  C   UNL     1     -30.981  33.034 -39.817  1.00  0.00     0.010 C 
ATOM     24  C   UNL     1     -30.102  34.030 -41.929  1.00  0.00     0.012 C 
ATOM     25  C   UNL     1     -31.875  30.657 -41.175  1.00  0.00    -0.006 C 
ATOM     26  C   UNL     1     -30.090  31.808 -39.620  1.00  0.00     0.033 C 
ATOM     27  C   UNL     1     -30.773  30.497 -40.049  1.00  0.00     0.120 C 
ATOM     28  C   UNL     1     -33.301  30.725 -40.544  1.00  0.00     0.014 C 
ATOM     29  C   UNL     1     -31.834  29.369 -42.044  1.00  0.00     0.014 C 
ENDROOT
BRANCH   1  30
ATOM     30  C   UNL     1     -36.933  37.136 -43.862  1.00  0.00     0.048 C 
ATOM     31  O   UNL     1     -36.921  35.890 -43.674  1.00  0.00    -0.550 OA
ATOM     32  O   UNL     1     -38.163  37.768 -44.024  1.00  0.00    -0.550 OA
ENDBRANCH   1  30
BRANCH  27  33
ATOM     33  O   UNL     1     -31.292  29.869 -38.900  1.00  0.00    -0.393 OA
ATOM     34  H   UNL     1     -32.279  29.975 -38.929  1.00  0.00     0.210 HD
ENDBRANCH  27  33
TORSDOF 2
ENDMDL
MODEL 2
REMARK VINA RESULT:    -9.203      2.564      9.023
REMARK INTER + INTRA:          -9.513
REMARK INTER:                 -10.033
REMARK INTRA:                   0.520
REMARK UNBOUND:                 0.497
REMARK SMILES C[C@@H]1[C@H](C)CC[C@@]2(C(=O)[O-])CC[C@@]3(C)C(=CC[C@@H]4[C@@]5(C)CC[C@@H](O)C(C)(C)[C@H]5CC[C@@]43C)[C@@H]12
REMARK SMILES IDX 7 1 6 2 11 3 33 4 5 5 12 6 15 7 2 8 3 9 13 10 16 11 1 12
REMARK SMILES IDX 4 13 14 14 31 15 17 16 18 17 30 18 32 19 19 20 29 21 28 22
REMARK SMILES IDX 21 23 20 24 25 25 22 26 23 27 26 28 27 29 8 30 9 31 10 32
REMARK SMILES IDX 24 33
REMARK H PARENT 24 34
REMARK Flexibility Score: inf
ROOT
ATOM      1  C   UNL     1     -29.590  28.220 -39.999  1.00  0.00     0.017 C 
ATOM      2  C   UNL     1     -28.973  27.168 -39.042  1.00  0.00     0.014 C 
ATOM      3  C   UNL     1     -31.122  27.992 -40.094  1.00  0.00     0.014 C 
ATOM      4  C   UNL     1     -29.259  29.684 -39.499  1.00  0.00     0.030 C 
ATOM      5  C   UNL     1     -29.414  27.297 -37.570  1.00  0.00     0.004 C 
ATOM      6  C   UNL     1     -31.774  29.004 -41.033  1.00  0.00     0.013 C 
ATOM      7  C   UNL     1     -30.239  30.768 -39.985  1.00  0.00    -0.063 C 
ATOM      8  C   UNL     1     -29.004  29.815 -37.947  1.00  0.00    -0.003 C 
ATOM      9  C   UNL     1     -29.755  28.736 -37.129  1.00  0.00    -0.011 C 
ATOM     10  C   UNL     1     -31.643  30.488 -40.556  1.00  0.00    -0.006 C 
ATOM     11  C   UNL     1     -29.831  32.052 -39.893  1.00  0.00    -0.027 C 
ATOM     12  C   UNL     1     -27.495  29.857 -37.616  1.00  0.00     0.008 C 
ATOM     13  C   UNL     1     -29.581  28.905 -35.610  1.00  0.00     0.008 C 
ATOM     14  C   UNL     1     -32.664  30.667 -39.389  1.00  0.00     0.017 C 
ATOM     15  C   UNL     1     -31.916  31.508 -41.778  1.00  0.00    -0.020 C 
ATOM     16  C   UNL     1     -30.763  33.202 -40.101  1.00  0.00     0.032 C 
ATOM     17  C   UNL     1     -31.644  33.035 -41.372  1.00  0.00     0.006 C 
ATOM     18  C   UNL     1     -33.361  31.327 -42.344  1.00  0.00     0.008 C 
ATOM     19  C   UNL     1     -30.926  31.171 -42.960  1.00  0.00     0.012 C 
ATOM     20  C   UNL     1     -32.877  34.040 -41.436  1.00  0.00    -0.025 C 
ATOM     21  C   UNL     1     -33.743  32.411 -43.351  1.00  0.00     0.005 C 
ATOM     22  C   UNL     1     -33.682  33.874 -42.802  1.00  0.00     0.003 C 
ATOM     23  C   UNL     1     -32.340  35.506 -41.295  1.00  0.00     0.010 C 
ATOM     24  C   UNL     1     -33.867  33.838 -40.240  1.00  0.00     0.012 C 
ATOM     25  C   UNL     1     -33.357  34.942 -43.930  1.00  0.00    -0.006 C 
ATOM     26  C   UNL     1     -33.306  36.553 -41.848  1.00  0.00     0.033 C 
ATOM     27  C   UNL     1     -33.540  36.410 -43.362  1.00  0.00     0.120 C 
ATOM     28  C   UNL     1     -31.931  34.761 -44.538  1.00  0.00     0.014 C 
ATOM     29  C   UNL     1     -34.366  34.773 -45.100  1.00  0.00     0.014 C 
ENDROOT
BRANCH   1  30
ATOM     30  C   UNL     1     -28.977  27.936 -41.378  1.00  0.00     0.048 C 
ATOM     31  O   UNL     1     -29.388  28.512 -42.421  1.00  0.00    -0.550 OA
ATOM     32  O   UNL     1     -27.890  27.073 -41.485  1.00  0.00    -0.550 OA
ENDBRANCH   1  30
BRANCH  27  33
ATOM     33  O   UNL     1     -32.711  37.331 -44.030  1.00  0.00    -0.393 OA
ATOM     34  H   UNL     1     -32.490  36.939 -44.915  1.00  0.00     0.210 HD
ENDBRANCH  27  33
TORSDOF 2
ENDMDL
MODEL 3
REMARK VINA RESULT:    -8.894      2.068      8.736
REMARK INTER + INTRA:          -9.176
REMARK INTER:                  -9.496
REMARK INTRA:                   0.319
REMARK UNBOUND:                 0.497
REMARK SMILES C[C@@H]1[C@H](C)CC[C@@]2(C(=O)[O-])CC[C@@]3(C)C(=CC[C@@H]4[C@@]5(C)CC[C@@H](O)C(C)(C)[C@H]5CC[C@@]43C)[C@@H]12
REMARK SMILES IDX 7 1 6 2 11 3 33 4 5 5 12 6 15 7 2 8 3 9 13 10 16 11 1 12
REMARK SMILES IDX 4 13 14 14 31 15 17 16 18 17 30 18 32 19 19 20 29 21 28 22
REMARK SMILES IDX 21 23 20 24 25 25 22 26 23 27 26 28 27 29 8 30 9 31 10 32
REMARK SMILES IDX 24 33
REMARK H PARENT 24 34
REMARK Flexibility Score: inf
ROOT
ATOM      1  C   UNL     1     -29.534  30.876 -38.023  1.00  0.00     0.017 C 
ATOM      2  C   UNL     1     -28.709  29.781 -37.298  1.00  0.00     0.014 C 
ATOM      3  C   UNL     1     -28.623  31.616 -39.039  1.00  0.00     0.014 C 
ATOM      4  C   UNL     1     -30.791  30.238 -38.740  1.00  0.00     0.030 C 
ATOM      5  C   UNL     1     -28.227  28.630 -38.203  1.00  0.00     0.004 C 
ATOM      6  C   UNL     1     -29.392  32.711 -39.775  1.00  0.00     0.013 C 
ATOM      7  C   UNL     1     -31.346  31.058 -39.920  1.00  0.00    -0.063 C 
ATOM      8  C   UNL     1     -30.628  28.720 -39.141  1.00  0.00    -0.003 C 
ATOM      9  C   UNL     1     -29.152  28.330 -39.401  1.00  0.00    -0.011 C 
ATOM     10  C   UNL     1     -30.574  32.177 -40.648  1.00  0.00    -0.006 C 
ATOM     11  C   UNL     1     -32.594  30.763 -40.341  1.00  0.00    -0.027 C 
ATOM     12  C   UNL     1     -31.312  27.782 -38.121  1.00  0.00     0.008 C 
ATOM     13  C   UNL     1     -28.990  26.875 -39.874  1.00  0.00     0.008 C 
ATOM     14  C   UNL     1     -29.931  31.545 -41.922  1.00  0.00     0.017 C 
ATOM     15  C   UNL     1     -31.607  33.368 -41.003  1.00  0.00    -0.020 C 
ATOM     16  C   UNL     1     -33.155  31.308 -41.615  1.00  0.00     0.032 C 
ATOM     17  C   UNL     1     -32.912  32.838 -41.768  1.00  0.00     0.006 C 
ATOM     18  C   UNL     1     -30.899  34.496 -41.819  1.00  0.00     0.008 C 
ATOM     19  C   UNL     1     -32.108  34.031 -39.661  1.00  0.00     0.012 C 
ATOM     20  C   UNL     1     -33.170  33.384 -43.240  1.00  0.00    -0.025 C 
ATOM     21  C   UNL     1     -31.876  35.536 -42.365  1.00  0.00     0.005 C 
ATOM     22  C   UNL     1     -32.989  34.967 -43.304  1.00  0.00     0.003 C 
ATOM     23  C   UNL     1     -34.621  32.984 -43.679  1.00  0.00     0.010 C 
ATOM     24  C   UNL     1     -32.216  32.725 -44.291  1.00  0.00     0.012 C 
ATOM     25  C   UNL     1     -34.327  35.818 -43.259  1.00  0.00    -0.006 C 
ATOM     26  C   UNL     1     -35.168  33.860 -44.806  1.00  0.00     0.033 C 
ATOM     27  C   UNL     1     -35.321  35.335 -44.395  1.00  0.00     0.120 C 
ATOM     28  C   UNL     1     -35.024  35.773 -41.863  1.00  0.00     0.014 C 
ATOM     29  C   UNL     1     -33.995  37.309 -43.543  1.00  0.00     0.014 C 
ENDROOT
BRANCH   1  30
ATOM     30  C   UNL     1     -29.945  31.876 -36.932  1.00  0.00     0.048 C 
ATOM     31  O   UNL     1     -30.831  32.751 -37.130  1.00  0.00    -0.550 OA
ATOM     32  O   UNL     1     -29.383  31.780 -35.662  1.00  0.00    -0.550 OA
ENDBRANCH   1  30
BRANCH  27  33
ATOM     33  O   UNL     1     -36.665  35.561 -44.039  1.00  0.00    -0.393 OA
ATOM     34  H   UNL     1     -37.196  34.807 -44.407  1.00  0.00     0.210 HD
ENDBRANCH  27  33
TORSDOF 2
ENDMDL
MODEL 4
REMARK VINA RESULT:    -8.515      1.363      1.720
REMARK INTER + INTRA:          -8.764
REMARK INTER:                  -8.537
REMARK INTRA:                  -0.227
REMARK UNBOUND:                 0.497
REMARK SMILES C[C@@H]1[C@H](C)CC[C@@]2(C(=O)[O-])CC[C@@]3(C)C(=CC[C@@H]4[C@@]5(C)CC[C@@H](O)C(C)(C)[C@H]5CC[C@@]43C)[C@@H]12
REMARK SMILES IDX 7 1 6 2 11 3 33 4 5 5 12 6 15 7 2 8 3 9 13 10 16 11 1 12
REMARK SMILES IDX 4 13 14 14 31 15 17 16 18 17 30 18 32 19 19 20 29 21 28 22
REMARK SMILES IDX 21 23 20 24 25 25 22 26 23 27 26 28 27 29 8 30 9 31 10 32
REMARK SMILES IDX 24 33
REMARK H PARENT 24 34
REMARK Flexibility Score: inf
ROOT
ATOM      1  C   UNL     1     -35.730  38.323 -43.389  1.00  0.00     0.017 C 
ATOM      2  C   UNL     1     -36.164  39.786 -43.115  1.00  0.00     0.014 C 
ATOM      3  C   UNL     1     -34.561  38.317 -44.410  1.00  0.00     0.014 C 
ATOM      4  C   UNL     1     -35.316  37.606 -42.041  1.00  0.00     0.030 C 
ATOM      5  C   UNL     1     -35.105  40.651 -42.404  1.00  0.00     0.004 C 
ATOM      6  C   UNL     1     -34.103  36.892 -44.717  1.00  0.00     0.013 C 
ATOM      7  C   UNL     1     -34.360  36.411 -42.213  1.00  0.00    -0.063 C 
ATOM      8  C   UNL     1     -34.804  38.574 -40.904  1.00  0.00    -0.003 C 
ATOM      9  C   UNL     1     -34.161  39.865 -41.469  1.00  0.00    -0.011 C 
ATOM     10  C   UNL     1     -33.525  36.132 -43.478  1.00  0.00    -0.006 C 
ATOM     11  C   UNL     1     -34.249  35.558 -41.172  1.00  0.00    -0.027 C 
ATOM     12  C   UNL     1     -35.909  38.875 -39.866  1.00  0.00     0.008 C 
ATOM     13  C   UNL     1     -33.583  40.777 -40.373  1.00  0.00     0.008 C 
ATOM     14  C   UNL     1     -32.098  36.714 -43.231  1.00  0.00     0.017 C 
ATOM     15  C   UNL     1     -33.507  34.538 -43.742  1.00  0.00    -0.020 C 
ATOM     16  C   UNL     1     -33.189  34.506 -41.113  1.00  0.00     0.032 C 
ATOM     17  C   UNL     1     -33.064  33.709 -42.444  1.00  0.00     0.006 C 
ATOM     18  C   UNL     1     -32.604  34.186 -44.967  1.00  0.00     0.008 C 
ATOM     19  C   UNL     1     -34.966  34.061 -44.108  1.00  0.00     0.012 C 
ATOM     20  C   UNL     1     -31.737  32.838 -42.549  1.00  0.00    -0.025 C 
ATOM     21  C   UNL     1     -32.378  32.683 -45.125  1.00  0.00     0.005 C 
ATOM     22  C   UNL     1     -31.717  31.982 -43.894  1.00  0.00     0.003 C 
ATOM     23  C   UNL     1     -31.653  31.894 -41.301  1.00  0.00     0.010 C 
ATOM     24  C   UNL     1     -30.445  33.721 -42.496  1.00  0.00     0.012 C 
ATOM     25  C   UNL     1     -32.143  30.460 -43.750  1.00  0.00    -0.006 C 
ATOM     26  C   UNL     1     -30.749  30.682 -41.527  1.00  0.00     0.033 C 
ATOM     27  C   UNL     1     -31.267  29.750 -42.637  1.00  0.00     0.120 C 
ATOM     28  C   UNL     1     -33.664  30.285 -43.447  1.00  0.00     0.014 C 
ATOM     29  C   UNL     1     -31.868  29.723 -45.090  1.00  0.00     0.014 C 
ENDROOT
BRANCH   1  30
ATOM     30  C   UNL     1     -36.943  37.647 -44.045  1.00  0.00     0.048 C 
ATOM     31  O   UNL     1     -37.399  36.548 -43.629  1.00  0.00    -0.550 OA
ATOM     32  O   UNL     1     -37.611  38.289 -45.085  1.00  0.00    -0.550 OA
ENDBRANCH   1  30
BRANCH  27  33
ATOM     33  O   UNL     1     -31.959  28.682 -42.035  1.00  0.00    -0.393 OA
ATOM     34  H   UNL     1     -31.283  27.999 -41.783  1.00  0.00     0.210 HD
ENDBRANCH  27  33
TORSDOF 2
ENDMDL
MODEL 5
REMARK VINA RESULT:    -8.502      1.452      8.212
REMARK INTER + INTRA:          -8.751
REMARK INTER:                  -9.277
REMARK INTRA:                   0.527
REMARK UNBOUND:                 0.497
REMARK SMILES C[C@@H]1[C@H](C)CC[C@@]2(C(=O)[O-])CC[C@@]3(C)C(=CC[C@@H]4[C@@]5(C)CC[C@@H](O)C(C)(C)[C@H]5CC[C@@]43C)[C@@H]12
REMARK SMILES IDX 7 1 6 2 11 3 33 4 5 5 12 6 15 7 2 8 3 9 13 10 16 11 1 12
REMARK SMILES IDX 4 13 14 14 31 15 17 16 18 17 30 18 32 19 19 20 29 21 28 22
REMARK SMILES IDX 21 23 20 24 25 25 22 26 23 27 26 28 27 29 8 30 9 31 10 32
REMARK SMILES IDX 24 33
REMARK H PARENT 24 34
REMARK Flexibility Score: inf
ROOT
ATOM      1  C   UNL     1     -30.280  31.448 -40.458  1.00  0.00     0.017 C 
ATOM      2  C   UNL     1     -29.629  30.066 -40.192  1.00  0.00     0.014 C 
ATOM      3  C   UNL     1     -29.679  32.058 -41.753  1.00  0.00     0.014 C 
ATOM      4  C   UNL     1     -31.852  31.308 -40.567  1.00  0.00     0.030 C 
ATOM      5  C   UNL     1     -29.954  28.987 -41.244  1.00  0.00     0.004 C 
ATOM      6  C   UNL     1     -30.288  33.427 -42.052  1.00  0.00     0.013 C 
ATOM      7  C   UNL     1     -32.546  32.427 -41.366  1.00  0.00    -0.063 C 
ATOM      8  C   UNL     1     -32.362  29.888 -41.034  1.00  0.00    -0.003 C 
ATOM      9  C   UNL     1     -31.330  29.151 -41.923  1.00  0.00    -0.011 C 
ATOM     10  C   UNL     1     -31.826  33.389 -42.332  1.00  0.00    -0.006 C 
ATOM     11  C   UNL     1     -33.880  32.561 -41.205  1.00  0.00    -0.027 C 
ATOM     12  C   UNL     1     -32.830  29.027 -39.839  1.00  0.00     0.008 C 
ATOM     13  C   UNL     1     -31.850  27.803 -42.452  1.00  0.00     0.008 C 
ATOM     14  C   UNL     1     -31.998  32.814 -43.773  1.00  0.00     0.017 C 
ATOM     15  C   UNL     1     -32.474  34.860 -42.171  1.00  0.00    -0.020 C 
ATOM     16  C   UNL     1     -34.705  33.437 -42.091  1.00  0.00     0.032 C 
ATOM     17  C   UNL     1     -34.071  34.842 -42.300  1.00  0.00     0.006 C 
ATOM     18  C   UNL     1     -31.841  35.862 -43.188  1.00  0.00     0.008 C 
ATOM     19  C   UNL     1     -32.142  35.413 -40.730  1.00  0.00     0.012 C 
ATOM     20  C   UNL     1     -34.718  35.667 -43.497  1.00  0.00    -0.025 C 
ATOM     21  C   UNL     1     -32.567  37.206 -43.227  1.00  0.00     0.005 C 
ATOM     22  C   UNL     1     -34.083  37.126 -43.598  1.00  0.00     0.003 C 
ATOM     23  C   UNL     1     -36.266  35.761 -43.267  1.00  0.00     0.010 C 
ATOM     24  C   UNL     1     -34.542  34.945 -44.876  1.00  0.00     0.012 C 
ATOM     25  C   UNL     1     -34.938  38.297 -42.952  1.00  0.00    -0.006 C 
ATOM     26  C   UNL     1     -36.914  36.922 -44.020  1.00  0.00     0.033 C 
ATOM     27  C   UNL     1     -36.406  38.297 -43.549  1.00  0.00     0.120 C 
ATOM     28  C   UNL     1     -34.978  38.225 -41.393  1.00  0.00     0.014 C 
ATOM     29  C   UNL     1     -34.293  39.663 -43.318  1.00  0.00     0.014 C 
ENDROOT
BRANCH   1  30
ATOM     30  C   UNL     1     -29.867  32.335 -39.274  1.00  0.00     0.048 C 
ATOM     31  O   UNL     1     -30.019  33.587 -39.295  1.00  0.00    -0.550 OA
ATOM     32  O   UNL     1     -29.376  31.749 -38.111  1.00  0.00    -0.550 OA
ENDBRANCH   1  30
BRANCH  27  33
ATOM     33  O   UNL     1     -37.337  38.827 -42.636  1.00  0.00    -0.393 OA
ATOM     34  H   UNL     1     -38.180  38.988 -43.137  1.00  0.00     0.210 HD
ENDBRANCH  27  33
TORSDOF 2
ENDMDL
MODEL 6
REMARK VINA RESULT:    -8.308      2.652      4.894
REMARK INTER + INTRA:          -8.540
REMARK INTER:                  -8.579
REMARK INTRA:                   0.039
REMARK UNBOUND:                 0.497
REMARK SMILES C[C@@H]1[C@H](C)CC[C@@]2(C(=O)[O-])CC[C@@]3(C)C(=CC[C@@H]4[C@@]5(C)CC[C@@H](O)C(C)(C)[C@H]5CC[C@@]43C)[C@@H]12
REMARK SMILES IDX 7 1 6 2 11 3 33 4 5 5 12 6 15 7 2 8 3 9 13 10 16 11 1 12
REMARK SMILES IDX 4 13 14 14 31 15 17 16 18 17 30 18 32 19 19 20 29 21 28 22
REMARK SMILES IDX 21 23 20 24 25 25 22 26 23 27 26 28 27 29 8 30 9 31 10 32
REMARK SMILES IDX 24 33
REMARK H PARENT 24 34
REMARK Flexibility Score: inf
ROOT
ATOM      1  C   UNL     1     -33.350  35.880 -40.988  1.00  0.00     0.017 C 
ATOM      2  C   UNL     1     -34.135  37.088 -41.562  1.00  0.00     0.014 C 
ATOM      3  C   UNL     1     -34.353  34.837 -40.424  1.00  0.00     0.014 C 
ATOM      4  C   UNL     1     -32.425  35.241 -42.100  1.00  0.00     0.030 C 
ATOM      5  C   UNL     1     -35.001  36.766 -42.797  1.00  0.00     0.004 C 
ATOM      6  C   UNL     1     -33.623  33.629 -39.839  1.00  0.00     0.013 C 
ATOM      7  C   UNL     1     -32.053  33.766 -41.861  1.00  0.00    -0.063 C 
ATOM      8  C   UNL     1     -32.921  35.460 -43.583  1.00  0.00    -0.003 C 
ATOM      9  C   UNL     1     -34.458  35.621 -43.677  1.00  0.00    -0.011 C 
ATOM     10  C   UNL     1     -32.791  32.823 -40.890  1.00  0.00    -0.006 C 
ATOM     11  C   UNL     1     -31.010  33.273 -42.562  1.00  0.00    -0.027 C 
ATOM     12  C   UNL     1     -32.166  36.619 -44.274  1.00  0.00     0.008 C 
ATOM     13  C   UNL     1     -34.960  35.751 -45.125  1.00  0.00     0.008 C 
ATOM     14  C   UNL     1     -33.819  32.002 -41.730  1.00  0.00     0.017 C 
ATOM     15  C   UNL     1     -31.701  31.882 -40.157  1.00  0.00    -0.020 C 
ATOM     16  C   UNL     1     -30.698  31.812 -42.607  1.00  0.00     0.032 C 
ATOM     17  C   UNL     1     -30.725  31.152 -41.198  1.00  0.00     0.006 C 
ATOM     18  C   UNL     1     -32.399  30.845 -39.220  1.00  0.00     0.008 C 
ATOM     19  C   UNL     1     -30.788  32.779 -39.233  1.00  0.00     0.012 C 
ATOM     20  C   UNL     1     -30.752  29.562 -41.234  1.00  0.00    -0.025 C 
ATOM     21  C   UNL     1     -31.432  29.795 -38.674  1.00  0.00     0.005 C 
ATOM     22  C   UNL     1     -30.689  28.953 -39.761  1.00  0.00     0.003 C 
ATOM     23  C   UNL     1     -29.536  29.056 -42.084  1.00  0.00     0.010 C 
ATOM     24  C   UNL     1     -32.027  29.008 -41.953  1.00  0.00     0.012 C 
ATOM     25  C   UNL     1     -29.262  28.450 -39.282  1.00  0.00    -0.006 C 
ATOM     26  C   UNL     1     -29.149  27.610 -41.775  1.00  0.00     0.033 C 
ATOM     27  C   UNL     1     -28.667  27.417 -40.326  1.00  0.00     0.120 C 
ATOM     28  C   UNL     1     -28.261  29.622 -39.036  1.00  0.00     0.014 C 
ATOM     29  C   UNL     1     -29.412  27.700 -37.929  1.00  0.00     0.014 C 
ENDROOT
BRANCH   1  30
ATOM     30  C   UNL     1     -32.530  36.438 -39.815  1.00  0.00     0.048 C 
ATOM     31  O   UNL     1     -31.413  35.952 -39.493  1.00  0.00    -0.550 OA
ATOM     32  O   UNL     1     -32.988  37.558 -39.125  1.00  0.00    -0.550 OA
ENDBRANCH   1  30
BRANCH  27  33
ATOM     33  O   UNL     1     -27.259  27.427 -40.320  1.00  0.00    -0.393 OA
ATOM     34  H   UNL     1     -26.960  26.486 -40.206  1.00  0.00     0.210 HD
ENDBRANCH  27  33
TORSDOF 2
ENDMDL
MODEL 7
REMARK VINA RESULT:    -8.091      1.945      3.515
REMARK INTER + INTRA:          -8.303
REMARK INTER:                  -8.773
REMARK INTRA:                   0.470
REMARK UNBOUND:                 0.497
REMARK SMILES C[C@@H]1[C@H](C)CC[C@@]2(C(=O)[O-])CC[C@@]3(C)C(=CC[C@@H]4[C@@]5(C)CC[C@@H](O)C(C)(C)[C@H]5CC[C@@]43C)[C@@H]12
REMARK SMILES IDX 7 1 6 2 11 3 33 4 5 5 12 6 15 7 2 8 3 9 13 10 16 11 1 12
REMARK SMILES IDX 4 13 14 14 31 15 17 16 18 17 30 18 32 19 19 20 29 21 28 22
REMARK SMILES IDX 21 23 20 24 25 25 22 26 23 27 26 28 27 29 8 30 9 31 10 32
REMARK SMILES IDX 24 33
REMARK H PARENT 24 34
REMARK Flexibility Score: inf
ROOT
ATOM      1  C   UNL     1     -33.934  34.410 -44.340  1.00  0.00     0.017 C 
ATOM      2  C   UNL     1     -34.547  35.599 -45.125  1.00  0.00     0.014 C 
ATOM      3  C   UNL     1     -32.447  34.236 -44.750  1.00  0.00     0.014 C 
ATOM      4  C   UNL     1     -34.074  34.645 -42.782  1.00  0.00     0.030 C 
ATOM      5  C   UNL     1     -33.949  36.977 -44.779  1.00  0.00     0.004 C 
ATOM      6  C   UNL     1     -31.801  33.069 -44.005  1.00  0.00     0.013 C 
ATOM      7  C   UNL     1     -33.051  33.882 -41.920  1.00  0.00    -0.063 C 
ATOM      8  C   UNL     1     -34.158  36.159 -42.342  1.00  0.00    -0.003 C 
ATOM      9  C   UNL     1     -33.432  37.104 -43.331  1.00  0.00    -0.011 C 
ATOM     10  C   UNL     1     -31.744  33.262 -42.454  1.00  0.00    -0.006 C 
ATOM     11  C   UNL     1     -33.326  33.759 -40.604  1.00  0.00    -0.027 C 
ATOM     12  C   UNL     1     -35.615  36.598 -42.073  1.00  0.00     0.008 C 
ATOM     13  C   UNL     1     -33.434  38.572 -42.870  1.00  0.00     0.008 C 
ATOM     14  C   UNL     1     -30.598  34.287 -42.180  1.00  0.00     0.017 C 
ATOM     15  C   UNL     1     -31.502  31.849 -41.710  1.00  0.00    -0.020 C 
ATOM     16  C   UNL     1     -32.315  33.259 -39.622  1.00  0.00     0.032 C 
ATOM     17  C   UNL     1     -31.587  31.976 -40.115  1.00  0.00     0.006 C 
ATOM     18  C   UNL     1     -30.145  31.212 -42.150  1.00  0.00     0.008 C 
ATOM     19  C   UNL     1     -32.634  30.839 -42.145  1.00  0.00     0.012 C 
ATOM     20  C   UNL     1     -30.279  31.620 -39.282  1.00  0.00    -0.025 C 
ATOM     21  C   UNL     1     -29.767  29.989 -41.318  1.00  0.00     0.005 C 
ATOM     22  C   UNL     1     -29.634  30.250 -39.782  1.00  0.00     0.003 C 
ATOM     23  C   UNL     1     -30.659  31.520 -37.764  1.00  0.00     0.010 C 
ATOM     24  C   UNL     1     -29.196  32.747 -39.370  1.00  0.00     0.012 C 
ATOM     25  C   UNL     1     -29.971  28.969 -38.908  1.00  0.00    -0.006 C 
ATOM     26  C   UNL     1     -29.659  30.700 -36.949  1.00  0.00     0.033 C 
ATOM     27  C   UNL     1     -29.594  29.227 -37.391  1.00  0.00     0.120 C 
ATOM     28  C   UNL     1     -31.461  28.525 -39.037  1.00  0.00     0.014 C 
ATOM     29  C   UNL     1     -29.106  27.774 -39.398  1.00  0.00     0.014 C 
ENDROOT
BRANCH   1  30
ATOM     30  C   UNL     1     -34.707  33.166 -44.801  1.00  0.00     0.048 C 
ATOM     31  O   UNL     1     -34.164  32.030 -44.865  1.00  0.00    -0.550 OA
ATOM     32  O   UNL     1     -36.065  33.266 -45.092  1.00  0.00    -0.550 OA
ENDBRANCH   1  30
BRANCH  27  33
ATOM     33  O   UNL     1     -30.397  28.465 -36.520  1.00  0.00    -0.393 OA
ATOM     34  H   UNL     1     -30.537  29.009 -35.700  1.00  0.00     0.210 HD
ENDBRANCH  27  33
TORSDOF 2
ENDMDL
MODEL 8
REMARK VINA RESULT:    -7.675      3.938      9.945
REMARK INTER + INTRA:          -7.850
REMARK INTER:                  -8.365
REMARK INTRA:                   0.514
REMARK UNBOUND:                 0.497
REMARK SMILES C[C@@H]1[C@H](C)CC[C@@]2(C(=O)[O-])CC[C@@]3(C)C(=CC[C@@H]4[C@@]5(C)CC[C@@H](O)C(C)(C)[C@H]5CC[C@@]43C)[C@@H]12
REMARK SMILES IDX 7 1 6 2 11 3 33 4 5 5 12 6 15 7 2 8 3 9 13 10 16 11 1 12
REMARK SMILES IDX 4 13 14 14 31 15 17 16 18 17 30 18 32 19 19 20 29 21 28 22
REMARK SMILES IDX 21 23 20 24 25 25 22 26 23 27 26 28 27 29 8 30 9 31 10 32
REMARK SMILES IDX 24 33
REMARK H PARENT 24 34
REMARK Flexibility Score: inf
ROOT
ATOM      1  C   UNL     1     -28.112  28.424 -37.139  1.00  0.00     0.017 C 
ATOM      2  C   UNL     1     -27.541  27.818 -35.831  1.00  0.00     0.014 C 
ATOM      3  C   UNL     1     -29.119  27.424 -37.771  1.00  0.00     0.014 C 
ATOM      4  C   UNL     1     -28.798  29.820 -36.850  1.00  0.00     0.030 C 
ATOM      5  C   UNL     1     -28.572  27.635 -34.700  1.00  0.00     0.004 C 
ATOM      6  C   UNL     1     -29.705  27.977 -39.069  1.00  0.00     0.013 C 
ATOM      7  C   UNL     1     -29.863  30.242 -37.879  1.00  0.00    -0.063 C 
ATOM      8  C   UNL     1     -29.338  30.003 -35.378  1.00  0.00    -0.003 C 
ATOM      9  C   UNL     1     -29.728  28.657 -34.718  1.00  0.00    -0.011 C 
ATOM     10  C   UNL     1     -30.541  29.285 -38.880  1.00  0.00    -0.006 C 
ATOM     11  C   UNL     1     -30.225  31.542 -37.892  1.00  0.00    -0.027 C 
ATOM     12  C   UNL     1     -28.360  30.822 -34.506  1.00  0.00     0.008 C 
ATOM     13  C   UNL     1     -30.335  28.830 -33.315  1.00  0.00     0.008 C 
ATOM     14  C   UNL     1     -31.904  28.850 -38.256  1.00  0.00     0.017 C 
ATOM     15  C   UNL     1     -30.722  30.056 -40.288  1.00  0.00    -0.020 C 
ATOM     16  C   UNL     1     -31.406  32.034 -38.665  1.00  0.00     0.032 C 
ATOM     17  C   UNL     1     -31.442  31.478 -40.118  1.00  0.00     0.006 C 
ATOM     18  C   UNL     1     -31.482  29.163 -41.319  1.00  0.00     0.008 C 
ATOM     19  C   UNL     1     -29.298  30.341 -40.905  1.00  0.00     0.012 C 
ATOM     20  C   UNL     1     -32.841  31.682 -40.848  1.00  0.00    -0.025 C 
ATOM     21  C   UNL     1     -31.871  29.921 -42.588  1.00  0.00     0.005 C 
ATOM     22  C   UNL     1     -32.780  31.171 -42.358  1.00  0.00     0.003 C 
ATOM     23  C   UNL     1     -33.217  33.203 -40.803  1.00  0.00     0.010 C 
ATOM     24  C   UNL     1     -34.007  30.939 -40.112  1.00  0.00     0.012 C 
ATOM     25  C   UNL     1     -32.573  32.295 -43.459  1.00  0.00    -0.006 C 
ATOM     26  C   UNL     1     -34.224  33.603 -41.880  1.00  0.00     0.033 C 
ATOM     27  C   UNL     1     -33.678  33.420 -43.307  1.00  0.00     0.120 C 
ATOM     28  C   UNL     1     -31.143  32.919 -43.422  1.00  0.00     0.014 C 
ATOM     29  C   UNL     1     -32.749  31.666 -44.869  1.00  0.00     0.014 C 
ENDROOT
BRANCH   1  30
ATOM     30  C   UNL     1     -26.915  28.562 -38.090  1.00  0.00     0.048 C 
ATOM     31  O   UNL     1     -27.062  28.652 -39.339  1.00  0.00    -0.550 OA
ATOM     32  O   UNL     1     -25.628  28.665 -37.568  1.00  0.00    -0.550 OA
ENDBRANCH   1  30
BRANCH  27  33
ATOM     33  O   UNL     1     -33.216  34.667 -43.771  1.00  0.00    -0.393 OA
ATOM     34  H   UNL     1     -32.423  34.907 -43.223  1.00  0.00     0.210 HD
ENDBRANCH  27  33
TORSDOF 2
ENDMDL
MODEL 9
REMARK VINA RESULT:    -6.922      1.871      7.877
REMARK INTER + INTRA:          -7.032
REMARK INTER:                  -6.806
REMARK INTRA:                  -0.226
REMARK UNBOUND:                 0.497
REMARK SMILES C[C@@H]1[C@H](C)CC[C@@]2(C(=O)[O-])CC[C@@]3(C)C(=CC[C@@H]4[C@@]5(C)CC[C@@H](O)C(C)(C)[C@H]5CC[C@@]43C)[C@@H]12
REMARK SMILES IDX 7 1 6 2 11 3 33 4 5 5 12 6 15 7 2 8 3 9 13 10 16 11 1 12
REMARK SMILES IDX 4 13 14 14 31 15 17 16 18 17 30 18 32 19 19 20 29 21 28 22
REMARK SMILES IDX 21 23 20 24 25 25 22 26 23 27 26 28 27 29 8 30 9 31 10 32
REMARK SMILES IDX 24 33
REMARK H PARENT 24 34
REMARK Flexibility Score: inf
ROOT
ATOM      1  C   UNL     1     -31.742  30.375 -41.545  1.00  0.00     0.017 C 
ATOM      2  C   UNL     1     -31.058  29.175 -40.840  1.00  0.00     0.014 C 
ATOM      3  C   UNL     1     -33.232  30.443 -41.112  1.00  0.00     0.014 C 
ATOM      4  C   UNL     1     -30.986  31.722 -41.205  1.00  0.00     0.030 C 
ATOM      5  C   UNL     1     -30.948  29.305 -39.307  1.00  0.00     0.004 C 
ATOM      6  C   UNL     1     -33.951  31.609 -41.789  1.00  0.00     0.013 C 
ATOM      7  C   UNL     1     -31.841  32.995 -41.344  1.00  0.00    -0.063 C 
ATOM      8  C   UNL     1     -30.206  31.718 -39.832  1.00  0.00    -0.003 C 
ATOM      9  C   UNL     1     -30.836  30.756 -38.795  1.00  0.00    -0.011 C 
ATOM     10  C   UNL     1     -33.382  33.013 -41.403  1.00  0.00    -0.006 C 
ATOM     11  C   UNL     1     -31.184  34.173 -41.412  1.00  0.00    -0.027 C 
ATOM     12  C   UNL     1     -28.696  31.460 -40.033  1.00  0.00     0.008 C 
ATOM     13  C   UNL     1     -30.135  30.807 -37.427  1.00  0.00     0.008 C 
ATOM     14  C   UNL     1     -33.898  33.317 -39.961  1.00  0.00     0.017 C 
ATOM     15  C   UNL     1     -33.844  34.132 -42.473  1.00  0.00    -0.020 C 
ATOM     16  C   UNL     1     -31.890  35.486 -41.306  1.00  0.00     0.032 C 
ATOM     17  C   UNL     1     -33.160  35.556 -42.202  1.00  0.00     0.006 C 
ATOM     18  C   UNL     1     -35.400  34.255 -42.514  1.00  0.00     0.008 C 
ATOM     19  C   UNL     1     -33.391  33.680 -43.916  1.00  0.00     0.012 C 
ATOM     20  C   UNL     1     -34.123  36.776 -41.858  1.00  0.00    -0.025 C 
ATOM     21  C   UNL     1     -35.879  35.444 -43.346  1.00  0.00     0.005 C 
ATOM     22  C   UNL     1     -35.354  36.838 -42.869  1.00  0.00     0.003 C 
ATOM     23  C   UNL     1     -33.295  38.106 -41.925  1.00  0.00     0.010 C 
ATOM     24  C   UNL     1     -34.675  36.698 -40.395  1.00  0.00     0.012 C 
ATOM     25  C   UNL     1     -35.224  37.886 -44.053  1.00  0.00    -0.006 C 
ATOM     26  C   UNL     1     -34.168  39.343 -42.132  1.00  0.00     0.033 C 
ATOM     27  C   UNL     1     -34.917  39.329 -43.476  1.00  0.00     0.120 C 
ATOM     28  C   UNL     1     -34.147  37.475 -45.106  1.00  0.00     0.014 C 
ATOM     29  C   UNL     1     -36.578  37.972 -44.811  1.00  0.00     0.014 C 
ENDROOT
BRANCH   1  30
ATOM     30  C   UNL     1     -31.694  30.056 -43.046  1.00  0.00     0.048 C 
ATOM     31  O   UNL     1     -32.160  28.982 -43.515  1.00  0.00    -0.550 OA
ATOM     32  O   UNL     1     -31.188  31.001 -43.935  1.00  0.00    -0.550 OA
ENDBRANCH   1  30
BRANCH  27  33
ATOM     33  O   UNL     1     -34.197  40.114 -44.396  1.00  0.00    -0.393 OA
ATOM     34  H   UNL     1     -33.616  40.724 -43.869  1.00  0.00     0.210 HD
ENDBRANCH  27  33
TORSDOF 2
ENDMDL
