MODEL 1
REMARK VINA RESULT:    -2.657      0.000      0.000
REMARK INTER + INTRA:          -2.734
REMARK INTER:                  -2.734
REMARK INTRA:                   0.000
REMARK UNBOUND:                 0.000
REMARK SMILES Cc1cccc(O)c1C
REMARK SMILES IDX 1 1 2 2 8 3 6 4 5 5 4 6 3 7 9 8 7 9
REMARK H PARENT 7 10
REMARK Flexibility Score: inf
ROOT
ATOM      1  C   UNL     1      15.021  97.114  10.068  1.00  0.00     0.045 C 
ATOM      2  C   UNL     1      16.318  97.007   9.309  1.00  0.00    -0.045 A 
ATOM      3  C   UNL     1      16.762  95.773   8.770  1.00  0.00    -0.006 A 
ATOM      4  C   UNL     1      17.976  95.731   8.048  1.00  0.00     0.118 A 
ATOM      5  C   UNL     1      18.748  96.890   7.906  1.00  0.00     0.046 A 
ATOM      6  C   UNL     1      18.322  98.094   8.463  1.00  0.00     0.004 A 
ATOM      7  C   UNL     1      17.116  98.155   9.161  1.00  0.00     0.004 A 
ATOM      8  C   UNL     1      15.925  94.524   8.915  1.00  0.00     0.048 C 
ENDROOT
BRANCH   4   9
ATOM      9  O   UNL     1      18.413  94.537   7.472  1.00  0.00    -0.508 OA
ATOM     10  H   UNL     1      17.775  93.774   7.282  1.00  0.00     0.293 HD
ENDBRANCH   4   9
TORSDOF 1
ENDMDL
MODEL 2
REMARK VINA RESULT:    -2.562      0.774      2.664
REMARK INTER + INTRA:          -2.637
REMARK INTER:                  -2.637
REMARK INTRA:                   0.000
REMARK UNBOUND:                 0.000
REMARK SMILES Cc1cccc(O)c1C
REMARK SMILES IDX 1 1 2 2 8 3 6 4 5 5 4 6 3 7 9 8 7 9
REMARK H PARENT 7 10
REMARK Flexibility Score: inf
ROOT
ATOM      1  C   UNL     1      18.265  99.144   8.612  1.00  0.00     0.045 C 
ATOM      2  C   UNL     1      17.599  97.799   8.738  1.00  0.00    -0.045 A 
ATOM      3  C   UNL     1      18.178  96.630   8.182  1.00  0.00    -0.006 A 
ATOM      4  C   UNL     1      17.524  95.389   8.347  1.00  0.00     0.118 A 
ATOM      5  C   UNL     1      16.296  95.327   9.017  1.00  0.00     0.046 A 
ATOM      6  C   UNL     1      15.716  96.483   9.535  1.00  0.00     0.004 A 
ATOM      7  C   UNL     1      16.361  97.712   9.398  1.00  0.00     0.004 A 
ATOM      8  C   UNL     1      19.508  96.694   7.468  1.00  0.00     0.048 C 
ENDROOT
BRANCH   4   9
ATOM      9  O   UNL     1      18.094  94.218   7.846  1.00  0.00    -0.508 OA
ATOM     10  H   UNL     1      17.529  93.411   7.609  1.00  0.00     0.293 HD
ENDBRANCH   4   9
TORSDOF 1
ENDMDL
MODEL 3
REMARK VINA RESULT:    -2.525      1.789      3.358
REMARK INTER + INTRA:          -2.598
REMARK INTER:                  -2.598
REMARK INTRA:                   0.000
REMARK UNBOUND:                 0.000
REMARK SMILES Cc1cccc(O)c1C
REMARK SMILES IDX 1 1 2 2 8 3 6 4 5 5 4 6 3 7 9 8 7 9
REMARK H PARENT 7 10
REMARK Flexibility Score: inf
ROOT
ATOM      1  C   UNL     1      17.904  94.128   8.227  1.00  0.00     0.045 C 
ATOM      2  C   UNL     1      17.308  95.463   8.594  1.00  0.00    -0.045 A 
ATOM      3  C   UNL     1      17.982  96.678   8.311  1.00  0.00    -0.006 A 
ATOM      4  C   UNL     1      17.370  97.904   8.656  1.00  0.00     0.118 A 
ATOM      5  C   UNL     1      16.131  97.911   9.308  1.00  0.00     0.046 A 
ATOM      6  C   UNL     1      15.487  96.713   9.611  1.00  0.00     0.004 A 
ATOM      7  C   UNL     1      16.070  95.496   9.257  1.00  0.00     0.004 A 
ATOM      8  C   UNL     1      19.314  96.673   7.598  1.00  0.00     0.048 C 
ENDROOT
BRANCH   4   9
ATOM      9  O   UNL     1      17.993  99.115   8.350  1.00  0.00    -0.508 OA
ATOM     10  H   UNL     1      17.533  99.822   7.790  1.00  0.00     0.293 HD
ENDBRANCH   4   9
TORSDOF 1
ENDMDL
MODEL 4
REMARK VINA RESULT:    -2.450      1.829      2.855
REMARK INTER + INTRA:          -2.522
REMARK INTER:                  -2.522
REMARK INTRA:                   0.000
REMARK UNBOUND:                 0.000
REMARK SMILES Cc1cccc(O)c1C
REMARK SMILES IDX 1 1 2 2 8 3 6 4 5 5 4 6 3 7 9 8 7 9
REMARK H PARENT 7 10
REMARK Flexibility Score: inf
ROOT
ATOM      1  C   UNL     1      18.216  94.363   7.859  1.00  0.00     0.045 C 
ATOM      2  C   UNL     1      17.854  95.772   8.253  1.00  0.00    -0.045 A 
ATOM      3  C   UNL     1      16.588  96.083   8.813  1.00  0.00    -0.006 A 
ATOM      4  C   UNL     1      16.307  97.417   9.186  1.00  0.00     0.118 A 
ATOM      5  C   UNL     1      17.257  98.422   8.965  1.00  0.00     0.046 A 
ATOM      6  C   UNL     1      18.487  98.116   8.387  1.00  0.00     0.004 A 
ATOM      7  C   UNL     1      18.786  96.800   8.033  1.00  0.00     0.004 A 
ATOM      8  C   UNL     1      15.568  94.998   9.061  1.00  0.00     0.048 C 
ENDROOT
BRANCH   4   9
ATOM      9  O   UNL     1      15.086  97.742   9.777  1.00  0.00    -0.508 OA
ATOM     10  H   UNL     1      14.230  97.787   9.236  1.00  0.00     0.293 HD
ENDBRANCH   4   9
TORSDOF 1
ENDMDL
MODEL 5
REMARK VINA RESULT:    -2.420      1.213      2.577
REMARK INTER + INTRA:          -2.490
REMARK INTER:                  -2.490
REMARK INTRA:                   0.000
REMARK UNBOUND:                 0.000
REMARK SMILES Cc1cccc(O)c1C
REMARK SMILES IDX 1 1 2 2 8 3 6 4 5 5 4 6 3 7 9 8 7 9
REMARK H PARENT 7 10
REMARK Flexibility Score: inf
ROOT
ATOM      1  C   UNL     1      15.006  97.377  10.121  1.00  0.00     0.045 C 
ATOM      2  C   UNL     1      16.091  96.649   9.371  1.00  0.00    -0.045 A 
ATOM      3  C   UNL     1      17.181  97.342   8.785  1.00  0.00    -0.006 A 
ATOM      4  C   UNL     1      18.183  96.610   8.111  1.00  0.00     0.118 A 
ATOM      5  C   UNL     1      18.074  95.219   7.989  1.00  0.00     0.046 A 
ATOM      6  C   UNL     1      16.986  94.547   8.539  1.00  0.00     0.004 A 
ATOM      7  C   UNL     1      15.999  95.254   9.226  1.00  0.00     0.004 A 
ATOM      8  C   UNL     1      17.305  98.841   8.925  1.00  0.00     0.048 C 
ENDROOT
BRANCH   4   9
ATOM      9  O   UNL     1      19.288  97.264   7.563  1.00  0.00    -0.508 OA
ATOM     10  H   UNL     1      19.655  98.117   7.968  1.00  0.00     0.293 HD
ENDBRANCH   4   9
TORSDOF 1
ENDMDL
MODEL 6
REMARK VINA RESULT:    -2.156      1.804      3.205
REMARK INTER + INTRA:          -2.219
REMARK INTER:                  -2.219
REMARK INTRA:                   0.000
REMARK UNBOUND:                 0.000
REMARK SMILES Cc1cccc(O)c1C
REMARK SMILES IDX 1 1 2 2 8 3 6 4 5 5 4 6 3 7 9 8 7 9
REMARK H PARENT 7 10
REMARK Flexibility Score: inf
ROOT
ATOM      1  C   UNL     1      18.362  98.740   8.617  1.00  0.00     0.045 C 
ATOM      2  C   UNL     1      17.666  97.405   8.685  1.00  0.00    -0.045 A 
ATOM      3  C   UNL     1      16.351  97.281   9.204  1.00  0.00    -0.006 A 
ATOM      4  C   UNL     1      15.734  96.010   9.225  1.00  0.00     0.118 A 
ATOM      5  C   UNL     1      16.434  94.883   8.776  1.00  0.00     0.046 A 
ATOM      6  C   UNL     1      17.736  95.006   8.296  1.00  0.00     0.004 A 
ATOM      7  C   UNL     1      18.350  96.258   8.249  1.00  0.00     0.004 A 
ATOM      8  C   UNL     1      15.592  98.497   9.678  1.00  0.00     0.048 C 
ENDROOT
BRANCH   4   9
ATOM      9  O   UNL     1      14.427  95.868   9.691  1.00  0.00    -0.508 OA
ATOM     10  H   UNL     1      14.104  95.004  10.112  1.00  0.00     0.293 HD
ENDBRANCH   4   9
TORSDOF 1
ENDMDL
MODEL 7
REMARK VINA RESULT:    -1.692      1.658      2.698
REMARK INTER + INTRA:          -1.741
REMARK INTER:                  -1.741
REMARK INTRA:                   0.000
REMARK UNBOUND:                 0.000
REMARK SMILES Cc1cccc(O)c1C
REMARK SMILES IDX 1 1 2 2 8 3 6 4 5 5 4 6 3 7 9 8 7 9
REMARK H PARENT 7 10
REMARK Flexibility Score: inf
ROOT
ATOM      1  C   UNL     1      14.388  96.271   9.972  1.00  0.00     0.045 C 
ATOM      2  C   UNL     1      15.759  96.299   9.348  1.00  0.00    -0.045 A 
ATOM      3  C   UNL     1      16.421  97.522   9.067  1.00  0.00    -0.006 A 
ATOM      4  C   UNL     1      17.715  97.492   8.501  1.00  0.00     0.118 A 
ATOM      5  C   UNL     1      18.315  96.267   8.184  1.00  0.00     0.046 A 
ATOM      6  C   UNL     1      17.647  95.070   8.434  1.00  0.00     0.004 A 
ATOM      7  C   UNL     1      16.378  95.083   9.012  1.00  0.00     0.004 A 
ATOM      8  C   UNL     1      15.779  98.843   9.418  1.00  0.00     0.048 C 
ENDROOT
BRANCH   4   9
ATOM      9  O   UNL     1      18.405  98.680   8.254  1.00  0.00    -0.508 OA
ATOM     10  H   UNL     1      18.026  99.398   7.648  1.00  0.00     0.293 HD
ENDBRANCH   4   9
TORSDOF 1
ENDMDL
