MODEL 1
REMARK VINA RESULT:    -3.387      0.000      0.000
REMARK INTER + INTRA:          -4.246
REMARK INTER:                  -4.178
REMARK INTRA:                  -0.067
REMARK UNBOUND:                -0.067
REMARK SMILES CCCCCC=O
REMARK SMILES IDX 4 1 3 2 2 3 1 4 5 5 6 6 7 7
REMARK H PARENT
REMARK Flexibility Score: inf
ROOT
ATOM      1  C   UNL     1       9.310  49.372  29.139  1.00  0.00     0.008 C 
ENDROOT
BRANCH   1   2
ATOM      2  C   UNL     1       9.117  48.235  30.155  1.00  0.00     0.000 C 
BRANCH   2   3
ATOM      3  C   UNL     1       8.792  46.893  29.484  1.00  0.00    -0.003 C 
ATOM      4  C   UNL     1      10.064  46.094  29.209  1.00  0.00     0.004 C 
ENDBRANCH   2   3
ENDBRANCH   1   2
BRANCH   1   5
ATOM      5  C   UNL     1       8.315  50.523  29.345  1.00  0.00     0.072 C 
BRANCH   5   6
ATOM      6  C   UNL     1       8.750  51.409  30.473  1.00  0.00     0.224 C 
ATOM      7  O   UNL     1       7.981  51.675  31.384  1.00  0.00    -0.303 OA
ENDBRANCH   5   6
ENDBRANCH   1   5
TORSDOF 4
ENDMDL
MODEL 2
REMARK VINA RESULT:    -3.370      1.799      2.182
REMARK INTER + INTRA:          -4.225
REMARK INTER:                  -4.151
REMARK INTRA:                  -0.075
REMARK UNBOUND:                -0.067
REMARK SMILES CCCCCC=O
REMARK SMILES IDX 4 1 3 2 2 3 1 4 5 5 6 6 7 7
REMARK H PARENT
REMARK Flexibility Score: inf
ROOT
ATOM      1  C   UNL     1       8.674  47.791  29.521  1.00  0.00     0.008 C 
ENDROOT
BRANCH   1   2
ATOM      2  C   UNL     1       9.662  46.620  29.652  1.00  0.00     0.000 C 
BRANCH   2   3
ATOM      3  C   UNL     1       9.052  45.412  30.376  1.00  0.00    -0.003 C 
ATOM      4  C   UNL     1       9.134  45.580  31.891  1.00  0.00     0.004 C 
ENDBRANCH   2   3
ENDBRANCH   1   2
BRANCH   1   5
ATOM      5  C   UNL     1       9.338  49.153  29.769  1.00  0.00     0.072 C 
BRANCH   5   6
ATOM      6  C   UNL     1       8.385  50.273  29.474  1.00  0.00     0.224 C 
ATOM      7  O   UNL     1       8.306  50.737  28.347  1.00  0.00    -0.303 OA
ENDBRANCH   5   6
ENDBRANCH   1   5
TORSDOF 4
ENDMDL
MODEL 3
REMARK VINA RESULT:    -3.359      2.392      4.290
REMARK INTER + INTRA:          -4.212
REMARK INTER:                  -4.115
REMARK INTRA:                  -0.097
REMARK UNBOUND:                -0.067
REMARK SMILES CCCCCC=O
REMARK SMILES IDX 4 1 3 2 2 3 1 4 5 5 6 6 7 7
REMARK H PARENT
REMARK Flexibility Score: inf
ROOT
ATOM      1  C   UNL     1       9.143  48.564  30.102  1.00  0.00     0.008 C 
ENDROOT
BRANCH   1   2
ATOM      2  C   UNL     1       8.555  49.705  29.258  1.00  0.00     0.000 C 
BRANCH   2   3
ATOM      3  C   UNL     1       8.338  50.989  30.071  1.00  0.00    -0.003 C 
ATOM      4  C   UNL     1       9.281  51.047  31.270  1.00  0.00     0.004 C 
ENDBRANCH   2   3
ENDBRANCH   1   2
BRANCH   1   5
ATOM      5  C   UNL     1       8.774  47.177  29.558  1.00  0.00     0.072 C 
BRANCH   5   6
ATOM      6  C   UNL     1      10.003  46.406  29.180  1.00  0.00     0.224 C 
ATOM      7  O   UNL     1      11.035  46.991  28.889  1.00  0.00    -0.303 OA
ENDBRANCH   5   6
ENDBRANCH   1   5
TORSDOF 4
ENDMDL
MODEL 4
REMARK VINA RESULT:    -3.298      2.412      4.385
REMARK INTER + INTRA:          -4.137
REMARK INTER:                  -4.046
REMARK INTRA:                  -0.090
REMARK UNBOUND:                -0.067
REMARK SMILES CCCCCC=O
REMARK SMILES IDX 4 1 3 2 2 3 1 4 5 5 6 6 7 7
REMARK H PARENT
REMARK Flexibility Score: inf
ROOT
ATOM      1  C   UNL     1       8.730  49.650  29.138  1.00  0.00     0.008 C 
ENDROOT
BRANCH   1   2
ATOM      2  C   UNL     1       8.221  50.888  29.893  1.00  0.00     0.000 C 
BRANCH   2   3
ATOM      3  C   UNL     1       9.043  51.190  31.154  1.00  0.00    -0.003 C 
ATOM      4  C   UNL     1       8.176  51.827  32.236  1.00  0.00     0.004 C 
ENDBRANCH   2   3
ENDBRANCH   1   2
BRANCH   1   5
ATOM      5  C   UNL     1       9.200  48.535  30.083  1.00  0.00     0.072 C 
BRANCH   5   6
ATOM      6  C   UNL     1       8.784  47.189  29.570  1.00  0.00     0.224 C 
ATOM      7  O   UNL     1       9.624  46.372  29.226  1.00  0.00    -0.303 OA
ENDBRANCH   5   6
ENDBRANCH   1   5
TORSDOF 4
ENDMDL
MODEL 5
REMARK VINA RESULT:    -3.268      3.132      4.910
REMARK INTER + INTRA:          -4.099
REMARK INTER:                  -4.069
REMARK INTRA:                  -0.030
REMARK UNBOUND:                -0.067
REMARK SMILES CCCCCC=O
REMARK SMILES IDX 4 1 3 2 2 3 1 4 5 5 6 6 7 7
REMARK H PARENT
REMARK Flexibility Score: inf
ROOT
ATOM      1  C   UNL     1       8.620  47.185  29.489  1.00  0.00     0.008 C 
ENDROOT
BRANCH   1   2
ATOM      2  C   UNL     1       9.114  48.531  30.042  1.00  0.00     0.000 C 
BRANCH   2   3
ATOM      3  C   UNL     1       8.583  49.728  29.241  1.00  0.00    -0.003 C 
ATOM      4  C   UNL     1       8.579  50.998  30.087  1.00  0.00     0.004 C 
ENDBRANCH   2   3
ENDBRANCH   1   2
BRANCH   1   5
ATOM      5  C   UNL     1       9.729  46.123  29.444  1.00  0.00     0.072 C 
BRANCH   5   6
ATOM      6  C   UNL     1       9.355  44.925  30.265  1.00  0.00     0.224 C 
ATOM      7  O   UNL     1      10.153  44.017  30.432  1.00  0.00    -0.303 OA
ENDBRANCH   5   6
ENDBRANCH   1   5
TORSDOF 4
ENDMDL
MODEL 6
REMARK VINA RESULT:    -3.174      4.504      5.430
REMARK INTER + INTRA:          -3.983
REMARK INTER:                  -3.829
REMARK INTRA:                  -0.154
REMARK UNBOUND:                -0.067
REMARK SMILES CCCCCC=O
REMARK SMILES IDX 4 1 3 2 2 3 1 4 5 5 6 6 7 7
REMARK H PARENT
REMARK Flexibility Score: inf
ROOT
ATOM      1  C   UNL     1      10.281  46.666  29.108  1.00  0.00     0.008 C 
ENDROOT
BRANCH   1   2
ATOM      2  C   UNL     1       9.017  46.417  29.945  1.00  0.00     0.000 C 
BRANCH   2   3
ATOM      3  C   UNL     1       9.257  46.613  31.449  1.00  0.00    -0.003 C 
ATOM      4  C   UNL     1       9.062  45.305  32.211  1.00  0.00     0.004 C 
ENDBRANCH   2   3
ENDBRANCH   1   2
BRANCH   1   5
ATOM      5  C   UNL     1      11.208  45.443  29.061  1.00  0.00     0.072 C 
BRANCH   5   6
ATOM      6  C   UNL     1      10.473  44.234  28.565  1.00  0.00     0.224 C 
ATOM      7  O   UNL     1      10.874  43.625  27.585  1.00  0.00    -0.303 OA
ENDBRANCH   5   6
ENDBRANCH   1   5
TORSDOF 4
ENDMDL
MODEL 7
REMARK VINA RESULT:    -3.166      3.914      5.432
REMARK INTER + INTRA:          -3.973
REMARK INTER:                  -3.833
REMARK INTRA:                  -0.140
REMARK UNBOUND:                -0.067
REMARK SMILES CCCCCC=O
REMARK SMILES IDX 4 1 3 2 2 3 1 4 5 5 6 6 7 7
REMARK H PARENT
REMARK Flexibility Score: inf
ROOT
ATOM      1  C   UNL     1       9.650  45.772  30.315  1.00  0.00     0.008 C 
ENDROOT
BRANCH   1   2
ATOM      2  C   UNL     1       8.683  46.672  29.529  1.00  0.00     0.000 C 
BRANCH   2   3
ATOM      3  C   UNL     1       9.119  48.144  29.524  1.00  0.00    -0.003 C 
ATOM      4  C   UNL     1      10.612  48.274  29.235  1.00  0.00     0.004 C 
ENDBRANCH   2   3
ENDBRANCH   1   2
BRANCH   1   5
ATOM      5  C   UNL     1       9.811  44.383  29.681  1.00  0.00     0.072 C 
BRANCH   5   6
ATOM      6  C   UNL     1      10.817  44.417  28.570  1.00  0.00     0.224 C 
ATOM      7  O   UNL     1      10.694  43.683  27.601  1.00  0.00    -0.303 OA
ENDBRANCH   5   6
ENDBRANCH   1   5
TORSDOF 4
ENDMDL
MODEL 8
REMARK VINA RESULT:    -3.147      3.719      5.157
REMARK INTER + INTRA:          -3.950
REMARK INTER:                  -3.862
REMARK INTRA:                  -0.088
REMARK UNBOUND:                -0.067
REMARK SMILES CCCCCC=O
REMARK SMILES IDX 4 1 3 2 2 3 1 4 5 5 6 6 7 7
REMARK H PARENT
REMARK Flexibility Score: inf
ROOT
ATOM      1  C   UNL     1       9.097  46.700  31.911  1.00  0.00     0.008 C 
ENDROOT
BRANCH   1   2
ATOM      2  C   UNL     1       9.776  47.121  30.598  1.00  0.00     0.000 C 
BRANCH   2   3
ATOM      3  C   UNL     1       8.773  47.627  29.551  1.00  0.00    -0.003 C 
ATOM      4  C   UNL     1       8.730  49.153  29.524  1.00  0.00     0.004 C 
ENDBRANCH   2   3
ENDBRANCH   1   2
BRANCH   1   5
ATOM      5  C   UNL     1       9.105  45.179  32.118  1.00  0.00     0.072 C 
BRANCH   5   6
ATOM      6  C   UNL     1      10.400  44.583  31.653  1.00  0.00     0.224 C 
ATOM      7  O   UNL     1      10.406  43.683  30.828  1.00  0.00    -0.303 OA
ENDBRANCH   5   6
ENDBRANCH   1   5
TORSDOF 4
ENDMDL
MODEL 9
REMARK VINA RESULT:    -3.015      6.658      7.632
REMARK INTER + INTRA:          -3.787
REMARK INTER:                  -3.699
REMARK INTRA:                  -0.088
REMARK UNBOUND:                -0.067
REMARK SMILES CCCCCC=O
REMARK SMILES IDX 4 1 3 2 2 3 1 4 5 5 6 6 7 7
REMARK H PARENT
REMARK Flexibility Score: inf
ROOT
ATOM      1  C   UNL     1      14.242  44.034  28.796  1.00  0.00     0.008 C 
ENDROOT
BRANCH   1   2
ATOM      2  C   UNL     1      15.389  44.916  28.277  1.00  0.00     0.000 C 
BRANCH   2   3
ATOM      3  C   UNL     1      15.494  46.251  29.029  1.00  0.00    -0.003 C 
ATOM      4  C   UNL     1      15.287  47.431  28.085  1.00  0.00     0.004 C 
ENDBRANCH   2   3
ENDBRANCH   1   2
BRANCH   1   5
ATOM      5  C   UNL     1      12.861  44.554  28.372  1.00  0.00     0.072 C 
BRANCH   5   6
ATOM      6  C   UNL     1      11.958  43.420  27.989  1.00  0.00     0.224 C 
ATOM      7  O   UNL     1      10.843  43.640  27.543  1.00  0.00    -0.303 OA
ENDBRANCH   5   6
ENDBRANCH   1   5
TORSDOF 4
ENDMDL
