MODEL 1
REMARK VINA RESULT:    -4.097      0.000      0.000
REMARK INTER + INTRA:          -9.804
REMARK INTER:                  -7.690
REMARK INTRA:                  -2.114
REMARK UNBOUND:                -2.114
REMARK SMILES O=C([O-])CCCCCCCCCCCCCCC(=O)[O-]
REMARK SMILES IDX 10 1 9 2 8 3 7 4 6 5 5 6 4 7 2 8 1 9 3 10 11 11 12 12 13 13
REMARK SMILES IDX 14 14 15 15 16 16 17 17 18 18 19 19 20 20
REMARK H PARENT
REMARK Flexibility Score: inf
ROOT
ATOM      1  C   UNL     1      28.206  -3.551  -5.798  1.00  0.00     0.000 C 
ENDROOT
BRANCH   1   2
ATOM      2  C   UNL     1      28.922  -2.204  -5.988  1.00  0.00     0.000 C 
BRANCH   2   3
ATOM      3  C   UNL     1      30.123  -2.035  -5.041  1.00  0.00     0.000 C 
BRANCH   3   4
ATOM      4  C   UNL     1      29.707  -1.566  -3.638  1.00  0.00     0.000 C 
BRANCH   4   5
ATOM      5  C   UNL     1      30.008  -2.608  -2.549  1.00  0.00     0.000 C 
BRANCH   5   6
ATOM      6  C   UNL     1      28.715  -3.071  -1.862  1.00  0.00     0.006 C 
BRANCH   6   7
ATOM      7  C   UNL     1      27.627  -1.989  -1.881  1.00  0.00     0.053 C 
BRANCH   7   8
ATOM      8  C   UNL     1      27.475  -1.332  -0.543  1.00  0.00     0.041 C 
ATOM      9  O   UNL     1      28.157  -1.728   0.438  1.00  0.00    -0.550 OA
ATOM     10  O   UNL     1      26.556  -0.305  -0.375  1.00  0.00    -0.550 OA
ENDBRANCH   7   8
ENDBRANCH   6   7
ENDBRANCH   5   6
ENDBRANCH   4   5
ENDBRANCH   3   4
ENDBRANCH   2   3
ENDBRANCH   1   2
BRANCH   1  11
ATOM     11  C   UNL     1      26.839  -3.406  -5.112  1.00  0.00     0.000 C 
BRANCH  11  12
ATOM     12  C   UNL     1      26.163  -4.775  -4.945  1.00  0.00     0.000 C 
BRANCH  12  13
ATOM     13  C   UNL     1      26.497  -5.449  -3.602  1.00  0.00     0.000 C 
BRANCH  13  14
ATOM     14  C   UNL     1      27.223  -6.804  -3.713  1.00  0.00     0.000 C 
BRANCH  14  15
ATOM     15  C   UNL     1      28.757  -6.719  -3.801  1.00  0.00     0.000 C 
BRANCH  15  16
ATOM     16  C   UNL     1      29.292  -7.018  -5.209  1.00  0.00     0.006 C 
BRANCH  16  17
ATOM     17  C   UNL     1      28.592  -8.240  -5.812  1.00  0.00     0.053 C 
BRANCH  17  18
ATOM     18  C   UNL     1      27.957  -7.887  -7.120  1.00  0.00     0.041 C 
ATOM     19  O   UNL     1      26.831  -7.325  -7.145  1.00  0.00    -0.550 OA
ATOM     20  O   UNL     1      28.629  -8.136  -8.310  1.00  0.00    -0.550 OA
ENDBRANCH  17  18
ENDBRANCH  16  17
ENDBRANCH  15  16
ENDBRANCH  14  15
ENDBRANCH  13  14
ENDBRANCH  12  13
ENDBRANCH  11  12
ENDBRANCH   1  11
TORSDOF 15
ENDMDL
MODEL 2
REMARK VINA RESULT:    -4.005      1.743      7.190
REMARK INTER + INTRA:          -9.631
REMARK INTER:                  -7.957
REMARK INTRA:                  -1.674
REMARK UNBOUND:                -2.114
REMARK SMILES O=C([O-])CCCCCCCCCCCCCCC(=O)[O-]
REMARK SMILES IDX 10 1 9 2 8 3 7 4 6 5 5 6 4 7 2 8 1 9 3 10 11 11 12 12 13 13
REMARK SMILES IDX 14 14 15 15 16 16 17 17 18 18 19 19 20 20
REMARK H PARENT
REMARK Flexibility Score: inf
ROOT
ATOM      1  C   UNL     1      27.115  -4.043  -4.779  1.00  0.00     0.000 C 
ENDROOT
BRANCH   1   2
ATOM      2  C   UNL     1      28.463  -3.848  -5.493  1.00  0.00     0.000 C 
BRANCH   2   3
ATOM      3  C   UNL     1      29.629  -4.520  -4.747  1.00  0.00     0.000 C 
BRANCH   3   4
ATOM      4  C   UNL     1      29.194  -5.783  -3.986  1.00  0.00     0.000 C 
BRANCH   4   5
ATOM      5  C   UNL     1      30.092  -6.994  -4.282  1.00  0.00     0.000 C 
BRANCH   5   6
ATOM      6  C   UNL     1      29.344  -8.038  -5.124  1.00  0.00     0.006 C 
BRANCH   6   7
ATOM      7  C   UNL     1      27.927  -7.579  -5.494  1.00  0.00     0.053 C 
BRANCH   7   8
ATOM      8  C   UNL     1      27.765  -7.419  -6.975  1.00  0.00     0.041 C 
ATOM      9  O   UNL     1      28.419  -8.146  -7.767  1.00  0.00    -0.550 OA
ATOM     10  O   UNL     1      26.915  -6.443  -7.479  1.00  0.00    -0.550 OA
ENDBRANCH   7   8
ENDBRANCH   6   7
ENDBRANCH   5   6
ENDBRANCH   4   5
ENDBRANCH   3   4
ENDBRANCH   2   3
ENDBRANCH   1   2
BRANCH   1  11
ATOM     11  C   UNL     1      26.495  -2.719  -4.309  1.00  0.00     0.000 C 
BRANCH  11  12
ATOM     12  C   UNL     1      27.510  -1.570  -4.414  1.00  0.00     0.000 C 
BRANCH  12  13
ATOM     13  C   UNL     1      27.930  -1.015  -3.041  1.00  0.00     0.000 C 
BRANCH  13  14
ATOM     14  C   UNL     1      29.105  -1.754  -2.369  1.00  0.00     0.000 C 
BRANCH  14  15
ATOM     15  C   UNL     1      28.726  -2.612  -1.149  1.00  0.00     0.000 C 
BRANCH  15  16
ATOM     16  C   UNL     1      28.420  -1.771   0.099  1.00  0.00     0.006 C 
BRANCH  16  17
ATOM     17  C   UNL     1      29.253  -2.242   1.295  1.00  0.00     0.053 C 
BRANCH  17  18
ATOM     18  C   UNL     1      28.369  -2.823   2.353  1.00  0.00     0.041 C 
ATOM     19  O   UNL     1      27.991  -4.022   2.274  1.00  0.00    -0.550 OA
ATOM     20  O   UNL     1      28.001  -2.056   3.451  1.00  0.00    -0.550 OA
ENDBRANCH  17  18
ENDBRANCH  16  17
ENDBRANCH  15  16
ENDBRANCH  14  15
ENDBRANCH  13  14
ENDBRANCH  12  13
ENDBRANCH  11  12
ENDBRANCH   1  11
TORSDOF 15
ENDMDL
MODEL 3
REMARK VINA RESULT:    -3.971      2.890      6.393
REMARK INTER + INTRA:          -9.566
REMARK INTER:                  -7.678
REMARK INTRA:                  -1.888
REMARK UNBOUND:                -2.114
REMARK SMILES O=C([O-])CCCCCCCCCCCCCCC(=O)[O-]
REMARK SMILES IDX 10 1 9 2 8 3 7 4 6 5 5 6 4 7 2 8 1 9 3 10 11 11 12 12 13 13
REMARK SMILES IDX 14 14 15 15 16 16 17 17 18 18 19 19 20 20
REMARK H PARENT
REMARK Flexibility Score: inf
ROOT
ATOM      1  C   UNL     1      27.592  -4.812  -3.981  1.00  0.00     0.000 C 
ENDROOT
BRANCH   1   2
ATOM      2  C   UNL     1      29.097  -4.582  -4.192  1.00  0.00     0.000 C 
BRANCH   2   3
ATOM      3  C   UNL     1      29.962  -5.647  -3.495  1.00  0.00     0.000 C 
BRANCH   3   4
ATOM      4  C   UNL     1      29.364  -7.059  -3.607  1.00  0.00     0.000 C 
BRANCH   4   5
ATOM      5  C   UNL     1      30.125  -7.949  -4.602  1.00  0.00     0.000 C 
BRANCH   5   6
ATOM      6  C   UNL     1      29.155  -8.635  -5.576  1.00  0.00     0.006 C 
BRANCH   6   7
ATOM      7  C   UNL     1      27.836  -7.864  -5.721  1.00  0.00     0.053 C 
BRANCH   7   8
ATOM      8  C   UNL     1      27.608  -7.417  -7.133  1.00  0.00     0.041 C 
ATOM      9  O   UNL     1      28.252  -7.945  -8.077  1.00  0.00    -0.550 OA
ATOM     10  O   UNL     1      26.707  -6.394  -7.400  1.00  0.00    -0.550 OA
ENDBRANCH   7   8
ENDBRANCH   6   7
ENDBRANCH   5   6
ENDBRANCH   4   5
ENDBRANCH   3   4
ENDBRANCH   2   3
ENDBRANCH   1   2
BRANCH   1  11
ATOM     11  C   UNL     1      26.836  -3.521  -3.639  1.00  0.00     0.000 C 
BRANCH  11  12
ATOM     12  C   UNL     1      27.167  -3.053  -2.214  1.00  0.00     0.000 C 
BRANCH  12  13
ATOM     13  C   UNL     1      27.735  -1.623  -2.169  1.00  0.00     0.000 C 
BRANCH  13  14
ATOM     14  C   UNL     1      28.029  -0.993  -3.545  1.00  0.00     0.000 C 
BRANCH  14  15
ATOM     15  C   UNL     1      29.517  -0.932  -3.932  1.00  0.00     0.000 C 
BRANCH  15  16
ATOM     16  C   UNL     1      29.745  -1.044  -5.446  1.00  0.00     0.006 C 
BRANCH  16  17
ATOM     17  C   UNL     1      28.428  -1.315  -6.180  1.00  0.00     0.053 C 
BRANCH  17  18
ATOM     18  C   UNL     1      28.475  -0.751  -7.565  1.00  0.00     0.041 C 
ATOM     19  O   UNL     1      29.348  -1.148  -8.381  1.00  0.00    -0.550 OA
ATOM     20  O   UNL     1      27.525   0.177  -7.971  1.00  0.00    -0.550 OA
ENDBRANCH  17  18
ENDBRANCH  16  17
ENDBRANCH  15  16
ENDBRANCH  14  15
ENDBRANCH  13  14
ENDBRANCH  12  13
ENDBRANCH  11  12
ENDBRANCH   1  11
TORSDOF 15
ENDMDL
MODEL 4
REMARK VINA RESULT:    -3.944      1.725      2.710
REMARK INTER + INTRA:          -9.515
REMARK INTER:                  -7.733
REMARK INTRA:                  -1.782
REMARK UNBOUND:                -2.114
REMARK SMILES O=C([O-])CCCCCCCCCCCCCCC(=O)[O-]
REMARK SMILES IDX 10 1 9 2 8 3 7 4 6 5 5 6 4 7 2 8 1 9 3 10 11 11 12 12 13 13
REMARK SMILES IDX 14 14 15 15 16 16 17 17 18 18 19 19 20 20
REMARK H PARENT
REMARK Flexibility Score: inf
ROOT
ATOM      1  C   UNL     1      28.423  -1.986  -5.936  1.00  0.00     0.000 C 
ENDROOT
BRANCH   1   2
ATOM      2  C   UNL     1      28.133  -0.808  -4.991  1.00  0.00     0.000 C 
BRANCH   2   3
ATOM      3  C   UNL     1      27.201  -1.198  -3.830  1.00  0.00     0.000 C 
BRANCH   3   4
ATOM      4  C   UNL     1      27.844  -0.963  -2.454  1.00  0.00     0.000 C 
BRANCH   4   5
ATOM      5  C   UNL     1      27.273  -1.887  -1.366  1.00  0.00     0.000 C 
BRANCH   5   6
ATOM      6  C   UNL     1      28.402  -2.596  -0.603  1.00  0.00     0.006 C 
BRANCH   6   7
ATOM      7  C   UNL     1      28.849  -1.810   0.637  1.00  0.00     0.053 C 
BRANCH   7   8
ATOM      8  C   UNL     1      28.360  -2.444   1.903  1.00  0.00     0.041 C 
ATOM      9  O   UNL     1      28.003  -1.728   2.874  1.00  0.00    -0.550 OA
ATOM     10  O   UNL     1      28.329  -3.828   2.019  1.00  0.00    -0.550 OA
ENDBRANCH   7   8
ENDBRANCH   6   7
ENDBRANCH   5   6
ENDBRANCH   4   5
ENDBRANCH   3   4
ENDBRANCH   2   3
ENDBRANCH   1   2
BRANCH   1  11
ATOM     11  C   UNL     1      29.826  -2.577  -5.734  1.00  0.00     0.000 C 
BRANCH  11  12
ATOM     12  C   UNL     1      29.862  -3.493  -4.501  1.00  0.00     0.000 C 
BRANCH  12  13
ATOM     13  C   UNL     1      29.079  -4.803  -4.705  1.00  0.00     0.000 C 
BRANCH  13  14
ATOM     14  C   UNL     1      27.743  -4.891  -3.938  1.00  0.00     0.000 C 
BRANCH  14  15
ATOM     15  C   UNL     1      26.501  -5.122  -4.815  1.00  0.00     0.000 C 
BRANCH  15  16
ATOM     16  C   UNL     1      26.849  -5.650  -6.215  1.00  0.00     0.006 C 
BRANCH  16  17
ATOM     17  C   UNL     1      26.684  -7.172  -6.283  1.00  0.00     0.053 C 
BRANCH  17  18
ATOM     18  C   UNL     1      27.974  -7.821  -6.675  1.00  0.00     0.041 C 
ATOM     19  O   UNL     1      28.282  -7.934  -7.891  1.00  0.00    -0.550 OA
ATOM     20  O   UNL     1      28.859  -8.258  -5.697  1.00  0.00    -0.550 OA
ENDBRANCH  17  18
ENDBRANCH  16  17
ENDBRANCH  15  16
ENDBRANCH  14  15
ENDBRANCH  13  14
ENDBRANCH  12  13
ENDBRANCH  11  12
ENDBRANCH   1  11
TORSDOF 15
ENDMDL
MODEL 5
REMARK VINA RESULT:    -3.929      1.527      2.286
REMARK INTER + INTRA:          -9.489
REMARK INTER:                  -7.613
REMARK INTRA:                  -1.876
REMARK UNBOUND:                -2.114
REMARK SMILES O=C([O-])CCCCCCCCCCCCCCC(=O)[O-]
REMARK SMILES IDX 10 1 9 2 8 3 7 4 6 5 5 6 4 7 2 8 1 9 3 10 11 11 12 12 13 13
REMARK SMILES IDX 14 14 15 15 16 16 17 17 18 18 19 19 20 20
REMARK H PARENT
REMARK Flexibility Score: inf
ROOT
ATOM      1  C   UNL     1      26.753  -2.801  -4.217  1.00  0.00     0.000 C 
ENDROOT
BRANCH   1   2
ATOM      2  C   UNL     1      27.187  -1.412  -4.709  1.00  0.00     0.000 C 
BRANCH   2   3
ATOM      3  C   UNL     1      27.589  -0.475  -3.556  1.00  0.00     0.000 C 
BRANCH   3   4
ATOM      4  C   UNL     1      29.021  -0.729  -3.060  1.00  0.00     0.000 C 
BRANCH   4   5
ATOM      5  C   UNL     1      29.114  -0.808  -1.528  1.00  0.00     0.000 C 
BRANCH   5   6
ATOM      6  C   UNL     1      27.764  -1.212  -0.918  1.00  0.00     0.006 C 
BRANCH   6   7
ATOM      7  C   UNL     1      27.779  -2.647  -0.373  1.00  0.00     0.053 C 
BRANCH   7   8
ATOM      8  C   UNL     1      28.540  -2.744   0.913  1.00  0.00     0.041 C 
ATOM      9  O   UNL     1      28.113  -2.169   1.948  1.00  0.00    -0.550 OA
ATOM     10  O   UNL     1      29.740  -3.443   0.959  1.00  0.00    -0.550 OA
ENDBRANCH   7   8
ENDBRANCH   6   7
ENDBRANCH   5   6
ENDBRANCH   4   5
ENDBRANCH   3   4
ENDBRANCH   2   3
ENDBRANCH   1   2
BRANCH   1  11
ATOM     11  C   UNL     1      27.396  -3.944  -5.017  1.00  0.00     0.000 C 
BRANCH  11  12
ATOM     12  C   UNL     1      28.759  -3.516  -5.583  1.00  0.00     0.000 C 
BRANCH  12  13
ATOM     13  C   UNL     1      29.940  -3.960  -4.700  1.00  0.00     0.000 C 
BRANCH  13  14
ATOM     14  C   UNL     1      29.590  -4.997  -3.613  1.00  0.00     0.000 C 
BRANCH  14  15
ATOM     15  C   UNL     1      30.036  -6.438  -3.918  1.00  0.00     0.000 C 
BRANCH  15  16
ATOM     16  C   UNL     1      28.854  -7.395  -4.132  1.00  0.00     0.006 C 
BRANCH  16  17
ATOM     17  C   UNL     1      29.053  -8.238  -5.395  1.00  0.00     0.053 C 
BRANCH  17  18
ATOM     18  C   UNL     1      28.076  -7.834  -6.454  1.00  0.00     0.041 C 
ATOM     19  O   UNL     1      26.989  -7.284  -6.136  1.00  0.00    -0.550 OA
ATOM     20  O   UNL     1      28.387  -8.019  -7.795  1.00  0.00    -0.550 OA
ENDBRANCH  17  18
ENDBRANCH  16  17
ENDBRANCH  15  16
ENDBRANCH  14  15
ENDBRANCH  13  14
ENDBRANCH  12  13
ENDBRANCH  11  12
ENDBRANCH   1  11
TORSDOF 15
ENDMDL
MODEL 6
REMARK VINA RESULT:    -3.924      2.081      8.096
REMARK INTER + INTRA:          -9.479
REMARK INTER:                  -8.295
REMARK INTRA:                  -1.184
REMARK UNBOUND:                -2.114
REMARK SMILES O=C([O-])CCCCCCCCCCCCCCC(=O)[O-]
REMARK SMILES IDX 10 1 9 2 8 3 7 4 6 5 5 6 4 7 2 8 1 9 3 10 11 11 12 12 13 13
REMARK SMILES IDX 14 14 15 15 16 16 17 17 18 18 19 19 20 20
REMARK H PARENT
REMARK Flexibility Score: inf
ROOT
ATOM      1  C   UNL     1      27.445  -2.463  -3.292  1.00  0.00     0.000 C 
ENDROOT
BRANCH   1   2
ATOM      2  C   UNL     1      26.732  -2.802  -4.610  1.00  0.00     0.000 C 
BRANCH   2   3
ATOM      3  C   UNL     1      27.010  -4.241  -5.080  1.00  0.00     0.000 C 
BRANCH   3   4
ATOM      4  C   UNL     1      28.467  -4.445  -5.527  1.00  0.00     0.000 C 
BRANCH   4   5
ATOM      5  C   UNL     1      29.239  -5.410  -4.614  1.00  0.00     0.000 C 
BRANCH   5   6
ATOM      6  C   UNL     1      28.450  -6.709  -4.397  1.00  0.00     0.006 C 
BRANCH   6   7
ATOM      7  C   UNL     1      28.824  -7.793  -5.418  1.00  0.00     0.053 C 
BRANCH   7   8
ATOM      8  C   UNL     1      27.925  -7.761  -6.616  1.00  0.00     0.041 C 
ATOM      9  O   UNL     1      26.707  -7.471  -6.486  1.00  0.00    -0.550 OA
ATOM     10  O   UNL     1      28.427  -8.085  -7.870  1.00  0.00    -0.550 OA
ENDBRANCH   7   8
ENDBRANCH   6   7
ENDBRANCH   5   6
ENDBRANCH   4   5
ENDBRANCH   3   4
ENDBRANCH   2   3
ENDBRANCH   1   2
BRANCH   1  11
ATOM     11  C   UNL     1      27.134  -3.468  -2.172  1.00  0.00     0.000 C 
BRANCH  11  12
ATOM     12  C   UNL     1      26.770  -2.741  -0.869  1.00  0.00     0.000 C 
BRANCH  12  13
ATOM     13  C   UNL     1      27.528  -1.412  -0.693  1.00  0.00     0.000 C 
BRANCH  13  14
ATOM     14  C   UNL     1      26.635  -0.180  -0.441  1.00  0.00     0.000 C 
BRANCH  14  15
ATOM     15  C   UNL     1      26.744   0.428   0.968  1.00  0.00     0.000 C 
BRANCH  15  16
ATOM     16  C   UNL     1      27.971  -0.075   1.742  1.00  0.00     0.006 C 
BRANCH  16  17
ATOM     17  C   UNL     1      27.624  -0.339   3.210  1.00  0.00     0.053 C 
BRANCH  17  18
ATOM     18  C   UNL     1      28.019  -1.728   3.602  1.00  0.00     0.041 C 
ATOM     19  O   UNL     1      28.073  -2.051   4.817  1.00  0.00    -0.550 OA
ATOM     20  O   UNL     1      28.283  -2.678   2.623  1.00  0.00    -0.550 OA
ENDBRANCH  17  18
ENDBRANCH  16  17
ENDBRANCH  15  16
ENDBRANCH  14  15
ENDBRANCH  13  14
ENDBRANCH  12  13
ENDBRANCH  11  12
ENDBRANCH   1  11
TORSDOF 15
ENDMDL
MODEL 7
REMARK VINA RESULT:    -3.900      2.613      3.780
REMARK INTER + INTRA:          -9.434
REMARK INTER:                  -7.430
REMARK INTRA:                  -2.004
REMARK UNBOUND:                -2.114
REMARK SMILES O=C([O-])CCCCCCCCCCCCCCC(=O)[O-]
REMARK SMILES IDX 10 1 9 2 8 3 7 4 6 5 5 6 4 7 2 8 1 9 3 10 11 11 12 12 13 13
REMARK SMILES IDX 14 14 15 15 16 16 17 17 18 18 19 19 20 20
REMARK H PARENT
REMARK Flexibility Score: inf
ROOT
ATOM      1  C   UNL     1      27.083  -3.123  -4.516  1.00  0.00     0.000 C 
ENDROOT
BRANCH   1   2
ATOM      2  C   UNL     1      27.128  -3.315  -2.992  1.00  0.00     0.000 C 
BRANCH   2   3
ATOM      3  C   UNL     1      27.637  -2.065  -2.253  1.00  0.00     0.000 C 
BRANCH   3   4
ATOM      4  C   UNL     1      27.785  -0.850  -3.182  1.00  0.00     0.000 C 
BRANCH   4   5
ATOM      5  C   UNL     1      29.250  -0.432  -3.385  1.00  0.00     0.000 C 
BRANCH   5   6
ATOM      6  C   UNL     1      29.385   0.528  -4.577  1.00  0.00     0.006 C 
BRANCH   6   7
ATOM      7  C   UNL     1      30.061  -0.137  -5.784  1.00  0.00     0.053 C 
BRANCH   7   8
ATOM      8  C   UNL     1      29.057  -0.621  -6.785  1.00  0.00     0.041 C 
ATOM      9  O   UNL     1      27.892  -0.144  -6.796  1.00  0.00    -0.550 OA
ATOM     10  O   UNL     1      29.401  -1.622  -7.685  1.00  0.00    -0.550 OA
ENDBRANCH   7   8
ENDBRANCH   6   7
ENDBRANCH   5   6
ENDBRANCH   4   5
ENDBRANCH   3   4
ENDBRANCH   2   3
ENDBRANCH   1   2
BRANCH   1  11
ATOM     11  C   UNL     1      28.027  -4.076  -5.264  1.00  0.00     0.000 C 
BRANCH  11  12
ATOM     12  C   UNL     1      29.493  -3.779  -4.915  1.00  0.00     0.000 C 
BRANCH  12  13
ATOM     13  C   UNL     1      30.106  -4.824  -3.964  1.00  0.00     0.000 C 
BRANCH  13  14
ATOM     14  C   UNL     1      29.364  -6.174  -3.911  1.00  0.00     0.000 C 
BRANCH  14  15
ATOM     15  C   UNL     1      30.125  -7.363  -4.524  1.00  0.00     0.000 C 
BRANCH  15  16
ATOM     16  C   UNL     1      29.234  -8.252  -5.403  1.00  0.00     0.006 C 
BRANCH  16  17
ATOM     17  C   UNL     1      27.824  -7.665  -5.526  1.00  0.00     0.053 C 
BRANCH  17  18
ATOM     18  C   UNL     1      27.496  -7.384  -6.958  1.00  0.00     0.041 C 
ATOM     19  O   UNL     1      26.568  -6.585  -7.249  1.00  0.00    -0.550 OA
ATOM     20  O   UNL     1      28.246  -7.967  -7.971  1.00  0.00    -0.550 OA
ENDBRANCH  17  18
ENDBRANCH  16  17
ENDBRANCH  15  16
ENDBRANCH  14  15
ENDBRANCH  13  14
ENDBRANCH  12  13
ENDBRANCH  11  12
ENDBRANCH   1  11
TORSDOF 15
ENDMDL
MODEL 8
REMARK VINA RESULT:    -3.886      2.017      3.524
REMARK INTER + INTRA:          -9.408
REMARK INTER:                  -8.150
REMARK INTRA:                  -1.257
REMARK UNBOUND:                -2.114
REMARK SMILES O=C([O-])CCCCCCCCCCCCCCC(=O)[O-]
REMARK SMILES IDX 10 1 9 2 8 3 7 4 6 5 5 6 4 7 2 8 1 9 3 10 11 11 12 12 13 13
REMARK SMILES IDX 14 14 15 15 16 16 17 17 18 18 19 19 20 20
REMARK H PARENT
REMARK Flexibility Score: inf
ROOT
ATOM      1  C   UNL     1      28.257  -2.800  -2.581  1.00  0.00     0.000 C 
ENDROOT
BRANCH   1   2
ATOM      2  C   UNL     1      27.564  -2.246  -1.326  1.00  0.00     0.000 C 
BRANCH   2   3
ATOM      3  C   UNL     1      27.467  -0.710  -1.333  1.00  0.00     0.000 C 
BRANCH   3   4
ATOM      4  C   UNL     1      26.705  -0.161  -0.117  1.00  0.00     0.000 C 
BRANCH   4   5
ATOM      5  C   UNL     1      27.566   0.765   0.756  1.00  0.00     0.000 C 
BRANCH   5   6
ATOM      6  C   UNL     1      28.642  -0.033   1.506  1.00  0.00     0.006 C 
BRANCH   6   7
ATOM      7  C   UNL     1      28.246  -0.318   2.961  1.00  0.00     0.053 C 
BRANCH   7   8
ATOM      8  C   UNL     1      28.145  -1.788   3.231  1.00  0.00     0.041 C 
ATOM      9  O   UNL     1      28.059  -2.211   4.414  1.00  0.00    -0.550 OA
ATOM     10  O   UNL     1      28.179  -2.692   2.177  1.00  0.00    -0.550 OA
ENDBRANCH   7   8
ENDBRANCH   6   7
ENDBRANCH   5   6
ENDBRANCH   4   5
ENDBRANCH   3   4
ENDBRANCH   2   3
ENDBRANCH   1   2
BRANCH   1  11
ATOM     11  C   UNL     1      28.060  -1.903  -3.813  1.00  0.00     0.000 C 
BRANCH  11  12
ATOM     12  C   UNL     1      27.406  -2.685  -4.961  1.00  0.00     0.000 C 
BRANCH  12  13
ATOM     13  C   UNL     1      26.345  -3.689  -4.474  1.00  0.00     0.000 C 
BRANCH  13  14
ATOM     14  C   UNL     1      26.422  -5.087  -5.119  1.00  0.00     0.000 C 
BRANCH  14  15
ATOM     15  C   UNL     1      26.425  -6.265  -4.129  1.00  0.00     0.000 C 
BRANCH  15  16
ATOM     16  C   UNL     1      27.816  -6.891  -3.950  1.00  0.00     0.006 C 
BRANCH  16  17
ATOM     17  C   UNL     1      28.671  -6.694  -5.205  1.00  0.00     0.053 C 
BRANCH  17  18
ATOM     18  C   UNL     1      28.572  -7.890  -6.099  1.00  0.00     0.041 C 
ATOM     19  O   UNL     1      29.227  -8.932  -5.836  1.00  0.00    -0.550 OA
ATOM     20  O   UNL     1      27.721  -7.869  -7.197  1.00  0.00    -0.550 OA
ENDBRANCH  17  18
ENDBRANCH  16  17
ENDBRANCH  15  16
ENDBRANCH  14  15
ENDBRANCH  13  14
ENDBRANCH  12  13
ENDBRANCH  11  12
ENDBRANCH   1  11
TORSDOF 15
ENDMDL
MODEL 9
REMARK VINA RESULT:    -3.844      1.945      7.458
REMARK INTER + INTRA:          -9.329
REMARK INTER:                  -7.958
REMARK INTRA:                  -1.371
REMARK UNBOUND:                -2.114
REMARK SMILES O=C([O-])CCCCCCCCCCCCCCC(=O)[O-]
REMARK SMILES IDX 10 1 9 2 8 3 7 4 6 5 5 6 4 7 2 8 1 9 3 10 11 11 12 12 13 13
REMARK SMILES IDX 14 14 15 15 16 16 17 17 18 18 19 19 20 20
REMARK H PARENT
REMARK Flexibility Score: inf
ROOT
ATOM      1  C   UNL     1      28.399  -1.967  -3.730  1.00  0.00     0.000 C 
ENDROOT
BRANCH   1   2
ATOM      2  C   UNL     1      27.041  -2.457  -4.257  1.00  0.00     0.000 C 
BRANCH   2   3
ATOM      3  C   UNL     1      27.184  -3.502  -5.378  1.00  0.00     0.000 C 
BRANCH   3   4
ATOM      4  C   UNL     1      26.362  -4.772  -5.110  1.00  0.00     0.000 C 
BRANCH   4   5
ATOM      5  C   UNL     1      26.772  -5.482  -3.810  1.00  0.00     0.000 C 
BRANCH   5   6
ATOM      6  C   UNL     1      27.459  -6.822  -4.111  1.00  0.00     0.006 C 
BRANCH   6   7
ATOM      7  C   UNL     1      28.550  -6.688  -5.183  1.00  0.00     0.053 C 
BRANCH   7   8
ATOM      8  C   UNL     1      28.550  -7.854  -6.123  1.00  0.00     0.041 C 
ATOM      9  O   UNL     1      29.160  -8.913  -5.820  1.00  0.00    -0.550 OA
ATOM     10  O   UNL     1      27.903  -7.759  -7.348  1.00  0.00    -0.550 OA
ENDBRANCH   7   8
ENDBRANCH   6   7
ENDBRANCH   5   6
ENDBRANCH   4   5
ENDBRANCH   3   4
ENDBRANCH   2   3
ENDBRANCH   1   2
BRANCH   1  11
ATOM     11  C   UNL     1      28.692  -2.451  -2.302  1.00  0.00     0.000 C 
BRANCH  11  12
ATOM     12  C   UNL     1      27.393  -2.609  -1.499  1.00  0.00     0.000 C 
BRANCH  12  13
ATOM     13  C   UNL     1      26.911  -1.286  -0.874  1.00  0.00     0.000 C 
BRANCH  13  14
ATOM     14  C   UNL     1      27.983  -0.508  -0.084  1.00  0.00     0.000 C 
BRANCH  14  15
ATOM     15  C   UNL     1      27.677  -0.310   1.410  1.00  0.00     0.000 C 
BRANCH  15  16
ATOM     16  C   UNL     1      28.716  -0.974   2.325  1.00  0.00     0.006 C 
BRANCH  16  17
ATOM     17  C   UNL     1      28.125  -2.204   3.023  1.00  0.00     0.053 C 
BRANCH  17  18
ATOM     18  C   UNL     1      28.397  -3.440   2.225  1.00  0.00     0.041 C 
ATOM     19  O   UNL     1      29.315  -3.448   1.363  1.00  0.00    -0.550 OA
ATOM     20  O   UNL     1      27.669  -4.598   2.467  1.00  0.00    -0.550 OA
ENDBRANCH  17  18
ENDBRANCH  16  17
ENDBRANCH  15  16
ENDBRANCH  14  15
ENDBRANCH  13  14
ENDBRANCH  12  13
ENDBRANCH  11  12
ENDBRANCH   1  11
TORSDOF 15
ENDMDL
