MODEL 1
REMARK VINA RESULT:    -4.585      0.000      0.000
REMARK INTER + INTRA:          -5.161
REMARK INTER:                  -5.121
REMARK INTRA:                  -0.040
REMARK UNBOUND:                -0.040
REMARK SMILES O=C([O-])c1ccc(O)c(O)c1
REMARK SMILES IDX 4 1 11 2 5 3 9 4 6 5 7 6 2 7 1 8 3 9 10 10 8 12
REMARK H PARENT 10 11 8 13
REMARK Flexibility Score: inf
ROOT
ATOM      1  C   UNL     1      12.260   5.376 -18.844  1.00  0.00     0.001 A 
ATOM      2  C   UNL     1      12.342   4.021 -18.480  1.00  0.00     0.060 A 
ATOM      3  C   UNL     1      11.519   5.729 -19.982  1.00  0.00     0.014 A 
ATOM      4  C   UNL     1      11.698   3.031 -19.232  1.00  0.00     0.158 A 
ATOM      5  C   UNL     1      10.874   4.749 -20.738  1.00  0.00     0.051 A 
ATOM      6  C   UNL     1      10.953   3.399 -20.377  1.00  0.00     0.157 A 
ENDROOT
BRANCH   1   7
ATOM      7  C   UNL     1      12.944   6.416 -18.045  1.00  0.00     0.072 C 
ATOM      8  O   UNL     1      12.883   6.402 -16.786  1.00  0.00    -0.545 OA
ATOM      9  O   UNL     1      13.664   7.427 -18.673  1.00  0.00    -0.545 OA
ENDBRANCH   1   7
BRANCH   4  10
ATOM     10  O   UNL     1      11.823   1.705 -18.810  1.00  0.00    -0.504 OA
ATOM     11  H   UNL     1      12.159   0.955 -19.396  1.00  0.00     0.293 HD
ENDBRANCH   4  10
BRANCH   6  12
ATOM     12  O   UNL     1      10.284   2.470 -21.175  1.00  0.00    -0.504 OA
ATOM     13  H   UNL     1       9.302   2.253 -21.086  1.00  0.00     0.293 HD
ENDBRANCH   6  12
TORSDOF 3
ENDMDL
MODEL 2
REMARK VINA RESULT:    -4.468     15.981     17.533
REMARK INTER + INTRA:          -5.030
REMARK INTER:                  -4.994
REMARK INTRA:                  -0.036
REMARK UNBOUND:                -0.040
REMARK SMILES O=C([O-])c1ccc(O)c(O)c1
REMARK SMILES IDX 4 1 11 2 5 3 9 4 6 5 7 6 2 7 1 8 3 9 10 10 8 12
REMARK H PARENT 10 11 8 13
REMARK Flexibility Score: inf
ROOT
ATOM      1  C   UNL     1       8.424  -6.281  -7.418  1.00  0.00     0.001 A 
ATOM      2  C   UNL     1       8.392  -5.395  -6.328  1.00  0.00     0.060 A 
ATOM      3  C   UNL     1       8.059  -7.621  -7.216  1.00  0.00     0.014 A 
ATOM      4  C   UNL     1       8.002  -5.832  -5.055  1.00  0.00     0.158 A 
ATOM      5  C   UNL     1       7.671  -8.064  -5.951  1.00  0.00     0.051 A 
ATOM      6  C   UNL     1       7.637  -7.184  -4.864  1.00  0.00     0.157 A 
ENDROOT
BRANCH   1   7
ATOM      7  C   UNL     1       8.837  -5.813  -8.760  1.00  0.00     0.072 C 
ATOM      8  O   UNL     1       8.064  -5.104  -9.458  1.00  0.00    -0.545 OA
ATOM      9  O   UNL     1      10.086  -6.152  -9.270  1.00  0.00    -0.545 OA
ENDBRANCH   1   7
BRANCH   4  10
ATOM     10  O   UNL     1       7.994  -4.895  -4.019  1.00  0.00    -0.504 OA
ATOM     11  H   UNL     1       8.818  -4.419  -3.681  1.00  0.00     0.293 HD
ENDBRANCH   4  10
BRANCH   6  12
ATOM     12  O   UNL     1       7.238  -7.692  -3.626  1.00  0.00    -0.504 OA
ATOM     13  H   UNL     1       7.817  -7.682  -2.798  1.00  0.00     0.293 HD
ENDBRANCH   6  12
TORSDOF 3
ENDMDL
MODEL 3
REMARK VINA RESULT:    -4.461     15.828     16.780
REMARK INTER + INTRA:          -5.022
REMARK INTER:                  -4.983
REMARK INTRA:                  -0.040
REMARK UNBOUND:                -0.040
REMARK SMILES O=C([O-])c1ccc(O)c(O)c1
REMARK SMILES IDX 4 1 11 2 5 3 9 4 6 5 7 6 2 7 1 8 3 9 10 10 8 12
REMARK H PARENT 10 11 8 13
REMARK Flexibility Score: inf
ROOT
ATOM      1  C   UNL     1       9.393  -6.886  -8.151  1.00  0.00     0.001 A 
ATOM      2  C   UNL     1      10.205  -6.087  -7.328  1.00  0.00     0.060 A 
ATOM      3  C   UNL     1       8.014  -6.945  -7.894  1.00  0.00     0.014 A 
ATOM      4  C   UNL     1       9.658  -5.357  -6.265  1.00  0.00     0.158 A 
ATOM      5  C   UNL     1       7.461  -6.221  -6.837  1.00  0.00     0.051 A 
ATOM      6  C   UNL     1       8.267  -5.425  -6.016  1.00  0.00     0.157 A 
ENDROOT
BRANCH   1   7
ATOM      7  C   UNL     1       9.978  -7.655  -9.272  1.00  0.00     0.072 C 
ATOM      8  O   UNL     1      11.026  -8.334  -9.105  1.00  0.00    -0.545 OA
ATOM      9  O   UNL     1       9.378  -7.638 -10.526  1.00  0.00    -0.545 OA
ENDBRANCH   1   7
BRANCH   4  10
ATOM     10  O   UNL     1      10.526  -4.585  -5.489  1.00  0.00    -0.504 OA
ATOM     11  H   UNL     1      11.528  -4.564  -5.615  1.00  0.00     0.293 HD
ENDBRANCH   4  10
BRANCH   6  12
ATOM     12  O   UNL     1       7.650  -4.726  -4.977  1.00  0.00    -0.504 OA
ATOM     13  H   UNL     1       6.672  -4.471  -4.970  1.00  0.00     0.293 HD
ENDBRANCH   6  12
TORSDOF 3
ENDMDL
MODEL 4
REMARK VINA RESULT:    -4.388     14.454     15.506
REMARK INTER + INTRA:          -4.940
REMARK INTER:                  -4.905
REMARK INTRA:                  -0.036
REMARK UNBOUND:                -0.040
REMARK SMILES O=C([O-])c1ccc(O)c(O)c1
REMARK SMILES IDX 4 1 11 2 5 3 9 4 6 5 7 6 2 7 1 8 3 9 10 10 8 12
REMARK H PARENT 10 11 8 13
REMARK Flexibility Score: inf
ROOT
ATOM      1  C   UNL     1       9.771  -6.114  -8.844  1.00  0.00     0.001 A 
ATOM      2  C   UNL     1       9.277  -5.978  -7.535  1.00  0.00     0.060 A 
ATOM      3  C   UNL     1       8.997  -5.642  -9.915  1.00  0.00     0.014 A 
ATOM      4  C   UNL     1       8.032  -5.382  -7.292  1.00  0.00     0.158 A 
ATOM      5  C   UNL     1       7.756  -5.047  -9.681  1.00  0.00     0.051 A 
ATOM      6  C   UNL     1       7.261  -4.910  -8.380  1.00  0.00     0.157 A 
ENDROOT
BRANCH   1   7
ATOM      7  C   UNL     1      11.086  -6.745  -9.093  1.00  0.00     0.072 C 
ATOM      8  O   UNL     1      11.183  -7.995  -9.222  1.00  0.00    -0.545 OA
ATOM      9  O   UNL     1      12.234  -5.967  -9.188  1.00  0.00    -0.545 OA
ENDBRANCH   1   7
BRANCH   4  10
ATOM     10  O   UNL     1       7.606  -5.281  -5.966  1.00  0.00    -0.504 OA
ATOM     11  H   UNL     1       7.422  -6.075  -5.370  1.00  0.00     0.293 HD
ENDBRANCH   4  10
BRANCH   6  12
ATOM     12  O   UNL     1       6.014  -4.305  -8.217  1.00  0.00    -0.504 OA
ATOM     13  H   UNL     1       5.223  -4.470  -8.823  1.00  0.00     0.293 HD
ENDBRANCH   6  12
TORSDOF 3
ENDMDL
MODEL 5
REMARK VINA RESULT:    -4.383     15.450     16.359
REMARK INTER + INTRA:          -4.935
REMARK INTER:                  -4.899
REMARK INTRA:                  -0.036
REMARK UNBOUND:                -0.040
REMARK SMILES O=C([O-])c1ccc(O)c(O)c1
REMARK SMILES IDX 4 1 11 2 5 3 9 4 6 5 7 6 2 7 1 8 3 9 10 10 8 12
REMARK H PARENT 10 11 8 13
REMARK Flexibility Score: inf
ROOT
ATOM      1  C   UNL     1       8.562  -7.461  -9.592  1.00  0.00     0.001 A 
ATOM      2  C   UNL     1       7.920  -6.368  -8.985  1.00  0.00     0.060 A 
ATOM      3  C   UNL     1       9.864  -7.795  -9.187  1.00  0.00     0.014 A 
ATOM      4  C   UNL     1       8.559  -5.617  -7.990  1.00  0.00     0.158 A 
ATOM      5  C   UNL     1      10.507  -7.052  -8.196  1.00  0.00     0.051 A 
ATOM      6  C   UNL     1       9.871  -5.964  -7.590  1.00  0.00     0.157 A 
ENDROOT
BRANCH   1   7
ATOM      7  C   UNL     1       7.881  -8.250 -10.643  1.00  0.00     0.072 C 
ATOM      8  O   UNL     1       8.233  -8.149 -11.849  1.00  0.00    -0.545 OA
ATOM      9  O   UNL     1       6.842  -9.112 -10.314  1.00  0.00    -0.545 OA
ENDBRANCH   1   7
BRANCH   4  10
ATOM     10  O   UNL     1       7.859  -4.545  -7.431  1.00  0.00    -0.504 OA
ATOM     11  H   UNL     1       8.174  -4.023  -6.627  1.00  0.00     0.293 HD
ENDBRANCH   4  10
BRANCH   6  12
ATOM     12  O   UNL     1      10.571  -5.264  -6.606  1.00  0.00    -0.504 OA
ATOM     13  H   UNL     1      10.564  -5.509  -5.626  1.00  0.00     0.293 HD
ENDBRANCH   6  12
TORSDOF 3
ENDMDL
MODEL 6
REMARK VINA RESULT:    -4.369     13.621     15.363
REMARK INTER + INTRA:          -4.920
REMARK INTER:                  -4.883
REMARK INTRA:                  -0.037
REMARK UNBOUND:                -0.040
REMARK SMILES O=C([O-])c1ccc(O)c(O)c1
REMARK SMILES IDX 4 1 11 2 5 3 9 4 6 5 7 6 2 7 1 8 3 9 10 10 8 12
REMARK H PARENT 10 11 8 13
REMARK Flexibility Score: inf
ROOT
ATOM      1  C   UNL     1       9.290  -5.746  -9.542  1.00  0.00     0.001 A 
ATOM      2  C   UNL     1       7.998  -5.204  -9.443  1.00  0.00     0.060 A 
ATOM      3  C   UNL     1       9.966  -6.112  -8.367  1.00  0.00     0.014 A 
ATOM      4  C   UNL     1       7.383  -5.027  -8.197  1.00  0.00     0.158 A 
ATOM      5  C   UNL     1       9.360  -5.938  -7.122  1.00  0.00     0.051 A 
ATOM      6  C   UNL     1       8.073  -5.399  -7.020  1.00  0.00     0.157 A 
ENDROOT
BRANCH   1   7
ATOM      7  C   UNL     1       9.934  -5.930 -10.862  1.00  0.00     0.072 C 
ATOM      8  O   UNL     1      11.002  -5.322 -11.145  1.00  0.00    -0.545 OA
ATOM      9  O   UNL     1       9.369  -6.775 -11.810  1.00  0.00    -0.545 OA
ENDBRANCH   1   7
BRANCH   4  10
ATOM     10  O   UNL     1       6.096  -4.483  -8.176  1.00  0.00    -0.504 OA
ATOM     11  H   UNL     1       5.724  -3.886  -8.900  1.00  0.00     0.293 HD
ENDBRANCH   4  10
BRANCH   6  12
ATOM     12  O   UNL     1       7.526  -5.254  -5.744  1.00  0.00    -0.504 OA
ATOM     13  H   UNL     1       6.962  -5.957  -5.289  1.00  0.00     0.293 HD
ENDBRANCH   6  12
TORSDOF 3
ENDMDL
MODEL 7
REMARK VINA RESULT:    -4.332      2.412      2.903
REMARK INTER + INTRA:          -4.878
REMARK INTER:                  -4.834
REMARK INTRA:                  -0.044
REMARK UNBOUND:                -0.040
REMARK SMILES O=C([O-])c1ccc(O)c(O)c1
REMARK SMILES IDX 4 1 11 2 5 3 9 4 6 5 7 6 2 7 1 8 3 9 10 10 8 12
REMARK H PARENT 10 11 8 13
REMARK Flexibility Score: inf
ROOT
ATOM      1  C   UNL     1      10.751   4.065 -18.704  1.00  0.00     0.001 A 
ATOM      2  C   UNL     1       9.436   4.224 -18.234  1.00  0.00     0.060 A 
ATOM      3  C   UNL     1      10.969   3.317 -19.872  1.00  0.00     0.014 A 
ATOM      4  C   UNL     1       8.352   3.652 -18.913  1.00  0.00     0.158 A 
ATOM      5  C   UNL     1       9.895   2.743 -20.553  1.00  0.00     0.051 A 
ATOM      6  C   UNL     1       8.585   2.901 -20.089  1.00  0.00     0.157 A 
ENDROOT
BRANCH   1   7
ATOM      7  C   UNL     1      11.891   4.672 -17.982  1.00  0.00     0.072 C 
ATOM      8  O   UNL     1      11.693   5.510 -17.062  1.00  0.00    -0.545 OA
ATOM      9  O   UNL     1      13.197   4.326 -18.309  1.00  0.00    -0.545 OA
ENDBRANCH   1   7
BRANCH   4  10
ATOM     10  O   UNL     1       7.073   3.853 -18.387  1.00  0.00    -0.504 OA
ATOM     11  H   UNL     1       6.814   3.637 -17.436  1.00  0.00     0.293 HD
ENDBRANCH   4  10
BRANCH   6  12
ATOM     12  O   UNL     1       7.557   2.301 -20.818  1.00  0.00    -0.504 OA
ATOM     13  H   UNL     1       6.971   2.793 -21.478  1.00  0.00     0.293 HD
ENDBRANCH   6  12
TORSDOF 3
ENDMDL
MODEL 8
REMARK VINA RESULT:    -4.330     14.461     15.946
REMARK INTER + INTRA:          -4.876
REMARK INTER:                  -4.840
REMARK INTRA:                  -0.036
REMARK UNBOUND:                -0.040
REMARK SMILES O=C([O-])c1ccc(O)c(O)c1
REMARK SMILES IDX 4 1 11 2 5 3 9 4 6 5 7 6 2 7 1 8 3 9 10 10 8 12
REMARK H PARENT 10 11 8 13
REMARK Flexibility Score: inf
ROOT
ATOM      1  C   UNL     1       8.595  -5.951  -7.160  1.00  0.00     0.001 A 
ATOM      2  C   UNL     1       9.984  -6.040  -7.352  1.00  0.00     0.060 A 
ATOM      3  C   UNL     1       7.768  -5.726  -8.271  1.00  0.00     0.014 A 
ATOM      4  C   UNL     1      10.546  -5.909  -8.628  1.00  0.00     0.158 A 
ATOM      5  C   UNL     1       8.320  -5.594  -9.546  1.00  0.00     0.051 A 
ATOM      6  C   UNL     1       9.703  -5.683  -9.741  1.00  0.00     0.157 A 
ENDROOT
BRANCH   1   7
ATOM      7  C   UNL     1       8.008  -6.089  -5.808  1.00  0.00     0.072 C 
ATOM      8  O   UNL     1       7.544  -7.195  -5.421  1.00  0.00    -0.545 OA
ATOM      9  O   UNL     1       7.959  -4.999  -4.947  1.00  0.00    -0.545 OA
ENDBRANCH   1   7
BRANCH   4  10
ATOM     10  O   UNL     1      11.935  -6.010  -8.743  1.00  0.00    -0.504 OA
ATOM     11  H   UNL     1      12.455  -5.733  -9.562  1.00  0.00     0.293 HD
ENDBRANCH   4  10
BRANCH   6  12
ATOM     12  O   UNL     1      10.189  -5.543 -11.042  1.00  0.00    -0.504 OA
ATOM     13  H   UNL     1      10.980  -4.965 -11.290  1.00  0.00     0.293 HD
ENDBRANCH   6  12
TORSDOF 3
ENDMDL
MODEL 9
REMARK VINA RESULT:    -4.298      2.134      2.747
REMARK INTER + INTRA:          -4.840
REMARK INTER:                  -4.796
REMARK INTRA:                  -0.044
REMARK UNBOUND:                -0.040
REMARK SMILES O=C([O-])c1ccc(O)c(O)c1
REMARK SMILES IDX 4 1 11 2 5 3 9 4 6 5 7 6 2 7 1 8 3 9 10 10 8 12
REMARK H PARENT 10 11 8 13
REMARK Flexibility Score: inf
ROOT
ATOM      1  C   UNL     1      10.882   3.752 -18.179  1.00  0.00     0.001 A 
ATOM      2  C   UNL     1      11.185   3.396 -19.504  1.00  0.00     0.060 A 
ATOM      3  C   UNL     1       9.546   3.705 -17.750  1.00  0.00     0.014 A 
ATOM      4  C   UNL     1      10.177   2.997 -20.392  1.00  0.00     0.158 A 
ATOM      5  C   UNL     1       8.537   3.309 -18.629  1.00  0.00     0.051 A 
ATOM      6  C   UNL     1       8.835   2.952 -19.949  1.00  0.00     0.157 A 
ENDROOT
BRANCH   1   7
ATOM      7  C   UNL     1      11.951   4.174 -17.246  1.00  0.00     0.072 C 
ATOM      8  O   UNL     1      11.664   4.680 -16.129  1.00  0.00    -0.545 OA
ATOM      9  O   UNL     1      13.289   4.018 -17.592  1.00  0.00    -0.545 OA
ENDBRANCH   1   7
BRANCH   4  10
ATOM     10  O   UNL     1      10.553   2.656 -21.694  1.00  0.00    -0.504 OA
ATOM     11  H   UNL     1      11.511   2.575 -22.002  1.00  0.00     0.293 HD
ENDBRANCH   4  10
BRANCH   6  12
ATOM     12  O   UNL     1       7.778   2.565 -20.774  1.00  0.00    -0.504 OA
ATOM     13  H   UNL     1       7.451   1.613 -20.864  1.00  0.00     0.293 HD
ENDBRANCH   6  12
TORSDOF 3
ENDMDL
