MODEL 1
REMARK VINA RESULT:    -3.280      0.000      0.000
REMARK INTER + INTRA:          -4.081
REMARK INTER:                  -3.855
REMARK INTRA:                  -0.226
REMARK UNBOUND:                -0.226
REMARK SMILES COc1cc2ccc(=O)oc2c(OC)c1OC
REMARK SMILES IDX 3 1 15 2 12 3 11 4 5 5 4 6 6 7 7 8 8 9 9 10 10 11 2 12 1 13
REMARK SMILES IDX 16 14 17 15 13 16 14 17
REMARK H PARENT
REMARK Flexibility Score: inf
ROOT
ATOM      1  C   UNL     1      -3.494  -7.115   8.879  1.00  0.00     0.165 A 
ATOM      2  C   UNL     1      -2.592  -6.066   9.199  1.00  0.00     0.207 A 
ATOM      3  C   UNL     1      -1.206  -6.310   9.226  1.00  0.00     0.208 A 
ATOM      4  C   UNL     1      -0.711  -7.602   8.934  1.00  0.00     0.184 A 
ATOM      5  C   UNL     1      -1.613  -8.639   8.616  1.00  0.00     0.025 A 
ATOM      6  C   UNL     1      -2.987  -8.394   8.590  1.00  0.00     0.062 A 
ATOM      7  C   UNL     1      -1.103  -9.911   8.330  1.00  0.00     0.020 A 
ATOM      8  C   UNL     1       0.272 -10.125   8.363  1.00  0.00     0.094 A 
ATOM      9  C   UNL     1       1.109  -9.055   8.685  1.00  0.00     0.336 A 
ATOM     10  O   UNL     1       2.356  -9.222   8.722  1.00  0.00    -0.246 OA
ATOM     11  O   UNL     1       0.597  -7.858   8.952  1.00  0.00    -0.419 OA
ENDROOT
BRANCH   1  12
ATOM     12  O   UNL     1      -4.877  -6.869   8.853  1.00  0.00    -0.493 OA
ATOM     13  C   UNL     1      -5.869  -7.698   9.450  1.00  0.00     0.278 C 
ENDBRANCH   1  12
BRANCH   2  14
ATOM     14  O   UNL     1      -3.004  -4.754   9.502  1.00  0.00    -0.490 OA
ATOM     15  C   UNL     1      -3.453  -3.767   8.580  1.00  0.00     0.278 C 
ENDBRANCH   2  14
BRANCH   3  16
ATOM     16  O   UNL     1      -0.377  -5.218   9.552  1.00  0.00    -0.490 OA
ATOM     17  C   UNL     1       0.421  -4.461   8.649  1.00  0.00     0.278 C 
ENDBRANCH   3  16
TORSDOF 3
ENDMDL
MODEL 2
REMARK VINA RESULT:    -3.236     11.941     15.558
REMARK INTER + INTRA:          -4.029
REMARK INTER:                  -3.792
REMARK INTRA:                  -0.237
REMARK UNBOUND:                -0.226
REMARK SMILES COc1cc2ccc(=O)oc2c(OC)c1OC
REMARK SMILES IDX 3 1 15 2 12 3 11 4 5 5 4 6 6 7 7 8 8 9 9 10 10 11 2 12 1 13
REMARK SMILES IDX 16 14 17 15 13 16 14 17
REMARK H PARENT
REMARK Flexibility Score: inf
ROOT
ATOM      1  C   UNL     1       3.261   6.325   9.344  1.00  0.00     0.165 A 
ATOM      2  C   UNL     1       2.065   5.607   9.609  1.00  0.00     0.207 A 
ATOM      3  C   UNL     1       0.814   6.210   9.383  1.00  0.00     0.208 A 
ATOM      4  C   UNL     1       0.747   7.534   8.890  1.00  0.00     0.184 A 
ATOM      5  C   UNL     1       1.940   8.242   8.628  1.00  0.00     0.025 A 
ATOM      6  C   UNL     1       3.179   7.640   8.854  1.00  0.00     0.062 A 
ATOM      7  C   UNL     1       1.854   9.551   8.142  1.00  0.00     0.020 A 
ATOM      8  C   UNL     1       0.603  10.123   7.926  1.00  0.00     0.094 A 
ATOM      9  C   UNL     1      -0.537   9.368   8.205  1.00  0.00     0.336 A 
ATOM     10  O   UNL     1      -1.679   9.863   8.019  1.00  0.00    -0.246 OA
ATOM     11  O   UNL     1      -0.424   8.127   8.667  1.00  0.00    -0.419 OA
ENDROOT
BRANCH   1  12
ATOM     12  O   UNL     1       4.508   5.720   9.571  1.00  0.00    -0.493 OA
ATOM     13  C   UNL     1       5.694   6.407   9.959  1.00  0.00     0.278 C 
ENDBRANCH   1  12
BRANCH   2  14
ATOM     14  O   UNL     1       2.045   4.287  10.100  1.00  0.00    -0.490 OA
ATOM     15  C   UNL     1       2.213   3.093   9.344  1.00  0.00     0.278 C 
ENDBRANCH   2  14
BRANCH   3  16
ATOM     16  O   UNL     1      -0.326   5.433   9.669  1.00  0.00    -0.490 OA
ATOM     17  C   UNL     1      -1.135   4.736   8.728  1.00  0.00     0.278 C 
ENDBRANCH   3  16
TORSDOF 3
ENDMDL
MODEL 3
REMARK VINA RESULT:    -3.222      9.275     10.404
REMARK INTER + INTRA:          -4.013
REMARK INTER:                  -3.777
REMARK INTRA:                  -0.237
REMARK UNBOUND:                -0.226
REMARK SMILES COc1cc2ccc(=O)oc2c(OC)c1OC
REMARK SMILES IDX 3 1 15 2 12 3 11 4 5 5 4 6 6 7 7 8 8 9 9 10 10 11 2 12 1 13
REMARK SMILES IDX 16 14 17 15 13 16 14 17
REMARK H PARENT
REMARK Flexibility Score: inf
ROOT
ATOM      1  C   UNL     1      -9.526  -2.947   5.910  1.00  0.00     0.165 A 
ATOM      2  C   UNL     1      -9.606  -1.656   5.324  1.00  0.00     0.207 A 
ATOM      3  C   UNL     1      -9.233  -0.519   6.064  1.00  0.00     0.208 A 
ATOM      4  C   UNL     1      -8.778  -0.662   7.396  1.00  0.00     0.184 A 
ATOM      5  C   UNL     1      -8.700  -1.948   7.972  1.00  0.00     0.025 A 
ATOM      6  C   UNL     1      -9.071  -3.073   7.234  1.00  0.00     0.062 A 
ATOM      7  C   UNL     1      -8.247  -2.069   9.291  1.00  0.00     0.020 A 
ATOM      8  C   UNL     1      -7.883  -0.928  10.000  1.00  0.00     0.094 A 
ATOM      9  C   UNL     1      -7.984   0.314   9.371  1.00  0.00     0.336 A 
ATOM     10  O   UNL     1      -7.662   1.360   9.991  1.00  0.00    -0.246 OA
ATOM     11  O   UNL     1      -8.418   0.398   8.118  1.00  0.00    -0.419 OA
ENDROOT
BRANCH   1  12
ATOM     12  O   UNL     1      -9.899  -4.079   5.168  1.00  0.00    -0.493 OA
ATOM     13  C   UNL     1     -10.124  -5.377   5.710  1.00  0.00     0.278 C 
ENDBRANCH   1  12
BRANCH   2  14
ATOM     14  O   UNL     1     -10.049  -1.428   4.006  1.00  0.00    -0.490 OA
ATOM     15  C   UNL     1      -9.299  -1.612   2.811  1.00  0.00     0.278 C 
ENDBRANCH   2  14
BRANCH   3  16
ATOM     16  O   UNL     1      -9.341   0.726   5.413  1.00  0.00    -0.490 OA
ATOM     17  C   UNL     1      -8.283   1.458   4.804  1.00  0.00     0.278 C 
ENDBRANCH   3  16
TORSDOF 3
ENDMDL
MODEL 4
REMARK VINA RESULT:    -3.206     12.909     14.479
REMARK INTER + INTRA:          -3.995
REMARK INTER:                  -3.725
REMARK INTRA:                  -0.270
REMARK UNBOUND:                -0.226
REMARK SMILES COc1cc2ccc(=O)oc2c(OC)c1OC
REMARK SMILES IDX 3 1 15 2 12 3 11 4 5 5 4 6 6 7 7 8 8 9 9 10 10 11 2 12 1 13
REMARK SMILES IDX 16 14 17 15 13 16 14 17
REMARK H PARENT
REMARK Flexibility Score: inf
ROOT
ATOM      1  C   UNL     1       8.968   3.003   6.092  1.00  0.00     0.165 A 
ATOM      2  C   UNL     1       9.445   1.875   5.373  1.00  0.00     0.207 A 
ATOM      3  C   UNL     1       9.650   0.650   6.033  1.00  0.00     0.208 A 
ATOM      4  C   UNL     1       9.381   0.541   7.418  1.00  0.00     0.184 A 
ATOM      5  C   UNL     1       8.906   1.665   8.127  1.00  0.00     0.025 A 
ATOM      6  C   UNL     1       8.703   2.879   7.468  1.00  0.00     0.062 A 
ATOM      7  C   UNL     1       8.645   1.537   9.496  1.00  0.00     0.020 A 
ATOM      8  C   UNL     1       8.856   0.313  10.125  1.00  0.00     0.094 A 
ATOM      9  C   UNL     1       9.327  -0.759   9.365  1.00  0.00     0.336 A 
ATOM     10  O   UNL     1       9.526  -1.876   9.910  1.00  0.00    -0.246 OA
ATOM     11  O   UNL     1       9.566  -0.608   8.066  1.00  0.00    -0.419 OA
ENDROOT
BRANCH   1  12
ATOM     12  O   UNL     1       8.764   4.224   5.430  1.00  0.00    -0.493 OA
ATOM     13  C   UNL     1       9.770   5.202   5.185  1.00  0.00     0.278 C 
ENDBRANCH   1  12
BRANCH   2  14
ATOM     14  O   UNL     1       9.737   1.901   3.995  1.00  0.00    -0.490 OA
ATOM     15  C   UNL     1       8.803   1.828   2.924  1.00  0.00     0.278 C 
ENDBRANCH   2  14
BRANCH   3  16
ATOM     16  O   UNL     1      10.125  -0.421   5.251  1.00  0.00    -0.490 OA
ATOM     17  C   UNL     1       9.351  -1.490   4.718  1.00  0.00     0.278 C 
ENDBRANCH   3  16
TORSDOF 3
ENDMDL
MODEL 5
REMARK VINA RESULT:    -3.205      1.840      2.942
REMARK INTER + INTRA:          -3.994
REMARK INTER:                  -3.711
REMARK INTRA:                  -0.282
REMARK UNBOUND:                -0.226
REMARK SMILES COc1cc2ccc(=O)oc2c(OC)c1OC
REMARK SMILES IDX 3 1 15 2 12 3 11 4 5 5 4 6 6 7 7 8 8 9 9 10 10 11 2 12 1 13
REMARK SMILES IDX 16 14 17 15 13 16 14 17
REMARK H PARENT
REMARK Flexibility Score: inf
ROOT
ATOM      1  C   UNL     1      -4.699  -7.849   8.771  1.00  0.00     0.165 A 
ATOM      2  C   UNL     1      -4.874  -6.541   9.297  1.00  0.00     0.207 A 
ATOM      3  C   UNL     1      -3.754  -5.748   9.607  1.00  0.00     0.208 A 
ATOM      4  C   UNL     1      -2.450  -6.254   9.395  1.00  0.00     0.184 A 
ATOM      5  C   UNL     1      -2.283  -7.554   8.871  1.00  0.00     0.025 A 
ATOM      6  C   UNL     1      -3.397  -8.338   8.565  1.00  0.00     0.062 A 
ATOM      7  C   UNL     1      -0.986  -8.037   8.668  1.00  0.00     0.020 A 
ATOM      8  C   UNL     1       0.105  -7.231   8.983  1.00  0.00     0.094 A 
ATOM      9  C   UNL     1      -0.130  -5.955   9.498  1.00  0.00     0.336 A 
ATOM     10  O   UNL     1       0.839  -5.207   9.791  1.00  0.00    -0.246 OA
ATOM     11  O   UNL     1      -1.374  -5.523   9.680  1.00  0.00    -0.419 OA
ENDROOT
BRANCH   1  12
ATOM     12  O   UNL     1      -5.819  -8.638   8.462  1.00  0.00    -0.493 OA
ATOM     13  C   UNL     1      -6.314  -8.881   7.149  1.00  0.00     0.278 C 
ENDBRANCH   1  12
BRANCH   2  14
ATOM     14  O   UNL     1      -6.137  -5.965   9.538  1.00  0.00    -0.490 OA
ATOM     15  C   UNL     1      -6.975  -5.319   8.586  1.00  0.00     0.278 C 
ENDBRANCH   2  14
BRANCH   3  16
ATOM     16  O   UNL     1      -4.011  -4.463  10.125  1.00  0.00    -0.490 OA
ATOM     17  C   UNL     1      -3.913  -3.231   9.420  1.00  0.00     0.278 C 
ENDBRANCH   3  16
TORSDOF 3
ENDMDL
MODEL 6
REMARK VINA RESULT:    -3.179      8.475     10.933
REMARK INTER + INTRA:          -3.963
REMARK INTER:                  -3.691
REMARK INTRA:                  -0.272
REMARK UNBOUND:                -0.226
REMARK SMILES COc1cc2ccc(=O)oc2c(OC)c1OC
REMARK SMILES IDX 3 1 15 2 12 3 11 4 5 5 4 6 6 7 7 8 8 9 9 10 10 11 2 12 1 13
REMARK SMILES IDX 16 14 17 15 13 16 14 17
REMARK H PARENT
REMARK Flexibility Score: inf
ROOT
ATOM      1  C   UNL     1      -9.717  -0.344   4.357  1.00  0.00     0.165 A 
ATOM      2  C   UNL     1      -9.743  -1.754   4.519  1.00  0.00     0.207 A 
ATOM      3  C   UNL     1      -9.376  -2.332   5.749  1.00  0.00     0.208 A 
ATOM      4  C   UNL     1      -8.979  -1.505   6.826  1.00  0.00     0.184 A 
ATOM      5  C   UNL     1      -8.956  -0.104   6.659  1.00  0.00     0.025 A 
ATOM      6  C   UNL     1      -9.321   0.465   5.437  1.00  0.00     0.062 A 
ATOM      7  C   UNL     1      -8.560   0.697   7.736  1.00  0.00     0.020 A 
ATOM      8  C   UNL     1      -8.203   0.100   8.942  1.00  0.00     0.094 A 
ATOM      9  C   UNL     1      -8.248  -1.292   9.040  1.00  0.00     0.336 A 
ATOM     10  O   UNL     1      -7.930  -1.856  10.119  1.00  0.00    -0.246 OA
ATOM     11  O   UNL     1      -8.628  -2.027   8.000  1.00  0.00    -0.419 OA
ENDROOT
BRANCH   1  12
ATOM     12  O   UNL     1     -10.084   0.229   3.128  1.00  0.00    -0.493 OA
ATOM     13  C   UNL     1      -9.221   0.991   2.289  1.00  0.00     0.278 C 
ENDBRANCH   1  12
BRANCH   2  14
ATOM     14  O   UNL     1     -10.125  -2.645   3.497  1.00  0.00    -0.490 OA
ATOM     15  C   UNL     1      -9.339  -3.049   2.381  1.00  0.00     0.278 C 
ENDBRANCH   2  14
BRANCH   3  16
ATOM     16  O   UNL     1      -9.428  -3.737   5.830  1.00  0.00    -0.490 OA
ATOM     17  C   UNL     1      -8.332  -4.635   5.700  1.00  0.00     0.278 C 
ENDBRANCH   3  16
TORSDOF 3
ENDMDL
MODEL 7
REMARK VINA RESULT:    -3.163      5.259      7.552
REMARK INTER + INTRA:          -3.944
REMARK INTER:                  -3.714
REMARK INTRA:                  -0.229
REMARK UNBOUND:                -0.226
REMARK SMILES COc1cc2ccc(=O)oc2c(OC)c1OC
REMARK SMILES IDX 3 1 15 2 12 3 11 4 5 5 4 6 6 7 7 8 8 9 9 10 10 11 2 12 1 13
REMARK SMILES IDX 16 14 17 15 13 16 14 17
REMARK H PARENT
REMARK Flexibility Score: inf
ROOT
ATOM      1  C   UNL     1      -9.516  -4.380   7.526  1.00  0.00     0.165 A 
ATOM      2  C   UNL     1      -8.285  -4.318   8.230  1.00  0.00     0.207 A 
ATOM      3  C   UNL     1      -7.681  -5.498   8.704  1.00  0.00     0.208 A 
ATOM      4  C   UNL     1      -8.301  -6.748   8.477  1.00  0.00     0.184 A 
ATOM      5  C   UNL     1      -9.524  -6.803   7.775  1.00  0.00     0.025 A 
ATOM      6  C   UNL     1     -10.121  -5.631   7.307  1.00  0.00     0.062 A 
ATOM      7  C   UNL     1     -10.123  -8.050   7.561  1.00  0.00     0.020 A 
ATOM      8  C   UNL     1      -9.504  -9.201   8.039  1.00  0.00     0.094 A 
ATOM      9  C   UNL     1      -8.295  -9.077   8.725  1.00  0.00     0.336 A 
ATOM     10  O   UNL     1      -7.715 -10.102   9.168  1.00  0.00    -0.246 OA
ATOM     11  O   UNL     1      -7.750  -7.880   8.914  1.00  0.00    -0.419 OA
ENDROOT
BRANCH   1  12
ATOM     12  O   UNL     1     -10.116  -3.201   7.055  1.00  0.00    -0.493 OA
ATOM     13  C   UNL     1      -9.957  -2.667   5.744  1.00  0.00     0.278 C 
ENDBRANCH   1  12
BRANCH   2  14
ATOM     14  O   UNL     1      -7.604  -3.114   8.498  1.00  0.00    -0.490 OA
ATOM     15  C   UNL     1      -7.838  -2.226   9.584  1.00  0.00     0.278 C 
ENDBRANCH   2  14
BRANCH   3  16
ATOM     16  O   UNL     1      -6.461  -5.353   9.393  1.00  0.00    -0.490 OA
ATOM     17  C   UNL     1      -5.161  -5.629   8.883  1.00  0.00     0.278 C 
ENDBRANCH   3  16
TORSDOF 3
ENDMDL
MODEL 8
REMARK VINA RESULT:    -2.463     18.008     20.357
REMARK INTER + INTRA:          -3.121
REMARK INTER:                  -2.833
REMARK INTRA:                  -0.288
REMARK UNBOUND:                -0.226
REMARK SMILES COc1cc2ccc(=O)oc2c(OC)c1OC
REMARK SMILES IDX 3 1 15 2 12 3 11 4 5 5 4 6 6 7 7 8 8 9 9 10 10 11 2 12 1 13
REMARK SMILES IDX 16 14 17 15 13 16 14 17
REMARK H PARENT
REMARK Flexibility Score: inf
ROOT
ATOM      1  C   UNL     1     -10.027   5.306  -5.348  1.00  0.00     0.165 A 
ATOM      2  C   UNL     1      -9.837   4.897  -6.695  1.00  0.00     0.207 A 
ATOM      3  C   UNL     1      -9.744   3.529  -7.012  1.00  0.00     0.208 A 
ATOM      4  C   UNL     1      -9.841   2.559  -5.987  1.00  0.00     0.184 A 
ATOM      5  C   UNL     1     -10.031   2.972  -4.651  1.00  0.00     0.025 A 
ATOM      6  C   UNL     1     -10.122   4.330  -4.340  1.00  0.00     0.062 A 
ATOM      7  C   UNL     1     -10.125   1.998  -3.651  1.00  0.00     0.020 A 
ATOM      8  C   UNL     1     -10.031   0.651  -3.993  1.00  0.00     0.094 A 
ATOM      9  C   UNL     1      -9.843   0.311  -5.333  1.00  0.00     0.336 A 
ATOM     10  O   UNL     1      -9.755  -0.899  -5.668  1.00  0.00    -0.246 OA
ATOM     11  O   UNL     1      -9.758   1.258  -6.261  1.00  0.00    -0.419 OA
ENDROOT
BRANCH   1  12
ATOM     12  O   UNL     1     -10.119   6.672  -5.035  1.00  0.00    -0.493 OA
ATOM     13  C   UNL     1      -9.055   7.469  -4.523  1.00  0.00     0.278 C 
ENDBRANCH   1  12
BRANCH   2  14
ATOM     14  O   UNL     1      -9.729   5.799  -7.772  1.00  0.00    -0.490 OA
ATOM     15  C   UNL     1      -8.579   6.551  -8.142  1.00  0.00     0.278 C 
ENDBRANCH   2  14
BRANCH   3  16
ATOM     16  O   UNL     1      -9.555   3.204  -8.370  1.00  0.00    -0.490 OA
ATOM     17  C   UNL     1      -8.320   2.890  -9.002  1.00  0.00     0.278 C 
ENDBRANCH   3  16
TORSDOF 3
ENDMDL
