MODEL 1
REMARK VINA RESULT:    -5.309      0.000      0.000
REMARK INTER + INTRA:          -6.204
REMARK INTER:                  -6.085
REMARK INTRA:                  -0.120
REMARK UNBOUND:                -0.120
REMARK SMILES COc1ccc(C(C)=O)cc1O
REMARK SMILES IDX 6 1 10 2 11 3 3 4 4 5 5 6 7 7 8 8 9 9 12 10 2 12 1 13
REMARK H PARENT 12 11
REMARK Flexibility Score: inf
ROOT
ATOM      1  C   UNL     1       1.286  28.772  56.154  1.00  0.00     0.021 A 
ATOM      2  C   UNL     1       2.124  28.502  55.055  1.00  0.00     0.062 A 
ATOM      3  C   UNL     1       3.436  28.054  55.245  1.00  0.00     0.158 A 
ATOM      4  C   UNL     1       3.939  27.868  56.545  1.00  0.00     0.160 A 
ATOM      5  C   UNL     1       3.105  28.137  57.646  1.00  0.00     0.051 A 
ATOM      6  C   UNL     1       1.796  28.584  57.451  1.00  0.00     0.016 A 
ENDROOT
BRANCH   1   7
ATOM      7  C   UNL     1      -0.111  29.248  55.965  1.00  0.00     0.159 C 
ATOM      8  C   UNL     1      -0.979  29.641  57.124  1.00  0.00     0.093 C 
ATOM      9  O   UNL     1      -0.594  29.328  54.803  1.00  0.00    -0.295 OA
ENDBRANCH   1   7
BRANCH   3  10
ATOM     10  O   UNL     1       4.228  27.799  54.126  1.00  0.00    -0.504 OA
ATOM     11  H   UNL     1       4.862  27.012  54.080  1.00  0.00     0.293 HD
ENDBRANCH   3  10
BRANCH   4  12
ATOM     12  O   UNL     1       5.259  27.419  56.705  1.00  0.00    -0.493 OA
ATOM     13  C   UNL     1       5.840  27.047  57.951  1.00  0.00     0.278 C 
ENDBRANCH   4  12
TORSDOF 3
ENDMDL
MODEL 2
REMARK VINA RESULT:    -4.857      1.365      4.578
REMARK INTER + INTRA:          -5.686
REMARK INTER:                  -5.575
REMARK INTRA:                  -0.111
REMARK UNBOUND:                -0.120
REMARK SMILES COc1ccc(C(C)=O)cc1O
REMARK SMILES IDX 6 1 10 2 11 3 3 4 4 5 5 6 7 7 8 8 9 9 12 10 2 12 1 13
REMARK H PARENT 12 11
REMARK Flexibility Score: inf
ROOT
ATOM      1  C   UNL     1       3.280  27.969  57.145  1.00  0.00     0.021 A 
ATOM      2  C   UNL     1       3.503  28.303  55.796  1.00  0.00     0.062 A 
ATOM      3  C   UNL     1       2.511  28.941  55.041  1.00  0.00     0.158 A 
ATOM      4  C   UNL     1       1.272  29.258  55.625  1.00  0.00     0.160 A 
ATOM      5  C   UNL     1       1.046  28.926  56.973  1.00  0.00     0.051 A 
ATOM      6  C   UNL     1       2.038  28.289  57.722  1.00  0.00     0.016 A 
ENDROOT
BRANCH   1   7
ATOM      7  C   UNL     1       4.326  27.290  57.958  1.00  0.00     0.159 C 
ATOM      8  C   UNL     1       5.783  27.381  57.613  1.00  0.00     0.093 C 
ATOM      9  O   UNL     1       3.993  26.615  58.970  1.00  0.00    -0.295 OA
ENDBRANCH   1   7
BRANCH   3  10
ATOM     10  O   UNL     1       2.779  29.252  53.708  1.00  0.00    -0.504 OA
ATOM     11  H   UNL     1       2.099  29.106  52.973  1.00  0.00     0.293 HD
ENDBRANCH   3  10
BRANCH   4  12
ATOM     12  O   UNL     1       0.298  29.898  54.843  1.00  0.00    -0.493 OA
ATOM     13  C   UNL     1      -0.943  29.312  54.461  1.00  0.00     0.278 C 
ENDBRANCH   4  12
TORSDOF 3
ENDMDL
MODEL 3
REMARK VINA RESULT:    -4.767      1.770      4.981
REMARK INTER + INTRA:          -5.583
REMARK INTER:                  -5.461
REMARK INTRA:                  -0.123
REMARK UNBOUND:                -0.120
REMARK SMILES COc1ccc(C(C)=O)cc1O
REMARK SMILES IDX 6 1 10 2 11 3 3 4 4 5 5 6 7 7 8 8 9 9 12 10 2 12 1 13
REMARK H PARENT 12 11
REMARK Flexibility Score: inf
ROOT
ATOM      1  C   UNL     1       3.623  27.855  57.233  1.00  0.00     0.021 A 
ATOM      2  C   UNL     1       2.339  28.101  57.758  1.00  0.00     0.062 A 
ATOM      3  C   UNL     1       1.286  28.496  56.924  1.00  0.00     0.158 A 
ATOM      4  C   UNL     1       1.498  28.654  55.543  1.00  0.00     0.160 A 
ATOM      5  C   UNL     1       2.779  28.409  55.015  1.00  0.00     0.051 A 
ATOM      6  C   UNL     1       3.827  28.015  55.851  1.00  0.00     0.016 A 
ENDROOT
BRANCH   1   7
ATOM      7  C   UNL     1       4.750  27.434  58.109  1.00  0.00     0.159 C 
ATOM      8  C   UNL     1       6.125  28.018  57.967  1.00  0.00     0.093 C 
ATOM      9  O   UNL     1       4.560  26.563  59.000  1.00  0.00    -0.295 OA
ENDBRANCH   1   7
BRANCH   3  10
ATOM     10  O   UNL     1       0.033  28.728  57.490  1.00  0.00    -0.504 OA
ATOM     11  H   UNL     1      -0.185  29.580  57.991  1.00  0.00     0.293 HD
ENDBRANCH   3  10
BRANCH   4  12
ATOM     12  O   UNL     1       0.423  29.051  54.733  1.00  0.00    -0.493 OA
ATOM     13  C   UNL     1       0.114  30.403  54.408  1.00  0.00     0.278 C 
ENDBRANCH   4  12
TORSDOF 3
ENDMDL
MODEL 4
REMARK VINA RESULT:    -4.543      1.234      4.671
REMARK INTER + INTRA:          -5.326
REMARK INTER:                  -5.202
REMARK INTRA:                  -0.124
REMARK UNBOUND:                -0.120
REMARK SMILES COc1ccc(C(C)=O)cc1O
REMARK SMILES IDX 6 1 10 2 11 3 3 4 4 5 5 6 7 7 8 8 9 9 12 10 2 12 1 13
REMARK H PARENT 12 11
REMARK Flexibility Score: inf
ROOT
ATOM      1  C   UNL     1       2.629  28.530  55.858  1.00  0.00     0.021 A 
ATOM      2  C   UNL     1       1.636  28.847  54.911  1.00  0.00     0.062 A 
ATOM      3  C   UNL     1       0.351  29.226  55.317  1.00  0.00     0.158 A 
ATOM      4  C   UNL     1       0.033  29.294  56.685  1.00  0.00     0.160 A 
ATOM      5  C   UNL     1       1.023  28.978  57.634  1.00  0.00     0.051 A 
ATOM      6  C   UNL     1       2.304  28.600  57.224  1.00  0.00     0.016 A 
ENDROOT
BRANCH   1   7
ATOM      7  C   UNL     1       3.998  28.126  55.438  1.00  0.00     0.159 C 
ATOM      8  C   UNL     1       5.069  27.796  56.436  1.00  0.00     0.093 C 
ATOM      9  O   UNL     1       4.282  28.054  54.211  1.00  0.00    -0.295 OA
ENDBRANCH   1   7
BRANCH   3  10
ATOM     10  O   UNL     1      -0.599  29.532  54.343  1.00  0.00    -0.504 OA
ATOM     11  H   UNL     1      -0.357  30.011  53.485  1.00  0.00     0.293 HD
ENDBRANCH   3  10
BRANCH   4  12
ATOM     12  O   UNL     1      -1.263  29.677  57.063  1.00  0.00    -0.493 OA
ATOM     13  C   UNL     1      -1.563  30.558  58.141  1.00  0.00     0.278 C 
ENDBRANCH   4  12
TORSDOF 3
ENDMDL
MODEL 5
REMARK VINA RESULT:    -4.282      8.568      9.813
REMARK INTER + INTRA:          -5.027
REMARK INTER:                  -4.917
REMARK INTRA:                  -0.110
REMARK UNBOUND:                -0.120
REMARK SMILES COc1ccc(C(C)=O)cc1O
REMARK SMILES IDX 6 1 10 2 11 3 3 4 4 5 5 6 7 7 8 8 9 9 12 10 2 12 1 13
REMARK H PARENT 12 11
REMARK Flexibility Score: inf
ROOT
ATOM      1  C   UNL     1      -7.140  29.137  57.148  1.00  0.00     0.021 A 
ATOM      2  C   UNL     1      -7.612  30.426  57.464  1.00  0.00     0.062 A 
ATOM      3  C   UNL     1      -6.911  31.249  58.352  1.00  0.00     0.158 A 
ATOM      4  C   UNL     1      -5.719  30.797  58.945  1.00  0.00     0.160 A 
ATOM      5  C   UNL     1      -5.244  29.511  58.632  1.00  0.00     0.051 A 
ATOM      6  C   UNL     1      -5.947  28.692  57.744  1.00  0.00     0.016 A 
ENDROOT
BRANCH   1   7
ATOM      7  C   UNL     1      -7.877  28.252  56.205  1.00  0.00     0.159 C 
ATOM      8  C   UNL     1      -7.182  27.531  55.088  1.00  0.00     0.093 C 
ATOM      9  O   UNL     1      -9.121  28.093  56.337  1.00  0.00    -0.295 OA
ENDBRANCH   1   7
BRANCH   3  10
ATOM     10  O   UNL     1      -7.418  32.518  58.634  1.00  0.00    -0.504 OA
ATOM     11  H   UNL     1      -8.004  32.699  59.439  1.00  0.00     0.293 HD
ENDBRANCH   3  10
BRANCH   4  12
ATOM     12  O   UNL     1      -5.038  31.646  59.831  1.00  0.00    -0.493 OA
ATOM     13  C   UNL     1      -3.647  31.557  60.125  1.00  0.00     0.278 C 
ENDBRANCH   4  12
TORSDOF 3
ENDMDL
MODEL 6
REMARK VINA RESULT:    -4.272      1.919      4.483
REMARK INTER + INTRA:          -5.016
REMARK INTER:                  -4.893
REMARK INTRA:                  -0.123
REMARK UNBOUND:                -0.120
REMARK SMILES COc1ccc(C(C)=O)cc1O
REMARK SMILES IDX 6 1 10 2 11 3 3 4 4 5 5 6 7 7 8 8 9 9 12 10 2 12 1 13
REMARK H PARENT 12 11
REMARK Flexibility Score: inf
ROOT
ATOM      1  C   UNL     1       3.682  27.638  57.291  1.00  0.00     0.021 A 
ATOM      2  C   UNL     1       2.429  28.249  57.092  1.00  0.00     0.062 A 
ATOM      3  C   UNL     1       2.140  28.921  55.898  1.00  0.00     0.158 A 
ATOM      4  C   UNL     1       3.103  28.994  54.876  1.00  0.00     0.160 A 
ATOM      5  C   UNL     1       4.356  28.385  55.071  1.00  0.00     0.051 A 
ATOM      6  C   UNL     1       4.641  27.716  56.265  1.00  0.00     0.016 A 
ENDROOT
BRANCH   1   7
ATOM      7  C   UNL     1       4.002  26.921  58.555  1.00  0.00     0.159 C 
ATOM      8  C   UNL     1       5.416  26.652  58.979  1.00  0.00     0.093 C 
ATOM      9  O   UNL     1       3.068  26.523  59.303  1.00  0.00    -0.295 OA
ENDBRANCH   1   7
BRANCH   3  10
ATOM     10  O   UNL     1       0.885  29.510  55.746  1.00  0.00    -0.504 OA
ATOM     11  H   UNL     1       0.685  30.447  56.074  1.00  0.00     0.293 HD
ENDBRANCH   3  10
BRANCH   4  12
ATOM     12  O   UNL     1       2.784  29.674  53.690  1.00  0.00    -0.493 OA
ATOM     13  C   UNL     1       3.656  30.577  53.018  1.00  0.00     0.278 C 
ENDBRANCH   4  12
TORSDOF 3
ENDMDL
MODEL 7
REMARK VINA RESULT:    -4.233      1.656      2.627
REMARK INTER + INTRA:          -4.971
REMARK INTER:                  -4.847
REMARK INTRA:                  -0.124
REMARK UNBOUND:                -0.120
REMARK SMILES COc1ccc(C(C)=O)cc1O
REMARK SMILES IDX 6 1 10 2 11 3 3 4 4 5 5 6 7 7 8 8 9 9 12 10 2 12 1 13
REMARK H PARENT 12 11
REMARK Flexibility Score: inf
ROOT
ATOM      1  C   UNL     1       1.478  28.661  56.526  1.00  0.00     0.021 A 
ATOM      2  C   UNL     1       2.675  28.532  57.257  1.00  0.00     0.062 A 
ATOM      3  C   UNL     1       3.918  28.597  56.615  1.00  0.00     0.158 A 
ATOM      4  C   UNL     1       3.987  28.792  55.225  1.00  0.00     0.160 A 
ATOM      5  C   UNL     1       2.794  28.922  54.492  1.00  0.00     0.051 A 
ATOM      6  C   UNL     1       1.556  28.856  55.136  1.00  0.00     0.016 A 
ENDROOT
BRANCH   1   7
ATOM      7  C   UNL     1       0.151  28.595  57.196  1.00  0.00     0.159 C 
ATOM      8  C   UNL     1      -0.810  29.746  57.169  1.00  0.00     0.093 C 
ATOM      9  O   UNL     1      -0.190  27.546  57.807  1.00  0.00    -0.295 OA
ENDBRANCH   1   7
BRANCH   3  10
ATOM     10  O   UNL     1       5.076  28.464  57.381  1.00  0.00    -0.504 OA
ATOM     11  H   UNL     1       5.050  28.214  58.362  1.00  0.00     0.293 HD
ENDBRANCH   3  10
BRANCH   4  12
ATOM     12  O   UNL     1       5.248  28.853  54.610  1.00  0.00    -0.493 OA
ATOM     13  C   UNL     1       5.849  30.047  54.118  1.00  0.00     0.278 C 
ENDBRANCH   4  12
TORSDOF 3
ENDMDL
MODEL 8
REMARK VINA RESULT:    -4.158      2.125      3.786
REMARK INTER + INTRA:          -4.885
REMARK INTER:                  -4.779
REMARK INTRA:                  -0.106
REMARK UNBOUND:                -0.120
REMARK SMILES COc1ccc(C(C)=O)cc1O
REMARK SMILES IDX 6 1 10 2 11 3 3 4 4 5 5 6 7 7 8 8 9 9 12 10 2 12 1 13
REMARK H PARENT 12 11
REMARK Flexibility Score: inf
ROOT
ATOM      1  C   UNL     1       3.672  28.935  54.332  1.00  0.00     0.021 A 
ATOM      2  C   UNL     1       2.348  28.820  54.798  1.00  0.00     0.062 A 
ATOM      3  C   UNL     1       2.080  28.379  56.099  1.00  0.00     0.158 A 
ATOM      4  C   UNL     1       3.137  28.041  56.963  1.00  0.00     0.160 A 
ATOM      5  C   UNL     1       4.461  28.154  56.501  1.00  0.00     0.051 A 
ATOM      6  C   UNL     1       4.724  28.596  55.202  1.00  0.00     0.016 A 
ENDROOT
BRANCH   1   7
ATOM      7  C   UNL     1       3.970  29.404  52.951  1.00  0.00     0.159 C 
ATOM      8  C   UNL     1       4.654  28.526  51.946  1.00  0.00     0.093 C 
ATOM      9  O   UNL     1       3.643  30.570  52.601  1.00  0.00    -0.295 OA
ENDBRANCH   1   7
BRANCH   3  10
ATOM     10  O   UNL     1       0.753  28.282  56.515  1.00  0.00    -0.504 OA
ATOM     11  H   UNL     1       0.016  28.843  56.107  1.00  0.00     0.293 HD
ENDBRANCH   3  10
BRANCH   4  12
ATOM     12  O   UNL     1       2.838  27.601  58.261  1.00  0.00    -0.493 OA
ATOM     13  C   UNL     1       3.608  26.649  58.988  1.00  0.00     0.278 C 
ENDBRANCH   4  12
TORSDOF 3
ENDMDL
MODEL 9
REMARK VINA RESULT:    -3.460      0.952      2.002
REMARK INTER + INTRA:          -4.085
REMARK INTER:                  -4.035
REMARK INTRA:                  -0.050
REMARK UNBOUND:                -0.120
REMARK SMILES COc1ccc(C(C)=O)cc1O
REMARK SMILES IDX 6 1 10 2 11 3 3 4 4 5 5 6 7 7 8 8 9 9 12 10 2 12 1 13
REMARK H PARENT 12 11
REMARK Flexibility Score: inf
ROOT
ATOM      1  C   UNL     1       1.187  28.870  56.212  1.00  0.00     0.021 A 
ATOM      2  C   UNL     1       1.575  28.299  57.439  1.00  0.00     0.062 A 
ATOM      3  C   UNL     1       2.855  27.756  57.604  1.00  0.00     0.158 A 
ATOM      4  C   UNL     1       3.775  27.774  56.541  1.00  0.00     0.160 A 
ATOM      5  C   UNL     1       3.390  28.345  55.314  1.00  0.00     0.051 A 
ATOM      6  C   UNL     1       2.112  28.885  55.153  1.00  0.00     0.016 A 
ENDROOT
BRANCH   1   7
ATOM      7  C   UNL     1      -0.171  29.451  56.023  1.00  0.00     0.159 C 
ATOM      8  C   UNL     1      -1.029  29.853  57.185  1.00  0.00     0.093 C 
ATOM      9  O   UNL     1      -0.625  29.615  54.858  1.00  0.00    -0.295 OA
ENDBRANCH   1   7
BRANCH   3  10
ATOM     10  O   UNL     1       3.195  27.201  58.838  1.00  0.00    -0.504 OA
ATOM     11  H   UNL     1       3.807  26.399  58.920  1.00  0.00     0.293 HD
ENDBRANCH   3  10
BRANCH   4  12
ATOM     12  O   UNL     1       5.050  27.223  56.737  1.00  0.00    -0.493 OA
ATOM     13  C   UNL     1       6.125  27.888  57.394  1.00  0.00     0.278 C 
ENDBRANCH   4  12
TORSDOF 3
ENDMDL
