MODEL 1
REMARK VINA RESULT:    -3.111      0.000      0.000
REMARK INTER + INTRA:          -3.754
REMARK INTER:                  -3.657
REMARK INTRA:                  -0.097
REMARK UNBOUND:                -0.097
REMARK SMILES CCCCC(=O)[O-]
REMARK SMILES IDX 4 1 5 2 6 3 7 4 3 5 2 6 1 7
REMARK H PARENT
REMARK Flexibility Score: inf
ROOT
ATOM      1  C   UNL     1      31.380   4.968 -26.942  1.00  0.00     0.053 C 
ENDROOT
BRANCH   1   2
ATOM      2  C   UNL     1      30.850   4.321 -28.185  1.00  0.00     0.041 C 
ATOM      3  O   UNL     1      29.672   3.877 -28.216  1.00  0.00    -0.550 OA
ATOM      4  O   UNL     1      31.669   4.179 -29.299  1.00  0.00    -0.550 OA
ENDBRANCH   1   2
BRANCH   1   5
ATOM      5  C   UNL     1      31.725   3.933 -25.863  1.00  0.00     0.006 C 
BRANCH   5   6
ATOM      6  C   UNL     1      31.057   4.252 -24.517  1.00  0.00    -0.003 C 
ATOM      7  C   UNL     1      29.542   4.348 -24.665  1.00  0.00     0.004 C 
ENDBRANCH   5   6
ENDBRANCH   1   5
TORSDOF 3
ENDMDL
MODEL 2
REMARK VINA RESULT:    -3.088      2.285      3.084
REMARK INTER + INTRA:          -3.727
REMARK INTER:                  -3.604
REMARK INTRA:                  -0.122
REMARK UNBOUND:                -0.097
REMARK SMILES CCCCC(=O)[O-]
REMARK SMILES IDX 4 1 5 2 6 3 7 4 3 5 2 6 1 7
REMARK H PARENT
REMARK Flexibility Score: inf
ROOT
ATOM      1  C   UNL     1      30.417   3.878 -26.417  1.00  0.00     0.053 C 
ENDROOT
BRANCH   1   2
ATOM      2  C   UNL     1      29.153   4.237 -25.697  1.00  0.00     0.041 C 
ATOM      3  O   UNL     1      28.125   4.565 -26.347  1.00  0.00    -0.550 OA
ATOM      4  O   UNL     1      29.120   4.241 -24.309  1.00  0.00    -0.550 OA
ENDBRANCH   1   2
BRANCH   1   5
ATOM      5  C   UNL     1      31.643   4.551 -25.787  1.00  0.00     0.006 C 
BRANCH   5   6
ATOM      6  C   UNL     1      31.729   6.044 -26.136  1.00  0.00    -0.003 C 
ATOM      7  C   UNL     1      31.548   6.911 -24.894  1.00  0.00     0.004 C 
ENDBRANCH   5   6
ENDBRANCH   1   5
TORSDOF 3
ENDMDL
MODEL 3
REMARK VINA RESULT:    -3.074     26.153     26.790
REMARK INTER + INTRA:          -3.711
REMARK INTER:                  -3.666
REMARK INTRA:                  -0.045
REMARK UNBOUND:                -0.097
REMARK SMILES CCCCC(=O)[O-]
REMARK SMILES IDX 4 1 5 2 6 3 7 4 3 5 2 6 1 7
REMARK H PARENT
REMARK Flexibility Score: inf
ROOT
ATOM      1  C   UNL     1      12.041  22.987 -19.835  1.00  0.00     0.053 C 
ENDROOT
BRANCH   1   2
ATOM      2  C   UNL     1      12.464  21.920 -18.871  1.00  0.00     0.041 C 
ATOM      3  O   UNL     1      11.985  21.892 -17.707  1.00  0.00    -0.550 OA
ATOM      4  O   UNL     1      13.411  20.977 -19.249  1.00  0.00    -0.550 OA
ENDBRANCH   1   2
BRANCH   1   5
ATOM      5  C   UNL     1      12.991  23.080 -21.036  1.00  0.00     0.006 C 
BRANCH   5   6
ATOM      6  C   UNL     1      12.390  22.455 -22.303  1.00  0.00    -0.003 C 
ATOM      7  C   UNL     1      12.590  23.363 -23.512  1.00  0.00     0.004 C 
ENDBRANCH   5   6
ENDBRANCH   1   5
TORSDOF 3
ENDMDL
MODEL 4
REMARK VINA RESULT:    -3.029     25.581     26.354
REMARK INTER + INTRA:          -3.657
REMARK INTER:                  -3.610
REMARK INTRA:                  -0.047
REMARK UNBOUND:                -0.097
REMARK SMILES CCCCC(=O)[O-]
REMARK SMILES IDX 4 1 5 2 6 3 7 4 3 5 2 6 1 7
REMARK H PARENT
REMARK Flexibility Score: inf
ROOT
ATOM      1  C   UNL     1      13.405  22.208 -22.131  1.00  0.00     0.053 C 
ENDROOT
BRANCH   1   2
ATOM      2  C   UNL     1      13.346  22.869 -20.788  1.00  0.00     0.041 C 
ATOM      3  O   UNL     1      12.244  23.270 -20.327  1.00  0.00    -0.550 OA
ATOM      4  O   UNL     1      14.511  23.071 -20.059  1.00  0.00    -0.550 OA
ENDBRANCH   1   2
BRANCH   1   5
ATOM      5  C   UNL     1      12.257  22.663 -23.042  1.00  0.00     0.006 C 
BRANCH   5   6
ATOM      6  C   UNL     1      12.749  23.534 -24.206  1.00  0.00    -0.003 C 
ATOM      7  C   UNL     1      13.742  22.774 -25.080  1.00  0.00     0.004 C 
ENDBRANCH   5   6
ENDBRANCH   1   5
TORSDOF 3
ENDMDL
MODEL 5
REMARK VINA RESULT:    -3.022      1.610      2.175
REMARK INTER + INTRA:          -3.649
REMARK INTER:                  -3.586
REMARK INTRA:                  -0.064
REMARK UNBOUND:                -0.097
REMARK SMILES CCCCC(=O)[O-]
REMARK SMILES IDX 4 1 5 2 6 3 7 4 3 5 2 6 1 7
REMARK H PARENT
REMARK Flexibility Score: inf
ROOT
ATOM      1  C   UNL     1      31.159   4.146 -25.654  1.00  0.00     0.053 C 
ENDROOT
BRANCH   1   2
ATOM      2  C   UNL     1      31.314   5.036 -26.849  1.00  0.00     0.041 C 
ATOM      3  O   UNL     1      31.397   4.538 -28.003  1.00  0.00    -0.550 OA
ATOM      4  O   UNL     1      31.400   6.412 -26.686  1.00  0.00    -0.550 OA
ENDBRANCH   1   2
BRANCH   1   5
ATOM      5  C   UNL     1      29.755   4.249 -25.044  1.00  0.00     0.006 C 
BRANCH   5   6
ATOM      6  C   UNL     1      29.795   4.607 -23.551  1.00  0.00    -0.003 C 
ATOM      7  C   UNL     1      31.138   4.234 -22.932  1.00  0.00     0.004 C 
ENDBRANCH   5   6
ENDBRANCH   1   5
TORSDOF 3
ENDMDL
MODEL 6
REMARK VINA RESULT:    -3.014      3.319      3.737
REMARK INTER + INTRA:          -3.639
REMARK INTER:                  -3.530
REMARK INTRA:                  -0.109
REMARK UNBOUND:                -0.097
REMARK SMILES CCCCC(=O)[O-]
REMARK SMILES IDX 4 1 5 2 6 3 7 4 3 5 2 6 1 7
REMARK H PARENT
REMARK Flexibility Score: inf
ROOT
ATOM      1  C   UNL     1      31.651   6.312 -26.014  1.00  0.00     0.053 C 
ENDROOT
BRANCH   1   2
ATOM      2  C   UNL     1      31.322   6.819 -24.643  1.00  0.00     0.041 C 
ATOM      3  O   UNL     1      30.561   6.157 -23.889  1.00  0.00    -0.550 OA
ATOM      4  O   UNL     1      31.829   8.037 -24.212  1.00  0.00    -0.550 OA
ENDBRANCH   1   2
BRANCH   1   5
ATOM      5  C   UNL     1      31.637   4.778 -26.074  1.00  0.00     0.006 C 
BRANCH   5   6
ATOM      6  C   UNL     1      30.584   4.244 -27.056  1.00  0.00    -0.003 C 
ATOM      7  C   UNL     1      29.288   3.891 -26.333  1.00  0.00     0.004 C 
ENDBRANCH   5   6
ENDBRANCH   1   5
TORSDOF 3
ENDMDL
MODEL 7
REMARK VINA RESULT:    -3.003      2.435      3.945
REMARK INTER + INTRA:          -3.627
REMARK INTER:                  -3.582
REMARK INTRA:                  -0.045
REMARK UNBOUND:                -0.097
REMARK SMILES CCCCC(=O)[O-]
REMARK SMILES IDX 4 1 5 2 6 3 7 4 3 5 2 6 1 7
REMARK H PARENT
REMARK Flexibility Score: inf
ROOT
ATOM      1  C   UNL     1      29.804   4.899 -26.516  1.00  0.00     0.053 C 
ENDROOT
BRANCH   1   2
ATOM      2  C   UNL     1      30.104   4.346 -25.156  1.00  0.00     0.041 C 
ATOM      3  O   UNL     1      31.258   3.922 -24.886  1.00  0.00    -0.550 OA
ATOM      4  O   UNL     1      29.101   4.270 -24.199  1.00  0.00    -0.550 OA
ENDBRANCH   1   2
BRANCH   1   5
ATOM      5  C   UNL     1      30.086   3.875 -27.623  1.00  0.00     0.006 C 
BRANCH   5   6
ATOM      6  C   UNL     1      31.360   4.210 -28.413  1.00  0.00    -0.003 C 
ATOM      7  C   UNL     1      31.032   4.570 -29.859  1.00  0.00     0.004 C 
ENDBRANCH   5   6
ENDBRANCH   1   5
TORSDOF 3
ENDMDL
MODEL 8
REMARK VINA RESULT:    -2.947      3.743      4.557
REMARK INTER + INTRA:          -3.561
REMARK INTER:                  -3.458
REMARK INTRA:                  -0.104
REMARK UNBOUND:                -0.097
REMARK SMILES CCCCC(=O)[O-]
REMARK SMILES IDX 4 1 5 2 6 3 7 4 3 5 2 6 1 7
REMARK H PARENT
REMARK Flexibility Score: inf
ROOT
ATOM      1  C   UNL     1      29.969   4.582 -24.141  1.00  0.00     0.053 C 
ENDROOT
BRANCH   1   2
ATOM      2  C   UNL     1      29.964   5.346 -22.852  1.00  0.00     0.041 C 
ATOM      3  O   UNL     1      28.975   5.273 -22.076  1.00  0.00    -0.550 OA
ATOM      4  O   UNL     1      31.037   6.165 -22.525  1.00  0.00    -0.550 OA
ENDBRANCH   1   2
BRANCH   1   5
ATOM      5  C   UNL     1      31.382   4.132 -24.532  1.00  0.00     0.006 C 
BRANCH   5   6
ATOM      6  C   UNL     1      31.773   4.602 -25.941  1.00  0.00    -0.003 C 
ATOM      7  C   UNL     1      31.807   6.124 -26.023  1.00  0.00     0.004 C 
ENDBRANCH   5   6
ENDBRANCH   1   5
TORSDOF 3
ENDMDL
MODEL 9
REMARK VINA RESULT:    -2.940      3.384      4.309
REMARK INTER + INTRA:          -3.552
REMARK INTER:                  -3.468
REMARK INTRA:                  -0.084
REMARK UNBOUND:                -0.097
REMARK SMILES CCCCC(=O)[O-]
REMARK SMILES IDX 4 1 5 2 6 3 7 4 3 5 2 6 1 7
REMARK H PARENT
REMARK Flexibility Score: inf
ROOT
ATOM      1  C   UNL     1      31.338   4.411 -23.998  1.00  0.00     0.053 C 
ENDROOT
BRANCH   1   2
ATOM      2  C   UNL     1      30.913   5.697 -23.356  1.00  0.00     0.041 C 
ATOM      3  O   UNL     1      31.200   6.798 -23.894  1.00  0.00    -0.550 OA
ATOM      4  O   UNL     1      30.230   5.678 -22.147  1.00  0.00    -0.550 OA
ENDBRANCH   1   2
BRANCH   1   5
ATOM      5  C   UNL     1      30.647   4.194 -25.351  1.00  0.00     0.006 C 
BRANCH   5   6
ATOM      6  C   UNL     1      29.116   4.242 -25.236  1.00  0.00    -0.003 C 
ATOM      7  C   UNL     1      28.454   3.876 -26.561  1.00  0.00     0.004 C 
ENDBRANCH   5   6
ENDBRANCH   1   5
TORSDOF 3
ENDMDL
