MODEL 1
REMARK VINA RESULT:    -3.956      0.000      0.000
REMARK INTER + INTRA:          -5.190
REMARK INTER:                  -4.649
REMARK INTRA:                  -0.541
REMARK UNBOUND:                -0.541
REMARK SMILES CCCC[C@H]1OC(=O)C2=C1CCC=C2
REMARK SMILES IDX 3 1 2 2 1 3 4 4 5 5 10 6 6 7 9 8 11 9 7 10 14 11 12 12 8 13
REMARK SMILES IDX 13 14
REMARK H PARENT
REMARK Flexibility Score: inf
ROOT
ATOM      1  C   UNL     1      21.837  54.132  41.538  1.00  0.00     0.004 C 
ENDROOT
BRANCH   1   2
ATOM      2  C   UNL     1      23.061  54.410  40.647  1.00  0.00    -0.003 C 
ATOM      3  C   UNL     1      23.657  53.141  40.038  1.00  0.00     0.004 C 
ENDBRANCH   1   2
BRANCH   1   4
ATOM      4  C   UNL     1      21.178  52.752  41.343  1.00  0.00     0.050 C 
BRANCH   4   5
ATOM      5  C   UNL     1      19.829  52.763  40.598  1.00  0.00     0.204 C 
ATOM      6  C   UNL     1      19.962  53.043  39.114  1.00  0.00    -0.015 C 
ATOM      7  O   UNL     1      19.052  53.872  41.059  1.00  0.00    -0.454 OA
ATOM      8  C   UNL     1      19.352  54.174  38.796  1.00  0.00     0.062 C 
ATOM      9  C   UNL     1      20.638  52.202  38.064  1.00  0.00     0.040 C 
ATOM     10  C   UNL     1      18.778  54.715  39.998  1.00  0.00     0.338 C 
ATOM     11  C   UNL     1      19.234  54.652  37.413  1.00  0.00     0.011 C 
ATOM     12  C   UNL     1      19.961  52.391  36.687  1.00  0.00     0.032 C 
ATOM     13  O   UNL     1      18.109  55.778  40.088  1.00  0.00    -0.246 OA
ATOM     14  C   UNL     1      19.594  53.836  36.414  1.00  0.00    -0.026 C 
ENDBRANCH   4   5
ENDBRANCH   1   4
TORSDOF 3
ENDMDL
MODEL 2
REMARK VINA RESULT:    -3.937     12.019     14.260
REMARK INTER + INTRA:          -5.168
REMARK INTER:                  -4.675
REMARK INTRA:                  -0.493
REMARK UNBOUND:                -0.541
REMARK SMILES CCCC[C@H]1OC(=O)C2=C1CCC=C2
REMARK SMILES IDX 3 1 2 2 1 3 4 4 5 5 10 6 6 7 9 8 11 9 7 10 14 11 12 12 8 13
REMARK SMILES IDX 13 14
REMARK H PARENT
REMARK Flexibility Score: inf
ROOT
ATOM      1  C   UNL     1      23.099  51.497  51.038  1.00  0.00     0.004 C 
ENDROOT
BRANCH   1   2
ATOM      2  C   UNL     1      21.836  51.243  50.195  1.00  0.00    -0.003 C 
ATOM      3  C   UNL     1      21.319  52.502  49.500  1.00  0.00     0.004 C 
ENDBRANCH   1   2
BRANCH   1   4
ATOM      4  C   UNL     1      22.961  51.191  52.542  1.00  0.00     0.050 C 
BRANCH   4   5
ATOM      5  C   UNL     1      22.753  52.418  53.451  1.00  0.00     0.204 C 
ATOM      6  C   UNL     1      21.399  52.441  54.132  1.00  0.00    -0.015 C 
ATOM      7  O   UNL     1      22.717  53.596  52.639  1.00  0.00    -0.454 OA
ATOM      8  C   UNL     1      20.693  53.489  53.734  1.00  0.00     0.062 C 
ATOM      9  C   UNL     1      20.853  51.479  55.154  1.00  0.00     0.040 C 
ATOM     10  C   UNL     1      21.495  54.226  52.796  1.00  0.00     0.338 C 
ATOM     11  C   UNL     1      19.379  53.823  54.297  1.00  0.00     0.011 C 
ATOM     12  C   UNL     1      19.862  52.189  56.105  1.00  0.00     0.032 C 
ATOM     13  O   UNL     1      21.164  55.292  52.213  1.00  0.00    -0.246 OA
ATOM     14  C   UNL     1      18.949  53.155  55.376  1.00  0.00    -0.026 C 
ENDBRANCH   4   5
ENDBRANCH   1   4
TORSDOF 3
ENDMDL
MODEL 3
REMARK VINA RESULT:    -3.820     11.524     13.791
REMARK INTER + INTRA:          -5.031
REMARK INTER:                  -4.578
REMARK INTRA:                  -0.453
REMARK UNBOUND:                -0.541
REMARK SMILES CCCC[C@H]1OC(=O)C2=C1CCC=C2
REMARK SMILES IDX 3 1 2 2 1 3 4 4 5 5 10 6 6 7 9 8 11 9 7 10 14 11 12 12 8 13
REMARK SMILES IDX 13 14
REMARK H PARENT
REMARK Flexibility Score: inf
ROOT
ATOM      1  C   UNL     1      22.600  53.280  49.517  1.00  0.00     0.004 C 
ENDROOT
BRANCH   1   2
ATOM      2  C   UNL     1      23.630  52.168  49.784  1.00  0.00    -0.003 C 
ATOM      3  C   UNL     1      23.053  50.764  49.611  1.00  0.00     0.004 C 
ENDBRANCH   1   2
BRANCH   1   4
ATOM      4  C   UNL     1      21.455  53.377  50.545  1.00  0.00     0.050 C 
BRANCH   4   5
ATOM      5  C   UNL     1      21.877  53.788  51.969  1.00  0.00     0.204 C 
ATOM      6  C   UNL     1      21.586  52.727  53.013  1.00  0.00    -0.015 C 
ATOM      7  O   UNL     1      21.062  54.883  52.398  1.00  0.00    -0.454 OA
ATOM      8  C   UNL     1      20.707  53.171  53.898  1.00  0.00     0.062 C 
ATOM      9  C   UNL     1      22.185  51.351  53.134  1.00  0.00     0.040 C 
ATOM     10  C   UNL     1      20.360  54.518  53.532  1.00  0.00     0.338 C 
ATOM     11  C   UNL     1      20.306  52.396  55.078  1.00  0.00     0.011 C 
ATOM     12  C   UNL     1      22.234  50.900  54.612  1.00  0.00     0.032 C 
ATOM     13  O   UNL     1      19.560  55.271  54.147  1.00  0.00    -0.246 OA
ATOM     14  C   UNL     1      20.980  51.277  55.376  1.00  0.00    -0.026 C 
ENDBRANCH   4   5
ENDBRANCH   1   4
TORSDOF 3
ENDMDL
MODEL 4
REMARK VINA RESULT:    -3.815     11.292     13.175
REMARK INTER + INTRA:          -5.025
REMARK INTER:                  -4.757
REMARK INTRA:                  -0.268
REMARK UNBOUND:                -0.541
REMARK SMILES CCCC[C@H]1OC(=O)C2=C1CCC=C2
REMARK SMILES IDX 3 1 2 2 1 3 4 4 5 5 10 6 6 7 9 8 11 9 7 10 14 11 12 12 8 13
REMARK SMILES IDX 13 14
REMARK H PARENT
REMARK Flexibility Score: inf
ROOT
ATOM      1  C   UNL     1      23.163  51.524  54.002  1.00  0.00     0.004 C 
ENDROOT
BRANCH   1   2
ATOM      2  C   UNL     1      24.125  50.445  54.532  1.00  0.00    -0.003 C 
ATOM      3  C   UNL     1      23.631  49.783  55.818  1.00  0.00     0.004 C 
ENDBRANCH   1   2
BRANCH   1   4
ATOM      4  C   UNL     1      21.694  51.080  53.852  1.00  0.00     0.050 C 
BRANCH   4   5
ATOM      5  C   UNL     1      20.838  51.937  52.899  1.00  0.00     0.204 C 
ATOM      6  C   UNL     1      21.533  52.262  51.592  1.00  0.00    -0.015 C 
ATOM      7  O   UNL     1      20.647  53.230  53.483  1.00  0.00    -0.454 OA
ATOM      8  C   UNL     1      21.721  53.567  51.473  1.00  0.00     0.062 C 
ATOM      9  C   UNL     1      21.958  51.313  50.502  1.00  0.00     0.040 C 
ATOM     10  C   UNL     1      21.178  54.195  52.646  1.00  0.00     0.338 C 
ATOM     11  C   UNL     1      22.286  54.183  50.266  1.00  0.00     0.011 C 
ATOM     12  C   UNL     1      21.923  52.008  49.122  1.00  0.00     0.032 C 
ATOM     13  O   UNL     1      21.161  55.432  52.886  1.00  0.00    -0.246 OA
ATOM     14  C   UNL     1      22.454  53.427  49.173  1.00  0.00    -0.026 C 
ENDBRANCH   4   5
ENDBRANCH   1   4
TORSDOF 3
ENDMDL
MODEL 5
REMARK VINA RESULT:    -3.814      2.263      3.582
REMARK INTER + INTRA:          -5.023
REMARK INTER:                  -4.572
REMARK INTRA:                  -0.451
REMARK UNBOUND:                -0.541
REMARK SMILES CCCC[C@H]1OC(=O)C2=C1CCC=C2
REMARK SMILES IDX 3 1 2 2 1 3 4 4 5 5 10 6 6 7 9 8 11 9 7 10 14 11 12 12 8 13
REMARK SMILES IDX 13 14
REMARK H PARENT
REMARK Flexibility Score: inf
ROOT
ATOM      1  C   UNL     1      19.608  53.733  41.635  1.00  0.00     0.004 C 
ENDROOT
BRANCH   1   2
ATOM      2  C   UNL     1      19.837  55.203  41.237  1.00  0.00    -0.003 C 
ATOM      3  C   UNL     1      18.550  55.919  40.832  1.00  0.00     0.004 C 
ENDBRANCH   1   2
BRANCH   1   4
ATOM      4  C   UNL     1      20.572  52.718  40.989  1.00  0.00     0.050 C 
BRANCH   4   5
ATOM      5  C   UNL     1      21.200  53.160  39.653  1.00  0.00     0.204 C 
ATOM      6  C   UNL     1      20.337  52.846  38.448  1.00  0.00    -0.015 C 
ATOM      7  O   UNL     1      22.374  52.379  39.412  1.00  0.00    -0.454 OA
ATOM      8  C   UNL     1      20.947  51.984  37.648  1.00  0.00     0.062 C 
ATOM      9  C   UNL     1      18.983  53.406  38.099  1.00  0.00     0.040 C 
ATOM     10  C   UNL     1      22.223  51.673  38.231  1.00  0.00     0.338 C 
ATOM     11  C   UNL     1      20.390  51.569  36.354  1.00  0.00     0.011 C 
ATOM     12  C   UNL     1      18.783  53.451  36.567  1.00  0.00     0.032 C 
ATOM     13  O   UNL     1      23.091  50.899  37.749  1.00  0.00    -0.246 OA
ATOM     14  C   UNL     1      19.318  52.213  35.875  1.00  0.00    -0.026 C 
ENDBRANCH   4   5
ENDBRANCH   1   4
TORSDOF 3
ENDMDL
MODEL 6
REMARK VINA RESULT:    -3.731     12.292     14.429
REMARK INTER + INTRA:          -4.926
REMARK INTER:                  -4.477
REMARK INTRA:                  -0.449
REMARK UNBOUND:                -0.541
REMARK SMILES CCCC[C@H]1OC(=O)C2=C1CCC=C2
REMARK SMILES IDX 3 1 2 2 1 3 4 4 5 5 10 6 6 7 9 8 11 9 7 10 14 11 12 12 8 13
REMARK SMILES IDX 13 14
REMARK H PARENT
REMARK Flexibility Score: inf
ROOT
ATOM      1  C   UNL     1      19.343  54.238  54.501  1.00  0.00     0.004 C 
ENDROOT
BRANCH   1   2
ATOM      2  C   UNL     1      18.528  53.749  55.711  1.00  0.00    -0.003 C 
ATOM      3  C   UNL     1      18.872  52.319  56.125  1.00  0.00     0.004 C 
ENDBRANCH   1   2
BRANCH   1   4
ATOM      4  C   UNL     1      20.747  54.784  54.828  1.00  0.00     0.050 C 
BRANCH   4   5
ATOM      5  C   UNL     1      21.920  54.021  54.182  1.00  0.00     0.204 C 
ATOM      6  C   UNL     1      21.645  53.589  52.756  1.00  0.00    -0.015 C 
ATOM      7  O   UNL     1      22.094  52.774  54.861  1.00  0.00    -0.454 OA
ATOM      8  C   UNL     1      21.647  52.268  52.659  1.00  0.00     0.062 C 
ATOM      9  C   UNL     1      21.424  54.457  51.545  1.00  0.00     0.040 C 
ATOM     10  C   UNL     1      21.922  51.734  53.965  1.00  0.00     0.338 C 
ATOM     11  C   UNL     1      21.503  51.565  51.378  1.00  0.00     0.011 C 
ATOM     12  C   UNL     1      21.909  53.746  50.261  1.00  0.00     0.032 C 
ATOM     13  O   UNL     1      22.016  50.515  54.263  1.00  0.00    -0.246 OA
ATOM     14  C   UNL     1      21.551  52.273  50.242  1.00  0.00    -0.026 C 
ENDBRANCH   4   5
ENDBRANCH   1   4
TORSDOF 3
ENDMDL
MODEL 7
REMARK VINA RESULT:    -3.639     12.244     14.599
REMARK INTER + INTRA:          -4.818
REMARK INTER:                  -4.375
REMARK INTRA:                  -0.443
REMARK UNBOUND:                -0.541
REMARK SMILES CCCC[C@H]1OC(=O)C2=C1CCC=C2
REMARK SMILES IDX 3 1 2 2 1 3 4 4 5 5 10 6 6 7 9 8 11 9 7 10 14 11 12 12 8 13
REMARK SMILES IDX 13 14
REMARK H PARENT
REMARK Flexibility Score: inf
ROOT
ATOM      1  C   UNL     1      21.136  51.699  50.312  1.00  0.00     0.004 C 
ENDROOT
BRANCH   1   2
ATOM      2  C   UNL     1      21.621  52.742  49.290  1.00  0.00    -0.003 C 
ATOM      3  C   UNL     1      22.351  53.919  49.938  1.00  0.00     0.004 C 
ENDBRANCH   1   2
BRANCH   1   4
ATOM      4  C   UNL     1      21.954  51.624  51.617  1.00  0.00     0.050 C 
BRANCH   4   5
ATOM      5  C   UNL     1      21.128  51.613  52.917  1.00  0.00     0.204 C 
ATOM      6  C   UNL     1      21.089  52.957  53.617  1.00  0.00    -0.015 C 
ATOM      7  O   UNL     1      21.781  50.777  53.877  1.00  0.00    -0.454 OA
ATOM      8  C   UNL     1      21.665  52.881  54.807  1.00  0.00     0.062 C 
ATOM      9  C   UNL     1      20.476  54.244  53.131  1.00  0.00     0.040 C 
ATOM     10  C   UNL     1      22.110  51.527  54.992  1.00  0.00     0.338 C 
ATOM     11  C   UNL     1      21.691  54.005  55.752  1.00  0.00     0.011 C 
ATOM     12  C   UNL     1      19.986  55.104  54.319  1.00  0.00     0.032 C 
ATOM     13  O   UNL     1      22.693  51.069  56.010  1.00  0.00    -0.246 OA
ATOM     14  C   UNL     1      20.955  55.091  55.484  1.00  0.00    -0.026 C 
ENDBRANCH   4   5
ENDBRANCH   1   4
TORSDOF 3
ENDMDL
MODEL 8
REMARK VINA RESULT:    -3.559     11.740     13.660
REMARK INTER + INTRA:          -4.724
REMARK INTER:                  -4.089
REMARK INTRA:                  -0.634
REMARK UNBOUND:                -0.541
REMARK SMILES CCCC[C@H]1OC(=O)C2=C1CCC=C2
REMARK SMILES IDX 3 1 2 2 1 3 4 4 5 5 10 6 6 7 9 8 11 9 7 10 14 11 12 12 8 13
REMARK SMILES IDX 13 14
REMARK H PARENT
REMARK Flexibility Score: inf
ROOT
ATOM      1  C   UNL     1      21.568  50.909  54.151  1.00  0.00     0.004 C 
ENDROOT
BRANCH   1   2
ATOM      2  C   UNL     1      21.083  51.873  55.248  1.00  0.00    -0.003 C 
ATOM      3  C   UNL     1      20.059  52.888  54.742  1.00  0.00     0.004 C 
ENDBRANCH   1   2
BRANCH   1   4
ATOM      4  C   UNL     1      23.069  50.995  53.813  1.00  0.00     0.050 C 
BRANCH   4   5
ATOM      5  C   UNL     1      23.407  51.663  52.466  1.00  0.00     0.204 C 
ATOM      6  C   UNL     1      22.947  53.105  52.376  1.00  0.00    -0.015 C 
ATOM      7  O   UNL     1      22.652  51.028  51.430  1.00  0.00    -0.454 OA
ATOM      8  C   UNL     1      22.038  53.248  51.424  1.00  0.00     0.062 C 
ATOM      9  C   UNL     1      23.419  54.286  53.184  1.00  0.00     0.040 C 
ATOM     10  C   UNL     1      21.833  51.960  50.819  1.00  0.00     0.338 C 
ATOM     11  C   UNL     1      21.481  54.552  51.045  1.00  0.00     0.011 C 
ATOM     12  C   UNL     1      23.311  55.592  52.364  1.00  0.00     0.032 C 
ATOM     13  O   UNL     1      21.051  51.704  49.866  1.00  0.00    -0.246 OA
ATOM     14  C   UNL     1      22.035  55.662  51.549  1.00  0.00    -0.026 C 
ENDBRANCH   4   5
ENDBRANCH   1   4
TORSDOF 3
ENDMDL
