MODEL 1
REMARK VINA RESULT:    -2.940      0.000      0.000
REMARK INTER + INTRA:          -3.490
REMARK INTER:                  -3.284
REMARK INTRA:                  -0.206
REMARK UNBOUND:                -0.206
REMARK SMILES O=C([O-])c1ccccc1C(=O)[O-]
REMARK SMILES IDX 4 1 9 2 5 3 8 4 6 5 7 6 2 7 1 8 3 9 10 10 11 11 12 12
REMARK H PARENT
REMARK Flexibility Score: inf
ROOT
ATOM      1  C   UNL     1      26.992  46.939  85.456  1.00  0.00     0.006 A 
ATOM      2  C   UNL     1      25.976  47.675  86.129  1.00  0.00     0.006 A 
ATOM      3  C   UNL     1      28.046  47.636  84.838  1.00  0.00     0.010 A 
ATOM      4  C   UNL     1      26.089  49.075  86.213  1.00  0.00     0.010 A 
ATOM      5  C   UNL     1      28.125  49.026  84.915  1.00  0.00     0.001 A 
ATOM      6  C   UNL     1      27.156  49.743  85.611  1.00  0.00     0.001 A 
ENDROOT
BRANCH   1   7
ATOM      7  C   UNL     1      27.033  45.458  85.431  1.00  0.00     0.072 C 
ATOM      8  O   UNL     1      26.621  44.817  84.428  1.00  0.00    -0.545 OA
ATOM      9  O   UNL     1      27.466  44.754  86.549  1.00  0.00    -0.545 OA
ENDBRANCH   1   7
BRANCH   2  10
ATOM     10  C   UNL     1      24.761  47.044  86.692  1.00  0.00     0.072 C 
ATOM     11  O   UNL     1      23.660  47.107  86.083  1.00  0.00    -0.545 OA
ATOM     12  O   UNL     1      24.808  46.431  87.939  1.00  0.00    -0.545 OA
ENDBRANCH   2  10
TORSDOF 2
ENDMDL
MODEL 2
REMARK VINA RESULT:    -2.900      0.061      2.875
REMARK INTER + INTRA:          -3.446
REMARK INTER:                  -3.237
REMARK INTRA:                  -0.209
REMARK UNBOUND:                -0.206
REMARK SMILES O=C([O-])c1ccccc1C(=O)[O-]
REMARK SMILES IDX 4 1 9 2 5 3 8 4 6 5 7 6 2 7 1 8 3 9 10 10 11 11 12 12
REMARK H PARENT
REMARK Flexibility Score: inf
ROOT
ATOM      1  C   UNL     1      26.005  47.716  86.126  1.00  0.00     0.006 A 
ATOM      2  C   UNL     1      27.011  46.986  85.432  1.00  0.00     0.006 A 
ATOM      3  C   UNL     1      26.113  49.115  86.214  1.00  0.00     0.010 A 
ATOM      4  C   UNL     1      28.050  47.690  84.797  1.00  0.00     0.010 A 
ATOM      5  C   UNL     1      27.166  49.790  85.596  1.00  0.00     0.001 A 
ATOM      6  C   UNL     1      28.125  49.081  84.880  1.00  0.00     0.001 A 
ENDROOT
BRANCH   1   7
ATOM      7  C   UNL     1      24.802  47.077  86.709  1.00  0.00     0.072 C 
ATOM      8  O   UNL     1      23.693  47.125  86.114  1.00  0.00    -0.545 OA
ATOM      9  O   UNL     1      24.870  46.473  87.960  1.00  0.00    -0.545 OA
ENDBRANCH   1   7
BRANCH   2  10
ATOM     10  C   UNL     1      27.058  45.506  85.399  1.00  0.00     0.072 C 
ATOM     11  O   UNL     1      26.626  44.869  84.403  1.00  0.00    -0.545 OA
ATOM     12  O   UNL     1      27.520  44.799  86.503  1.00  0.00    -0.545 OA
ENDBRANCH   2  10
TORSDOF 2
ENDMDL
MODEL 3
REMARK VINA RESULT:    -2.897      1.996      4.285
REMARK INTER + INTRA:          -3.443
REMARK INTER:                  -3.228
REMARK INTRA:                  -0.215
REMARK UNBOUND:                -0.206
REMARK SMILES O=C([O-])c1ccccc1C(=O)[O-]
REMARK SMILES IDX 4 1 9 2 5 3 8 4 6 5 7 6 2 7 1 8 3 9 10 10 11 11 12 12
REMARK H PARENT
REMARK Flexibility Score: inf
ROOT
ATOM      1  C   UNL     1      25.551  46.373  87.071  1.00  0.00     0.006 A 
ATOM      2  C   UNL     1      26.644  45.700  86.454  1.00  0.00     0.006 A 
ATOM      3  C   UNL     1      25.217  46.057  88.400  1.00  0.00     0.010 A 
ATOM      4  C   UNL     1      27.401  44.788  87.211  1.00  0.00     0.010 A 
ATOM      5  C   UNL     1      25.968  45.131  89.125  1.00  0.00     0.001 A 
ATOM      6  C   UNL     1      27.064  44.507  88.536  1.00  0.00     0.001 A 
ENDROOT
BRANCH   1   7
ATOM      7  C   UNL     1      24.782  47.447  86.401  1.00  0.00     0.072 C 
ATOM      8  O   UNL     1      23.668  47.205  85.864  1.00  0.00    -0.545 OA
ATOM      9  O   UNL     1      25.317  48.726  86.296  1.00  0.00    -0.545 OA
ENDBRANCH   1   7
BRANCH   2  10
ATOM     10  C   UNL     1      26.988  45.864  85.023  1.00  0.00     0.072 C 
ATOM     11  O   UNL     1      26.623  45.012  84.170  1.00  0.00    -0.545 OA
ATOM     12  O   UNL     1      27.781  46.931  84.615  1.00  0.00    -0.545 OA
ENDBRANCH   2  10
TORSDOF 2
ENDMDL
MODEL 4
REMARK VINA RESULT:    -2.765      1.883      3.277
REMARK INTER + INTRA:          -3.294
REMARK INTER:                  -3.063
REMARK INTRA:                  -0.231
REMARK UNBOUND:                -0.206
REMARK SMILES O=C([O-])c1ccccc1C(=O)[O-]
REMARK SMILES IDX 4 1 9 2 5 3 8 4 6 5 7 6 2 7 1 8 3 9 10 10 11 11 12 12
REMARK H PARENT
REMARK Flexibility Score: inf
ROOT
ATOM      1  C   UNL     1      27.128  47.638  85.727  1.00  0.00     0.006 A 
ATOM      2  C   UNL     1      26.469  46.520  86.313  1.00  0.00     0.006 A 
ATOM      3  C   UNL     1      27.968  47.432  84.618  1.00  0.00     0.010 A 
ATOM      4  C   UNL     1      26.624  45.251  85.726  1.00  0.00     0.010 A 
ATOM      5  C   UNL     1      28.125  46.160  84.067  1.00  0.00     0.001 A 
ATOM      6  C   UNL     1      27.445  45.074  84.612  1.00  0.00     0.001 A 
ENDROOT
BRANCH   1   7
ATOM      7  C   UNL     1      26.919  49.030  86.188  1.00  0.00     0.072 C 
ATOM      8  O   UNL     1      27.698  49.556  87.027  1.00  0.00    -0.545 OA
ATOM      9  O   UNL     1      25.815  49.751  85.749  1.00  0.00    -0.545 OA
ENDBRANCH   1   7
BRANCH   2  10
ATOM     10  C   UNL     1      25.674  46.613  87.559  1.00  0.00     0.072 C 
ATOM     11  O   UNL     1      24.422  46.740  87.518  1.00  0.00    -0.545 OA
ATOM     12  O   UNL     1      26.314  46.629  88.793  1.00  0.00    -0.545 OA
ENDBRANCH   2  10
TORSDOF 2
ENDMDL
MODEL 5
REMARK VINA RESULT:    -2.752      1.848      3.424
REMARK INTER + INTRA:          -3.280
REMARK INTER:                  -3.053
REMARK INTRA:                  -0.227
REMARK UNBOUND:                -0.206
REMARK SMILES O=C([O-])c1ccccc1C(=O)[O-]
REMARK SMILES IDX 4 1 9 2 5 3 8 4 6 5 7 6 2 7 1 8 3 9 10 10 11 11 12 12
REMARK H PARENT
REMARK Flexibility Score: inf
ROOT
ATOM      1  C   UNL     1      26.123  46.761  86.133  1.00  0.00     0.006 A 
ATOM      2  C   UNL     1      27.041  47.796  85.791  1.00  0.00     0.006 A 
ATOM      3  C   UNL     1      26.207  45.525  85.468  1.00  0.00     0.010 A 
ATOM      4  C   UNL     1      28.047  47.530  84.845  1.00  0.00     0.010 A 
ATOM      5  C   UNL     1      27.200  45.293  84.515  1.00  0.00     0.001 A 
ATOM      6  C   UNL     1      28.124  46.289  84.213  1.00  0.00     0.001 A 
ENDROOT
BRANCH   1   7
ATOM      7  C   UNL     1      25.118  46.899  87.213  1.00  0.00     0.072 C 
ATOM      8  O   UNL     1      23.917  47.169  86.946  1.00  0.00    -0.545 OA
ATOM      9  O   UNL     1      25.507  46.800  88.544  1.00  0.00    -0.545 OA
ENDBRANCH   1   7
BRANCH   2  10
ATOM     10  C   UNL     1      26.949  49.169  86.336  1.00  0.00     0.072 C 
ATOM     11  O   UNL     1      27.670  49.529  87.304  1.00  0.00    -0.545 OA
ATOM     12  O   UNL     1      26.011  50.060  85.826  1.00  0.00    -0.545 OA
ENDBRANCH   2  10
TORSDOF 2
ENDMDL
MODEL 6
REMARK VINA RESULT:    -2.663      2.106      3.628
REMARK INTER + INTRA:          -3.180
REMARK INTER:                  -2.957
REMARK INTRA:                  -0.223
REMARK UNBOUND:                -0.206
REMARK SMILES O=C([O-])c1ccccc1C(=O)[O-]
REMARK SMILES IDX 4 1 9 2 5 3 8 4 6 5 7 6 2 7 1 8 3 9 10 10 11 11 12 12
REMARK H PARENT
REMARK Flexibility Score: inf
ROOT
ATOM      1  C   UNL     1      26.002  48.524  86.124  1.00  0.00     0.006 A 
ATOM      2  C   UNL     1      25.462  47.208  86.180  1.00  0.00     0.006 A 
ATOM      3  C   UNL     1      25.130  49.625  86.190  1.00  0.00     0.010 A 
ATOM      4  C   UNL     1      24.077  47.046  86.366  1.00  0.00     0.010 A 
ATOM      5  C   UNL     1      23.756  49.439  86.352  1.00  0.00     0.001 A 
ATOM      6  C   UNL     1      23.233  48.153  86.451  1.00  0.00     0.001 A 
ENDROOT
BRANCH   1   7
ATOM      7  C   UNL     1      27.457  48.797  86.067  1.00  0.00     0.072 C 
ATOM      8  O   UNL     1      28.125  48.963  87.122  1.00  0.00    -0.545 OA
ATOM      9  O   UNL     1      28.091  48.942  84.838  1.00  0.00    -0.545 OA
ENDBRANCH   1   7
BRANCH   2  10
ATOM     10  C   UNL     1      26.280  45.990  85.984  1.00  0.00     0.072 C 
ATOM     11  O   UNL     1      26.797  45.394  86.966  1.00  0.00    -0.545 OA
ATOM     12  O   UNL     1      26.545  45.527  84.700  1.00  0.00    -0.545 OA
ENDBRANCH   2  10
TORSDOF 2
ENDMDL
MODEL 7
REMARK VINA RESULT:    -2.656      2.236      3.792
REMARK INTER + INTRA:          -3.173
REMARK INTER:                  -2.964
REMARK INTRA:                  -0.209
REMARK UNBOUND:                -0.206
REMARK SMILES O=C([O-])c1ccccc1C(=O)[O-]
REMARK SMILES IDX 4 1 9 2 5 3 8 4 6 5 7 6 2 7 1 8 3 9 10 10 11 11 12 12
REMARK H PARENT
REMARK Flexibility Score: inf
ROOT
ATOM      1  C   UNL     1      26.237  47.311  86.157  1.00  0.00     0.006 A 
ATOM      2  C   UNL     1      27.259  48.102  85.560  1.00  0.00     0.006 A 
ATOM      3  C   UNL     1      26.078  45.975  85.747  1.00  0.00     0.010 A 
ATOM      4  C   UNL     1      28.125  47.506  84.625  1.00  0.00     0.010 A 
ATOM      5  C   UNL     1      26.934  45.412  84.801  1.00  0.00     0.001 A 
ATOM      6  C   UNL     1      27.962  46.172  84.250  1.00  0.00     0.001 A 
ENDROOT
BRANCH   1   7
ATOM      7  C   UNL     1      25.366  47.808  87.248  1.00  0.00     0.072 C 
ATOM      8  O   UNL     1      25.669  47.615  88.455  1.00  0.00    -0.545 OA
ATOM      9  O   UNL     1      24.162  48.436  86.947  1.00  0.00    -0.545 OA
ENDBRANCH   1   7
BRANCH   2  10
ATOM     10  C   UNL     1      27.419  49.550  85.825  1.00  0.00     0.072 C 
ATOM     11  O   UNL     1      26.976  50.407  85.016  1.00  0.00    -0.545 OA
ATOM     12  O   UNL     1      28.124  49.980  86.944  1.00  0.00    -0.545 OA
ENDBRANCH   2  10
TORSDOF 2
ENDMDL
MODEL 8
REMARK VINA RESULT:    -2.635      2.614      4.146
REMARK INTER + INTRA:          -3.150
REMARK INTER:                  -2.932
REMARK INTRA:                  -0.217
REMARK UNBOUND:                -0.206
REMARK SMILES O=C([O-])c1ccccc1C(=O)[O-]
REMARK SMILES IDX 4 1 9 2 5 3 8 4 6 5 7 6 2 7 1 8 3 9 10 10 11 11 12 12
REMARK H PARENT
REMARK Flexibility Score: inf
ROOT
ATOM      1  C   UNL     1      23.863  47.517  86.841  1.00  0.00     0.006 A 
ATOM      2  C   UNL     1      23.852  48.925  86.627  1.00  0.00     0.006 A 
ATOM      3  C   UNL     1      22.640  46.838  86.986  1.00  0.00     0.010 A 
ATOM      4  C   UNL     1      22.617  49.587  86.502  1.00  0.00     0.010 A 
ATOM      5  C   UNL     1      21.428  47.520  86.881  1.00  0.00     0.001 A 
ATOM      6  C   UNL     1      21.416  48.888  86.628  1.00  0.00     0.001 A 
ENDROOT
BRANCH   1   7
ATOM      7  C   UNL     1      25.107  46.712  86.851  1.00  0.00     0.072 C 
ATOM      8  O   UNL     1      25.640  46.333  85.774  1.00  0.00    -0.545 OA
ATOM      9  O   UNL     1      25.664  46.306  88.059  1.00  0.00    -0.545 OA
ENDBRANCH   1   7
BRANCH   2  10
ATOM     10  C   UNL     1      25.084  49.746  86.597  1.00  0.00     0.072 C 
ATOM     11  O   UNL     1      25.675  49.983  85.510  1.00  0.00    -0.545 OA
ATOM     12  O   UNL     1      25.641  50.211  87.783  1.00  0.00    -0.545 OA
ENDBRANCH   2  10
TORSDOF 2
ENDMDL
MODEL 9
REMARK VINA RESULT:    -1.738      2.103      3.371
REMARK INTER + INTRA:          -2.148
REMARK INTER:                  -1.926
REMARK INTRA:                  -0.221
REMARK UNBOUND:                -0.206
REMARK SMILES O=C([O-])c1ccccc1C(=O)[O-]
REMARK SMILES IDX 4 1 9 2 5 3 8 4 6 5 7 6 2 7 1 8 3 9 10 10 11 11 12 12
REMARK H PARENT
REMARK Flexibility Score: inf
ROOT
ATOM      1  C   UNL     1      25.513  47.181  86.147  1.00  0.00     0.006 A 
ATOM      2  C   UNL     1      26.027  48.509  86.116  1.00  0.00     0.006 A 
ATOM      3  C   UNL     1      24.129  46.988  86.308  1.00  0.00     0.010 A 
ATOM      4  C   UNL     1      25.130  49.591  86.181  1.00  0.00     0.010 A 
ATOM      5  C   UNL     1      23.261  48.077  86.394  1.00  0.00     0.001 A 
ATOM      6  C   UNL     1      23.759  49.374  86.319  1.00  0.00     0.001 A 
ENDROOT
BRANCH   1   7
ATOM      7  C   UNL     1      26.361  45.983  85.949  1.00  0.00     0.072 C 
ATOM      8  O   UNL     1      26.898  45.403  86.929  1.00  0.00    -0.545 OA
ATOM      9  O   UNL     1      26.629  45.524  84.664  1.00  0.00    -0.545 OA
ENDBRANCH   1   7
BRANCH   2  10
ATOM     10  C   UNL     1      27.476  48.813  86.085  1.00  0.00     0.072 C 
ATOM     11  O   UNL     1      28.125  48.973  87.153  1.00  0.00    -0.545 OA
ATOM     12  O   UNL     1      28.125  48.992  84.869  1.00  0.00    -0.545 OA
ENDBRANCH   2  10
TORSDOF 2
ENDMDL
