MODEL 1
REMARK VINA RESULT:    -6.104      0.000      0.000
REMARK INTER + INTRA:          -6.282
REMARK INTER:                  -6.282
REMARK INTRA:                   0.000
REMARK UNBOUND:                 0.000
REMARK SMILES C=C1[C@H]2C[C@@]3(C[C@@H]1O)[C@H](CC[C@@H]3C)C2(C)C
REMARK SMILES IDX 13 1 12 2 11 3 10 4 9 5 5 6 4 7 3 8 14 9 15 10 16 11 2 12
REMARK SMILES IDX 1 13 7 14 6 15 8 16
REMARK H PARENT 8 17
REMARK Flexibility Score: inf
ROOT
ATOM      1  C   UNL     1      -3.849  25.840  53.023  1.00  0.00     0.008 C 
ATOM      2  C   UNL     1      -4.515  26.358  51.740  1.00  0.00    -0.008 C 
ATOM      3  C   UNL     1      -3.781  27.570  51.173  1.00  0.00     0.004 C 
ATOM      4  C   UNL     1      -4.222  27.639  49.722  1.00  0.00     0.005 C 
ATOM      5  C   UNL     1      -4.306  26.172  49.278  1.00  0.00     0.002 C 
ATOM      6  C   UNL     1      -4.620  25.350  50.554  1.00  0.00    -0.020 C 
ATOM      7  C   UNL     1      -6.041  24.822  50.336  1.00  0.00     0.016 C 
ATOM      8  C   UNL     1      -6.017  24.490  48.853  1.00  0.00     0.023 C 
ATOM      9  C   UNL     1      -5.376  25.758  48.211  1.00  0.00    -0.025 C 
ATOM     10  C   UNL     1      -6.481  26.819  47.965  1.00  0.00     0.012 C 
ATOM     11  C   UNL     1      -4.720  25.474  46.837  1.00  0.00     0.012 C 
ATOM     12  C   UNL     1      -5.144  23.246  48.685  1.00  0.00    -0.045 C 
ATOM     13  C   UNL     1      -5.492  22.303  47.796  1.00  0.00     0.011 C 
ATOM     14  C   UNL     1      -3.838  23.099  49.464  1.00  0.00     0.140 C 
ATOM     15  C   UNL     1      -3.680  24.108  50.646  1.00  0.00     0.044 C 
ENDROOT
BRANCH  14  16
ATOM     16  O   UNL     1      -2.758  23.226  48.576  1.00  0.00    -0.389 OA
ATOM     17  H   UNL     1      -1.974  22.795  49.008  1.00  0.00     0.211 HD
ENDBRANCH  14  16
TORSDOF 1
ENDMDL
MODEL 2
REMARK VINA RESULT:    -5.948      1.424      3.835
REMARK INTER + INTRA:          -6.122
REMARK INTER:                  -6.122
REMARK INTRA:                   0.000
REMARK UNBOUND:                 0.000
REMARK SMILES C=C1[C@H]2C[C@@]3(C[C@@H]1O)[C@H](CC[C@@H]3C)C2(C)C
REMARK SMILES IDX 13 1 12 2 11 3 10 4 9 5 5 6 4 7 3 8 14 9 15 10 16 11 2 12
REMARK SMILES IDX 1 13 7 14 6 15 8 16
REMARK H PARENT 8 17
REMARK Flexibility Score: inf
ROOT
ATOM      1  C   UNL     1      -7.091  28.455  47.614  1.00  0.00     0.008 C 
ATOM      2  C   UNL     1      -6.752  26.970  47.423  1.00  0.00    -0.008 C 
ATOM      3  C   UNL     1      -5.943  26.735  46.149  1.00  0.00     0.004 C 
ATOM      4  C   UNL     1      -5.284  25.384  46.358  1.00  0.00     0.005 C 
ATOM      5  C   UNL     1      -4.909  25.368  47.848  1.00  0.00     0.002 C 
ATOM      6  C   UNL     1      -5.929  26.290  48.561  1.00  0.00    -0.020 C 
ATOM      7  C   UNL     1      -6.768  25.346  49.427  1.00  0.00     0.016 C 
ATOM      8  C   UNL     1      -5.712  24.368  49.919  1.00  0.00     0.023 C 
ATOM      9  C   UNL     1      -4.925  24.007  48.624  1.00  0.00    -0.025 C 
ATOM     10  C   UNL     1      -5.660  22.856  47.885  1.00  0.00     0.012 C 
ATOM     11  C   UNL     1      -3.488  23.505  48.909  1.00  0.00     0.012 C 
ATOM     12  C   UNL     1      -4.849  25.115  50.937  1.00  0.00    -0.045 C 
ATOM     13  C   UNL     1      -4.412  24.477  52.035  1.00  0.00     0.011 C 
ATOM     14  C   UNL     1      -4.414  26.557  50.683  1.00  0.00     0.140 C 
ATOM     15  C   UNL     1      -5.195  27.268  49.530  1.00  0.00     0.044 C 
ENDROOT
BRANCH  14  16
ATOM     16  O   UNL     1      -3.036  26.580  50.414  1.00  0.00    -0.389 OA
ATOM     17  H   UNL     1      -2.754  25.640  50.267  1.00  0.00     0.211 HD
ENDBRANCH  14  16
TORSDOF 1
ENDMDL
MODEL 3
REMARK VINA RESULT:    -5.916      4.098      6.862
REMARK INTER + INTRA:          -6.089
REMARK INTER:                  -6.089
REMARK INTRA:                   0.000
REMARK UNBOUND:                 0.000
REMARK SMILES C=C1[C@H]2C[C@@]3(C[C@@H]1O)[C@H](CC[C@@H]3C)C2(C)C
REMARK SMILES IDX 13 1 12 2 11 3 10 4 9 5 5 6 4 7 3 8 14 9 15 10 16 11 2 12
REMARK SMILES IDX 1 13 7 14 6 15 8 16
REMARK H PARENT 8 17
REMARK Flexibility Score: inf
ROOT
ATOM      1  C   UNL     1      -2.028  16.875  46.518  1.00  0.00     0.008 C 
ATOM      2  C   UNL     1      -2.974  17.990  46.988  1.00  0.00    -0.008 C 
ATOM      3  C   UNL     1      -3.384  17.805  48.447  1.00  0.00     0.004 C 
ATOM      4  C   UNL     1      -3.867  19.175  48.885  1.00  0.00     0.005 C 
ATOM      5  C   UNL     1      -2.914  20.158  48.188  1.00  0.00     0.002 C 
ATOM      6  C   UNL     1      -2.430  19.449  46.898  1.00  0.00    -0.020 C 
ATOM      7  C   UNL     1      -3.055  20.255  45.755  1.00  0.00     0.016 C 
ATOM      8  C   UNL     1      -2.932  21.675  46.283  1.00  0.00     0.023 C 
ATOM      9  C   UNL     1      -3.453  21.561  47.747  1.00  0.00    -0.025 C 
ATOM     10  C   UNL     1      -5.000  21.684  47.750  1.00  0.00     0.012 C 
ATOM     11  C   UNL     1      -2.917  22.685  48.669  1.00  0.00     0.012 C 
ATOM     12  C   UNL     1      -1.452  22.053  46.217  1.00  0.00    -0.045 C 
ATOM     13  C   UNL     1      -1.096  23.297  45.862  1.00  0.00     0.011 C 
ATOM     14  C   UNL     1      -0.373  21.050  46.625  1.00  0.00     0.140 C 
ATOM     15  C   UNL     1      -0.881  19.578  46.754  1.00  0.00     0.044 C 
ENDROOT
BRANCH  14  16
ATOM     16  O   UNL     1       0.205  21.466  47.835  1.00  0.00    -0.389 OA
ATOM     17  H   UNL     1      -0.153  22.371  48.032  1.00  0.00     0.211 HD
ENDBRANCH  14  16
TORSDOF 1
ENDMDL
MODEL 4
REMARK VINA RESULT:    -5.849      4.059      6.771
REMARK INTER + INTRA:          -6.020
REMARK INTER:                  -6.020
REMARK INTRA:                   0.000
REMARK UNBOUND:                 0.000
REMARK SMILES C=C1[C@H]2C[C@@]3(C[C@@H]1O)[C@H](CC[C@@H]3C)C2(C)C
REMARK SMILES IDX 13 1 12 2 11 3 10 4 9 5 5 6 4 7 3 8 14 9 15 10 16 11 2 12
REMARK SMILES IDX 1 13 7 14 6 15 8 16
REMARK H PARENT 8 17
REMARK Flexibility Score: inf
ROOT
ATOM      1  C   UNL     1       0.993  22.063  46.380  1.00  0.00     0.008 C 
ATOM      2  C   UNL     1       0.071  20.835  46.343  1.00  0.00    -0.008 C 
ATOM      3  C   UNL     1       0.659  19.663  47.125  1.00  0.00     0.004 C 
ATOM      4  C   UNL     1      -0.528  18.761  47.412  1.00  0.00     0.005 C 
ATOM      5  C   UNL     1      -1.683  19.730  47.701  1.00  0.00     0.002 C 
ATOM      6  C   UNL     1      -1.368  21.028  46.915  1.00  0.00    -0.020 C 
ATOM      7  C   UNL     1      -2.444  21.093  45.827  1.00  0.00     0.016 C 
ATOM      8  C   UNL     1      -3.666  20.591  46.579  1.00  0.00     0.023 C 
ATOM      9  C   UNL     1      -3.143  19.317  47.308  1.00  0.00    -0.025 C 
ATOM     10  C   UNL     1      -3.228  18.105  46.342  1.00  0.00     0.012 C 
ATOM     11  C   UNL     1      -3.980  18.949  48.558  1.00  0.00     0.012 C 
ATOM     12  C   UNL     1      -4.078  21.695  47.554  1.00  0.00    -0.045 C 
ATOM     13  C   UNL     1      -5.379  21.946  47.766  1.00  0.00     0.011 C 
ATOM     14  C   UNL     1      -3.024  22.465  48.350  1.00  0.00     0.140 C 
ATOM     15  C   UNL     1      -1.564  22.278  47.827  1.00  0.00     0.044 C 
ENDROOT
BRANCH  14  16
ATOM     16  O   UNL     1      -3.103  22.088  49.700  1.00  0.00    -0.389 OA
ATOM     17  H   UNL     1      -3.603  21.231  49.733  1.00  0.00     0.211 HD
ENDBRANCH  14  16
TORSDOF 1
ENDMDL
MODEL 5
REMARK VINA RESULT:    -5.754      1.515      4.217
REMARK INTER + INTRA:          -5.922
REMARK INTER:                  -5.922
REMARK INTRA:                   0.000
REMARK UNBOUND:                 0.000
REMARK SMILES C=C1[C@H]2C[C@@]3(C[C@@H]1O)[C@H](CC[C@@H]3C)C2(C)C
REMARK SMILES IDX 13 1 12 2 11 3 10 4 9 5 5 6 4 7 3 8 14 9 15 10 16 11 2 12
REMARK SMILES IDX 1 13 7 14 6 15 8 16
REMARK H PARENT 8 17
REMARK Flexibility Score: inf
ROOT
ATOM      1  C   UNL     1      -5.386  22.111  47.547  1.00  0.00     0.008 C 
ATOM      2  C   UNL     1      -4.913  22.769  48.852  1.00  0.00    -0.008 C 
ATOM      3  C   UNL     1      -3.430  22.513  49.109  1.00  0.00     0.004 C 
ATOM      4  C   UNL     1      -3.021  23.591  50.096  1.00  0.00     0.005 C 
ATOM      5  C   UNL     1      -3.800  24.836  49.647  1.00  0.00     0.002 C 
ATOM      6  C   UNL     1      -5.084  24.317  48.954  1.00  0.00    -0.020 C 
ATOM      7  C   UNL     1      -6.225  24.736  49.886  1.00  0.00     0.016 C 
ATOM      8  C   UNL     1      -5.757  26.110  50.338  1.00  0.00     0.023 C 
ATOM      9  C   UNL     1      -4.266  25.874  50.724  1.00  0.00    -0.025 C 
ATOM     10  C   UNL     1      -4.194  25.358  52.186  1.00  0.00     0.012 C 
ATOM     11  C   UNL     1      -3.415  27.166  50.667  1.00  0.00     0.012 C 
ATOM     12  C   UNL     1      -5.909  27.052  49.143  1.00  0.00    -0.045 C 
ATOM     13  C   UNL     1      -6.328  28.312  49.336  1.00  0.00     0.011 C 
ATOM     14  C   UNL     1      -5.516  26.598  47.737  1.00  0.00     0.140 C 
ATOM     15  C   UNL     1      -5.308  25.055  47.597  1.00  0.00     0.044 C 
ENDROOT
BRANCH  14  16
ATOM     16  O   UNL     1      -4.352  27.277  47.345  1.00  0.00    -0.389 OA
ATOM     17  H   UNL     1      -3.650  27.060  48.013  1.00  0.00     0.211 HD
ENDBRANCH  14  16
TORSDOF 1
ENDMDL
MODEL 6
REMARK VINA RESULT:    -5.714      1.935      4.951
REMARK INTER + INTRA:          -5.881
REMARK INTER:                  -5.881
REMARK INTRA:                   0.000
REMARK UNBOUND:                 0.000
REMARK SMILES C=C1[C@H]2C[C@@]3(C[C@@H]1O)[C@H](CC[C@@H]3C)C2(C)C
REMARK SMILES IDX 13 1 12 2 11 3 10 4 9 5 5 6 4 7 3 8 14 9 15 10 16 11 2 12
REMARK SMILES IDX 1 13 7 14 6 15 8 16
REMARK H PARENT 8 17
REMARK Flexibility Score: inf
ROOT
ATOM      1  C   UNL     1      -5.403  23.242  48.412  1.00  0.00     0.008 C 
ATOM      2  C   UNL     1      -4.278  23.047  49.440  1.00  0.00    -0.008 C 
ATOM      3  C   UNL     1      -2.940  22.754  48.765  1.00  0.00     0.004 C 
ATOM      4  C   UNL     1      -1.900  23.082  49.820  1.00  0.00     0.005 C 
ATOM      5  C   UNL     1      -2.456  24.324  50.533  1.00  0.00     0.002 C 
ATOM      6  C   UNL     1      -3.998  24.244  50.401  1.00  0.00    -0.020 C 
ATOM      7  C   UNL     1      -4.497  24.000  51.828  1.00  0.00     0.016 C 
ATOM      8  C   UNL     1      -3.556  24.880  52.634  1.00  0.00     0.023 C 
ATOM      9  C   UNL     1      -2.152  24.529  52.056  1.00  0.00    -0.025 C 
ATOM     10  C   UNL     1      -1.604  23.269  52.777  1.00  0.00     0.012 C 
ATOM     11  C   UNL     1      -1.109  25.654  52.275  1.00  0.00     0.012 C 
ATOM     12  C   UNL     1      -3.954  26.331  52.360  1.00  0.00    -0.045 C 
ATOM     13  C   UNL     1      -3.923  27.230  53.356  1.00  0.00     0.011 C 
ATOM     14  C   UNL     1      -4.314  26.788  50.947  1.00  0.00     0.140 C 
ATOM     15  C   UNL     1      -4.577  25.619  49.943  1.00  0.00     0.044 C 
ENDROOT
BRANCH  14  16
ATOM     16  O   UNL     1      -3.293  27.619  50.459  1.00  0.00    -0.389 OA
ATOM     17  H   UNL     1      -2.473  27.063  50.394  1.00  0.00     0.211 HD
ENDBRANCH  14  16
TORSDOF 1
ENDMDL
MODEL 7
REMARK VINA RESULT:    -5.684      1.832      3.391
REMARK INTER + INTRA:          -5.850
REMARK INTER:                  -5.850
REMARK INTRA:                   0.000
REMARK UNBOUND:                 0.000
REMARK SMILES C=C1[C@H]2C[C@@]3(C[C@@H]1O)[C@H](CC[C@@H]3C)C2(C)C
REMARK SMILES IDX 13 1 12 2 11 3 10 4 9 5 5 6 4 7 3 8 14 9 15 10 16 11 2 12
REMARK SMILES IDX 1 13 7 14 6 15 8 16
REMARK H PARENT 8 17
REMARK Flexibility Score: inf
ROOT
ATOM      1  C   UNL     1      -3.867  27.723  52.811  1.00  0.00     0.008 C 
ATOM      2  C   UNL     1      -3.631  26.469  51.958  1.00  0.00    -0.008 C 
ATOM      3  C   UNL     1      -3.935  25.191  52.736  1.00  0.00     0.004 C 
ATOM      4  C   UNL     1      -4.142  24.133  51.668  1.00  0.00     0.005 C 
ATOM      5  C   UNL     1      -4.883  24.867  50.541  1.00  0.00     0.002 C 
ATOM      6  C   UNL     1      -4.462  26.354  50.642  1.00  0.00    -0.020 C 
ATOM      7  C   UNL     1      -3.631  26.609  49.382  1.00  0.00     0.016 C 
ATOM      8  C   UNL     1      -4.397  25.803  48.345  1.00  0.00     0.023 C 
ATOM      9  C   UNL     1      -4.633  24.436  49.055  1.00  0.00    -0.025 C 
ATOM     10  C   UNL     1      -3.387  23.533  48.850  1.00  0.00     0.012 C 
ATOM     11  C   UNL     1      -5.844  23.658  48.483  1.00  0.00     0.012 C 
ATOM     12  C   UNL     1      -5.702  26.551  48.069  1.00  0.00    -0.045 C 
ATOM     13  C   UNL     1      -6.188  26.605  46.819  1.00  0.00     0.011 C 
ATOM     14  C   UNL     1      -6.501  27.173  49.214  1.00  0.00     0.140 C 
ATOM     15  C   UNL     1      -5.715  27.282  50.559  1.00  0.00     0.044 C 
ENDROOT
BRANCH  14  16
ATOM     16  O   UNL     1      -7.680  26.434  49.405  1.00  0.00    -0.389 OA
ATOM     17  H   UNL     1      -7.555  25.898  50.232  1.00  0.00     0.211 HD
ENDBRANCH  14  16
TORSDOF 1
ENDMDL
MODEL 8
REMARK VINA RESULT:    -5.527      1.570      4.052
REMARK INTER + INTRA:          -5.689
REMARK INTER:                  -5.689
REMARK INTRA:                   0.000
REMARK UNBOUND:                 0.000
REMARK SMILES C=C1[C@H]2C[C@@]3(C[C@@H]1O)[C@H](CC[C@@H]3C)C2(C)C
REMARK SMILES IDX 13 1 12 2 11 3 10 4 9 5 5 6 4 7 3 8 14 9 15 10 16 11 2 12
REMARK SMILES IDX 1 13 7 14 6 15 8 16
REMARK H PARENT 8 17
REMARK Flexibility Score: inf
ROOT
ATOM      1  C   UNL     1      -2.443  21.495  48.870  1.00  0.00     0.008 C 
ATOM      2  C   UNL     1      -3.466  22.472  48.270  1.00  0.00    -0.008 C 
ATOM      3  C   UNL     1      -4.809  21.793  48.009  1.00  0.00     0.004 C 
ATOM      4  C   UNL     1      -5.802  22.935  47.912  1.00  0.00     0.005 C 
ATOM      5  C   UNL     1      -5.334  23.941  48.974  1.00  0.00     0.002 C 
ATOM      6  C   UNL     1      -3.806  23.734  49.121  1.00  0.00    -0.020 C 
ATOM      7  C   UNL     1      -3.185  25.019  48.565  1.00  0.00     0.016 C 
ATOM      8  C   UNL     1      -4.157  26.071  49.075  1.00  0.00     0.023 C 
ATOM      9  C   UNL     1      -5.552  25.472  48.724  1.00  0.00    -0.025 C 
ATOM     10  C   UNL     1      -5.910  25.839  47.259  1.00  0.00     0.012 C 
ATOM     11  C   UNL     1      -6.691  26.031  49.612  1.00  0.00     0.012 C 
ATOM     12  C   UNL     1      -3.936  26.192  50.583  1.00  0.00    -0.045 C 
ATOM     13  C   UNL     1      -3.994  27.398  51.171  1.00  0.00     0.011 C 
ATOM     14  C   UNL     1      -3.726  24.947  51.444  1.00  0.00     0.140 C 
ATOM     15  C   UNL     1      -3.410  23.651  50.629  1.00  0.00     0.044 C 
ENDROOT
BRANCH  14  16
ATOM     16  O   UNL     1      -4.861  24.746  52.244  1.00  0.00    -0.389 OA
ATOM     17  H   UNL     1      -4.982  23.764  52.335  1.00  0.00     0.211 HD
ENDBRANCH  14  16
TORSDOF 1
ENDMDL
MODEL 9
REMARK VINA RESULT:    -5.464      2.961      4.606
REMARK INTER + INTRA:          -5.624
REMARK INTER:                  -5.624
REMARK INTRA:                   0.000
REMARK UNBOUND:                 0.000
REMARK SMILES C=C1[C@H]2C[C@@]3(C[C@@H]1O)[C@H](CC[C@@H]3C)C2(C)C
REMARK SMILES IDX 13 1 12 2 11 3 10 4 9 5 5 6 4 7 3 8 14 9 15 10 16 11 2 12
REMARK SMILES IDX 1 13 7 14 6 15 8 16
REMARK H PARENT 8 17
REMARK Flexibility Score: inf
ROOT
ATOM      1  C   UNL     1       0.431  23.879  46.777  1.00  0.00     0.008 C 
ATOM      2  C   UNL     1      -0.892  24.070  47.533  1.00  0.00    -0.008 C 
ATOM      3  C   UNL     1      -1.706  25.229  46.962  1.00  0.00     0.004 C 
ATOM      4  C   UNL     1      -3.122  24.976  47.444  1.00  0.00     0.005 C 
ATOM      5  C   UNL     1      -3.286  23.451  47.365  1.00  0.00     0.002 C 
ATOM      6  C   UNL     1      -1.869  22.853  47.546  1.00  0.00    -0.020 C 
ATOM      7  C   UNL     1      -1.919  22.138  48.900  1.00  0.00     0.016 C 
ATOM      8  C   UNL     1      -3.317  21.540  48.874  1.00  0.00     0.023 C 
ATOM      9  C   UNL     1      -4.209  22.728  48.405  1.00  0.00    -0.025 C 
ATOM     10  C   UNL     1      -4.593  23.594  49.634  1.00  0.00     0.012 C 
ATOM     11  C   UNL     1      -5.537  22.267  47.754  1.00  0.00     0.012 C 
ATOM     12  C   UNL     1      -3.295  20.391  47.865  1.00  0.00    -0.045 C 
ATOM     13  C   UNL     1      -3.979  19.266  48.120  1.00  0.00     0.011 C 
ATOM     14  C   UNL     1      -2.564  20.539  46.531  1.00  0.00     0.140 C 
ATOM     15  C   UNL     1      -1.595  21.763  46.464  1.00  0.00     0.044 C 
ENDROOT
BRANCH  14  16
ATOM     16  O   UNL     1      -3.509  20.619  45.496  1.00  0.00    -0.389 OA
ATOM     17  H   UNL     1      -4.160  21.324  45.751  1.00  0.00     0.211 HD
ENDBRANCH  14  16
TORSDOF 1
ENDMDL
