MODEL 1
REMARK VINA RESULT:    -5.380      0.000      0.000
REMARK INTER + INTRA:          -5.900
REMARK INTER:                  -5.852
REMARK INTRA:                  -0.048
REMARK UNBOUND:                -0.048
REMARK SMILES COc1cc2ccc(=O)oc2cc1O
REMARK SMILES IDX 3 1 13 2 12 3 11 4 5 5 4 6 6 7 7 8 8 9 9 10 10 11 2 12 1 13
REMARK SMILES IDX 14 14
REMARK H PARENT 14 15
REMARK Flexibility Score: inf
ROOT
ATOM      1  C   UNL     1      20.383  -0.089 -20.016  1.00  0.00     0.161 A 
ATOM      2  C   UNL     1      19.376  -0.455 -19.110  1.00  0.00     0.161 A 
ATOM      3  C   UNL     1      19.505  -0.154 -17.746  1.00  0.00     0.098 A 
ATOM      4  C   UNL     1      20.638   0.514 -17.277  1.00  0.00     0.142 A 
ATOM      5  C   UNL     1      21.656   0.887 -18.182  1.00  0.00     0.022 A 
ATOM      6  C   UNL     1      21.528   0.586 -19.545  1.00  0.00     0.062 A 
ATOM      7  C   UNL     1      22.779   1.555 -17.682  1.00  0.00     0.019 A 
ATOM      8  C   UNL     1      22.860   1.833 -16.318  1.00  0.00     0.094 A 
ATOM      9  C   UNL     1      21.812   1.433 -15.481  1.00  0.00     0.336 A 
ATOM     10  O   UNL     1      21.867   1.673 -14.247  1.00  0.00    -0.246 OA
ATOM     11  O   UNL     1      20.756   0.798 -15.982  1.00  0.00    -0.423 OA
ENDROOT
BRANCH   1  12
ATOM     12  O   UNL     1      20.212  -0.411 -21.371  1.00  0.00    -0.493 OA
ATOM     13  C   UNL     1      21.277  -0.675 -22.279  1.00  0.00     0.278 C 
ENDBRANCH   1  12
BRANCH   2  14
ATOM     14  O   UNL     1      18.243  -1.123 -19.574  1.00  0.00    -0.504 OA
ATOM     15  H   UNL     1      18.130  -1.360 -20.553  1.00  0.00     0.293 HD
ENDBRANCH   2  14
TORSDOF 2
ENDMDL
MODEL 2
REMARK VINA RESULT:    -5.255      2.228      3.160
REMARK INTER + INTRA:          -5.764
REMARK INTER:                  -5.699
REMARK INTRA:                  -0.065
REMARK UNBOUND:                -0.048
REMARK SMILES COc1cc2ccc(=O)oc2cc1O
REMARK SMILES IDX 3 1 13 2 12 3 11 4 5 5 4 6 6 7 7 8 8 9 9 10 10 11 2 12 1 13
REMARK SMILES IDX 14 14
REMARK H PARENT 14 15
REMARK Flexibility Score: inf
ROOT
ATOM      1  C   UNL     1      21.578   0.347 -21.341  1.00  0.00     0.161 A 
ATOM      2  C   UNL     1      20.788  -0.770 -21.653  1.00  0.00     0.161 A 
ATOM      3  C   UNL     1      19.967  -1.353 -20.677  1.00  0.00     0.098 A 
ATOM      4  C   UNL     1      19.929  -0.826 -19.384  1.00  0.00     0.142 A 
ATOM      5  C   UNL     1      20.720   0.297 -19.061  1.00  0.00     0.022 A 
ATOM      6  C   UNL     1      21.541   0.880 -20.037  1.00  0.00     0.062 A 
ATOM      7  C   UNL     1      20.660   0.802 -17.758  1.00  0.00     0.019 A 
ATOM      8  C   UNL     1      19.827   0.187 -16.823  1.00  0.00     0.094 A 
ATOM      9  C   UNL     1      19.071  -0.924 -17.215  1.00  0.00     0.336 A 
ATOM     10  O   UNL     1      18.315  -1.494 -16.386  1.00  0.00    -0.246 OA
ATOM     11  O   UNL     1      19.148  -1.383 -18.461  1.00  0.00    -0.423 OA
ENDROOT
BRANCH   1  12
ATOM     12  O   UNL     1      22.385   0.898 -22.349  1.00  0.00    -0.493 OA
ATOM     13  C   UNL     1      22.114   2.124 -23.020  1.00  0.00     0.278 C 
ENDBRANCH   1  12
BRANCH   2  14
ATOM     14  O   UNL     1      20.824  -1.298 -22.943  1.00  0.00    -0.504 OA
ATOM     15  H   UNL     1      20.080  -1.127 -23.608  1.00  0.00     0.293 HD
ENDBRANCH   2  14
TORSDOF 2
ENDMDL
MODEL 3
REMARK VINA RESULT:    -5.041     16.056     18.081
REMARK INTER + INTRA:          -5.531
REMARK INTER:                  -5.482
REMARK INTRA:                  -0.049
REMARK UNBOUND:                -0.048
REMARK SMILES COc1cc2ccc(=O)oc2cc1O
REMARK SMILES IDX 3 1 13 2 12 3 11 4 5 5 4 6 6 7 7 8 8 9 9 10 10 11 2 12 1 13
REMARK SMILES IDX 14 14
REMARK H PARENT 14 15
REMARK Flexibility Score: inf
ROOT
ATOM      1  C   UNL     1       7.895  -6.519  -6.745  1.00  0.00     0.161 A 
ATOM      2  C   UNL     1       8.248  -7.780  -7.249  1.00  0.00     0.161 A 
ATOM      3  C   UNL     1       8.391  -7.976  -8.631  1.00  0.00     0.098 A 
ATOM      4  C   UNL     1       8.185  -6.916  -9.517  1.00  0.00     0.142 A 
ATOM      5  C   UNL     1       7.830  -5.645  -9.018  1.00  0.00     0.022 A 
ATOM      6  C   UNL     1       7.686  -5.448  -7.638  1.00  0.00     0.062 A 
ATOM      7  C   UNL     1       7.629  -4.603  -9.931  1.00  0.00     0.019 A 
ATOM      8  C   UNL     1       7.786  -4.849 -11.295  1.00  0.00     0.094 A 
ATOM      9  C   UNL     1       8.139  -6.136 -11.716  1.00  0.00     0.336 A 
ATOM     10  O   UNL     1       8.283  -6.378 -12.943  1.00  0.00    -0.246 OA
ATOM     11  O   UNL     1       8.322  -7.108 -10.827  1.00  0.00    -0.423 OA
ENDROOT
BRANCH   1  12
ATOM     12  O   UNL     1       7.762  -6.368  -5.355  1.00  0.00    -0.493 OA
ATOM     13  C   UNL     1       8.121  -5.195  -4.633  1.00  0.00     0.278 C 
ENDBRANCH   1  12
BRANCH   2  14
ATOM     14  O   UNL     1       8.454  -8.840  -6.367  1.00  0.00    -0.504 OA
ATOM     15  H   UNL     1       8.199  -9.790  -6.609  1.00  0.00     0.293 HD
ENDBRANCH   2  14
TORSDOF 2
ENDMDL
MODEL 4
REMARK VINA RESULT:    -5.015      1.534      5.426
REMARK INTER + INTRA:          -5.502
REMARK INTER:                  -5.437
REMARK INTRA:                  -0.065
REMARK UNBOUND:                -0.048
REMARK SMILES COc1cc2ccc(=O)oc2cc1O
REMARK SMILES IDX 3 1 13 2 12 3 11 4 5 5 4 6 6 7 7 8 8 9 9 10 10 11 2 12 1 13
REMARK SMILES IDX 14 14
REMARK H PARENT 14 15
REMARK Flexibility Score: inf
ROOT
ATOM      1  C   UNL     1      20.029   0.988 -15.542  1.00  0.00     0.161 A 
ATOM      2  C   UNL     1      21.318   1.290 -16.007  1.00  0.00     0.161 A 
ATOM      3  C   UNL     1      21.713   0.910 -17.298  1.00  0.00     0.098 A 
ATOM      4  C   UNL     1      20.826   0.227 -18.133  1.00  0.00     0.142 A 
ATOM      5  C   UNL     1      19.528  -0.081 -17.673  1.00  0.00     0.022 A 
ATOM      6  C   UNL     1      19.132   0.298 -16.383  1.00  0.00     0.062 A 
ATOM      7  C   UNL     1      18.662  -0.767 -18.533  1.00  0.00     0.019 A 
ATOM      8  C   UNL     1      19.102  -1.121 -19.808  1.00  0.00     0.094 A 
ATOM      9  C   UNL     1      20.404  -0.783 -20.195  1.00  0.00     0.336 A 
ATOM     10  O   UNL     1      20.820  -1.095 -21.340  1.00  0.00    -0.246 OA
ATOM     11  O   UNL     1      21.206  -0.131 -19.357  1.00  0.00    -0.423 OA
ENDROOT
BRANCH   1  12
ATOM     12  O   UNL     1      19.676   1.387 -14.243  1.00  0.00    -0.493 OA
ATOM     13  C   UNL     1      19.638   0.519 -13.115  1.00  0.00     0.278 C 
ENDBRANCH   1  12
BRANCH   2  14
ATOM     14  O   UNL     1      22.206   1.972 -15.176  1.00  0.00    -0.504 OA
ATOM     15  H   UNL     1      21.974   2.186 -14.213  1.00  0.00     0.293 HD
ENDBRANCH   2  14
TORSDOF 2
ENDMDL
MODEL 5
REMARK VINA RESULT:    -4.920     10.417     11.972
REMARK INTER + INTRA:          -5.399
REMARK INTER:                  -5.335
REMARK INTRA:                  -0.064
REMARK UNBOUND:                -0.048
REMARK SMILES COc1cc2ccc(=O)oc2cc1O
REMARK SMILES IDX 3 1 13 2 12 3 11 4 5 5 4 6 6 7 7 8 8 9 9 10 10 11 2 12 1 13
REMARK SMILES IDX 14 14
REMARK H PARENT 14 15
REMARK Flexibility Score: inf
ROOT
ATOM      1  C   UNL     1      19.170  -1.950  -7.848  1.00  0.00     0.161 A 
ATOM      2  C   UNL     1      18.848  -2.591  -6.642  1.00  0.00     0.161 A 
ATOM      3  C   UNL     1      19.861  -3.119  -5.828  1.00  0.00     0.098 A 
ATOM      4  C   UNL     1      21.200  -3.011  -6.211  1.00  0.00     0.142 A 
ATOM      5  C   UNL     1      21.532  -2.368  -7.423  1.00  0.00     0.022 A 
ATOM      6  C   UNL     1      20.521  -1.839  -8.237  1.00  0.00     0.062 A 
ATOM      7  C   UNL     1      22.882  -2.275  -7.779  1.00  0.00     0.019 A 
ATOM      8  C   UNL     1      23.852  -2.816  -6.934  1.00  0.00     0.094 A 
ATOM      9  C   UNL     1      23.447  -3.440  -5.749  1.00  0.00     0.336 A 
ATOM     10  O   UNL     1      24.307  -3.935  -4.975  1.00  0.00    -0.246 OA
ATOM     11  O   UNL     1      22.157  -3.514  -5.435  1.00  0.00    -0.423 OA
ENDROOT
BRANCH   1  12
ATOM     12  O   UNL     1      18.124  -1.436  -8.632  1.00  0.00    -0.493 OA
ATOM     13  C   UNL     1      17.734  -0.067  -8.659  1.00  0.00     0.278 C 
ENDBRANCH   1  12
BRANCH   2  14
ATOM     14  O   UNL     1      17.513  -2.700  -6.257  1.00  0.00    -0.504 OA
ATOM     15  H   UNL     1      16.880  -1.911  -6.304  1.00  0.00     0.293 HD
ENDBRANCH   2  14
TORSDOF 2
ENDMDL
MODEL 6
REMARK VINA RESULT:    -4.914     15.874     17.678
REMARK INTER + INTRA:          -5.393
REMARK INTER:                  -5.328
REMARK INTRA:                  -0.064
REMARK UNBOUND:                -0.048
REMARK SMILES COc1cc2ccc(=O)oc2cc1O
REMARK SMILES IDX 3 1 13 2 12 3 11 4 5 5 4 6 6 7 7 8 8 9 9 10 10 11 2 12 1 13
REMARK SMILES IDX 14 14
REMARK H PARENT 14 15
REMARK Flexibility Score: inf
ROOT
ATOM      1  C   UNL     1       8.321  -6.380  -6.635  1.00  0.00     0.161 A 
ATOM      2  C   UNL     1       7.948  -7.710  -6.886  1.00  0.00     0.161 A 
ATOM      3  C   UNL     1       8.647  -8.476  -7.831  1.00  0.00     0.098 A 
ATOM      4  C   UNL     1       9.722  -7.922  -8.529  1.00  0.00     0.142 A 
ATOM      5  C   UNL     1      10.104  -6.586  -8.283  1.00  0.00     0.022 A 
ATOM      6  C   UNL     1       9.406  -5.819  -7.339  1.00  0.00     0.062 A 
ATOM      7  C   UNL     1      11.185  -6.059  -8.998  1.00  0.00     0.019 A 
ATOM      8  C   UNL     1      11.849  -6.862  -9.926  1.00  0.00     0.094 A 
ATOM      9  C   UNL     1      11.413  -8.178 -10.118  1.00  0.00     0.336 A 
ATOM     10  O   UNL     1      11.998  -8.918 -10.952  1.00  0.00    -0.246 OA
ATOM     11  O   UNL     1      10.382  -8.653  -9.424  1.00  0.00    -0.423 OA
ENDROOT
BRANCH   1  12
ATOM     12  O   UNL     1       7.594  -5.651  -5.682  1.00  0.00    -0.493 OA
ATOM     13  C   UNL     1       8.093  -5.268  -4.405  1.00  0.00     0.278 C 
ENDBRANCH   1  12
BRANCH   2  14
ATOM     14  O   UNL     1       6.876  -8.266  -6.190  1.00  0.00    -0.504 OA
ATOM     15  H   UNL     1       6.572  -7.895  -5.298  1.00  0.00     0.293 HD
ENDBRANCH   2  14
TORSDOF 2
ENDMDL
MODEL 7
REMARK VINA RESULT:    -4.887      1.745      5.004
REMARK INTER + INTRA:          -5.364
REMARK INTER:                  -5.314
REMARK INTRA:                  -0.050
REMARK UNBOUND:                -0.048
REMARK SMILES COc1cc2ccc(=O)oc2cc1O
REMARK SMILES IDX 3 1 13 2 12 3 11 4 5 5 4 6 6 7 7 8 8 9 9 10 10 11 2 12 1 13
REMARK SMILES IDX 14 14
REMARK H PARENT 14 15
REMARK Flexibility Score: inf
ROOT
ATOM      1  C   UNL     1      19.198  -0.271 -16.916  1.00  0.00     0.161 A 
ATOM      2  C   UNL     1      20.271   0.621 -16.764  1.00  0.00     0.161 A 
ATOM      3  C   UNL     1      21.073   0.959 -17.863  1.00  0.00     0.098 A 
ATOM      4  C   UNL     1      20.811   0.412 -19.121  1.00  0.00     0.142 A 
ATOM      5  C   UNL     1      19.733  -0.485 -19.284  1.00  0.00     0.022 A 
ATOM      6  C   UNL     1      18.931  -0.824 -18.185  1.00  0.00     0.062 A 
ATOM      7  C   UNL     1      19.495  -1.017 -20.556  1.00  0.00     0.019 A 
ATOM      8  C   UNL     1      20.321  -0.648 -21.618  1.00  0.00     0.094 A 
ATOM      9  C   UNL     1      21.371   0.247 -21.381  1.00  0.00     0.336 A 
ATOM     10  O   UNL     1      22.128   0.590 -22.325  1.00  0.00    -0.246 OA
ATOM     11  O   UNL     1      21.575   0.736 -20.161  1.00  0.00    -0.423 OA
ENDROOT
BRANCH   1  12
ATOM     12  O   UNL     1      18.421  -0.582 -15.789  1.00  0.00    -0.493 OA
ATOM     13  C   UNL     1      17.877  -1.868 -15.514  1.00  0.00     0.278 C 
ENDBRANCH   1  12
BRANCH   2  14
ATOM     14  O   UNL     1      20.535   1.169 -15.509  1.00  0.00    -0.504 OA
ATOM     15  H   UNL     1      19.793   1.371 -14.851  1.00  0.00     0.293 HD
ENDBRANCH   2  14
TORSDOF 2
ENDMDL
MODEL 8
REMARK VINA RESULT:    -4.866     15.919     17.408
REMARK INTER + INTRA:          -5.340
REMARK INTER:                  -5.276
REMARK INTRA:                  -0.065
REMARK UNBOUND:                -0.048
REMARK SMILES COc1cc2ccc(=O)oc2cc1O
REMARK SMILES IDX 3 1 13 2 12 3 11 4 5 5 4 6 6 7 7 8 8 9 9 10 10 11 2 12 1 13
REMARK SMILES IDX 14 14
REMARK H PARENT 14 15
REMARK Flexibility Score: inf
ROOT
ATOM      1  C   UNL     1       8.169  -6.905 -10.770  1.00  0.00     0.161 A 
ATOM      2  C   UNL     1       8.173  -5.512 -10.591  1.00  0.00     0.161 A 
ATOM      3  C   UNL     1       8.112  -4.963  -9.302  1.00  0.00     0.098 A 
ATOM      4  C   UNL     1       8.048  -5.797  -8.184  1.00  0.00     0.142 A 
ATOM      5  C   UNL     1       8.044  -7.198  -8.355  1.00  0.00     0.022 A 
ATOM      6  C   UNL     1       8.105  -7.748  -9.642  1.00  0.00     0.062 A 
ATOM      7  C   UNL     1       7.979  -8.008  -7.215  1.00  0.00     0.019 A 
ATOM      8  C   UNL     1       7.921  -7.412  -5.955  1.00  0.00     0.094 A 
ATOM      9  C   UNL     1       7.929  -6.016  -5.863  1.00  0.00     0.336 A 
ATOM     10  O   UNL     1       7.875  -5.460  -4.736  1.00  0.00    -0.246 OA
ATOM     11  O   UNL     1       7.990  -5.270  -6.963  1.00  0.00    -0.423 OA
ENDROOT
BRANCH   1  12
ATOM     12  O   UNL     1       8.231  -7.411 -12.078  1.00  0.00    -0.493 OA
ATOM     13  C   UNL     1       9.371  -8.050 -12.643  1.00  0.00     0.278 C 
ENDBRANCH   1  12
BRANCH   2  14
ATOM     14  O   UNL     1       8.236  -4.677 -11.706  1.00  0.00    -0.504 OA
ATOM     15  H   UNL     1       8.867  -4.866 -12.476  1.00  0.00     0.293 HD
ENDBRANCH   2  14
TORSDOF 2
ENDMDL
MODEL 9
REMARK VINA RESULT:    -4.696     15.512     17.057
REMARK INTER + INTRA:          -5.155
REMARK INTER:                  -5.109
REMARK INTRA:                  -0.046
REMARK UNBOUND:                -0.048
REMARK SMILES COc1cc2ccc(=O)oc2cc1O
REMARK SMILES IDX 3 1 13 2 12 3 11 4 5 5 4 6 6 7 7 8 8 9 9 10 10 11 2 12 1 13
REMARK SMILES IDX 14 14
REMARK H PARENT 14 15
REMARK Flexibility Score: inf
ROOT
ATOM      1  C   UNL     1       7.905  -5.732 -11.726  1.00  0.00     0.161 A 
ATOM      2  C   UNL     1       7.927  -7.135 -11.692  1.00  0.00     0.161 A 
ATOM      3  C   UNL     1       7.929  -7.813 -10.464  1.00  0.00     0.098 A 
ATOM      4  C   UNL     1       7.909  -7.099  -9.265  1.00  0.00     0.142 A 
ATOM      5  C   UNL     1       7.886  -5.688  -9.290  1.00  0.00     0.022 A 
ATOM      6  C   UNL     1       7.884  -5.008 -10.516  1.00  0.00     0.062 A 
ATOM      7  C   UNL     1       7.866  -5.000  -8.072  1.00  0.00     0.019 A 
ATOM      8  C   UNL     1       7.868  -5.721  -6.878  1.00  0.00     0.094 A 
ATOM      9  C   UNL     1       7.891  -7.120  -6.931  1.00  0.00     0.336 A 
ATOM     10  O   UNL     1       7.895  -7.788  -5.865  1.00  0.00    -0.246 OA
ATOM     11  O   UNL     1       7.911  -7.748  -8.103  1.00  0.00    -0.423 OA
ENDROOT
BRANCH   1  12
ATOM     12  O   UNL     1       7.904  -5.094 -12.977  1.00  0.00    -0.493 OA
ATOM     13  C   UNL     1       7.496  -3.747 -13.195  1.00  0.00     0.278 C 
ENDBRANCH   1  12
BRANCH   2  14
ATOM     14  O   UNL     1       7.947  -7.851 -12.888  1.00  0.00    -0.504 OA
ATOM     15  H   UNL     1       8.790  -8.303 -13.222  1.00  0.00     0.293 HD
ENDBRANCH   2  14
TORSDOF 2
ENDMDL
