MODEL 1
REMARK VINA RESULT:    -4.096      0.000      0.000
REMARK INTER + INTRA:          -4.694
REMARK INTER:                  -4.455
REMARK INTRA:                  -0.239
REMARK UNBOUND:                -0.239
REMARK SMILES O=C([O-])c1ccccc1O
REMARK SMILES IDX 4 1 9 2 5 3 8 4 6 5 7 6 2 7 1 8 3 9 10 10
REMARK H PARENT 10 11
REMARK Flexibility Score: inf
ROOT
ATOM      1  C   UNL     1      49.552 -28.588 -31.560  1.00  0.00     0.039 A 
ATOM      2  C   UNL     1      48.518 -28.178 -32.441  1.00  0.00     0.124 A 
ATOM      3  C   UNL     1      49.210 -29.293 -30.392  1.00  0.00     0.014 A 
ATOM      4  C   UNL     1      47.181 -28.425 -32.103  1.00  0.00     0.047 A 
ATOM      5  C   UNL     1      47.873 -29.550 -30.079  1.00  0.00     0.001 A 
ATOM      6  C   UNL     1      46.859 -29.107 -30.929  1.00  0.00     0.004 A 
ENDROOT
BRANCH   1   7
ATOM      7  C   UNL     1      50.979 -28.278 -31.798  1.00  0.00     0.075 C 
ATOM      8  O   UNL     1      51.851 -29.185 -31.775  1.00  0.00    -0.545 OA
ATOM      9  O   UNL     1      51.364 -26.981 -32.118  1.00  0.00    -0.545 OA
ENDBRANCH   1   7
BRANCH   2  10
ATOM     10  O   UNL     1      48.772 -27.559 -33.667  1.00  0.00    -0.507 OA
ATOM     11  H   UNL     1      48.086 -27.016 -34.172  1.00  0.00     0.293 HD
ENDBRANCH   2  10
TORSDOF 2
ENDMDL
MODEL 2
REMARK VINA RESULT:    -4.017      2.019      3.580
REMARK INTER + INTRA:          -4.608
REMARK INTER:                  -4.391
REMARK INTRA:                  -0.217
REMARK UNBOUND:                -0.239
REMARK SMILES O=C([O-])c1ccccc1O
REMARK SMILES IDX 4 1 9 2 5 3 8 4 6 5 7 6 2 7 1 8 3 9 10 10
REMARK H PARENT 10 11
REMARK Flexibility Score: inf
ROOT
ATOM      1  C   UNL     1      48.334 -28.751 -31.381  1.00  0.00     0.039 A 
ATOM      2  C   UNL     1      48.809 -28.009 -32.495  1.00  0.00     0.124 A 
ATOM      3  C   UNL     1      49.267 -29.287 -30.475  1.00  0.00     0.014 A 
ATOM      4  C   UNL     1      50.188 -27.881 -32.704  1.00  0.00     0.047 A 
ATOM      5  C   UNL     1      50.638 -29.132 -30.686  1.00  0.00     0.001 A 
ATOM      6  C   UNL     1      51.098 -28.438 -31.805  1.00  0.00     0.004 A 
ENDROOT
BRANCH   1   7
ATOM      7  C   UNL     1      46.897 -29.015 -31.147  1.00  0.00     0.075 C 
ATOM      8  O   UNL     1      46.011 -28.382 -31.780  1.00  0.00    -0.545 OA
ATOM      9  O   UNL     1      46.509 -30.018 -30.266  1.00  0.00    -0.545 OA
ENDBRANCH   1   7
BRANCH   2  10
ATOM     10  O   UNL     1      47.954 -27.362 -33.390  1.00  0.00    -0.507 OA
ATOM     11  H   UNL     1      48.233 -27.066 -34.314  1.00  0.00     0.293 HD
ENDBRANCH   2  10
TORSDOF 2
ENDMDL
MODEL 3
REMARK VINA RESULT:    -3.853      1.149      1.433
REMARK INTER + INTRA:          -4.430
REMARK INTER:                  -4.184
REMARK INTRA:                  -0.246
REMARK UNBOUND:                -0.239
REMARK SMILES O=C([O-])c1ccccc1O
REMARK SMILES IDX 4 1 9 2 5 3 8 4 6 5 7 6 2 7 1 8 3 9 10 10
REMARK H PARENT 10 11
REMARK Flexibility Score: inf
ROOT
ATOM      1  C   UNL     1      48.503 -28.368 -31.457  1.00  0.00     0.039 A 
ATOM      2  C   UNL     1      47.238 -27.913 -31.914  1.00  0.00     0.124 A 
ATOM      3  C   UNL     1      48.548 -29.338 -30.439  1.00  0.00     0.014 A 
ATOM      4  C   UNL     1      46.070 -28.387 -31.304  1.00  0.00     0.047 A 
ATOM      5  C   UNL     1      47.372 -29.817 -29.856  1.00  0.00     0.001 A 
ATOM      6  C   UNL     1      46.135 -29.334 -30.281  1.00  0.00     0.004 A 
ENDROOT
BRANCH   1   7
ATOM      7  C   UNL     1      49.782 -27.843 -31.982  1.00  0.00     0.075 C 
ATOM      8  O   UNL     1      50.710 -27.502 -31.202  1.00  0.00    -0.545 OA
ATOM      9  O   UNL     1      49.998 -27.782 -33.354  1.00  0.00    -0.545 OA
ENDBRANCH   1   7
BRANCH   2  10
ATOM     10  O   UNL     1      47.097 -27.025 -32.983  1.00  0.00    -0.507 OA
ATOM     11  H   UNL     1      46.459 -27.173 -33.751  1.00  0.00     0.293 HD
ENDBRANCH   2  10
TORSDOF 2
ENDMDL
MODEL 4
REMARK VINA RESULT:    -3.772      0.988      2.357
REMARK INTER + INTRA:          -4.341
REMARK INTER:                  -4.089
REMARK INTRA:                  -0.252
REMARK UNBOUND:                -0.239
REMARK SMILES O=C([O-])c1ccccc1O
REMARK SMILES IDX 4 1 9 2 5 3 8 4 6 5 7 6 2 7 1 8 3 9 10 10
REMARK H PARENT 10 11
REMARK Flexibility Score: inf
ROOT
ATOM      1  C   UNL     1      48.911 -28.421 -31.854  1.00  0.00     0.039 A 
ATOM      2  C   UNL     1      49.236 -29.152 -30.681  1.00  0.00     0.124 A 
ATOM      3  C   UNL     1      47.557 -28.251 -32.195  1.00  0.00     0.014 A 
ATOM      4  C   UNL     1      48.213 -29.740 -29.926  1.00  0.00     0.047 A 
ATOM      5  C   UNL     1      46.548 -28.825 -31.419  1.00  0.00     0.001 A 
ATOM      6  C   UNL     1      46.876 -29.577 -30.291  1.00  0.00     0.004 A 
ENDROOT
BRANCH   1   7
ATOM      7  C   UNL     1      49.938 -27.855 -32.757  1.00  0.00     0.075 C 
ATOM      8  O   UNL     1      49.804 -27.917 -34.007  1.00  0.00    -0.545 OA
ATOM      9  O   UNL     1      51.036 -27.187 -32.228  1.00  0.00    -0.545 OA
ENDBRANCH   1   7
BRANCH   2  10
ATOM     10  O   UNL     1      50.546 -29.289 -30.216  1.00  0.00    -0.507 OA
ATOM     11  H   UNL     1      50.783 -29.423 -29.244  1.00  0.00     0.293 HD
ENDBRANCH   2  10
TORSDOF 2
ENDMDL
MODEL 5
REMARK VINA RESULT:    -3.733      2.308      3.914
REMARK INTER + INTRA:          -4.299
REMARK INTER:                  -4.050
REMARK INTRA:                  -0.249
REMARK UNBOUND:                -0.239
REMARK SMILES O=C([O-])c1ccccc1O
REMARK SMILES IDX 4 1 9 2 5 3 8 4 6 5 7 6 2 7 1 8 3 9 10 10
REMARK H PARENT 10 11
REMARK Flexibility Score: inf
ROOT
ATOM      1  C   UNL     1      50.713 -27.926 -31.964  1.00  0.00     0.039 A 
ATOM      2  C   UNL     1      51.877 -28.708 -32.185  1.00  0.00     0.124 A 
ATOM      3  C   UNL     1      50.651 -27.109 -30.821  1.00  0.00     0.014 A 
ATOM      4  C   UNL     1      52.907 -28.701 -31.235  1.00  0.00     0.047 A 
ATOM      5  C   UNL     1      51.696 -27.097 -29.894  1.00  0.00     0.001 A 
ATOM      6  C   UNL     1      52.818 -27.900 -30.096  1.00  0.00     0.004 A 
ENDROOT
BRANCH   1   7
ATOM      7  C   UNL     1      49.543 -27.956 -32.869  1.00  0.00     0.075 C 
ATOM      8  O   UNL     1      49.690 -27.906 -34.119  1.00  0.00    -0.545 OA
ATOM      9  O   UNL     1      48.264 -28.107 -32.347  1.00  0.00    -0.545 OA
ENDBRANCH   1   7
BRANCH   2  10
ATOM     10  O   UNL     1      52.064 -29.473 -33.339  1.00  0.00    -0.507 OA
ATOM     11  H   UNL     1      52.835 -29.340 -33.978  1.00  0.00     0.293 HD
ENDBRANCH   2  10
TORSDOF 2
ENDMDL
MODEL 6
REMARK VINA RESULT:    -3.677      2.308      4.184
REMARK INTER + INTRA:          -4.238
REMARK INTER:                  -4.006
REMARK INTRA:                  -0.232
REMARK UNBOUND:                -0.239
REMARK SMILES O=C([O-])c1ccccc1O
REMARK SMILES IDX 4 1 9 2 5 3 8 4 6 5 7 6 2 7 1 8 3 9 10 10
REMARK H PARENT 10 11
REMARK Flexibility Score: inf
ROOT
ATOM      1  C   UNL     1      48.265 -28.792 -31.533  1.00  0.00     0.039 A 
ATOM      2  C   UNL     1      49.346 -29.137 -30.679  1.00  0.00     0.124 A 
ATOM      3  C   UNL     1      48.544 -28.173 -32.765  1.00  0.00     0.014 A 
ATOM      4  C   UNL     1      50.655 -28.801 -31.049  1.00  0.00     0.047 A 
ATOM      5  C   UNL     1      49.857 -27.864 -33.128  1.00  0.00     0.001 A 
ATOM      6  C   UNL     1      50.910 -28.169 -32.266  1.00  0.00     0.004 A 
ENDROOT
BRANCH   1   7
ATOM      7  C   UNL     1      46.850 -29.023 -31.169  1.00  0.00     0.075 C 
ATOM      8  O   UNL     1      45.926 -28.360 -31.709  1.00  0.00    -0.545 OA
ATOM      9  O   UNL     1      46.520 -30.029 -30.268  1.00  0.00    -0.545 OA
ENDBRANCH   1   7
BRANCH   2  10
ATOM     10  O   UNL     1      49.169 -29.837 -29.484  1.00  0.00    -0.507 OA
ATOM     11  H   UNL     1      49.886 -30.406 -29.058  1.00  0.00     0.293 HD
ENDBRANCH   2  10
TORSDOF 2
ENDMDL
MODEL 7
REMARK VINA RESULT:    -3.660     14.277     15.193
REMARK INTER + INTRA:          -4.220
REMARK INTER:                  -3.986
REMARK INTRA:                  -0.235
REMARK UNBOUND:                -0.239
REMARK SMILES O=C([O-])c1ccccc1O
REMARK SMILES IDX 4 1 9 2 5 3 8 4 6 5 7 6 2 7 1 8 3 9 10 10
REMARK H PARENT 10 11
REMARK Flexibility Score: inf
ROOT
ATOM      1  C   UNL     1      56.005 -38.274 -23.180  1.00  0.00     0.039 A 
ATOM      2  C   UNL     1      56.896 -39.179 -23.815  1.00  0.00     0.124 A 
ATOM      3  C   UNL     1      56.173 -36.894 -23.396  1.00  0.00     0.014 A 
ATOM      4  C   UNL     1      57.955 -38.684 -24.586  1.00  0.00     0.047 A 
ATOM      5  C   UNL     1      57.221 -36.417 -24.186  1.00  0.00     0.001 A 
ATOM      6  C   UNL     1      58.117 -37.310 -24.772  1.00  0.00     0.004 A 
ENDROOT
BRANCH   1   7
ATOM      7  C   UNL     1      54.925 -38.715 -22.272  1.00  0.00     0.075 C 
ATOM      8  O   UNL     1      54.402 -39.854 -22.392  1.00  0.00    -0.545 OA
ATOM      9  O   UNL     1      54.517 -37.895 -21.226  1.00  0.00    -0.545 OA
ENDBRANCH   1   7
BRANCH   2  10
ATOM     10  O   UNL     1      56.746 -40.566 -23.733  1.00  0.00    -0.507 OA
ATOM     11  H   UNL     1      57.349 -41.161 -23.184  1.00  0.00     0.293 HD
ENDBRANCH   2  10
TORSDOF 2
ENDMDL
MODEL 8
REMARK VINA RESULT:    -3.588      1.559      2.391
REMARK INTER + INTRA:          -4.141
REMARK INTER:                  -3.897
REMARK INTRA:                  -0.245
REMARK UNBOUND:                -0.239
REMARK SMILES O=C([O-])c1ccccc1O
REMARK SMILES IDX 4 1 9 2 5 3 8 4 6 5 7 6 2 7 1 8 3 9 10 10
REMARK H PARENT 10 11
REMARK Flexibility Score: inf
ROOT
ATOM      1  C   UNL     1      50.420 -28.565 -31.678  1.00  0.00     0.039 A 
ATOM      2  C   UNL     1      49.649 -29.140 -30.634  1.00  0.00     0.124 A 
ATOM      3  C   UNL     1      49.754 -27.954 -32.757  1.00  0.00     0.014 A 
ATOM      4  C   UNL     1      48.251 -29.145 -30.727  1.00  0.00     0.047 A 
ATOM      5  C   UNL     1      48.359 -27.949 -32.824  1.00  0.00     0.001 A 
ATOM      6  C   UNL     1      47.609 -28.553 -31.816  1.00  0.00     0.004 A 
ENDROOT
BRANCH   1   7
ATOM      7  C   UNL     1      51.898 -28.607 -31.700  1.00  0.00     0.075 C 
ATOM      8  O   UNL     1      52.519 -29.669 -31.433  1.00  0.00    -0.545 OA
ATOM      9  O   UNL     1      52.621 -27.483 -32.084  1.00  0.00    -0.545 OA
ENDBRANCH   1   7
BRANCH   2  10
ATOM     10  O   UNL     1      50.224 -29.681 -29.482  1.00  0.00    -0.507 OA
ATOM     11  H   UNL     1      51.130 -30.126 -29.466  1.00  0.00     0.293 HD
ENDBRANCH   2  10
TORSDOF 2
ENDMDL
MODEL 9
REMARK VINA RESULT:    -3.571      1.829      2.738
REMARK INTER + INTRA:          -4.123
REMARK INTER:                  -3.882
REMARK INTRA:                  -0.242
REMARK UNBOUND:                -0.239
REMARK SMILES O=C([O-])c1ccccc1O
REMARK SMILES IDX 4 1 9 2 5 3 8 4 6 5 7 6 2 7 1 8 3 9 10 10
REMARK H PARENT 10 11
REMARK Flexibility Score: inf
ROOT
ATOM      1  C   UNL     1      51.043 -29.170 -30.962  1.00  0.00     0.039 A 
ATOM      2  C   UNL     1      51.285 -28.546 -32.214  1.00  0.00     0.124 A 
ATOM      3  C   UNL     1      49.727 -29.208 -30.466  1.00  0.00     0.014 A 
ATOM      4  C   UNL     1      50.228 -27.929 -32.897  1.00  0.00     0.047 A 
ATOM      5  C   UNL     1      48.680 -28.608 -31.170  1.00  0.00     0.001 A 
ATOM      6  C   UNL     1      48.933 -27.960 -32.378  1.00  0.00     0.004 A 
ENDROOT
BRANCH   1   7
ATOM      7  C   UNL     1      52.121 -29.755 -30.136  1.00  0.00     0.075 C 
ATOM      8  O   UNL     1      51.892 -30.721 -29.362  1.00  0.00    -0.545 OA
ATOM      9  O   UNL     1      53.423 -29.282 -30.256  1.00  0.00    -0.545 OA
ENDBRANCH   1   7
BRANCH   2  10
ATOM     10  O   UNL     1      52.540 -28.544 -32.826  1.00  0.00    -0.507 OA
ATOM     11  H   UNL     1      52.915 -27.753 -33.330  1.00  0.00     0.293 HD
ENDBRANCH   2  10
TORSDOF 2
ENDMDL
