MODEL 1
REMARK VINA RESULT:    -3.044      0.000      0.000
REMARK INTER + INTRA:          -6.762
REMARK INTER:                  -5.536
REMARK INTRA:                  -1.226
REMARK UNBOUND:                -1.226
REMARK SMILES CCCCCCCCCCCCCCCC(=O)[O-]
REMARK SMILES IDX 9 1 10 2 11 3 12 4 13 5 14 6 15 7 16 8 17 9 18 10 8 11 7 12
REMARK SMILES IDX 6 13 5 14 4 15 3 16 2 17 1 18
REMARK H PARENT
REMARK Flexibility Score: inf
ROOT
ATOM      1  C   UNL     1      25.477  19.643  24.066  1.00  0.00     0.000 C 
ENDROOT
BRANCH   1   2
ATOM      2  C   UNL     1      24.224  19.106  24.768  1.00  0.00     0.000 C 
BRANCH   2   3
ATOM      3  C   UNL     1      24.168  19.570  26.229  1.00  0.00     0.000 C 
BRANCH   3   4
ATOM      4  C   UNL     1      22.716  19.763  26.689  1.00  0.00     0.000 C 
BRANCH   4   5
ATOM      5  C   UNL     1      22.354  21.239  26.935  1.00  0.00     0.000 C 
BRANCH   5   6
ATOM      6  C   UNL     1      23.557  22.194  27.042  1.00  0.00     0.006 C 
BRANCH   6   7
ATOM      7  C   UNL     1      23.159  23.672  26.943  1.00  0.00     0.053 C 
BRANCH   7   8
ATOM      8  C   UNL     1      24.332  24.504  26.532  1.00  0.00     0.041 C 
ATOM      9  O   UNL     1      24.510  24.793  25.320  1.00  0.00    -0.550 OA
ATOM     10  O   UNL     1      25.202  25.003  27.494  1.00  0.00    -0.550 OA
ENDBRANCH   7   8
ENDBRANCH   6   7
ENDBRANCH   5   6
ENDBRANCH   4   5
ENDBRANCH   3   4
ENDBRANCH   2   3
ENDBRANCH   1   2
BRANCH   1  11
ATOM     11  C   UNL     1      26.120  20.775  24.881  1.00  0.00     0.000 C 
BRANCH  11  12
ATOM     12  C   UNL     1      27.620  20.547  25.133  1.00  0.00    -0.000 C 
BRANCH  12  13
ATOM     13  C   UNL     1      28.021  19.068  25.001  1.00  0.00    -0.000 C 
BRANCH  13  14
ATOM     14  C   UNL     1      29.394  18.875  24.330  1.00  0.00    -0.000 C 
BRANCH  14  15
ATOM     15  C   UNL     1      30.155  20.176  24.014  1.00  0.00    -0.000 C 
BRANCH  15  16
ATOM     16  C   UNL     1      30.374  20.393  22.509  1.00  0.00    -0.000 C 
BRANCH  16  17
ATOM     17  C   UNL     1      30.862  19.106  21.835  1.00  0.00    -0.003 C 
ATOM     18  C   UNL     1      32.350  18.880  22.091  1.00  0.00     0.004 C 
ENDBRANCH  16  17
ENDBRANCH  15  16
ENDBRANCH  14  15
ENDBRANCH  13  14
ENDBRANCH  12  13
ENDBRANCH  11  12
ENDBRANCH   1  11
TORSDOF 14
ENDMDL
MODEL 2
REMARK VINA RESULT:    -2.837      3.091      7.062
REMARK INTER + INTRA:          -6.384
REMARK INTER:                  -5.586
REMARK INTRA:                  -0.798
REMARK UNBOUND:                -1.226
REMARK SMILES CCCCCCCCCCCCCCCC(=O)[O-]
REMARK SMILES IDX 9 1 10 2 11 3 12 4 13 5 14 6 15 7 16 8 17 9 18 10 8 11 7 12
REMARK SMILES IDX 6 13 5 14 4 15 3 16 2 17 1 18
REMARK H PARENT
REMARK Flexibility Score: inf
ROOT
ATOM      1  C   UNL     1      24.319  18.890  26.572  1.00  0.00     0.000 C 
ENDROOT
BRANCH   1   2
ATOM      2  C   UNL     1      25.574  19.434  25.879  1.00  0.00     0.000 C 
BRANCH   2   3
ATOM      3  C   UNL     1      25.464  19.301  24.355  1.00  0.00     0.000 C 
BRANCH   3   4
ATOM      4  C   UNL     1      26.598  20.063  23.654  1.00  0.00     0.000 C 
BRANCH   4   5
ATOM      5  C   UNL     1      27.507  20.824  24.636  1.00  0.00     0.000 C 
BRANCH   5   6
ATOM      6  C   UNL     1      28.777  20.067  25.067  1.00  0.00     0.006 C 
BRANCH   6   7
ATOM      7  C   UNL     1      29.104  18.879  24.154  1.00  0.00     0.053 C 
BRANCH   7   8
ATOM      8  C   UNL     1      30.317  19.172  23.329  1.00  0.00     0.041 C 
ATOM      9  O   UNL     1      30.198  19.704  22.195  1.00  0.00    -0.550 OA
ATOM     10  O   UNL     1      31.583  18.903  23.835  1.00  0.00    -0.550 OA
ENDBRANCH   7   8
ENDBRANCH   6   7
ENDBRANCH   5   6
ENDBRANCH   4   5
ENDBRANCH   3   4
ENDBRANCH   2   3
ENDBRANCH   1   2
BRANCH   1  11
ATOM     11  C   UNL     1      23.071  19.675  26.141  1.00  0.00     0.000 C 
BRANCH  11  12
ATOM     12  C   UNL     1      22.364  20.361  27.323  1.00  0.00    -0.000 C 
BRANCH  12  13
ATOM     13  C   UNL     1      22.119  21.859  27.073  1.00  0.00    -0.000 C 
BRANCH  13  14
ATOM     14  C   UNL     1      23.402  22.623  26.696  1.00  0.00    -0.000 C 
BRANCH  14  15
ATOM     15  C   UNL     1      23.436  24.099  27.131  1.00  0.00    -0.000 C 
BRANCH  15  16
ATOM     16  C   UNL     1      24.862  24.632  27.337  1.00  0.00    -0.000 C 
BRANCH  16  17
ATOM     17  C   UNL     1      25.220  25.668  26.266  1.00  0.00    -0.003 C 
ATOM     18  C   UNL     1      24.756  25.215  24.884  1.00  0.00     0.004 C 
ENDBRANCH  16  17
ENDBRANCH  15  16
ENDBRANCH  14  15
ENDBRANCH  13  14
ENDBRANCH  12  13
ENDBRANCH  11  12
ENDBRANCH   1  11
TORSDOF 14
ENDMDL
MODEL 3
REMARK VINA RESULT:    -2.726      1.243      2.217
REMARK INTER + INTRA:          -6.183
REMARK INTER:                  -5.375
REMARK INTRA:                  -0.808
REMARK UNBOUND:                -1.226
REMARK SMILES CCCCCCCCCCCCCCCC(=O)[O-]
REMARK SMILES IDX 9 1 10 2 11 3 12 4 13 5 14 6 15 7 16 8 17 9 18 10 8 11 7 12
REMARK SMILES IDX 6 13 5 14 4 15 3 16 2 17 1 18
REMARK H PARENT
REMARK Flexibility Score: inf
ROOT
ATOM      1  C   UNL     1      26.141  18.882  24.919  1.00  0.00     0.000 C 
ENDROOT
BRANCH   1   2
ATOM      2  C   UNL     1      25.453  19.555  26.113  1.00  0.00     0.000 C 
BRANCH   2   3
ATOM      3  C   UNL     1      24.033  19.010  26.310  1.00  0.00     0.000 C 
BRANCH   3   4
ATOM      4  C   UNL     1      22.982  20.046  25.885  1.00  0.00     0.000 C 
BRANCH   4   5
ATOM      5  C   UNL     1      22.325  20.760  27.081  1.00  0.00     0.000 C 
BRANCH   5   6
ATOM      6  C   UNL     1      22.587  22.275  27.158  1.00  0.00     0.006 C 
BRANCH   6   7
ATOM      7  C   UNL     1      23.976  22.670  26.641  1.00  0.00     0.053 C 
BRANCH   7   8
ATOM      8  C   UNL     1      24.168  24.150  26.736  1.00  0.00     0.041 C 
ATOM      9  O   UNL     1      23.696  24.789  27.712  1.00  0.00    -0.550 OA
ATOM     10  O   UNL     1      24.914  24.818  25.771  1.00  0.00    -0.550 OA
ENDBRANCH   7   8
ENDBRANCH   6   7
ENDBRANCH   5   6
ENDBRANCH   4   5
ENDBRANCH   3   4
ENDBRANCH   2   3
ENDBRANCH   1   2
BRANCH   1  11
ATOM     11  C   UNL     1      25.738  19.557  23.600  1.00  0.00     0.000 C 
BRANCH  11  12
ATOM     12  C   UNL     1      26.784  19.363  22.489  1.00  0.00    -0.000 C 
BRANCH  12  13
ATOM     13  C   UNL     1      28.142  18.889  23.036  1.00  0.00    -0.000 C 
BRANCH  13  14
ATOM     14  C   UNL     1      29.338  19.512  22.292  1.00  0.00    -0.000 C 
BRANCH  14  15
ATOM     15  C   UNL     1      30.689  19.403  23.021  1.00  0.00    -0.000 C 
BRANCH  15  16
ATOM     16  C   UNL     1      30.688  20.089  24.396  1.00  0.00    -0.000 C 
BRANCH  16  17
ATOM     17  C   UNL     1      29.740  21.293  24.407  1.00  0.00    -0.003 C 
ATOM     18  C   UNL     1      28.712  21.174  25.529  1.00  0.00     0.004 C 
ENDBRANCH  16  17
ENDBRANCH  15  16
ENDBRANCH  14  15
ENDBRANCH  13  14
ENDBRANCH  12  13
ENDBRANCH  11  12
ENDBRANCH   1  11
TORSDOF 14
ENDMDL
MODEL 4
REMARK VINA RESULT:    -2.522      1.356      2.499
REMARK INTER + INTRA:          -5.812
REMARK INTER:                  -4.661
REMARK INTRA:                  -1.152
REMARK UNBOUND:                -1.226
REMARK SMILES CCCCCCCCCCCCCCCC(=O)[O-]
REMARK SMILES IDX 9 1 10 2 11 3 12 4 13 5 14 6 15 7 16 8 17 9 18 10 8 11 7 12
REMARK SMILES IDX 6 13 5 14 4 15 3 16 2 17 1 18
REMARK H PARENT
REMARK Flexibility Score: inf
ROOT
ATOM      1  C   UNL     1      24.709  19.660  23.954  1.00  0.00     0.000 C 
ENDROOT
BRANCH   1   2
ATOM      2  C   UNL     1      23.805  18.901  24.933  1.00  0.00     0.000 C 
BRANCH   2   3
ATOM      3  C   UNL     1      24.060  19.347  26.379  1.00  0.00     0.000 C 
BRANCH   3   4
ATOM      4  C   UNL     1      22.788  19.935  27.005  1.00  0.00     0.000 C 
BRANCH   4   5
ATOM      5  C   UNL     1      22.363  21.268  26.363  1.00  0.00     0.000 C 
BRANCH   5   6
ATOM      6  C   UNL     1      22.933  22.528  27.041  1.00  0.00     0.006 C 
BRANCH   6   7
ATOM      7  C   UNL     1      24.161  23.093  26.318  1.00  0.00     0.053 C 
BRANCH   7   8
ATOM      8  C   UNL     1      24.417  24.503  26.746  1.00  0.00     0.041 C 
ATOM      9  O   UNL     1      23.903  24.947  27.805  1.00  0.00    -0.550 OA
ATOM     10  O   UNL     1      25.267  25.313  26.001  1.00  0.00    -0.550 OA
ENDBRANCH   7   8
ENDBRANCH   6   7
ENDBRANCH   5   6
ENDBRANCH   4   5
ENDBRANCH   3   4
ENDBRANCH   2   3
ENDBRANCH   1   2
BRANCH   1  11
ATOM     11  C   UNL     1      26.009  18.883  23.693  1.00  0.00     0.000 C 
BRANCH  11  12
ATOM     12  C   UNL     1      26.740  19.359  22.426  1.00  0.00    -0.000 C 
BRANCH  12  13
ATOM     13  C   UNL     1      28.216  18.926  22.402  1.00  0.00    -0.000 C 
BRANCH  13  14
ATOM     14  C   UNL     1      28.885  18.994  23.787  1.00  0.00    -0.000 C 
BRANCH  14  15
ATOM     15  C   UNL     1      29.885  20.150  23.974  1.00  0.00    -0.000 C 
BRANCH  15  16
ATOM     16  C   UNL     1      29.355  21.259  24.897  1.00  0.00    -0.000 C 
BRANCH  16  17
ATOM     17  C   UNL     1      27.850  21.101  25.136  1.00  0.00    -0.003 C 
ATOM     18  C   UNL     1      27.561  20.703  26.581  1.00  0.00     0.004 C 
ENDBRANCH  16  17
ENDBRANCH  15  16
ENDBRANCH  14  15
ENDBRANCH  13  14
ENDBRANCH  12  13
ENDBRANCH  11  12
ENDBRANCH   1  11
TORSDOF 14
ENDMDL
MODEL 5
REMARK VINA RESULT:    -2.231      1.326      2.526
REMARK INTER + INTRA:          -5.282
REMARK INTER:                  -4.927
REMARK INTRA:                  -0.355
REMARK UNBOUND:                -1.226
REMARK SMILES CCCCCCCCCCCCCCCC(=O)[O-]
REMARK SMILES IDX 9 1 10 2 11 3 12 4 13 5 14 6 15 7 16 8 17 9 18 10 8 11 7 12
REMARK SMILES IDX 6 13 5 14 4 15 3 16 2 17 1 18
REMARK H PARENT
REMARK Flexibility Score: inf
ROOT
ATOM      1  C   UNL     1      25.445  19.779  23.716  1.00  0.00     0.000 C 
ENDROOT
BRANCH   1   2
ATOM      2  C   UNL     1      26.030  19.504  25.107  1.00  0.00     0.000 C 
BRANCH   2   3
ATOM      3  C   UNL     1      24.967  18.920  26.046  1.00  0.00     0.000 C 
BRANCH   3   4
ATOM      4  C   UNL     1      23.571  18.998  25.413  1.00  0.00     0.000 C 
BRANCH   4   5
ATOM      5  C   UNL     1      22.545  19.719  26.306  1.00  0.00     0.000 C 
BRANCH   5   6
ATOM      6  C   UNL     1      23.116  20.871  27.154  1.00  0.00     0.006 C 
BRANCH   6   7
ATOM      7  C   UNL     1      22.673  22.254  26.660  1.00  0.00     0.053 C 
BRANCH   7   8
ATOM      8  C   UNL     1      23.810  23.222  26.728  1.00  0.00     0.041 C 
ATOM      9  O   UNL     1      23.641  24.364  27.230  1.00  0.00    -0.550 OA
ATOM     10  O   UNL     1      25.072  22.846  26.282  1.00  0.00    -0.550 OA
ENDBRANCH   7   8
ENDBRANCH   6   7
ENDBRANCH   5   6
ENDBRANCH   4   5
ENDBRANCH   3   4
ENDBRANCH   2   3
ENDBRANCH   1   2
BRANCH   1  11
ATOM     11  C   UNL     1      26.301  19.123  22.622  1.00  0.00     0.000 C 
BRANCH  11  12
ATOM     12  C   UNL     1      27.808  19.344  22.834  1.00  0.00    -0.000 C 
BRANCH  12  13
ATOM     13  C   UNL     1      28.647  18.875  21.633  1.00  0.00    -0.000 C 
BRANCH  13  14
ATOM     14  C   UNL     1      30.137  19.243  21.762  1.00  0.00    -0.000 C 
BRANCH  14  15
ATOM     15  C   UNL     1      30.430  20.495  22.609  1.00  0.00    -0.000 C 
BRANCH  15  16
ATOM     16  C   UNL     1      30.252  20.255  24.116  1.00  0.00    -0.000 C 
BRANCH  16  17
ATOM     17  C   UNL     1      29.787  21.532  24.824  1.00  0.00    -0.003 C 
ATOM     18  C   UNL     1      28.518  21.284  25.633  1.00  0.00     0.004 C 
ENDBRANCH  16  17
ENDBRANCH  15  16
ENDBRANCH  14  15
ENDBRANCH  13  14
ENDBRANCH  12  13
ENDBRANCH  11  12
ENDBRANCH   1  11
TORSDOF 14
ENDMDL
MODEL 6
REMARK VINA RESULT:    -1.669      2.651      3.417
REMARK INTER + INTRA:          -4.262
REMARK INTER:                  -3.630
REMARK INTRA:                  -0.631
REMARK UNBOUND:                -1.226
REMARK SMILES CCCCCCCCCCCCCCCC(=O)[O-]
REMARK SMILES IDX 9 1 10 2 11 3 12 4 13 5 14 6 15 7 16 8 17 9 18 10 8 11 7 12
REMARK SMILES IDX 6 13 5 14 4 15 3 16 2 17 1 18
REMARK H PARENT
REMARK Flexibility Score: inf
ROOT
ATOM      1  C   UNL     1      26.103  19.436  26.121  1.00  0.00     0.000 C 
ENDROOT
BRANCH   1   2
ATOM      2  C   UNL     1      26.315  20.920  26.444  1.00  0.00     0.000 C 
BRANCH   2   3
ATOM      3  C   UNL     1      25.148  21.770  25.925  1.00  0.00     0.000 C 
BRANCH   3   4
ATOM      4  C   UNL     1      24.451  22.508  27.077  1.00  0.00     0.000 C 
BRANCH   4   5
ATOM      5  C   UNL     1      22.920  22.550  26.923  1.00  0.00     0.000 C 
BRANCH   5   6
ATOM      6  C   UNL     1      22.257  21.190  26.641  1.00  0.00     0.006 C 
BRANCH   6   7
ATOM      7  C   UNL     1      22.586  20.132  27.701  1.00  0.00     0.053 C 
BRANCH   7   8
ATOM      8  C   UNL     1      21.477  20.030  28.700  1.00  0.00     0.041 C 
ATOM      9  O   UNL     1      20.367  20.578  28.473  1.00  0.00    -0.550 OA
ATOM     10  O   UNL     1      21.653  19.287  29.861  1.00  0.00    -0.550 OA
ENDBRANCH   7   8
ENDBRANCH   6   7
ENDBRANCH   5   6
ENDBRANCH   4   5
ENDBRANCH   3   4
ENDBRANCH   2   3
ENDBRANCH   1   2
BRANCH   1  11
ATOM     11  C   UNL     1      25.061  19.260  25.006  1.00  0.00     0.000 C 
BRANCH  11  12
ATOM     12  C   UNL     1      25.512  19.876  23.670  1.00  0.00    -0.000 C 
BRANCH  12  13
ATOM     13  C   UNL     1      26.278  18.875  22.789  1.00  0.00    -0.000 C 
BRANCH  13  14
ATOM     14  C   UNL     1      27.784  19.187  22.698  1.00  0.00    -0.000 C 
BRANCH  14  15
ATOM     15  C   UNL     1      28.327  20.117  23.798  1.00  0.00    -0.000 C 
BRANCH  15  16
ATOM     16  C   UNL     1      29.820  20.436  23.632  1.00  0.00    -0.000 C 
BRANCH  16  17
ATOM     17  C   UNL     1      30.592  19.207  23.140  1.00  0.00    -0.003 C 
ATOM     18  C   UNL     1      31.706  19.605  22.175  1.00  0.00     0.004 C 
ENDBRANCH  16  17
ENDBRANCH  15  16
ENDBRANCH  14  15
ENDBRANCH  13  14
ENDBRANCH  12  13
ENDBRANCH  11  12
ENDBRANCH   1  11
TORSDOF 14
ENDMDL
MODEL 7
REMARK VINA RESULT:    -1.531      2.736      5.289
REMARK INTER + INTRA:          -4.011
REMARK INTER:                  -3.719
REMARK INTRA:                  -0.292
REMARK UNBOUND:                -1.226
REMARK SMILES CCCCCCCCCCCCCCCC(=O)[O-]
REMARK SMILES IDX 9 1 10 2 11 3 12 4 13 5 14 6 15 7 16 8 17 9 18 10 8 11 7 12
REMARK SMILES IDX 6 13 5 14 4 15 3 16 2 17 1 18
REMARK H PARENT
REMARK Flexibility Score: inf
ROOT
ATOM      1  C   UNL     1      27.785  19.019  22.930  1.00  0.00     0.000 C 
ENDROOT
BRANCH   1   2
ATOM      2  C   UNL     1      26.480  19.775  22.652  1.00  0.00     0.000 C 
BRANCH   2   3
ATOM      3  C   UNL     1      25.259  18.918  23.011  1.00  0.00     0.000 C 
BRANCH   3   4
ATOM      4  C   UNL     1      25.046  18.875  24.531  1.00  0.00     0.000 C 
BRANCH   4   5
ATOM      5  C   UNL     1      23.568  19.027  24.935  1.00  0.00     0.000 C 
BRANCH   5   6
ATOM      6  C   UNL     1      23.307  19.043  26.452  1.00  0.00     0.006 C 
BRANCH   6   7
ATOM      7  C   UNL     1      22.461  20.241  26.901  1.00  0.00     0.053 C 
BRANCH   7   8
ATOM      8  C   UNL     1      21.782  19.944  28.200  1.00  0.00     0.041 C 
ATOM      9  O   UNL     1      20.736  20.565  28.525  1.00  0.00    -0.550 OA
ATOM     10  O   UNL     1      22.275  18.944  29.030  1.00  0.00    -0.550 OA
ENDBRANCH   7   8
ENDBRANCH   6   7
ENDBRANCH   5   6
ENDBRANCH   4   5
ENDBRANCH   3   4
ENDBRANCH   2   3
ENDBRANCH   1   2
BRANCH   1  11
ATOM     11  C   UNL     1      28.037  18.895  24.440  1.00  0.00     0.000 C 
BRANCH  11  12
ATOM     12  C   UNL     1      29.152  19.831  24.935  1.00  0.00    -0.000 C 
BRANCH  12  13
ATOM     13  C   UNL     1      28.601  21.118  25.574  1.00  0.00    -0.000 C 
BRANCH  13  14
ATOM     14  C   UNL     1      27.115  21.358  25.251  1.00  0.00    -0.000 C 
BRANCH  14  15
ATOM     15  C   UNL     1      26.198  21.523  26.476  1.00  0.00    -0.000 C 
BRANCH  15  16
ATOM     16  C   UNL     1      24.944  22.359  26.181  1.00  0.00    -0.000 C 
BRANCH  16  17
ATOM     17  C   UNL     1      24.748  23.448  27.241  1.00  0.00    -0.003 C 
ATOM     18  C   UNL     1      23.762  24.511  26.764  1.00  0.00     0.004 C 
ENDBRANCH  16  17
ENDBRANCH  15  16
ENDBRANCH  14  15
ENDBRANCH  13  14
ENDBRANCH  12  13
ENDBRANCH  11  12
ENDBRANCH   1  11
TORSDOF 14
ENDMDL
MODEL 8
REMARK VINA RESULT:    -0.150     20.700     23.089
REMARK INTER + INTRA:          -1.499
REMARK INTER:                  -1.140
REMARK INTRA:                  -0.359
REMARK UNBOUND:                -1.226
REMARK SMILES CCCCCCCCCCCCCCCC(=O)[O-]
REMARK SMILES IDX 9 1 10 2 11 3 12 4 13 5 14 6 15 7 16 8 17 9 18 10 8 11 7 12
REMARK SMILES IDX 6 13 5 14 4 15 3 16 2 17 1 18
REMARK H PARENT
REMARK Flexibility Score: inf
ROOT
ATOM      1  C   UNL     1      13.452  35.570  12.020  1.00  0.00     0.000 C 
ENDROOT
BRANCH   1   2
ATOM      2  C   UNL     1      13.832  34.115  12.320  1.00  0.00     0.000 C 
BRANCH   2   3
ATOM      3  C   UNL     1      12.875  33.139  11.623  1.00  0.00     0.000 C 
BRANCH   3   4
ATOM      4  C   UNL     1      13.638  31.940  11.043  1.00  0.00     0.000 C 
BRANCH   4   5
ATOM      5  C   UNL     1      15.149  31.992  11.334  1.00  0.00     0.000 C 
BRANCH   5   6
ATOM      6  C   UNL     1      15.694  30.813  12.162  1.00  0.00     0.006 C 
BRANCH   6   7
ATOM      7  C   UNL     1      15.292  29.447  11.593  1.00  0.00     0.053 C 
BRANCH   7   8
ATOM      8  C   UNL     1      13.900  29.095  12.011  1.00  0.00     0.041 C 
ATOM      9  O   UNL     1      13.543  29.234  13.209  1.00  0.00    -0.550 OA
ATOM     10  O   UNL     1      12.978  28.662  11.064  1.00  0.00    -0.550 OA
ENDBRANCH   7   8
ENDBRANCH   6   7
ENDBRANCH   5   6
ENDBRANCH   4   5
ENDBRANCH   3   4
ENDBRANCH   2   3
ENDBRANCH   1   2
BRANCH   1  11
ATOM     11  C   UNL     1      13.345  35.809  10.506  1.00  0.00     0.000 C 
BRANCH  11  12
ATOM     12  C   UNL     1      13.622  37.270  10.114  1.00  0.00    -0.000 C 
BRANCH  12  13
ATOM     13  C   UNL     1      15.118  37.545   9.887  1.00  0.00    -0.000 C 
BRANCH  13  14
ATOM     14  C   UNL     1      15.604  38.832  10.580  1.00  0.00    -0.000 C 
BRANCH  14  15
ATOM     15  C   UNL     1      17.118  39.092  10.488  1.00  0.00    -0.000 C 
BRANCH  15  16
ATOM     16  C   UNL     1      17.957  37.812  10.619  1.00  0.00    -0.000 C 
BRANCH  16  17
ATOM     17  C   UNL     1      19.455  38.137  10.645  1.00  0.00    -0.003 C 
ATOM     18  C   UNL     1      19.812  38.991  11.858  1.00  0.00     0.004 C 
ENDBRANCH  16  17
ENDBRANCH  15  16
ENDBRANCH  14  15
ENDBRANCH  13  14
ENDBRANCH  12  13
ENDBRANCH  11  12
ENDBRANCH   1  11
TORSDOF 14
ENDMDL
