MODEL 1
REMARK VINA RESULT:    -5.392      0.000      0.000
REMARK INTER + INTRA:          -6.946
REMARK INTER:                  -7.599
REMARK INTRA:                   0.652
REMARK UNBOUND:                 0.652
REMARK SMILES CC1=CCC(=C(C)C)C(=O)CC(C)=CCC1
REMARK SMILES IDX 12 1 14 2 13 3 15 4 16 5 2 6 1 7 3 8 11 10 9 11 10 12 5 13
REMARK SMILES IDX 6 14 7 15 8 16 4 17
REMARK H PARENT
REMARK Flexibility Score: 60.00
ROOT
ATOM      1  C   UNL     1     -19.565  36.278  13.966  1.00  0.00    -0.070 C 
ATOM      2  C   UNL     1     -19.675  35.680  12.759  1.00  0.00    -0.027 C 
ATOM      3  C   UNL     1     -20.676  37.200  14.401  1.00  0.00     0.039 C 
ENDROOT
BRANCH   2   4
ATOM      4  C   UNL     1     -18.720  34.653  12.190  1.00  0.00     0.032 C 
BRANCH   4   5
ATOM      5  C   UNL     1     -17.843  35.160  11.027  1.00  0.00     0.034 C 
BRANCH   5   6
ATOM      6  C   UNL     1     -18.074  36.624  10.698  1.00  0.00    -0.077 C 
ATOM      7  C   UNL     1     -19.175  36.958   9.724  1.00  0.00     0.039 C 
ATOM      8  C   UNL     1     -17.403  37.652  11.274  1.00  0.00    -0.023 CG0
ATOM      9  G   UNL     1     -16.254  37.558  12.257  1.00  0.00     0.000 G0
ENDBRANCH   5   6
ENDBRANCH   4   5
ENDBRANCH   2   4
BRANCH   1  10
ATOM     10  C   UNL     1     -18.435  35.995  14.933  1.00  0.00     0.111 C 
BRANCH  10  11
ATOM     11  C   UNL     1     -17.090  36.254  14.308  1.00  0.00     0.163 C 
ATOM     12  O   UNL     1     -16.268  35.299  14.250  1.00  0.00    -0.294 OA
BRANCH  11  13
ATOM     13  C   UNL     1     -16.726  37.571  13.705  1.00  0.00    -0.002 C 
ATOM     14  C   UNL     1     -16.736  38.711  14.458  1.00  0.00    -0.069 C 
ATOM     15  C   UNL     1     -16.223  40.030  13.923  1.00  0.00     0.039 C 
ATOM     16  C   UNL     1     -17.262  38.708  15.877  1.00  0.00     0.039 C 
BRANCH  13  17
ATOM     17  C   UNL     1     -16.260  37.568  12.258  1.00  0.00     0.066 CG0
ATOM     18  G   UNL     1     -17.414  37.650  11.280  1.00  0.00     0.000 G0
ENDBRANCH  13  17
ENDBRANCH  11  13
ENDBRANCH  10  11
ENDBRANCH   1  10
TORSDOF 0
ENDMDL
MODEL 2
REMARK VINA RESULT:    -5.237      1.746      4.663
REMARK INTER + INTRA:          -6.727
REMARK INTER:                  -6.981
REMARK INTRA:                   0.254
REMARK UNBOUND:                 0.652
REMARK SMILES CC1=CCC(=C(C)C)C(=O)CC(C)=CCC1
REMARK SMILES IDX 12 1 14 2 13 3 15 4 16 5 2 6 1 7 3 8 11 10 9 11 10 12 5 13
REMARK SMILES IDX 6 14 7 15 8 16 4 17
REMARK H PARENT
REMARK Flexibility Score: 60.00
ROOT
ATOM      1  C   UNL     1     -16.547  39.291  13.530  1.00  0.00    -0.070 C 
ATOM      2  C   UNL     1     -17.051  39.178  14.779  1.00  0.00    -0.027 C 
ATOM      3  C   UNL     1     -15.139  39.811  13.382  1.00  0.00     0.039 C 
ENDROOT
BRANCH   2   4
ATOM      4  C   UNL     1     -18.399  38.590  15.138  1.00  0.00     0.032 C 
BRANCH   4   5
ATOM      5  C   UNL     1     -18.351  37.146  15.679  1.00  0.00     0.034 C 
BRANCH   5   6
ATOM      6  C   UNL     1     -19.342  36.219  14.997  1.00  0.00    -0.077 C 
ATOM      7  C   UNL     1     -20.734  36.140  15.570  1.00  0.00     0.039 C 
ATOM      8  C   UNL     1     -19.077  35.513  13.870  1.00  0.00    -0.023 CG0
ATOM      9  G   UNL     1     -17.754  35.425  13.135  1.00  0.00     0.000 G0
ENDBRANCH   5   6
ENDBRANCH   4   5
ENDBRANCH   2   4
BRANCH   1  10
ATOM     10  C   UNL     1     -17.288  38.836  12.290  1.00  0.00     0.111 C 
BRANCH  10  11
ATOM     11  C   UNL     1     -16.842  37.468  11.847  1.00  0.00     0.163 C 
ATOM     12  O   UNL     1     -15.639  37.319  11.500  1.00  0.00    -0.294 OA
BRANCH  11  13
ATOM     13  C   UNL     1     -17.751  36.284  11.865  1.00  0.00    -0.002 C 
ATOM     14  C   UNL     1     -18.481  35.946  10.759  1.00  0.00    -0.069 C 
ATOM     15  C   UNL     1     -19.288  34.668  10.692  1.00  0.00     0.039 C 
ATOM     16  C   UNL     1     -18.516  36.841   9.540  1.00  0.00     0.039 C 
BRANCH  13  17
ATOM     17  C   UNL     1     -17.754  35.428  13.121  1.00  0.00     0.066 CG0
ATOM     18  G   UNL     1     -19.074  35.496  13.862  1.00  0.00     0.000 G0
ENDBRANCH  13  17
ENDBRANCH  11  13
ENDBRANCH  10  11
ENDBRANCH   1  10
TORSDOF 0
ENDMDL
MODEL 3
REMARK VINA RESULT:    -5.150      1.719      2.603
REMARK INTER + INTRA:          -6.605
REMARK INTER:                  -7.113
REMARK INTRA:                   0.508
REMARK UNBOUND:                 0.652
REMARK SMILES CC1=CCC(=C(C)C)C(=O)CC(C)=CCC1
REMARK SMILES IDX 12 1 14 2 13 3 15 4 16 5 2 6 1 7 3 8 11 10 9 11 10 12 5 13
REMARK SMILES IDX 6 14 7 15 8 16 4 17
REMARK H PARENT
REMARK Flexibility Score: 60.00
ROOT
ATOM      1  C   UNL     1     -18.797  37.727  15.622  1.00  0.00    -0.070 C 
ATOM      2  C   UNL     1     -19.547  36.667  15.249  1.00  0.00    -0.027 C 
ATOM      3  C   UNL     1     -18.433  37.858  17.079  1.00  0.00     0.039 C 
ENDROOT
BRANCH   2   4
ATOM      4  C   UNL     1     -19.932  36.311  13.829  1.00  0.00     0.032 C 
BRANCH   4   5
ATOM      5  C   UNL     1     -19.083  35.193  13.191  1.00  0.00     0.034 C 
BRANCH   5   6
ATOM      6  C   UNL     1     -18.257  35.669  12.009  1.00  0.00    -0.077 C 
ATOM      7  C   UNL     1     -18.854  35.523  10.633  1.00  0.00     0.039 C 
ATOM      8  C   UNL     1     -17.051  36.279  12.117  1.00  0.00    -0.023 CG0
ATOM      9  G   UNL     1     -16.255  36.517  13.384  1.00  0.00     0.000 G0
ENDBRANCH   5   6
ENDBRANCH   4   5
ENDBRANCH   2   4
BRANCH   1  10
ATOM     10  C   UNL     1     -18.230  38.731  14.639  1.00  0.00     0.111 C 
BRANCH  10  11
ATOM     11  C   UNL     1     -16.724  38.714  14.634  1.00  0.00     0.163 C 
ATOM     12  O   UNL     1     -16.121  39.289  15.581  1.00  0.00    -0.294 OA
BRANCH  11  13
ATOM     13  C   UNL     1     -15.934  37.995  13.591  1.00  0.00    -0.002 C 
ATOM     14  C   UNL     1     -14.920  38.625  12.924  1.00  0.00    -0.069 C 
ATOM     15  C   UNL     1     -14.001  37.883  11.979  1.00  0.00     0.039 C 
ATOM     16  C   UNL     1     -14.667  40.106  13.101  1.00  0.00     0.039 C 
BRANCH  13  17
ATOM     17  C   UNL     1     -16.241  36.522  13.378  1.00  0.00     0.066 CG0
ATOM     18  G   UNL     1     -17.042  36.277  12.115  1.00  0.00     0.000 G0
ENDBRANCH  13  17
ENDBRANCH  11  13
ENDBRANCH  10  11
ENDBRANCH   1  10
TORSDOF 0
ENDMDL
MODEL 4
REMARK VINA RESULT:    -5.045      1.865      3.491
REMARK INTER + INTRA:          -6.457
REMARK INTER:                  -7.764
REMARK INTRA:                   1.306
REMARK UNBOUND:                 0.652
REMARK SMILES CC1=CCC(=C(C)C)C(=O)CC(C)=CCC1
REMARK SMILES IDX 12 1 14 2 13 3 15 4 16 5 2 6 1 7 3 8 11 10 9 11 10 12 5 13
REMARK SMILES IDX 6 14 7 15 8 16 4 17
REMARK H PARENT
REMARK Flexibility Score: 60.00
ROOT
ATOM      1  C   UNL     1     -16.271  37.432  11.908  1.00  0.00    -0.070 C 
ATOM      2  C   UNL     1     -16.856  36.463  11.170  1.00  0.00    -0.027 C 
ATOM      3  C   UNL     1     -14.823  37.253  12.290  1.00  0.00     0.039 C 
ENDROOT
BRANCH   2   4
ATOM      4  C   UNL     1     -18.261  36.505  10.610  1.00  0.00     0.032 C 
BRANCH   4   5
ATOM      5  C   UNL     1     -19.364  36.072  11.596  1.00  0.00     0.034 C 
BRANCH   5   6
ATOM      6  C   UNL     1     -18.819  35.426  12.857  1.00  0.00    -0.077 C 
ATOM      7  C   UNL     1     -18.461  33.963  12.796  1.00  0.00     0.039 C 
ATOM      8  C   UNL     1     -18.570  36.093  14.011  1.00  0.00    -0.023 CG0
ATOM      9  G   UNL     1     -18.864  37.550  14.308  1.00  0.00     0.000 G0
ENDBRANCH   5   6
ENDBRANCH   4   5
ENDBRANCH   2   4
BRANCH   1  10
ATOM     10  C   UNL     1     -16.967  38.724  12.286  1.00  0.00     0.111 C 
BRANCH  10  11
ATOM     11  C   UNL     1     -16.832  39.018  13.756  1.00  0.00     0.163 C 
ATOM     12  O   UNL     1     -16.029  39.924  14.109  1.00  0.00    -0.294 OA
BRANCH  11  13
ATOM     13  C   UNL     1     -17.654  38.324  14.792  1.00  0.00    -0.002 C 
ATOM     14  C   UNL     1     -17.358  38.452  16.121  1.00  0.00    -0.069 C 
ATOM     15  C   UNL     1     -18.260  37.893  17.199  1.00  0.00     0.039 C 
ATOM     16  C   UNL     1     -16.106  39.166  16.579  1.00  0.00     0.039 C 
BRANCH  13  17
ATOM     17  C   UNL     1     -18.875  37.557  14.312  1.00  0.00     0.066 CG0
ATOM     18  G   UNL     1     -18.562  36.105  14.009  1.00  0.00     0.000 G0
ENDBRANCH  13  17
ENDBRANCH  11  13
ENDBRANCH  10  11
ENDBRANCH   1  10
TORSDOF 0
ENDMDL
MODEL 5
REMARK VINA RESULT:    -5.015     16.413     18.463
REMARK INTER + INTRA:          -6.416
REMARK INTER:                  -6.776
REMARK INTRA:                   0.360
REMARK UNBOUND:                 0.652
REMARK SMILES CC1=CCC(=C(C)C)C(=O)CC(C)=CCC1
REMARK SMILES IDX 12 1 14 2 13 3 15 4 16 5 2 6 1 7 3 8 11 10 9 11 10 12 5 13
REMARK SMILES IDX 6 14 7 15 8 16 4 17
REMARK H PARENT
REMARK Flexibility Score: 60.00
ROOT
ATOM      1  C   UNL     1     -30.201  20.433  13.644  1.00  0.00    -0.070 C 
ATOM      2  C   UNL     1     -29.691  20.518  14.892  1.00  0.00    -0.027 C 
ATOM      3  C   UNL     1     -31.658  20.073  13.500  1.00  0.00     0.039 C 
ENDROOT
BRANCH   2   4
ATOM      4  C   UNL     1     -28.286  20.958  15.245  1.00  0.00     0.032 C 
BRANCH   4   5
ATOM      5  C   UNL     1     -28.183  22.378  15.839  1.00  0.00     0.034 C 
BRANCH   5   6
ATOM      6  C   UNL     1     -27.229  23.278  15.075  1.00  0.00    -0.077 C 
ATOM      7  C   UNL     1     -25.805  23.363  15.561  1.00  0.00     0.039 C 
ATOM      8  C   UNL     1     -27.556  23.955  13.946  1.00  0.00    -0.023 CG0
ATOM      9  G   UNL     1     -28.919  24.032  13.288  1.00  0.00     0.000 G0
ENDBRANCH   5   6
ENDBRANCH   4   5
ENDBRANCH   2   4
BRANCH   1  10
ATOM     10  C   UNL     1     -29.410  20.770  12.397  1.00  0.00     0.111 C 
BRANCH  10  11
ATOM     11  C   UNL     1     -29.808  22.107  11.831  1.00  0.00     0.163 C 
ATOM     12  O   UNL     1     -30.945  22.210  11.293  1.00  0.00    -0.294 OA
BRANCH  11  13
ATOM     13  C   UNL     1     -28.938  23.316  11.940  1.00  0.00    -0.002 C 
ATOM     14  C   UNL     1     -28.261  23.790  10.851  1.00  0.00    -0.069 C 
ATOM     15  C   UNL     1     -27.500  25.097  10.888  1.00  0.00     0.039 C 
ATOM     16  C   UNL     1     -28.243  23.026   9.545  1.00  0.00     0.039 C 
BRANCH  13  17
ATOM     17  C   UNL     1     -28.916  24.039  13.276  1.00  0.00     0.066 CG0
ATOM     18  G   UNL     1     -27.561  23.963  13.951  1.00  0.00     0.000 G0
ENDBRANCH  13  17
ENDBRANCH  11  13
ENDBRANCH  10  11
ENDBRANCH   1  10
TORSDOF 0
ENDMDL
MODEL 6
REMARK VINA RESULT:    -4.835     16.870     18.803
REMARK INTER + INTRA:          -6.161
REMARK INTER:                  -7.675
REMARK INTRA:                   1.514
REMARK UNBOUND:                 0.652
REMARK SMILES CC1=CCC(=C(C)C)C(=O)CC(C)=CCC1
REMARK SMILES IDX 12 1 14 2 13 3 15 4 16 5 2 6 1 7 3 8 11 10 9 11 10 12 5 13
REMARK SMILES IDX 6 14 7 15 8 16 4 17
REMARK H PARENT
REMARK Flexibility Score: 60.00
ROOT
ATOM      1  C   UNL     1     -30.252  22.178  11.684  1.00  0.00    -0.070 C 
ATOM      2  C   UNL     1     -29.539  23.099  10.999  1.00  0.00    -0.027 C 
ATOM      3  C   UNL     1     -31.736  22.403  11.834  1.00  0.00     0.039 C 
ENDROOT
BRANCH   2   4
ATOM      4  C   UNL     1     -28.067  23.004  10.660  1.00  0.00     0.032 C 
BRANCH   4   5
ATOM      5  C   UNL     1     -27.123  23.673  11.680  1.00  0.00     0.034 C 
BRANCH   5   6
ATOM      6  C   UNL     1     -27.854  24.268  12.870  1.00  0.00    -0.077 C 
ATOM      7  C   UNL     1     -28.285  25.710  12.778  1.00  0.00     0.039 C 
ATOM      8  C   UNL     1     -28.204  23.570  13.979  1.00  0.00    -0.023 CG0
ATOM      9  G   UNL     1     -27.866  22.128  14.297  1.00  0.00     0.000 G0
ENDBRANCH   5   6
ENDBRANCH   4   5
ENDBRANCH   2   4
BRANCH   1  10
ATOM     10  C   UNL     1     -29.653  20.895  12.223  1.00  0.00     0.111 C 
BRANCH  10  11
ATOM     11  C   UNL     1     -29.934  20.725  13.692  1.00  0.00     0.163 C 
ATOM     12  O   UNL     1     -30.929  20.026  14.030  1.00  0.00    -0.294 OA
BRANCH  11  13
ATOM     13  C   UNL     1     -29.048  21.296  14.749  1.00  0.00    -0.002 C 
ATOM     14  C   UNL     1     -29.263  21.015  16.070  1.00  0.00    -0.069 C 
ATOM     15  C   UNL     1     -28.295  21.447  17.149  1.00  0.00     0.039 C 
ATOM     16  C   UNL     1     -30.489  20.249  16.518  1.00  0.00     0.039 C 
BRANCH  13  17
ATOM     17  C   UNL     1     -27.855  22.117  14.288  1.00  0.00     0.066 CG0
ATOM     18  G   UNL     1     -28.228  23.554  13.980  1.00  0.00     0.000 G0
ENDBRANCH  13  17
ENDBRANCH  11  13
ENDBRANCH  10  11
ENDBRANCH   1  10
TORSDOF 0
ENDMDL
MODEL 7
REMARK VINA RESULT:    -4.694      1.833      3.838
REMARK INTER + INTRA:          -5.963
REMARK INTER:                  -6.572
REMARK INTRA:                   0.609
REMARK UNBOUND:                 0.652
REMARK SMILES CC1=CCC(=C(C)C)C(=O)CC(C)=CCC1
REMARK SMILES IDX 12 1 14 2 13 3 15 4 16 5 2 6 1 7 3 8 11 10 9 11 10 12 5 13
REMARK SMILES IDX 6 14 7 15 8 16 4 17
REMARK H PARENT
REMARK Flexibility Score: 60.00
ROOT
ATOM      1  C   UNL     1     -18.857  35.280  13.099  1.00  0.00    -0.070 C 
ATOM      2  C   UNL     1     -19.158  35.345  14.414  1.00  0.00    -0.027 C 
ATOM      3  C   UNL     1     -18.022  34.118  12.623  1.00  0.00     0.039 C 
ENDROOT
BRANCH   2   4
ATOM      4  C   UNL     1     -20.059  36.373  15.065  1.00  0.00     0.032 C 
BRANCH   4   5
ATOM      5  C   UNL     1     -19.695  37.840  14.756  1.00  0.00     0.034 C 
BRANCH   5   6
ATOM      6  C   UNL     1     -18.319  38.234  15.264  1.00  0.00    -0.077 C 
ATOM      7  C   UNL     1     -18.053  38.098  16.742  1.00  0.00     0.039 C 
ATOM      8  C   UNL     1     -17.297  38.634  14.469  1.00  0.00    -0.023 CG0
ATOM      9  G   UNL     1     -17.337  38.860  12.971  1.00  0.00     0.000 G0
ENDBRANCH   5   6
ENDBRANCH   4   5
ENDBRANCH   2   4
BRANCH   1  10
ATOM     10  C   UNL     1     -19.391  36.259  12.073  1.00  0.00     0.111 C 
BRANCH  10  11
ATOM     11  C   UNL     1     -18.281  37.032  11.412  1.00  0.00     0.163 C 
ATOM     12  O   UNL     1     -18.378  37.272  10.178  1.00  0.00    -0.294 OA
BRANCH  11  13
ATOM     13  C   UNL     1     -17.116  37.572  12.175  1.00  0.00    -0.002 C 
ATOM     14  C   UNL     1     -15.889  36.974  12.092  1.00  0.00    -0.069 C 
ATOM     15  C   UNL     1     -14.657  37.584  12.722  1.00  0.00     0.039 C 
ATOM     16  C   UNL     1     -15.704  35.665  11.357  1.00  0.00     0.039 C 
BRANCH  13  17
ATOM     17  C   UNL     1     -17.333  38.855  12.960  1.00  0.00     0.066 CG0
ATOM     18  G   UNL     1     -17.303  38.625  14.458  1.00  0.00     0.000 G0
ENDBRANCH  13  17
ENDBRANCH  11  13
ENDBRANCH  10  11
ENDBRANCH   1  10
TORSDOF 0
ENDMDL
MODEL 8
REMARK VINA RESULT:    -4.565     16.342     18.433
REMARK INTER + INTRA:          -5.782
REMARK INTER:                  -6.565
REMARK INTRA:                   0.784
REMARK UNBOUND:                 0.652
REMARK SMILES CC1=CCC(=C(C)C)C(=O)CC(C)=CCC1
REMARK SMILES IDX 12 1 14 2 13 3 15 4 16 5 2 6 1 7 3 8 11 10 9 11 10 12 5 13
REMARK SMILES IDX 6 14 7 15 8 16 4 17
REMARK H PARENT
REMARK Flexibility Score: 60.00
ROOT
ATOM      1  C   UNL     1     -26.534  22.765  14.185  1.00  0.00    -0.070 C 
ATOM      2  C   UNL     1     -26.253  23.276  12.965  1.00  0.00    -0.027 C 
ATOM      3  C   UNL     1     -25.827  23.357  15.378  1.00  0.00     0.039 C 
ENDROOT
BRANCH   2   4
ATOM      4  C   UNL     1     -26.925  22.885  11.667  1.00  0.00     0.032 C 
BRANCH   4   5
ATOM      5  C   UNL     1     -27.693  24.026  10.968  1.00  0.00     0.034 C 
BRANCH   5   6
ATOM      6  C   UNL     1     -28.725  24.688  11.862  1.00  0.00    -0.077 C 
ATOM      7  C   UNL     1     -28.536  26.147  12.189  1.00  0.00     0.039 C 
ATOM      8  C   UNL     1     -29.839  24.072  12.330  1.00  0.00    -0.023 CG0
ATOM      9  G   UNL     1     -30.225  22.617  12.147  1.00  0.00     0.000 G0
ENDBRANCH   5   6
ENDBRANCH   4   5
ENDBRANCH   2   4
BRANCH   1  10
ATOM     10  C   UNL     1     -27.586  21.700  14.418  1.00  0.00     0.111 C 
BRANCH  10  11
ATOM     11  C   UNL     1     -28.976  22.276  14.383  1.00  0.00     0.163 C 
ATOM     12  O   UNL     1     -29.244  23.231  15.163  1.00  0.00    -0.294 OA
BRANCH  11  13
ATOM     13  C   UNL     1     -30.017  21.802  13.423  1.00  0.00    -0.002 C 
ATOM     14  C   UNL     1     -30.805  20.725  13.722  1.00  0.00    -0.069 C 
ATOM     15  C   UNL     1     -31.969  20.316  12.847  1.00  0.00     0.039 C 
ATOM     16  C   UNL     1     -30.549  19.885  14.954  1.00  0.00     0.039 C 
BRANCH  13  17
ATOM     17  C   UNL     1     -30.221  22.619  12.159  1.00  0.00     0.066 CG0
ATOM     18  G   UNL     1     -29.838  24.074  12.344  1.00  0.00     0.000 G0
ENDBRANCH  13  17
ENDBRANCH  11  13
ENDBRANCH  10  11
ENDBRANCH   1  10
TORSDOF 0
ENDMDL
MODEL 9
REMARK VINA RESULT:    -4.543     17.120     18.982
REMARK INTER + INTRA:          -5.749
REMARK INTER:                  -6.988
REMARK INTRA:                   1.239
REMARK UNBOUND:                 0.652
REMARK SMILES CC1=CCC(=C(C)C)C(=O)CC(C)=CCC1
REMARK SMILES IDX 12 1 14 2 13 3 15 4 16 5 2 6 1 7 3 8 11 10 9 11 10 12 5 13
REMARK SMILES IDX 6 14 7 15 8 16 4 17
REMARK H PARENT
REMARK Flexibility Score: 60.00
ROOT
ATOM      1  C   UNL     1     -28.667  21.585  15.615  1.00  0.00    -0.070 C 
ATOM      2  C   UNL     1     -29.266  20.516  15.044  1.00  0.00    -0.027 C 
ATOM      3  C   UNL     1     -28.535  21.602  17.116  1.00  0.00     0.039 C 
ENDROOT
BRANCH   2   4
ATOM      4  C   UNL     1     -29.406  20.269  13.558  1.00  0.00     0.032 C 
BRANCH   4   5
ATOM      5  C   UNL     1     -30.825  19.876  13.098  1.00  0.00     0.034 C 
BRANCH   5   6
ATOM      6  C   UNL     1     -31.530  20.977  12.327  1.00  0.00    -0.077 C 
ATOM      7  C   UNL     1     -33.034  20.915  12.236  1.00  0.00     0.039 C 
ATOM      8  C   UNL     1     -30.904  22.045  11.775  1.00  0.00    -0.023 CG0
ATOM      9  G   UNL     1     -29.411  22.306  11.726  1.00  0.00     0.000 G0
ENDBRANCH   5   6
ENDBRANCH   4   5
ENDBRANCH   2   4
BRANCH   1  10
ATOM     10  C   UNL     1     -28.044  22.712  14.817  1.00  0.00     0.111 C 
BRANCH  10  11
ATOM     11  C   UNL     1     -29.074  23.453  14.005  1.00  0.00     0.163 C 
ATOM     12  O   UNL     1     -29.994  24.057  14.621  1.00  0.00    -0.294 OA
BRANCH  11  13
ATOM     13  C   UNL     1     -29.005  23.546  12.516  1.00  0.00    -0.002 C 
ATOM     14  C   UNL     1     -28.515  24.668  11.908  1.00  0.00    -0.069 C 
ATOM     15  C   UNL     1     -28.285  24.734  10.414  1.00  0.00     0.039 C 
ATOM     16  C   UNL     1     -28.174  25.907  12.707  1.00  0.00     0.039 C 
BRANCH  13  17
ATOM     17  C   UNL     1     -29.411  22.315  11.723  1.00  0.00     0.066 CG0
ATOM     18  G   UNL     1     -30.902  22.053  11.788  1.00  0.00     0.000 G0
ENDBRANCH  13  17
ENDBRANCH  11  13
ENDBRANCH  10  11
ENDBRANCH   1  10
TORSDOF 0
ENDMDL
