MODEL 1
REMARK VINA RESULT:    -4.854      0.000      0.000
REMARK INTER + INTRA:         -11.907
REMARK INTER:                  -9.395
REMARK INTRA:                  -2.512
REMARK UNBOUND:                -2.512
REMARK SMILES CCCCCCCCCCCCCCCCCC(=O)[O-]
REMARK SMILES IDX 10 1 11 2 12 3 13 4 14 5 15 6 16 7 17 8 18 9 19 10 20 11
REMARK SMILES IDX 9 12 8 13 7 14 6 15 5 16 4 17 3 18 2 19 1 20
REMARK H PARENT
REMARK Flexibility Score: inf
ROOT
ATOM      1  C   UNL     1      13.574  11.356  32.659  1.00  0.00     0.000 C 
ENDROOT
BRANCH   1   2
ATOM      2  C   UNL     1      14.806  10.686  33.299  1.00  0.00     0.000 C 
BRANCH   2   3
ATOM      3  C   UNL     1      16.139  11.417  33.056  1.00  0.00     0.000 C 
BRANCH   3   4
ATOM      4  C   UNL     1      16.682  12.211  34.264  1.00  0.00     0.000 C 
BRANCH   4   5
ATOM      5  C   UNL     1      17.091  11.361  35.481  1.00  0.00     0.000 C 
BRANCH   5   6
ATOM      6  C   UNL     1      17.797  12.182  36.573  1.00  0.00     0.000 C 
BRANCH   6   7
ATOM      7  C   UNL     1      17.699  13.700  36.332  1.00  0.00     0.006 C 
BRANCH   7   8
ATOM      8  C   UNL     1      19.055  14.404  36.158  1.00  0.00     0.053 C 
BRANCH   8   9
ATOM      9  C   UNL     1      19.283  14.844  34.745  1.00  0.00     0.041 C 
ATOM     10  O   UNL     1      19.037  16.030  34.402  1.00  0.00    -0.550 OA
ATOM     11  O   UNL     1      19.735  13.934  33.797  1.00  0.00    -0.550 OA
ENDBRANCH   8   9
ENDBRANCH   7   8
ENDBRANCH   6   7
ENDBRANCH   5   6
ENDBRANCH   4   5
ENDBRANCH   3   4
ENDBRANCH   2   3
ENDBRANCH   1   2
BRANCH   1  12
ATOM     12  C   UNL     1      13.257  12.752  33.236  1.00  0.00     0.000 C 
BRANCH  12  13
ATOM     13  C   UNL     1      12.593  12.678  34.622  1.00  0.00    -0.000 C 
BRANCH  13  14
ATOM     14  C   UNL     1      13.221  13.650  35.634  1.00  0.00    -0.000 C 
BRANCH  14  15
ATOM     15  C   UNL     1      13.895  12.928  36.810  1.00  0.00    -0.000 C 
BRANCH  15  16
ATOM     16  C   UNL     1      13.658  11.414  36.733  1.00  0.00    -0.000 C 
BRANCH  16  17
ATOM     17  C   UNL     1      12.822  10.926  37.922  1.00  0.00    -0.000 C 
BRANCH  17  18
ATOM     18  C   UNL     1      11.442  10.436  37.459  1.00  0.00    -0.000 C 
BRANCH  18  19
ATOM     19  C   UNL     1      10.290  11.108  38.222  1.00  0.00    -0.003 C 
ATOM     20  C   UNL     1      10.400  12.633  38.236  1.00  0.00     0.004 C 
ENDBRANCH  18  19
ENDBRANCH  17  18
ENDBRANCH  16  17
ENDBRANCH  15  16
ENDBRANCH  14  15
ENDBRANCH  13  14
ENDBRANCH  12  13
ENDBRANCH   1  12
TORSDOF 16
ENDMDL
MODEL 2
REMARK VINA RESULT:    -4.814      2.032      3.865
REMARK INTER + INTRA:         -11.830
REMARK INTER:                  -9.380
REMARK INTRA:                  -2.450
REMARK UNBOUND:                -2.512
REMARK SMILES CCCCCCCCCCCCCCCCCC(=O)[O-]
REMARK SMILES IDX 10 1 11 2 12 3 13 4 14 5 15 6 16 7 17 8 18 9 19 10 20 11
REMARK SMILES IDX 9 12 8 13 7 14 6 15 5 16 4 17 3 18 2 19 1 20
REMARK H PARENT
REMARK Flexibility Score: inf
ROOT
ATOM      1  C   UNL     1      16.662  10.767  36.701  1.00  0.00     0.000 C 
ENDROOT
BRANCH   1   2
ATOM      2  C   UNL     1      17.654  11.914  36.430  1.00  0.00     0.000 C 
BRANCH   2   3
ATOM      3  C   UNL     1      17.077  13.091  35.622  1.00  0.00     0.000 C 
BRANCH   3   4
ATOM      4  C   UNL     1      17.625  13.232  34.185  1.00  0.00     0.000 C 
BRANCH   4   5
ATOM      5  C   UNL     1      17.633  11.937  33.353  1.00  0.00     0.000 C 
BRANCH   5   6
ATOM      6  C   UNL     1      19.043  11.530  32.893  1.00  0.00     0.000 C 
BRANCH   6   7
ATOM      7  C   UNL     1      20.098  12.614  33.181  1.00  0.00     0.006 C 
BRANCH   7   8
ATOM      8  C   UNL     1      20.581  13.376  31.936  1.00  0.00     0.053 C 
BRANCH   8   9
ATOM      9  C   UNL     1      21.704  14.316  32.251  1.00  0.00     0.041 C 
ATOM     10  O   UNL     1      21.461  15.463  32.710  1.00  0.00    -0.550 OA
ATOM     11  O   UNL     1      23.018  13.938  32.004  1.00  0.00    -0.550 OA
ENDBRANCH   8   9
ENDBRANCH   7   8
ENDBRANCH   6   7
ENDBRANCH   5   6
ENDBRANCH   4   5
ENDBRANCH   3   4
ENDBRANCH   2   3
ENDBRANCH   1   2
BRANCH   1  12
ATOM     12  C   UNL     1      15.181  11.182  36.563  1.00  0.00     0.000 C 
BRANCH  12  13
ATOM     13  C   UNL     1      14.243   9.971  36.413  1.00  0.00    -0.000 C 
BRANCH  13  14
ATOM     14  C   UNL     1      13.490   9.967  35.073  1.00  0.00    -0.000 C 
BRANCH  14  15
ATOM     15  C   UNL     1      14.396  10.314  33.882  1.00  0.00    -0.000 C 
BRANCH  15  16
ATOM     16  C   UNL     1      13.727  11.347  32.966  1.00  0.00    -0.000 C 
BRANCH  16  17
ATOM     17  C   UNL     1      13.949  12.772  33.488  1.00  0.00    -0.000 C 
BRANCH  17  18
ATOM     18  C   UNL     1      12.651  13.355  34.065  1.00  0.00    -0.000 C 
BRANCH  18  19
ATOM     19  C   UNL     1      12.810  13.822  35.521  1.00  0.00    -0.003 C 
ATOM     20  C   UNL     1      11.946  13.022  36.496  1.00  0.00     0.004 C 
ENDBRANCH  18  19
ENDBRANCH  17  18
ENDBRANCH  16  17
ENDBRANCH  15  16
ENDBRANCH  14  15
ENDBRANCH  13  14
ENDBRANCH  12  13
ENDBRANCH   1  12
TORSDOF 16
ENDMDL
MODEL 3
REMARK VINA RESULT:    -4.783      1.991      3.941
REMARK INTER + INTRA:         -11.770
REMARK INTER:                  -9.551
REMARK INTRA:                  -2.219
REMARK UNBOUND:                -2.512
REMARK SMILES CCCCCCCCCCCCCCCCCC(=O)[O-]
REMARK SMILES IDX 10 1 11 2 12 3 13 4 14 5 15 6 16 7 17 8 18 9 19 10 20 11
REMARK SMILES IDX 9 12 8 13 7 14 6 15 5 16 4 17 3 18 2 19 1 20
REMARK H PARENT
REMARK Flexibility Score: inf
ROOT
ATOM      1  C   UNL     1      15.129  10.510  36.006  1.00  0.00     0.000 C 
ENDROOT
BRANCH   1   2
ATOM      2  C   UNL     1      16.539  11.130  36.013  1.00  0.00     0.000 C 
BRANCH   2   3
ATOM      3  C   UNL     1      16.588  12.631  35.674  1.00  0.00     0.000 C 
BRANCH   3   4
ATOM      4  C   UNL     1      17.248  12.977  34.322  1.00  0.00     0.000 C 
BRANCH   4   5
ATOM      5  C   UNL     1      17.459  11.788  33.368  1.00  0.00     0.000 C 
BRANCH   5   6
ATOM      6  C   UNL     1      18.925  11.620  32.935  1.00  0.00     0.000 C 
BRANCH   6   7
ATOM      7  C   UNL     1      19.844  12.713  33.514  1.00  0.00     0.006 C 
BRANCH   7   8
ATOM      8  C   UNL     1      20.540  13.583  32.455  1.00  0.00     0.053 C 
BRANCH   8   9
ATOM      9  C   UNL     1      22.032  13.539  32.582  1.00  0.00     0.041 C 
ATOM     10  O   UNL     1      22.568  13.391  33.712  1.00  0.00    -0.550 OA
ATOM     11  O   UNL     1      22.832  13.699  31.457  1.00  0.00    -0.550 OA
ENDBRANCH   8   9
ENDBRANCH   7   8
ENDBRANCH   6   7
ENDBRANCH   5   6
ENDBRANCH   4   5
ENDBRANCH   3   4
ENDBRANCH   2   3
ENDBRANCH   1   2
BRANCH   1  12
ATOM     12  C   UNL     1      14.683   9.967  37.381  1.00  0.00     0.000 C 
BRANCH  12  13
ATOM     13  C   UNL     1      13.504  10.761  37.971  1.00  0.00    -0.000 C 
BRANCH  13  14
ATOM     14  C   UNL     1      12.405  11.048  36.936  1.00  0.00    -0.000 C 
BRANCH  14  15
ATOM     15  C   UNL     1      11.994  12.528  36.902  1.00  0.00    -0.000 C 
BRANCH  15  16
ATOM     16  C   UNL     1      13.179  13.417  36.500  1.00  0.00    -0.000 C 
BRANCH  16  17
ATOM     17  C   UNL     1      12.861  14.219  35.233  1.00  0.00    -0.000 C 
BRANCH  17  18
ATOM     18  C   UNL     1      12.499  13.287  34.067  1.00  0.00    -0.000 C 
BRANCH  18  19
ATOM     19  C   UNL     1      13.739  12.719  33.360  1.00  0.00    -0.003 C 
ATOM     20  C   UNL     1      13.518  11.307  32.819  1.00  0.00     0.004 C 
ENDBRANCH  18  19
ENDBRANCH  17  18
ENDBRANCH  16  17
ENDBRANCH  15  16
ENDBRANCH  14  15
ENDBRANCH  13  14
ENDBRANCH  12  13
ENDBRANCH   1  12
TORSDOF 16
ENDMDL
MODEL 4
REMARK VINA RESULT:    -4.725      1.949      4.047
REMARK INTER + INTRA:         -11.656
REMARK INTER:                  -9.304
REMARK INTRA:                  -2.352
REMARK UNBOUND:                -2.512
REMARK SMILES CCCCCCCCCCCCCCCCCC(=O)[O-]
REMARK SMILES IDX 10 1 11 2 12 3 13 4 14 5 15 6 16 7 17 8 18 9 19 10 20 11
REMARK SMILES IDX 9 12 8 13 7 14 6 15 5 16 4 17 3 18 2 19 1 20
REMARK H PARENT
REMARK Flexibility Score: inf
ROOT
ATOM      1  C   UNL     1      17.031  11.558  36.182  1.00  0.00     0.000 C 
ENDROOT
BRANCH   1   2
ATOM      2  C   UNL     1      17.007  11.488  34.643  1.00  0.00     0.000 C 
BRANCH   2   3
ATOM      3  C   UNL     1      17.490  12.763  33.930  1.00  0.00     0.000 C 
BRANCH   3   4
ATOM      4  C   UNL     1      17.396  14.058  34.766  1.00  0.00     0.000 C 
BRANCH   4   5
ATOM      5  C   UNL     1      18.330  15.199  34.321  1.00  0.00     0.000 C 
BRANCH   5   6
ATOM      6  C   UNL     1      19.651  15.231  35.106  1.00  0.00     0.000 C 
BRANCH   6   7
ATOM      7  C   UNL     1      20.885  15.332  34.190  1.00  0.00     0.006 C 
BRANCH   7   8
ATOM      8  C   UNL     1      20.566  15.279  32.688  1.00  0.00     0.053 C 
BRANCH   8   9
ATOM      9  C   UNL     1      21.084  14.029  32.045  1.00  0.00     0.041 C 
ATOM     10  O   UNL     1      20.414  12.964  32.098  1.00  0.00    -0.550 OA
ATOM     11  O   UNL     1      22.324  14.031  31.418  1.00  0.00    -0.550 OA
ENDBRANCH   8   9
ENDBRANCH   7   8
ENDBRANCH   6   7
ENDBRANCH   5   6
ENDBRANCH   4   5
ENDBRANCH   3   4
ENDBRANCH   2   3
ENDBRANCH   1   2
BRANCH   1  12
ATOM     12  C   UNL     1      16.036  10.593  36.863  1.00  0.00     0.000 C 
BRANCH  12  13
ATOM     13  C   UNL     1      14.574  11.039  36.690  1.00  0.00    -0.000 C 
BRANCH  13  14
ATOM     14  C   UNL     1      14.404  12.564  36.781  1.00  0.00    -0.000 C 
BRANCH  14  15
ATOM     15  C   UNL     1      12.978  13.023  36.441  1.00  0.00    -0.000 C 
BRANCH  15  16
ATOM     16  C   UNL     1      12.984  14.001  35.258  1.00  0.00    -0.000 C 
BRANCH  16  17
ATOM     17  C   UNL     1      13.807  13.446  34.089  1.00  0.00    -0.000 C 
BRANCH  17  18
ATOM     18  C   UNL     1      13.048  12.326  33.364  1.00  0.00    -0.000 C 
BRANCH  18  19
ATOM     19  C   UNL     1      13.989  11.281  32.745  1.00  0.00    -0.003 C 
ATOM     20  C   UNL     1      13.839   9.898  33.380  1.00  0.00     0.004 C 
ENDBRANCH  18  19
ENDBRANCH  17  18
ENDBRANCH  16  17
ENDBRANCH  15  16
ENDBRANCH  14  15
ENDBRANCH  13  14
ENDBRANCH  12  13
ENDBRANCH   1  12
TORSDOF 16
ENDMDL
MODEL 5
REMARK VINA RESULT:    -4.716      2.224      3.938
REMARK INTER + INTRA:         -11.639
REMARK INTER:                  -9.870
REMARK INTRA:                  -1.769
REMARK UNBOUND:                -2.512
REMARK SMILES CCCCCCCCCCCCCCCCCC(=O)[O-]
REMARK SMILES IDX 10 1 11 2 12 3 13 4 14 5 15 6 16 7 17 8 18 9 19 10 20 11
REMARK SMILES IDX 9 12 8 13 7 14 6 15 5 16 4 17 3 18 2 19 1 20
REMARK H PARENT
REMARK Flexibility Score: inf
ROOT
ATOM      1  C   UNL     1      16.662  11.135  35.193  1.00  0.00     0.000 C 
ENDROOT
BRANCH   1   2
ATOM      2  C   UNL     1      16.634  12.485  35.935  1.00  0.00     0.000 C 
BRANCH   2   3
ATOM      3  C   UNL     1      16.793  13.722  35.033  1.00  0.00     0.000 C 
BRANCH   3   4
ATOM      4  C   UNL     1      18.155  14.442  35.142  1.00  0.00     0.000 C 
BRANCH   4   5
ATOM      5  C   UNL     1      18.633  15.145  33.858  1.00  0.00     0.000 C 
BRANCH   5   6
ATOM      6  C   UNL     1      19.235  16.534  34.125  1.00  0.00     0.000 C 
BRANCH   6   7
ATOM      7  C   UNL     1      20.482  16.817  33.267  1.00  0.00     0.006 C 
BRANCH   7   8
ATOM      8  C   UNL     1      20.814  18.308  33.101  1.00  0.00     0.053 C 
BRANCH   8   9
ATOM      9  C   UNL     1      19.636  19.098  32.619  1.00  0.00     0.041 C 
ATOM     10  O   UNL     1      19.171  18.903  31.465  1.00  0.00    -0.550 OA
ATOM     11  O   UNL     1      19.074  20.075  33.431  1.00  0.00    -0.550 OA
ENDBRANCH   8   9
ENDBRANCH   7   8
ENDBRANCH   6   7
ENDBRANCH   5   6
ENDBRANCH   4   5
ENDBRANCH   3   4
ENDBRANCH   2   3
ENDBRANCH   1   2
BRANCH   1  12
ATOM     12  C   UNL     1      15.267  10.637  34.757  1.00  0.00     0.000 C 
BRANCH  12  13
ATOM     13  C   UNL     1      14.994  10.892  33.264  1.00  0.00    -0.000 C 
BRANCH  13  14
ATOM     14  C   UNL     1      13.605  11.500  33.011  1.00  0.00    -0.000 C 
BRANCH  14  15
ATOM     15  C   UNL     1      13.533  12.988  33.381  1.00  0.00    -0.000 C 
BRANCH  15  16
ATOM     16  C   UNL     1      12.463  13.236  34.451  1.00  0.00    -0.000 C 
BRANCH  16  17
ATOM     17  C   UNL     1      13.068  13.905  35.692  1.00  0.00    -0.000 C 
BRANCH  17  18
ATOM     18  C   UNL     1      13.201  12.903  36.847  1.00  0.00    -0.000 C 
BRANCH  18  19
ATOM     19  C   UNL     1      12.000  11.949  36.942  1.00  0.00    -0.003 C 
ATOM     20  C   UNL     1      10.924  12.445  37.907  1.00  0.00     0.004 C 
ENDBRANCH  18  19
ENDBRANCH  17  18
ENDBRANCH  16  17
ENDBRANCH  15  16
ENDBRANCH  14  15
ENDBRANCH  13  14
ENDBRANCH  12  13
ENDBRANCH   1  12
TORSDOF 16
ENDMDL
MODEL 6
REMARK VINA RESULT:    -4.712      3.718      7.063
REMARK INTER + INTRA:         -11.633
REMARK INTER:                  -9.256
REMARK INTRA:                  -2.377
REMARK UNBOUND:                -2.512
REMARK SMILES CCCCCCCCCCCCCCCCCC(=O)[O-]
REMARK SMILES IDX 10 1 11 2 12 3 13 4 14 5 15 6 16 7 17 8 18 9 19 10 20 11
REMARK SMILES IDX 9 12 8 13 7 14 6 15 5 16 4 17 3 18 2 19 1 20
REMARK H PARENT
REMARK Flexibility Score: inf
ROOT
ATOM      1  C   UNL     1      16.076  11.851  33.732  1.00  0.00     0.000 C 
ENDROOT
BRANCH   1   2
ATOM      2  C   UNL     1      15.017  11.032  32.970  1.00  0.00     0.000 C 
BRANCH   2   3
ATOM      3  C   UNL     1      13.558  11.412  33.282  1.00  0.00     0.000 C 
BRANCH   3   4
ATOM      4  C   UNL     1      13.284  12.927  33.393  1.00  0.00     0.000 C 
BRANCH   4   5
ATOM      5  C   UNL     1      12.695  13.394  34.737  1.00  0.00     0.000 C 
BRANCH   5   6
ATOM      6  C   UNL     1      12.384  12.229  35.691  1.00  0.00     0.000 C 
BRANCH   6   7
ATOM      7  C   UNL     1      12.799  12.524  37.144  1.00  0.00     0.006 C 
BRANCH   7   8
ATOM      8  C   UNL     1      12.152  11.601  38.189  1.00  0.00     0.053 C 
BRANCH   8   9
ATOM      9  C   UNL     1      10.663  11.760  38.237  1.00  0.00     0.041 C 
ATOM     10  O   UNL     1      10.150  12.908  38.287  1.00  0.00    -0.550 OA
ATOM     11  O   UNL     1       9.844  10.638  38.263  1.00  0.00    -0.550 OA
ENDBRANCH   8   9
ENDBRANCH   7   8
ENDBRANCH   6   7
ENDBRANCH   5   6
ENDBRANCH   4   5
ENDBRANCH   3   4
ENDBRANCH   2   3
ENDBRANCH   1   2
BRANCH   1  12
ATOM     12  C   UNL     1      16.215  11.456  35.218  1.00  0.00     0.000 C 
BRANCH  12  13
ATOM     13  C   UNL     1      16.413  12.676  36.134  1.00  0.00    -0.000 C 
BRANCH  13  14
ATOM     14  C   UNL     1      17.833  12.755  36.718  1.00  0.00    -0.000 C 
BRANCH  14  15
ATOM     15  C   UNL     1      18.503  14.114  36.468  1.00  0.00    -0.000 C 
BRANCH  15  16
ATOM     16  C   UNL     1      18.728  14.347  34.969  1.00  0.00    -0.000 C 
BRANCH  16  17
ATOM     17  C   UNL     1      19.932  13.545  34.461  1.00  0.00    -0.000 C 
BRANCH  17  18
ATOM     18  C   UNL     1      19.529  12.618  33.306  1.00  0.00    -0.000 C 
BRANCH  18  19
ATOM     19  C   UNL     1      20.129  11.210  33.441  1.00  0.00    -0.003 C 
ATOM     20  C   UNL     1      20.209  10.738  34.893  1.00  0.00     0.004 C 
ENDBRANCH  18  19
ENDBRANCH  17  18
ENDBRANCH  16  17
ENDBRANCH  15  16
ENDBRANCH  14  15
ENDBRANCH  13  14
ENDBRANCH  12  13
ENDBRANCH   1  12
TORSDOF 16
ENDMDL
MODEL 7
REMARK VINA RESULT:    -4.701      2.636      4.019
REMARK INTER + INTRA:         -11.610
REMARK INTER:                  -9.256
REMARK INTRA:                  -2.354
REMARK UNBOUND:                -2.512
REMARK SMILES CCCCCCCCCCCCCCCCCC(=O)[O-]
REMARK SMILES IDX 10 1 11 2 12 3 13 4 14 5 15 6 16 7 17 8 18 9 19 10 20 11
REMARK SMILES IDX 9 12 8 13 7 14 6 15 5 16 4 17 3 18 2 19 1 20
REMARK H PARENT
REMARK Flexibility Score: inf
ROOT
ATOM      1  C   UNL     1      15.393  10.776  36.433  1.00  0.00     0.000 C 
ENDROOT
BRANCH   1   2
ATOM      2  C   UNL     1      16.782  11.335  36.069  1.00  0.00     0.000 C 
BRANCH   2   3
ATOM      3  C   UNL     1      17.025  12.794  36.494  1.00  0.00     0.000 C 
BRANCH   3   4
ATOM      4  C   UNL     1      17.675  13.692  35.419  1.00  0.00     0.000 C 
BRANCH   4   5
ATOM      5  C   UNL     1      18.260  12.947  34.205  1.00  0.00     0.000 C 
BRANCH   5   6
ATOM      6  C   UNL     1      19.720  12.514  34.416  1.00  0.00     0.000 C 
BRANCH   6   7
ATOM      7  C   UNL     1      19.910  10.990  34.302  1.00  0.00     0.006 C 
BRANCH   7   8
ATOM      8  C   UNL     1      20.330  10.302  35.611  1.00  0.00     0.053 C 
BRANCH   8   9
ATOM      9  C   UNL     1      21.245   9.141  35.370  1.00  0.00     0.041 C 
ATOM     10  O   UNL     1      22.019   8.745  36.281  1.00  0.00    -0.550 OA
ATOM     11  O   UNL     1      21.270   8.520  34.128  1.00  0.00    -0.550 OA
ENDBRANCH   8   9
ENDBRANCH   7   8
ENDBRANCH   6   7
ENDBRANCH   5   6
ENDBRANCH   4   5
ENDBRANCH   3   4
ENDBRANCH   2   3
ENDBRANCH   1   2
BRANCH   1  12
ATOM     12  C   UNL     1      14.598  10.249  35.219  1.00  0.00     0.000 C 
BRANCH  12  13
ATOM     13  C   UNL     1      14.978  10.966  33.912  1.00  0.00    -0.000 C 
BRANCH  13  14
ATOM     14  C   UNL     1      13.754  11.330  33.056  1.00  0.00    -0.000 C 
BRANCH  14  15
ATOM     15  C   UNL     1      13.162  12.700  33.420  1.00  0.00    -0.000 C 
BRANCH  15  16
ATOM     16  C   UNL     1      14.148  13.516  34.266  1.00  0.00    -0.000 C 
BRANCH  16  17
ATOM     17  C   UNL     1      13.470  14.066  35.526  1.00  0.00    -0.000 C 
BRANCH  17  18
ATOM     18  C   UNL     1      12.214  13.254  35.873  1.00  0.00    -0.000 C 
BRANCH  18  19
ATOM     19  C   UNL     1      12.348  12.498  37.204  1.00  0.00    -0.003 C 
ATOM     20  C   UNL     1      11.024  12.390  37.960  1.00  0.00     0.004 C 
ENDBRANCH  18  19
ENDBRANCH  17  18
ENDBRANCH  16  17
ENDBRANCH  15  16
ENDBRANCH  14  15
ENDBRANCH  13  14
ENDBRANCH  12  13
ENDBRANCH   1  12
TORSDOF 16
ENDMDL
MODEL 8
REMARK VINA RESULT:    -4.699      1.502      2.430
REMARK INTER + INTRA:         -11.606
REMARK INTER:                  -9.064
REMARK INTRA:                  -2.542
REMARK UNBOUND:                -2.512
REMARK SMILES CCCCCCCCCCCCCCCCCC(=O)[O-]
REMARK SMILES IDX 10 1 11 2 12 3 13 4 14 5 15 6 16 7 17 8 18 9 19 10 20 11
REMARK SMILES IDX 9 12 8 13 7 14 6 15 5 16 4 17 3 18 2 19 1 20
REMARK H PARENT
REMARK Flexibility Score: inf
ROOT
ATOM      1  C   UNL     1      15.073  10.972  33.057  1.00  0.00     0.000 C 
ENDROOT
BRANCH   1   2
ATOM      2  C   UNL     1      15.934  11.959  33.868  1.00  0.00     0.000 C 
BRANCH   2   3
ATOM      3  C   UNL     1      16.561  11.372  35.145  1.00  0.00     0.000 C 
BRANCH   3   4
ATOM      4  C   UNL     1      16.983  12.410  36.207  1.00  0.00     0.000 C 
BRANCH   4   5
ATOM      5  C   UNL     1      17.651  13.683  35.655  1.00  0.00     0.000 C 
BRANCH   5   6
ATOM      6  C   UNL     1      19.079  13.435  35.143  1.00  0.00     0.000 C 
BRANCH   6   7
ATOM      7  C   UNL     1      19.472  14.383  33.994  1.00  0.00     0.006 C 
BRANCH   7   8
ATOM      8  C   UNL     1      19.172  15.866  34.264  1.00  0.00     0.053 C 
BRANCH   8   9
ATOM      9  C   UNL     1      19.861  16.768  33.287  1.00  0.00     0.041 C 
ATOM     10  O   UNL     1      20.784  17.533  33.671  1.00  0.00    -0.550 OA
ATOM     11  O   UNL     1      19.459  16.789  31.957  1.00  0.00    -0.550 OA
ENDBRANCH   8   9
ENDBRANCH   7   8
ENDBRANCH   6   7
ENDBRANCH   5   6
ENDBRANCH   4   5
ENDBRANCH   3   4
ENDBRANCH   2   3
ENDBRANCH   1   2
BRANCH   1  12
ATOM     12  C   UNL     1      13.566  11.309  33.068  1.00  0.00     0.000 C 
BRANCH  12  13
ATOM     13  C   UNL     1      13.301  12.807  33.299  1.00  0.00    -0.000 C 
BRANCH  13  14
ATOM     14  C   UNL     1      12.437  13.071  34.543  1.00  0.00    -0.000 C 
BRANCH  14  15
ATOM     15  C   UNL     1      13.096  14.049  35.526  1.00  0.00    -0.000 C 
BRANCH  15  16
ATOM     16  C   UNL     1      13.663  13.306  36.743  1.00  0.00    -0.000 C 
BRANCH  16  17
ATOM     17  C   UNL     1      12.748  12.147  37.156  1.00  0.00    -0.000 C 
BRANCH  17  18
ATOM     18  C   UNL     1      13.570  10.920  37.574  1.00  0.00    -0.000 C 
BRANCH  18  19
ATOM     19  C   UNL     1      13.590   9.828  36.493  1.00  0.00    -0.003 C 
ATOM     20  C   UNL     1      12.191   9.456  36.001  1.00  0.00     0.004 C 
ENDBRANCH  18  19
ENDBRANCH  17  18
ENDBRANCH  16  17
ENDBRANCH  15  16
ENDBRANCH  14  15
ENDBRANCH  13  14
ENDBRANCH  12  13
ENDBRANCH   1  12
TORSDOF 16
ENDMDL
MODEL 9
REMARK VINA RESULT:    -4.679      3.253      6.830
REMARK INTER + INTRA:         -11.568
REMARK INTER:                  -9.204
REMARK INTRA:                  -2.364
REMARK UNBOUND:                -2.512
REMARK SMILES CCCCCCCCCCCCCCCCCC(=O)[O-]
REMARK SMILES IDX 10 1 11 2 12 3 13 4 14 5 15 6 16 7 17 8 18 9 19 10 20 11
REMARK SMILES IDX 9 12 8 13 7 14 6 15 5 16 4 17 3 18 2 19 1 20
REMARK H PARENT
REMARK Flexibility Score: inf
ROOT
ATOM      1  C   UNL     1      14.936  10.507  33.549  1.00  0.00     0.000 C 
ENDROOT
BRANCH   1   2
ATOM      2  C   UNL     1      13.568  11.056  33.101  1.00  0.00     0.000 C 
BRANCH   2   3
ATOM      3  C   UNL     1      13.438  12.589  33.153  1.00  0.00     0.000 C 
BRANCH   3   4
ATOM      4  C   UNL     1      12.476  13.129  34.233  1.00  0.00     0.000 C 
BRANCH   4   5
ATOM      5  C   UNL     1      13.115  14.063  35.278  1.00  0.00     0.000 C 
BRANCH   5   6
ATOM      6  C   UNL     1      13.469  13.341  36.588  1.00  0.00     0.000 C 
BRANCH   6   7
ATOM      7  C   UNL     1      12.830  11.943  36.688  1.00  0.00     0.006 C 
BRANCH   7   8
ATOM      8  C   UNL     1      13.726  10.881  37.345  1.00  0.00     0.053 C 
BRANCH   8   9
ATOM      9  C   UNL     1      13.132  10.348  38.613  1.00  0.00     0.041 C 
ATOM     10  O   UNL     1      12.038  10.803  39.040  1.00  0.00    -0.550 OA
ATOM     11  O   UNL     1      13.803   9.374  39.341  1.00  0.00    -0.550 OA
ENDBRANCH   8   9
ENDBRANCH   7   8
ENDBRANCH   6   7
ENDBRANCH   5   6
ENDBRANCH   4   5
ENDBRANCH   3   4
ENDBRANCH   2   3
ENDBRANCH   1   2
BRANCH   1  12
ATOM     12  C   UNL     1      16.046  11.579  33.608  1.00  0.00     0.000 C 
BRANCH  12  13
ATOM     13  C   UNL     1      16.611  11.761  35.027  1.00  0.00    -0.000 C 
BRANCH  13  14
ATOM     14  C   UNL     1      16.804  13.239  35.404  1.00  0.00    -0.000 C 
BRANCH  14  15
ATOM     15  C   UNL     1      17.638  13.421  36.681  1.00  0.00    -0.000 C 
BRANCH  15  16
ATOM     16  C   UNL     1      18.929  14.195  36.387  1.00  0.00    -0.000 C 
BRANCH  16  17
ATOM     17  C   UNL     1      18.815  14.980  35.074  1.00  0.00    -0.000 C 
BRANCH  17  18
ATOM     18  C   UNL     1      20.077  14.805  34.217  1.00  0.00    -0.000 C 
BRANCH  18  19
ATOM     19  C   UNL     1      19.985  13.599  33.270  1.00  0.00    -0.003 C 
ATOM     20  C   UNL     1      21.187  13.490  32.331  1.00  0.00     0.004 C 
ENDBRANCH  18  19
ENDBRANCH  17  18
ENDBRANCH  16  17
ENDBRANCH  15  16
ENDBRANCH  14  15
ENDBRANCH  13  14
ENDBRANCH  12  13
ENDBRANCH   1  12
TORSDOF 16
ENDMDL
