MODEL 1
REMARK VINA RESULT:    -6.491      0.000      0.000
REMARK INTER + INTRA:          -7.106
REMARK INTER:                  -6.870
REMARK INTRA:                  -0.236
REMARK UNBOUND:                -0.236
REMARK SMILES O=c1cc(-c2ccccc2)oc2ccccc12
REMARK SMILES IDX 4 1 3 2 2 3 1 4 17 5 16 6 15 7 14 8 13 9 12 10 11 11 5 12
REMARK SMILES IDX 8 13 7 14 9 15 6 16 10 17
REMARK H PARENT
REMARK Flexibility Score: inf
ROOT
ATOM      1  C   UNL     1       9.440 -37.935  29.542  1.00  0.00     0.138 A 
ATOM      2  C   UNL     1      10.217 -37.230  30.486  1.00  0.00     0.100 A 
ATOM      3  C   UNL     1      10.489 -35.876  30.281  1.00  0.00     0.193 A 
ATOM      4  O   UNL     1      11.184 -35.247  31.125  1.00  0.00    -0.289 OA
ATOM      5  C   UNL     1       9.986 -35.236  29.140  1.00  0.00     0.065 A 
ATOM      6  C   UNL     1      10.222 -33.875  28.873  1.00  0.00     0.016 A 
ATOM      7  C   UNL     1       9.696 -33.286  27.720  1.00  0.00     0.001 A 
ATOM      8  C   UNL     1       8.934 -34.045  26.828  1.00  0.00     0.004 A 
ATOM      9  C   UNL     1       8.693 -35.398  27.084  1.00  0.00     0.048 A 
ATOM     10  C   UNL     1       9.215 -35.998  28.236  1.00  0.00     0.138 A 
ATOM     11  O   UNL     1       8.981 -37.285  28.471  1.00  0.00    -0.456 OA
ENDROOT
BRANCH   1  12
ATOM     12  C   UNL     1       9.103 -39.385  29.685  1.00  0.00     0.017 A 
ATOM     13  C   UNL     1       8.428 -42.102  30.043  1.00  0.00     0.000 A 
ATOM     14  C   UNL     1       9.058 -41.688  28.870  1.00  0.00     0.001 A 
ATOM     15  C   UNL     1       8.132 -41.172  31.039  1.00  0.00     0.001 A 
ATOM     16  C   UNL     1       9.394 -40.343  28.687  1.00  0.00     0.012 A 
ATOM     17  C   UNL     1       8.465 -39.826  30.864  1.00  0.00     0.012 A 
ENDBRANCH   1  12
TORSDOF 1
ENDMDL
MODEL 2
REMARK VINA RESULT:    -6.282     22.332     24.502
REMARK INTER + INTRA:          -6.885
REMARK INTER:                  -6.660
REMARK INTRA:                  -0.225
REMARK UNBOUND:                -0.236
REMARK SMILES O=c1cc(-c2ccccc2)oc2ccccc12
REMARK SMILES IDX 4 1 3 2 2 3 1 4 17 5 16 6 15 7 14 8 13 9 12 10 11 11 5 12
REMARK SMILES IDX 8 13 7 14 9 15 6 16 10 17
REMARK H PARENT
REMARK Flexibility Score: inf
ROOT
ATOM      1  C   UNL     1      23.735 -27.075  13.629  1.00  0.00     0.138 A 
ATOM      2  C   UNL     1      23.190 -28.132  12.869  1.00  0.00     0.100 A 
ATOM      3  C   UNL     1      24.028 -29.146  12.401  1.00  0.00     0.193 A 
ATOM      4  O   UNL     1      23.541 -30.091  11.721  1.00  0.00    -0.289 OA
ATOM      5  C   UNL     1      25.398 -29.100  12.695  1.00  0.00     0.065 A 
ATOM      6  C   UNL     1      26.297 -30.090  12.255  1.00  0.00     0.016 A 
ATOM      7  C   UNL     1      27.654 -29.995  12.576  1.00  0.00     0.001 A 
ATOM      8  C   UNL     1      28.124 -28.919  13.334  1.00  0.00     0.004 A 
ATOM      9  C   UNL     1      27.239 -27.932  13.776  1.00  0.00     0.048 A 
ATOM     10  C   UNL     1      25.878 -28.016  13.460  1.00  0.00     0.138 A 
ATOM     11  O   UNL     1      25.044 -27.072  13.884  1.00  0.00    -0.456 OA
ENDROOT
BRANCH   1  12
ATOM     12  C   UNL     1      22.909 -25.950  14.167  1.00  0.00     0.017 A 
ATOM     13  C   UNL     1      21.384 -23.770  15.111  1.00  0.00     0.000 A 
ATOM     14  C   UNL     1      21.335 -24.996  15.775  1.00  0.00     0.001 A 
ATOM     15  C   UNL     1      22.188 -23.623  13.980  1.00  0.00     0.001 A 
ATOM     16  C   UNL     1      22.089 -26.079  15.312  1.00  0.00     0.012 A 
ATOM     17  C   UNL     1      22.943 -24.701  13.511  1.00  0.00     0.012 A 
ENDBRANCH   1  12
TORSDOF 1
ENDMDL
MODEL 3
REMARK VINA RESULT:    -6.245     22.326     24.349
REMARK INTER + INTRA:          -6.845
REMARK INTER:                  -6.624
REMARK INTRA:                  -0.221
REMARK UNBOUND:                -0.236
REMARK SMILES O=c1cc(-c2ccccc2)oc2ccccc12
REMARK SMILES IDX 4 1 3 2 2 3 1 4 17 5 16 6 15 7 14 8 13 9 12 10 11 11 5 12
REMARK SMILES IDX 8 13 7 14 9 15 6 16 10 17
REMARK H PARENT
REMARK Flexibility Score: inf
ROOT
ATOM      1  C   UNL     1      23.807 -26.951  13.590  1.00  0.00     0.138 A 
ATOM      2  C   UNL     1      25.186 -27.045  13.875  1.00  0.00     0.100 A 
ATOM      3  C   UNL     1      25.932 -28.092  13.331  1.00  0.00     0.193 A 
ATOM      4  O   UNL     1      27.165 -28.175  13.586  1.00  0.00    -0.289 OA
ATOM      5  C   UNL     1      25.300 -29.035  12.508  1.00  0.00     0.065 A 
ATOM      6  C   UNL     1      25.994 -30.114  11.928  1.00  0.00     0.016 A 
ATOM      7  C   UNL     1      25.314 -31.026  11.115  1.00  0.00     0.001 A 
ATOM      8  C   UNL     1      23.946 -30.871  10.875  1.00  0.00     0.004 A 
ATOM      9  C   UNL     1      23.250 -29.802  11.446  1.00  0.00     0.048 A 
ATOM     10  C   UNL     1      23.919 -28.883  12.263  1.00  0.00     0.138 A 
ATOM     11  O   UNL     1      23.248 -27.871  12.802  1.00  0.00    -0.456 OA
ENDROOT
BRANCH   1  12
ATOM     12  C   UNL     1      22.936 -25.862  14.131  1.00  0.00     0.017 A 
ATOM     13  C   UNL     1      21.322 -23.750  15.081  1.00  0.00     0.000 A 
ATOM     14  C   UNL     1      21.323 -24.979  15.741  1.00  0.00     0.001 A 
ATOM     15  C   UNL     1      22.120 -23.567  13.952  1.00  0.00     0.001 A 
ATOM     16  C   UNL     1      22.121 -26.029  15.274  1.00  0.00     0.012 A 
ATOM     17  C   UNL     1      22.919 -24.611  13.479  1.00  0.00     0.012 A 
ENDBRANCH   1  12
TORSDOF 1
ENDMDL
MODEL 4
REMARK VINA RESULT:    -5.987     21.642     24.091
REMARK INTER + INTRA:          -6.573
REMARK INTER:                  -6.353
REMARK INTRA:                  -0.220
REMARK UNBOUND:                -0.236
REMARK SMILES O=c1cc(-c2ccccc2)oc2ccccc12
REMARK SMILES IDX 4 1 3 2 2 3 1 4 17 5 16 6 15 7 14 8 13 9 12 10 11 11 5 12
REMARK SMILES IDX 8 13 7 14 9 15 6 16 10 17
REMARK H PARENT
REMARK Flexibility Score: inf
ROOT
ATOM      1  C   UNL     1      24.564 -27.497  13.645  1.00  0.00     0.138 A 
ATOM      2  C   UNL     1      23.941 -28.203  14.696  1.00  0.00     0.100 A 
ATOM      3  C   UNL     1      22.905 -27.599  15.411  1.00  0.00     0.193 A 
ATOM      4  O   UNL     1      22.348 -28.231  16.350  1.00  0.00    -0.289 OA
ATOM      5  C   UNL     1      22.498 -26.301  15.073  1.00  0.00     0.065 A 
ATOM      6  C   UNL     1      21.460 -25.636  15.753  1.00  0.00     0.016 A 
ATOM      7  C   UNL     1      21.094 -24.341  15.375  1.00  0.00     0.001 A 
ATOM      8  C   UNL     1      21.755 -23.702  14.323  1.00  0.00     0.004 A 
ATOM      9  C   UNL     1      22.787 -24.354  13.642  1.00  0.00     0.048 A 
ATOM     10  C   UNL     1      23.162 -25.651  14.012  1.00  0.00     0.138 A 
ATOM     11  O   UNL     1      24.145 -26.263  13.358  1.00  0.00    -0.456 OA
ENDROOT
BRANCH   1  12
ATOM     12  C   UNL     1      25.681 -28.068  12.830  1.00  0.00     0.017 A 
ATOM     13  C   UNL     1      27.851 -29.116  11.359  1.00  0.00     0.000 A 
ATOM     14  C   UNL     1      26.550 -29.250  10.875  1.00  0.00     0.001 A 
ATOM     15  C   UNL     1      28.078 -28.463  12.571  1.00  0.00     0.001 A 
ATOM     16  C   UNL     1      25.471 -28.733  11.599  1.00  0.00     0.012 A 
ATOM     17  C   UNL     1      27.005 -27.944  13.301  1.00  0.00     0.012 A 
ENDBRANCH   1  12
TORSDOF 1
ENDMDL
MODEL 5
REMARK VINA RESULT:    -5.945     21.518     23.583
REMARK INTER + INTRA:          -6.528
REMARK INTER:                  -6.298
REMARK INTRA:                  -0.231
REMARK UNBOUND:                -0.236
REMARK SMILES O=c1cc(-c2ccccc2)oc2ccccc12
REMARK SMILES IDX 4 1 3 2 2 3 1 4 17 5 16 6 15 7 14 8 13 9 12 10 11 11 5 12
REMARK SMILES IDX 8 13 7 14 9 15 6 16 10 17
REMARK H PARENT
REMARK Flexibility Score: inf
ROOT
ATOM      1  C   UNL     1      24.015 -28.012  13.589  1.00  0.00     0.138 A 
ATOM      2  C   UNL     1      23.541 -28.485  14.831  1.00  0.00     0.100 A 
ATOM      3  C   UNL     1      22.772 -27.645  15.639  1.00  0.00     0.193 A 
ATOM      4  O   UNL     1      22.348 -28.069  16.749  1.00  0.00    -0.289 OA
ATOM      5  C   UNL     1      22.483 -26.344  15.205  1.00  0.00     0.065 A 
ATOM      6  C   UNL     1      21.714 -25.448  15.970  1.00  0.00     0.016 A 
ATOM      7  C   UNL     1      21.455 -24.161  15.490  1.00  0.00     0.001 A 
ATOM      8  C   UNL     1      21.957 -23.759  14.249  1.00  0.00     0.004 A 
ATOM      9  C   UNL     1      22.721 -24.643  13.482  1.00  0.00     0.048 A 
ATOM     10  C   UNL     1      22.987 -25.933  13.953  1.00  0.00     0.138 A 
ATOM     11  O   UNL     1      23.716 -26.766  13.216  1.00  0.00    -0.456 OA
ENDROOT
BRANCH   1  12
ATOM     12  C   UNL     1      24.844 -28.844  12.663  1.00  0.00     0.017 A 
ATOM     13  C   UNL     1      26.334 -30.477  10.907  1.00  0.00     0.000 A 
ATOM     14  C   UNL     1      26.902 -29.317  11.433  1.00  0.00     0.001 A 
ATOM     15  C   UNL     1      25.028 -30.830  11.251  1.00  0.00     0.001 A 
ATOM     16  C   UNL     1      26.169 -28.504  12.303  1.00  0.00     0.012 A 
ATOM     17  C   UNL     1      24.289 -30.022  12.120  1.00  0.00     0.012 A 
ENDBRANCH   1  12
TORSDOF 1
ENDMDL
MODEL 6
REMARK VINA RESULT:    -5.944     22.760     24.221
REMARK INTER + INTRA:          -6.528
REMARK INTER:                  -6.298
REMARK INTRA:                  -0.229
REMARK UNBOUND:                -0.236
REMARK SMILES O=c1cc(-c2ccccc2)oc2ccccc12
REMARK SMILES IDX 4 1 3 2 2 3 1 4 17 5 16 6 15 7 14 8 13 9 12 10 11 11 5 12
REMARK SMILES IDX 8 13 7 14 9 15 6 16 10 17
REMARK H PARENT
REMARK Flexibility Score: inf
ROOT
ATOM      1  C   UNL     1      23.723 -26.660  13.581  1.00  0.00     0.138 A 
ATOM      2  C   UNL     1      22.862 -26.466  14.683  1.00  0.00     0.100 A 
ATOM      3  C   UNL     1      22.171 -25.260  14.811  1.00  0.00     0.193 A 
ATOM      4  O   UNL     1      21.401 -25.086  15.796  1.00  0.00    -0.289 OA
ATOM      5  C   UNL     1      22.341 -24.260  13.843  1.00  0.00     0.065 A 
ATOM      6  C   UNL     1      21.674 -23.022  13.912  1.00  0.00     0.016 A 
ATOM      7  C   UNL     1      21.880 -22.060  12.920  1.00  0.00     0.001 A 
ATOM      8  C   UNL     1      22.747 -22.322  11.856  1.00  0.00     0.004 A 
ATOM      9  C   UNL     1      23.413 -23.548  11.778  1.00  0.00     0.048 A 
ATOM     10  C   UNL     1      23.215 -24.519  12.767  1.00  0.00     0.138 A 
ATOM     11  O   UNL     1      23.854 -25.681  12.684  1.00  0.00    -0.456 OA
ENDROOT
BRANCH   1  12
ATOM     12  C   UNL     1      24.500 -27.920  13.368  1.00  0.00     0.017 A 
ATOM     13  C   UNL     1      26.050 -30.247  12.980  1.00  0.00     0.000 A 
ATOM     14  C   UNL     1      24.659 -30.314  12.903  1.00  0.00     0.001 A 
ATOM     15  C   UNL     1      26.674 -29.029  13.250  1.00  0.00     0.001 A 
ATOM     16  C   UNL     1      23.887 -29.164  13.094  1.00  0.00     0.012 A 
ATOM     17  C   UNL     1      25.909 -27.876  13.442  1.00  0.00     0.012 A 
ENDBRANCH   1  12
TORSDOF 1
ENDMDL
MODEL 7
REMARK VINA RESULT:    -5.871     22.247     24.735
REMARK INTER + INTRA:          -6.450
REMARK INTER:                  -6.184
REMARK INTRA:                  -0.266
REMARK UNBOUND:                -0.236
REMARK SMILES O=c1cc(-c2ccccc2)oc2ccccc12
REMARK SMILES IDX 4 1 3 2 2 3 1 4 17 5 16 6 15 7 14 8 13 9 12 10 11 11 5 12
REMARK SMILES IDX 8 13 7 14 9 15 6 16 10 17
REMARK H PARENT
REMARK Flexibility Score: inf
ROOT
ATOM      1  C   UNL     1      23.276 -25.946  13.367  1.00  0.00     0.138 A 
ATOM      2  C   UNL     1      22.886 -26.566  14.574  1.00  0.00     0.100 A 
ATOM      3  C   UNL     1      23.257 -27.889  14.818  1.00  0.00     0.193 A 
ATOM      4  O   UNL     1      22.908 -28.443  15.897  1.00  0.00    -0.289 OA
ATOM      5  C   UNL     1      24.012 -28.583  13.862  1.00  0.00     0.065 A 
ATOM      6  C   UNL     1      24.419 -29.918  14.047  1.00  0.00     0.016 A 
ATOM      7  C   UNL     1      25.171 -30.562  13.061  1.00  0.00     0.001 A 
ATOM      8  C   UNL     1      25.522 -29.886  11.889  1.00  0.00     0.004 A 
ATOM      9  C   UNL     1      25.123 -28.560  11.697  1.00  0.00     0.048 A 
ATOM     10  C   UNL     1      24.369 -27.905  12.678  1.00  0.00     0.138 A 
ATOM     11  O   UNL     1      23.995 -26.644  12.486  1.00  0.00    -0.456 OA
ENDROOT
BRANCH   1  12
ATOM     12  C   UNL     1      22.922 -24.533  13.026  1.00  0.00     0.017 A 
ATOM     13  C   UNL     1      22.307 -21.875  12.302  1.00  0.00     0.000 A 
ATOM     14  C   UNL     1      21.777 -22.420  13.470  1.00  0.00     0.001 A 
ATOM     15  C   UNL     1      23.142 -22.645  11.491  1.00  0.00     0.001 A 
ATOM     16  C   UNL     1      22.078 -23.737  13.834  1.00  0.00     0.012 A 
ATOM     17  C   UNL     1      23.447 -23.961  11.848  1.00  0.00     0.012 A 
ENDBRANCH   1  12
TORSDOF 1
ENDMDL
MODEL 8
REMARK VINA RESULT:    -4.392      1.480      6.293
REMARK INTER + INTRA:          -4.884
REMARK INTER:                  -4.621
REMARK INTRA:                  -0.263
REMARK UNBOUND:                -0.236
REMARK SMILES O=c1cc(-c2ccccc2)oc2ccccc12
REMARK SMILES IDX 4 1 3 2 2 3 1 4 17 5 16 6 15 7 14 8 13 9 12 10 11 11 5 12
REMARK SMILES IDX 8 13 7 14 9 15 6 16 10 17
REMARK H PARENT
REMARK Flexibility Score: inf
ROOT
ATOM      1  C   UNL     1       9.644 -36.651  29.249  1.00  0.00     0.138 A 
ATOM      2  C   UNL     1       8.939 -37.140  28.128  1.00  0.00     0.100 A 
ATOM      3  C   UNL     1       8.694 -38.509  28.012  1.00  0.00     0.193 A 
ATOM      4  O   UNL     1       8.064 -38.945  27.010  1.00  0.00    -0.289 OA
ATOM      5  C   UNL     1       9.152 -39.380  29.011  1.00  0.00     0.065 A 
ATOM      6  C   UNL     1       8.938 -40.770  28.955  1.00  0.00     0.016 A 
ATOM      7  C   UNL     1       9.416 -41.592  29.979  1.00  0.00     0.001 A 
ATOM      8  C   UNL     1      10.107 -41.040  31.061  1.00  0.00     0.004 A 
ATOM      9  C   UNL     1      10.324 -39.660  31.125  1.00  0.00     0.048 A 
ATOM     10  C   UNL     1       9.850 -38.827  30.105  1.00  0.00     0.138 A 
ATOM     11  O   UNL     1      10.062 -37.516  30.175  1.00  0.00    -0.456 OA
ENDROOT
BRANCH   1  12
ATOM     12  C   UNL     1       9.950 -35.201  29.450  1.00  0.00     0.017 A 
ATOM     13  C   UNL     1      10.505 -32.449  29.737  1.00  0.00     0.000 A 
ATOM     14  C   UNL     1      10.627 -33.303  30.833  1.00  0.00     0.001 A 
ATOM     15  C   UNL     1      10.108 -32.956  28.500  1.00  0.00     0.001 A 
ATOM     16  C   UNL     1      10.353 -34.668  30.696  1.00  0.00     0.012 A 
ATOM     17  C   UNL     1       9.833 -34.318  28.356  1.00  0.00     0.012 A 
ENDBRANCH   1  12
TORSDOF 1
ENDMDL
