MODEL 1
REMARK VINA RESULT:    -4.910      0.000      0.000
REMARK INTER + INTRA:         -13.821
REMARK INTER:                 -10.650
REMARK INTRA:                  -3.171
REMARK UNBOUND:                -3.171
REMARK SMILES CCCCCCCCCCCCCCCCCCCCCC(=O)[O-]
REMARK SMILES IDX 12 1 11 2 10 3 9 4 8 5 7 6 6 7 5 8 4 9 3 10 2 11 1 12 13 13
REMARK SMILES IDX 14 14 15 15 16 16 17 17 18 18 19 19 20 20 21 21 22 22 23 23
REMARK SMILES IDX 24 24
REMARK H PARENT
REMARK Flexibility Score: inf
ROOT
ATOM      1  C   UNL     1     -45.497 -52.426  33.213  1.00  0.00     0.000 C 
ENDROOT
BRANCH   1   2
ATOM      2  C   UNL     1     -46.629 -51.433  32.870  1.00  0.00     0.000 C 
BRANCH   2   3
ATOM      3  C   UNL     1     -46.627 -50.194  33.784  1.00  0.00     0.000 C 
BRANCH   3   4
ATOM      4  C   UNL     1     -46.663 -48.875  32.995  1.00  0.00    -0.000 C 
BRANCH   4   5
ATOM      5  C   UNL     1     -46.409 -49.074  31.493  1.00  0.00    -0.000 C 
BRANCH   5   6
ATOM      6  C   UNL     1     -45.237 -48.202  31.014  1.00  0.00    -0.000 C 
BRANCH   6   7
ATOM      7  C   UNL     1     -44.784 -48.547  29.586  1.00  0.00    -0.000 C 
BRANCH   7   8
ATOM      8  C   UNL     1     -44.173 -47.340  28.853  1.00  0.00    -0.000 C 
BRANCH   8   9
ATOM      9  C   UNL     1     -43.904 -47.624  27.365  1.00  0.00    -0.000 C 
BRANCH   9  10
ATOM     10  C   UNL     1     -44.718 -48.817  26.833  1.00  0.00    -0.000 C 
BRANCH  10  11
ATOM     11  C   UNL     1     -43.917 -49.681  25.847  1.00  0.00    -0.003 C 
ATOM     12  C   UNL     1     -42.775 -48.915  25.178  1.00  0.00     0.004 C 
ENDBRANCH  10  11
ENDBRANCH   9  10
ENDBRANCH   8   9
ENDBRANCH   7   8
ENDBRANCH   6   7
ENDBRANCH   5   6
ENDBRANCH   4   5
ENDBRANCH   3   4
ENDBRANCH   2   3
ENDBRANCH   1   2
BRANCH   1  13
ATOM     13  C   UNL     1     -44.340 -51.801  34.013  1.00  0.00     0.000 C 
BRANCH  13  14
ATOM     14  C   UNL     1     -43.068 -51.501  33.196  1.00  0.00     0.000 C 
BRANCH  14  15
ATOM     15  C   UNL     1     -43.313 -51.152  31.714  1.00  0.00     0.000 C 
BRANCH  15  16
ATOM     16  C   UNL     1     -42.078 -50.633  30.948  1.00  0.00     0.000 C 
BRANCH  16  17
ATOM     17  C   UNL     1     -42.007 -51.042  29.466  1.00  0.00     0.000 C 
BRANCH  17  18
ATOM     18  C   UNL     1     -41.374 -49.955  28.580  1.00  0.00     0.000 C 
BRANCH  18  19
ATOM     19  C   UNL     1     -40.600 -48.896  29.386  1.00  0.00     0.000 C 
BRANCH  19  20
ATOM     20  C   UNL     1     -40.441 -47.526  28.695  1.00  0.00     0.006 C 
BRANCH  20  21
ATOM     21  C   UNL     1     -39.127 -47.349  27.918  1.00  0.00     0.053 C 
BRANCH  21  22
ATOM     22  C   UNL     1     -37.945 -47.235  28.833  1.00  0.00     0.041 C 
ATOM     23  O   UNL     1     -37.101 -48.166  28.896  1.00  0.00    -0.550 OA
ATOM     24  O   UNL     1     -37.762 -46.087  29.594  1.00  0.00    -0.550 OA
ENDBRANCH  21  22
ENDBRANCH  20  21
ENDBRANCH  19  20
ENDBRANCH  18  19
ENDBRANCH  17  18
ENDBRANCH  16  17
ENDBRANCH  15  16
ENDBRANCH  14  15
ENDBRANCH  13  14
ENDBRANCH   1  13
TORSDOF 20
ENDMDL
MODEL 2
REMARK VINA RESULT:    -4.863      9.937     13.581
REMARK INTER + INTRA:         -13.719
REMARK INTER:                 -10.709
REMARK INTRA:                  -3.010
REMARK UNBOUND:                -3.171
REMARK SMILES CCCCCCCCCCCCCCCCCCCCCC(=O)[O-]
REMARK SMILES IDX 12 1 11 2 10 3 9 4 8 5 7 6 6 7 5 8 4 9 3 10 2 11 1 12 13 13
REMARK SMILES IDX 14 14 15 15 16 16 17 17 18 18 19 19 20 20 21 21 22 22 23 23
REMARK SMILES IDX 24 24
REMARK H PARENT
REMARK Flexibility Score: inf
ROOT
ATOM      1  C   UNL     1     -51.814 -50.631  19.341  1.00  0.00     0.000 C 
ENDROOT
BRANCH   1   2
ATOM      2  C   UNL     1     -50.282 -50.556  19.163  1.00  0.00     0.000 C 
BRANCH   2   3
ATOM      3  C   UNL     1     -49.771 -49.110  19.022  1.00  0.00     0.000 C 
BRANCH   3   4
ATOM      4  C   UNL     1     -48.391 -48.903  19.665  1.00  0.00    -0.000 C 
BRANCH   4   5
ATOM      5  C   UNL     1     -47.497 -47.949  18.859  1.00  0.00    -0.000 C 
BRANCH   5   6
ATOM      6  C   UNL     1     -48.344 -46.999  17.997  1.00  0.00    -0.000 C 
BRANCH   6   7
ATOM      7  C   UNL     1     -47.844 -46.907  16.546  1.00  0.00    -0.000 C 
BRANCH   7   8
ATOM      8  C   UNL     1     -47.090 -48.171  16.100  1.00  0.00    -0.000 C 
BRANCH   8   9
ATOM      9  C   UNL     1     -48.033 -49.276  15.593  1.00  0.00    -0.000 C 
BRANCH   9  10
ATOM     10  C   UNL     1     -47.732 -50.647  16.222  1.00  0.00    -0.000 C 
BRANCH  10  11
ATOM     11  C   UNL     1     -48.781 -51.707  15.849  1.00  0.00    -0.003 C 
ATOM     12  C   UNL     1     -50.122 -51.097  15.441  1.00  0.00     0.004 C 
ENDBRANCH  10  11
ENDBRANCH   9  10
ENDBRANCH   8   9
ENDBRANCH   7   8
ENDBRANCH   6   7
ENDBRANCH   5   6
ENDBRANCH   4   5
ENDBRANCH   3   4
ENDBRANCH   2   3
ENDBRANCH   1   2
BRANCH   1  13
ATOM     13  C   UNL     1     -52.332 -49.903  20.596  1.00  0.00     0.000 C 
BRANCH  13  14
ATOM     14  C   UNL     1     -53.430 -48.854  20.335  1.00  0.00     0.000 C 
BRANCH  14  15
ATOM     15  C   UNL     1     -54.338 -48.547  21.543  1.00  0.00     0.000 C 
BRANCH  15  16
ATOM     16  C   UNL     1     -54.543 -47.049  21.847  1.00  0.00     0.000 C 
BRANCH  16  17
ATOM     17  C   UNL     1     -53.387 -46.370  22.603  1.00  0.00     0.000 C 
BRANCH  17  18
ATOM     18  C   UNL     1     -53.111 -47.016  23.972  1.00  0.00     0.000 C 
BRANCH  18  19
ATOM     19  C   UNL     1     -51.800 -47.822  24.003  1.00  0.00     0.000 C 
BRANCH  19  20
ATOM     20  C   UNL     1     -50.762 -47.439  22.927  1.00  0.00     0.006 C 
BRANCH  20  21
ATOM     21  C   UNL     1     -49.334 -47.928  23.212  1.00  0.00     0.053 C 
BRANCH  21  22
ATOM     22  C   UNL     1     -49.301 -49.381  23.582  1.00  0.00     0.041 C 
ATOM     23  O   UNL     1     -49.748 -50.247  22.786  1.00  0.00    -0.550 OA
ATOM     24  O   UNL     1     -48.752 -49.778  24.795  1.00  0.00    -0.550 OA
ENDBRANCH  21  22
ENDBRANCH  20  21
ENDBRANCH  19  20
ENDBRANCH  18  19
ENDBRANCH  17  18
ENDBRANCH  16  17
ENDBRANCH  15  16
ENDBRANCH  14  15
ENDBRANCH  13  14
ENDBRANCH   1  13
TORSDOF 20
ENDMDL
MODEL 3
REMARK VINA RESULT:    -4.798     10.017     13.862
REMARK INTER + INTRA:         -13.578
REMARK INTER:                 -10.884
REMARK INTRA:                  -2.694
REMARK UNBOUND:                -3.171
REMARK SMILES CCCCCCCCCCCCCCCCCCCCCC(=O)[O-]
REMARK SMILES IDX 12 1 11 2 10 3 9 4 8 5 7 6 6 7 5 8 4 9 3 10 2 11 1 12 13 13
REMARK SMILES IDX 14 14 15 15 16 16 17 17 18 18 19 19 20 20 21 21 22 22 23 23
REMARK SMILES IDX 24 24
REMARK H PARENT
REMARK Flexibility Score: inf
ROOT
ATOM      1  C   UNL     1     -47.787 -51.255  16.461  1.00  0.00     0.000 C 
ENDROOT
BRANCH   1   2
ATOM      2  C   UNL     1     -48.537 -51.283  17.811  1.00  0.00     0.000 C 
BRANCH   2   3
ATOM      3  C   UNL     1     -49.958 -50.699  17.712  1.00  0.00     0.000 C 
BRANCH   3   4
ATOM      4  C   UNL     1     -50.709 -50.737  19.052  1.00  0.00    -0.000 C 
BRANCH   4   5
ATOM      5  C   UNL     1     -52.098 -50.085  18.973  1.00  0.00    -0.000 C 
BRANCH   5   6
ATOM      6  C   UNL     1     -52.301 -49.084  20.121  1.00  0.00    -0.000 C 
BRANCH   6   7
ATOM      7  C   UNL     1     -53.358 -49.548  21.137  1.00  0.00    -0.000 C 
BRANCH   7   8
ATOM      8  C   UNL     1     -53.410 -48.652  22.386  1.00  0.00    -0.000 C 
BRANCH   8   9
ATOM      9  C   UNL     1     -53.485 -47.155  22.038  1.00  0.00    -0.000 C 
BRANCH   9  10
ATOM     10  C   UNL     1     -54.928 -46.621  22.028  1.00  0.00    -0.000 C 
BRANCH  10  11
ATOM     11  C   UNL     1     -55.734 -47.129  20.822  1.00  0.00    -0.003 C 
ATOM     12  C   UNL     1     -57.017 -47.856  21.230  1.00  0.00     0.004 C 
ENDBRANCH  10  11
ENDBRANCH   9  10
ENDBRANCH   8   9
ENDBRANCH   7   8
ENDBRANCH   6   7
ENDBRANCH   5   6
ENDBRANCH   4   5
ENDBRANCH   3   4
ENDBRANCH   2   3
ENDBRANCH   1   2
BRANCH   1  13
ATOM     13  C   UNL     1     -47.877 -49.905  15.725  1.00  0.00     0.000 C 
BRANCH  13  14
ATOM     14  C   UNL     1     -47.033 -48.770  16.337  1.00  0.00     0.000 C 
BRANCH  14  15
ATOM     15  C   UNL     1     -47.723 -47.391  16.372  1.00  0.00     0.000 C 
BRANCH  15  16
ATOM     16  C   UNL     1     -48.274 -46.968  17.750  1.00  0.00     0.000 C 
BRANCH  16  17
ATOM     17  C   UNL     1     -47.828 -47.846  18.932  1.00  0.00     0.000 C 
BRANCH  17  18
ATOM     18  C   UNL     1     -48.668 -47.610  20.199  1.00  0.00     0.000 C 
BRANCH  18  19
ATOM     19  C   UNL     1     -48.797 -48.867  21.079  1.00  0.00     0.000 C 
BRANCH  19  20
ATOM     20  C   UNL     1     -49.505 -48.655  22.434  1.00  0.00     0.006 C 
BRANCH  20  21
ATOM     21  C   UNL     1     -49.885 -49.951  23.168  1.00  0.00     0.053 C 
BRANCH  21  22
ATOM     22  C   UNL     1     -49.451 -49.930  24.602  1.00  0.00     0.041 C 
ATOM     23  O   UNL     1     -50.285 -49.688  25.512  1.00  0.00    -0.550 OA
ATOM     24  O   UNL     1     -48.130 -50.207  24.935  1.00  0.00    -0.550 OA
ENDBRANCH  21  22
ENDBRANCH  20  21
ENDBRANCH  19  20
ENDBRANCH  18  19
ENDBRANCH  17  18
ENDBRANCH  16  17
ENDBRANCH  15  16
ENDBRANCH  14  15
ENDBRANCH  13  14
ENDBRANCH   1  13
TORSDOF 20
ENDMDL
MODEL 4
REMARK VINA RESULT:    -4.788      0.975      2.112
REMARK INTER + INTRA:         -13.557
REMARK INTER:                 -10.155
REMARK INTRA:                  -3.403
REMARK UNBOUND:                -3.171
REMARK SMILES CCCCCCCCCCCCCCCCCCCCCC(=O)[O-]
REMARK SMILES IDX 12 1 11 2 10 3 9 4 8 5 7 6 6 7 5 8 4 9 3 10 2 11 1 12 13 13
REMARK SMILES IDX 14 14 15 15 16 16 17 17 18 18 19 19 20 20 21 21 22 22 23 23
REMARK SMILES IDX 24 24
REMARK H PARENT
REMARK Flexibility Score: inf
ROOT
ATOM      1  C   UNL     1     -46.815 -50.154  32.238  1.00  0.00     0.000 C 
ENDROOT
BRANCH   1   2
ATOM      2  C   UNL     1     -46.250 -48.719  32.314  1.00  0.00     0.000 C 
BRANCH   2   3
ATOM      3  C   UNL     1     -45.302 -48.392  31.146  1.00  0.00     0.000 C 
BRANCH   3   4
ATOM      4  C   UNL     1     -45.584 -49.242  29.897  1.00  0.00    -0.000 C 
BRANCH   4   5
ATOM      5  C   UNL     1     -45.034 -48.609  28.610  1.00  0.00    -0.000 C 
BRANCH   5   6
ATOM      6  C   UNL     1     -44.052 -47.472  28.934  1.00  0.00    -0.000 C 
BRANCH   6   7
ATOM      7  C   UNL     1     -44.027 -46.380  27.851  1.00  0.00    -0.000 C 
BRANCH   7   8
ATOM      8  C   UNL     1     -43.989 -46.962  26.428  1.00  0.00    -0.000 C 
BRANCH   8   9
ATOM      9  C   UNL     1     -42.557 -47.097  25.881  1.00  0.00    -0.000 C 
BRANCH   9  10
ATOM     10  C   UNL     1     -42.183 -48.552  25.551  1.00  0.00    -0.000 C 
BRANCH  10  11
ATOM     11  C   UNL     1     -43.382 -49.507  25.665  1.00  0.00    -0.003 C 
ATOM     12  C   UNL     1     -43.895 -49.980  24.304  1.00  0.00     0.004 C 
ENDBRANCH  10  11
ENDBRANCH   9  10
ENDBRANCH   8   9
ENDBRANCH   7   8
ENDBRANCH   6   7
ENDBRANCH   5   6
ENDBRANCH   4   5
ENDBRANCH   3   4
ENDBRANCH   2   3
ENDBRANCH   1   2
BRANCH   1  13
ATOM     13  C   UNL     1     -46.095 -51.158  33.158  1.00  0.00     0.000 C 
BRANCH  13  14
ATOM     14  C   UNL     1     -44.920 -51.914  32.507  1.00  0.00     0.000 C 
BRANCH  14  15
ATOM     15  C   UNL     1     -43.519 -51.435  32.936  1.00  0.00     0.000 C 
BRANCH  15  16
ATOM     16  C   UNL     1     -42.584 -51.020  31.781  1.00  0.00     0.000 C 
BRANCH  16  17
ATOM     17  C   UNL     1     -43.046 -51.451  30.377  1.00  0.00     0.000 C 
BRANCH  17  18
ATOM     18  C   UNL     1     -42.098 -50.970  29.266  1.00  0.00     0.000 C 
BRANCH  18  19
ATOM     19  C   UNL     1     -41.483 -49.588  29.556  1.00  0.00     0.000 C 
BRANCH  19  20
ATOM     20  C   UNL     1     -40.396 -49.127  28.563  1.00  0.00     0.006 C 
BRANCH  20  21
ATOM     21  C   UNL     1     -40.034 -47.636  28.655  1.00  0.00     0.053 C 
BRANCH  21  22
ATOM     22  C   UNL     1     -38.579 -47.429  28.949  1.00  0.00     0.041 C 
ATOM     23  O   UNL     1     -37.758 -48.367  28.773  1.00  0.00    -0.550 OA
ATOM     24  O   UNL     1     -38.126 -46.192  29.390  1.00  0.00    -0.550 OA
ENDBRANCH  21  22
ENDBRANCH  20  21
ENDBRANCH  19  20
ENDBRANCH  18  19
ENDBRANCH  17  18
ENDBRANCH  16  17
ENDBRANCH  15  16
ENDBRANCH  14  15
ENDBRANCH  13  14
ENDBRANCH   1  13
TORSDOF 20
ENDMDL
MODEL 5
REMARK VINA RESULT:    -4.767     10.390     13.426
REMARK INTER + INTRA:         -13.511
REMARK INTER:                 -10.782
REMARK INTRA:                  -2.729
REMARK UNBOUND:                -3.171
REMARK SMILES CCCCCCCCCCCCCCCCCCCCCC(=O)[O-]
REMARK SMILES IDX 12 1 11 2 10 3 9 4 8 5 7 6 6 7 5 8 4 9 3 10 2 11 1 12 13 13
REMARK SMILES IDX 14 14 15 15 16 16 17 17 18 18 19 19 20 20 21 21 22 22 23 23
REMARK SMILES IDX 24 24
REMARK H PARENT
REMARK Flexibility Score: inf
ROOT
ATOM      1  C   UNL     1     -53.260 -49.013  19.735  1.00  0.00     0.000 C 
ENDROOT
BRANCH   1   2
ATOM      2  C   UNL     1     -54.633 -48.373  20.036  1.00  0.00     0.000 C 
BRANCH   2   3
ATOM      3  C   UNL     1     -54.892 -48.208  21.545  1.00  0.00     0.000 C 
BRANCH   3   4
ATOM      4  C   UNL     1     -54.891 -46.737  21.990  1.00  0.00    -0.000 C 
BRANCH   4   5
ATOM      5  C   UNL     1     -53.512 -46.263  22.475  1.00  0.00    -0.000 C 
BRANCH   5   6
ATOM      6  C   UNL     1     -53.400 -46.373  24.003  1.00  0.00    -0.000 C 
BRANCH   6   7
ATOM      7  C   UNL     1     -52.361 -47.415  24.451  1.00  0.00    -0.000 C 
BRANCH   7   8
ATOM      8  C   UNL     1     -51.097 -46.769  25.044  1.00  0.00    -0.000 C 
BRANCH   8   9
ATOM      9  C   UNL     1     -50.058 -47.810  25.498  1.00  0.00    -0.000 C 
BRANCH   9  10
ATOM     10  C   UNL     1     -48.914 -47.985  24.485  1.00  0.00    -0.000 C 
BRANCH  10  11
ATOM     11  C   UNL     1     -48.712 -49.453  24.076  1.00  0.00    -0.003 C 
ATOM     12  C   UNL     1     -49.737 -50.393  24.713  1.00  0.00     0.004 C 
ENDBRANCH  10  11
ENDBRANCH   9  10
ENDBRANCH   8   9
ENDBRANCH   7   8
ENDBRANCH   6   7
ENDBRANCH   5   6
ENDBRANCH   4   5
ENDBRANCH   3   4
ENDBRANCH   2   3
ENDBRANCH   1   2
BRANCH   1  13
ATOM     13  C   UNL     1     -52.697 -49.855  20.895  1.00  0.00     0.000 C 
BRANCH  13  14
ATOM     14  C   UNL     1     -51.420 -49.293  21.550  1.00  0.00     0.000 C 
BRANCH  14  15
ATOM     15  C   UNL     1     -50.754 -48.131  20.787  1.00  0.00     0.000 C 
BRANCH  15  16
ATOM     16  C   UNL     1     -49.314 -48.403  20.302  1.00  0.00     0.000 C 
BRANCH  16  17
ATOM     17  C   UNL     1     -49.153 -48.547  18.778  1.00  0.00     0.000 C 
BRANCH  17  18
ATOM     18  C   UNL     1     -47.907 -49.360  18.387  1.00  0.00     0.000 C 
BRANCH  18  19
ATOM     19  C   UNL     1     -47.475 -49.134  16.926  1.00  0.00     0.000 C 
BRANCH  19  20
ATOM     20  C   UNL     1     -47.627 -50.356  15.996  1.00  0.00     0.006 C 
BRANCH  20  21
ATOM     21  C   UNL     1     -48.663 -51.391  16.460  1.00  0.00     0.053 C 
BRANCH  21  22
ATOM     22  C   UNL     1     -50.039 -51.072  15.958  1.00  0.00     0.041 C 
ATOM     23  O   UNL     1     -50.973 -50.846  16.770  1.00  0.00    -0.550 OA
ATOM     24  O   UNL     1     -50.281 -50.998  14.591  1.00  0.00    -0.550 OA
ENDBRANCH  21  22
ENDBRANCH  20  21
ENDBRANCH  19  20
ENDBRANCH  18  19
ENDBRANCH  17  18
ENDBRANCH  16  17
ENDBRANCH  15  16
ENDBRANCH  14  15
ENDBRANCH  13  14
ENDBRANCH   1  13
TORSDOF 20
ENDMDL
MODEL 6
REMARK VINA RESULT:    -4.714      2.430      3.031
REMARK INTER + INTRA:         -13.396
REMARK INTER:                 -10.216
REMARK INTRA:                  -3.180
REMARK UNBOUND:                -3.171
REMARK SMILES CCCCCCCCCCCCCCCCCCCCCC(=O)[O-]
REMARK SMILES IDX 12 1 11 2 10 3 9 4 8 5 7 6 6 7 5 8 4 9 3 10 2 11 1 12 13 13
REMARK SMILES IDX 14 14 15 15 16 16 17 17 18 18 19 19 20 20 21 21 22 22 23 23
REMARK SMILES IDX 24 24
REMARK H PARENT
REMARK Flexibility Score: inf
ROOT
ATOM      1  C   UNL     1     -45.151 -51.844  34.012  1.00  0.00     0.000 C 
ENDROOT
BRANCH   1   2
ATOM      2  C   UNL     1     -46.159 -51.668  32.855  1.00  0.00     0.000 C 
BRANCH   2   3
ATOM      3  C   UNL     1     -46.881 -50.308  32.900  1.00  0.00     0.000 C 
BRANCH   3   4
ATOM      4  C   UNL     1     -46.797 -49.549  31.566  1.00  0.00    -0.000 C 
BRANCH   4   5
ATOM      5  C   UNL     1     -45.825 -48.360  31.619  1.00  0.00    -0.000 C 
BRANCH   5   6
ATOM      6  C   UNL     1     -44.811 -48.429  30.467  1.00  0.00    -0.000 C 
BRANCH   6   7
ATOM      7  C   UNL     1     -45.136 -49.537  29.452  1.00  0.00    -0.000 C 
BRANCH   7   8
ATOM      8  C   UNL     1     -44.905 -49.092  27.998  1.00  0.00    -0.000 C 
BRANCH   8   9
ATOM      9  C   UNL     1     -43.934 -50.017  27.243  1.00  0.00    -0.000 C 
BRANCH   9  10
ATOM     10  C   UNL     1     -44.273 -50.138  25.747  1.00  0.00    -0.000 C 
BRANCH  10  11
ATOM     11  C   UNL     1     -45.562 -49.387  25.375  1.00  0.00    -0.003 C 
ATOM     12  C   UNL     1     -46.630 -50.304  24.776  1.00  0.00     0.004 C 
ENDBRANCH  10  11
ENDBRANCH   9  10
ENDBRANCH   8   9
ENDBRANCH   7   8
ENDBRANCH   6   7
ENDBRANCH   5   6
ENDBRANCH   4   5
ENDBRANCH   3   4
ENDBRANCH   2   3
ENDBRANCH   1   2
BRANCH   1  13
ATOM     13  C   UNL     1     -43.697 -51.514  33.628  1.00  0.00     0.000 C 
BRANCH  13  14
ATOM     14  C   UNL     1     -43.451 -51.307  32.121  1.00  0.00     0.000 C 
BRANCH  14  15
ATOM     15  C   UNL     1     -42.017 -50.879  31.747  1.00  0.00     0.000 C 
BRANCH  15  16
ATOM     16  C   UNL     1     -41.770 -50.653  30.241  1.00  0.00     0.000 C 
BRANCH  16  17
ATOM     17  C   UNL     1     -41.235 -49.258  29.868  1.00  0.00     0.000 C 
BRANCH  17  18
ATOM     18  C   UNL     1     -40.671 -49.202  28.438  1.00  0.00     0.000 C 
BRANCH  18  19
ATOM     19  C   UNL     1     -40.225 -47.788  28.022  1.00  0.00     0.000 C 
BRANCH  19  20
ATOM     20  C   UNL     1     -40.995 -47.175  26.833  1.00  0.00     0.006 C 
BRANCH  20  21
ATOM     21  C   UNL     1     -42.347 -46.543  27.202  1.00  0.00     0.053 C 
BRANCH  21  22
ATOM     22  C   UNL     1     -43.266 -46.456  26.021  1.00  0.00     0.041 C 
ATOM     23  O   UNL     1     -44.453 -46.066  26.171  1.00  0.00    -0.550 OA
ATOM     24  O   UNL     1     -42.802 -46.781  24.752  1.00  0.00    -0.550 OA
ENDBRANCH  21  22
ENDBRANCH  20  21
ENDBRANCH  19  20
ENDBRANCH  18  19
ENDBRANCH  17  18
ENDBRANCH  16  17
ENDBRANCH  15  16
ENDBRANCH  14  15
ENDBRANCH  13  14
ENDBRANCH   1  13
TORSDOF 20
ENDMDL
MODEL 7
REMARK VINA RESULT:    -4.708      9.992     13.173
REMARK INTER + INTRA:         -13.385
REMARK INTER:                 -10.376
REMARK INTRA:                  -3.009
REMARK UNBOUND:                -3.171
REMARK SMILES CCCCCCCCCCCCCCCCCCCCCC(=O)[O-]
REMARK SMILES IDX 12 1 11 2 10 3 9 4 8 5 7 6 6 7 5 8 4 9 3 10 2 11 1 12 13 13
REMARK SMILES IDX 14 14 15 15 16 16 17 17 18 18 19 19 20 20 21 21 22 22 23 23
REMARK SMILES IDX 24 24
REMARK H PARENT
REMARK Flexibility Score: inf
ROOT
ATOM      1  C   UNL     1     -47.198 -47.658  23.570  1.00  0.00     0.000 C 
ENDROOT
BRANCH   1   2
ATOM      2  C   UNL     1     -47.995 -46.336  23.609  1.00  0.00     0.000 C 
BRANCH   2   3
ATOM      3  C   UNL     1     -49.146 -46.307  22.587  1.00  0.00     0.000 C 
BRANCH   3   4
ATOM      4  C   UNL     1     -48.883 -47.210  21.371  1.00  0.00    -0.000 C 
BRANCH   4   5
ATOM      5  C   UNL     1     -50.176 -47.713  20.713  1.00  0.00    -0.000 C 
BRANCH   5   6
ATOM      6  C   UNL     1     -50.056 -49.196  20.330  1.00  0.00    -0.000 C 
BRANCH   6   7
ATOM      7  C   UNL     1     -50.905 -49.564  19.101  1.00  0.00    -0.000 C 
BRANCH   7   8
ATOM      8  C   UNL     1     -50.241 -50.643  18.227  1.00  0.00    -0.000 C 
BRANCH   8   9
ATOM      9  C   UNL     1     -48.709 -50.661  18.370  1.00  0.00    -0.000 C 
BRANCH   9  10
ATOM     10  C   UNL     1     -47.987 -50.306  17.059  1.00  0.00    -0.000 C 
BRANCH  10  11
ATOM     11  C   UNL     1     -47.225 -48.975  17.150  1.00  0.00    -0.003 C 
ATOM     12  C   UNL     1     -47.425 -48.091  15.918  1.00  0.00     0.004 C 
ENDBRANCH  10  11
ENDBRANCH   9  10
ENDBRANCH   8   9
ENDBRANCH   7   8
ENDBRANCH   6   7
ENDBRANCH   5   6
ENDBRANCH   4   5
ENDBRANCH   3   4
ENDBRANCH   2   3
ENDBRANCH   1   2
BRANCH   1  13
ATOM     13  C   UNL     1     -47.495 -48.600  24.751  1.00  0.00     0.000 C 
BRANCH  13  14
ATOM     14  C   UNL     1     -48.031 -49.990  24.358  1.00  0.00     0.000 C 
BRANCH  14  15
ATOM     15  C   UNL     1     -49.510 -50.019  23.921  1.00  0.00     0.000 C 
BRANCH  15  16
ATOM     16  C   UNL     1     -50.446 -49.081  24.711  1.00  0.00     0.000 C 
BRANCH  16  17
ATOM     17  C   UNL     1     -51.810 -48.809  24.050  1.00  0.00     0.000 C 
BRANCH  17  18
ATOM     18  C   UNL     1     -52.339 -47.394  24.340  1.00  0.00     0.000 C 
BRANCH  18  19
ATOM     19  C   UNL     1     -52.933 -46.706  23.097  1.00  0.00     0.000 C 
BRANCH  19  20
ATOM     20  C   UNL     1     -53.681 -47.638  22.121  1.00  0.00     0.006 C 
BRANCH  20  21
ATOM     21  C   UNL     1     -55.005 -47.073  21.583  1.00  0.00     0.053 C 
BRANCH  21  22
ATOM     22  C   UNL     1     -55.650 -47.999  20.597  1.00  0.00     0.041 C 
ATOM     23  O   UNL     1     -56.845 -48.360  20.756  1.00  0.00    -0.550 OA
ATOM     24  O   UNL     1     -54.940 -48.440  19.487  1.00  0.00    -0.550 OA
ENDBRANCH  21  22
ENDBRANCH  20  21
ENDBRANCH  19  20
ENDBRANCH  18  19
ENDBRANCH  17  18
ENDBRANCH  16  17
ENDBRANCH  15  16
ENDBRANCH  14  15
ENDBRANCH  13  14
ENDBRANCH   1  13
TORSDOF 20
ENDMDL
MODEL 8
REMARK VINA RESULT:    -4.700      9.814     12.880
REMARK INTER + INTRA:         -13.366
REMARK INTER:                 -10.378
REMARK INTRA:                  -2.988
REMARK UNBOUND:                -3.171
REMARK SMILES CCCCCCCCCCCCCCCCCCCCCC(=O)[O-]
REMARK SMILES IDX 12 1 11 2 10 3 9 4 8 5 7 6 6 7 5 8 4 9 3 10 2 11 1 12 13 13
REMARK SMILES IDX 14 14 15 15 16 16 17 17 18 18 19 19 20 20 21 21 22 22 23 23
REMARK SMILES IDX 24 24
REMARK H PARENT
REMARK Flexibility Score: inf
ROOT
ATOM      1  C   UNL     1     -54.837 -48.325  21.626  1.00  0.00     0.000 C 
ENDROOT
BRANCH   1   2
ATOM      2  C   UNL     1     -54.365 -46.864  21.789  1.00  0.00     0.000 C 
BRANCH   2   3
ATOM      3  C   UNL     1     -53.460 -46.667  23.019  1.00  0.00     0.000 C 
BRANCH   3   4
ATOM      4  C   UNL     1     -52.011 -46.320  22.641  1.00  0.00    -0.000 C 
BRANCH   4   5
ATOM      5  C   UNL     1     -50.979 -47.127  23.442  1.00  0.00    -0.000 C 
BRANCH   5   6
ATOM      6  C   UNL     1     -51.671 -48.148  24.359  1.00  0.00    -0.000 C 
BRANCH   6   7
ATOM      7  C   UNL     1     -50.748 -49.312  24.758  1.00  0.00    -0.000 C 
BRANCH   7   8
ATOM      8  C   UNL     1     -50.013 -49.922  23.552  1.00  0.00    -0.000 C 
BRANCH   8   9
ATOM      9  C   UNL     1     -48.490 -49.716  23.620  1.00  0.00    -0.000 C 
BRANCH   9  10
ATOM     10  C   UNL     1     -48.050 -48.973  24.894  1.00  0.00    -0.000 C 
BRANCH  10  11
ATOM     11  C   UNL     1     -47.482 -47.577  24.594  1.00  0.00    -0.003 C 
ATOM     12  C   UNL     1     -46.427 -47.590  23.487  1.00  0.00     0.004 C 
ENDBRANCH  10  11
ENDBRANCH   9  10
ENDBRANCH   8   9
ENDBRANCH   7   8
ENDBRANCH   6   7
ENDBRANCH   5   6
ENDBRANCH   4   5
ENDBRANCH   3   4
ENDBRANCH   2   3
ENDBRANCH   1   2
BRANCH   1  13
ATOM     13  C   UNL     1     -53.687 -49.339  21.483  1.00  0.00     0.000 C 
BRANCH  13  14
ATOM     14  C   UNL     1     -52.822 -49.172  20.218  1.00  0.00     0.000 C 
BRANCH  14  15
ATOM     15  C   UNL     1     -51.344 -49.580  20.381  1.00  0.00     0.000 C 
BRANCH  15  16
ATOM     16  C   UNL     1     -50.319 -48.466  20.080  1.00  0.00     0.000 C 
BRANCH  16  17
ATOM     17  C   UNL     1     -48.850 -48.923  20.038  1.00  0.00     0.000 C 
BRANCH  17  18
ATOM     18  C   UNL     1     -48.001 -48.103  19.050  1.00  0.00     0.000 C 
BRANCH  18  19
ATOM     19  C   UNL     1     -48.021 -48.675  17.621  1.00  0.00     0.000 C 
BRANCH  19  20
ATOM     20  C   UNL     1     -47.707 -50.181  17.507  1.00  0.00     0.006 C 
BRANCH  20  21
ATOM     21  C   UNL     1     -47.757 -50.740  16.076  1.00  0.00     0.053 C 
BRANCH  21  22
ATOM     22  C   UNL     1     -49.116 -50.590  15.463  1.00  0.00     0.041 C 
ATOM     23  O   UNL     1     -50.099 -51.213  15.942  1.00  0.00    -0.550 OA
ATOM     24  O   UNL     1     -49.301 -49.742  14.378  1.00  0.00    -0.550 OA
ENDBRANCH  21  22
ENDBRANCH  20  21
ENDBRANCH  19  20
ENDBRANCH  18  19
ENDBRANCH  17  18
ENDBRANCH  16  17
ENDBRANCH  15  16
ENDBRANCH  14  15
ENDBRANCH  13  14
ENDBRANCH   1  13
TORSDOF 20
ENDMDL
MODEL 9
REMARK VINA RESULT:    -4.661      9.882     12.668
REMARK INTER + INTRA:         -13.282
REMARK INTER:                 -10.381
REMARK INTRA:                  -2.900
REMARK UNBOUND:                -3.171
REMARK SMILES CCCCCCCCCCCCCCCCCCCCCC(=O)[O-]
REMARK SMILES IDX 12 1 11 2 10 3 9 4 8 5 7 6 6 7 5 8 4 9 3 10 2 11 1 12 13 13
REMARK SMILES IDX 14 14 15 15 16 16 17 17 18 18 19 19 20 20 21 21 22 22 23 23
REMARK SMILES IDX 24 24
REMARK H PARENT
REMARK Flexibility Score: inf
ROOT
ATOM      1  C   UNL     1     -49.103 -49.320  24.723  1.00  0.00     0.000 C 
ENDROOT
BRANCH   1   2
ATOM      2  C   UNL     1     -49.832 -48.239  25.550  1.00  0.00     0.000 C 
BRANCH   2   3
ATOM      3  C   UNL     1     -49.450 -46.809  25.126  1.00  0.00     0.000 C 
BRANCH   3   4
ATOM      4  C   UNL     1     -50.659 -45.989  24.649  1.00  0.00    -0.000 C 
BRANCH   4   5
ATOM      5  C   UNL     1     -50.936 -46.156  23.147  1.00  0.00    -0.000 C 
BRANCH   5   6
ATOM      6  C   UNL     1     -52.427 -45.955  22.837  1.00  0.00    -0.000 C 
BRANCH   6   7
ATOM      7  C   UNL     1     -53.310 -47.081  23.403  1.00  0.00    -0.000 C 
BRANCH   7   8
ATOM      8  C   UNL     1     -52.998 -48.449  22.771  1.00  0.00    -0.000 C 
BRANCH   8   9
ATOM      9  C   UNL     1     -54.124 -48.946  21.848  1.00  0.00    -0.000 C 
BRANCH   9  10
ATOM     10  C   UNL     1     -53.733 -48.902  20.361  1.00  0.00    -0.000 C 
BRANCH  10  11
ATOM     11  C   UNL     1     -52.260 -49.277  20.129  1.00  0.00    -0.003 C 
ATOM     12  C   UNL     1     -52.063 -50.768  19.851  1.00  0.00     0.004 C 
ENDBRANCH  10  11
ENDBRANCH   9  10
ENDBRANCH   8   9
ENDBRANCH   7   8
ENDBRANCH   6   7
ENDBRANCH   5   6
ENDBRANCH   4   5
ENDBRANCH   3   4
ENDBRANCH   2   3
ENDBRANCH   1   2
BRANCH   1  13
ATOM     13  C   UNL     1     -49.954 -49.914  23.585  1.00  0.00     0.000 C 
BRANCH  13  14
ATOM     14  C   UNL     1     -49.335 -49.795  22.178  1.00  0.00     0.000 C 
BRANCH  14  15
ATOM     15  C   UNL     1     -48.778 -48.401  21.826  1.00  0.00     0.000 C 
BRANCH  15  16
ATOM     16  C   UNL     1     -48.743 -48.069  20.320  1.00  0.00     0.000 C 
BRANCH  16  17
ATOM     17  C   UNL     1     -48.631 -49.285  19.383  1.00  0.00     0.000 C 
BRANCH  17  18
ATOM     18  C   UNL     1     -47.377 -49.238  18.494  1.00  0.00     0.000 C 
BRANCH  18  19
ATOM     19  C   UNL     1     -47.465 -48.173  17.385  1.00  0.00     0.000 C 
BRANCH  19  20
ATOM     20  C   UNL     1     -47.386 -48.714  15.942  1.00  0.00     0.006 C 
BRANCH  20  21
ATOM     21  C   UNL     1     -47.668 -50.218  15.805  1.00  0.00     0.053 C 
BRANCH  21  22
ATOM     22  C   UNL     1     -49.097 -50.490  15.441  1.00  0.00     0.041 C 
ATOM     23  O   UNL     1     -49.835 -51.147  16.220  1.00  0.00    -0.550 OA
ATOM     24  O   UNL     1     -49.619 -49.994  14.252  1.00  0.00    -0.550 OA
ENDBRANCH  21  22
ENDBRANCH  20  21
ENDBRANCH  19  20
ENDBRANCH  18  19
ENDBRANCH  17  18
ENDBRANCH  16  17
ENDBRANCH  15  16
ENDBRANCH  14  15
ENDBRANCH  13  14
ENDBRANCH   1  13
TORSDOF 20
ENDMDL
