MODEL 1
REMARK VINA RESULT:    -5.245      0.000      0.000
REMARK INTER + INTRA:          -6.161
REMARK INTER:                  -5.859
REMARK INTRA:                  -0.302
REMARK UNBOUND:                -0.302
REMARK SMILES CC(=O)c1ccc(O)cc1O
REMARK SMILES IDX 4 1 10 2 9 3 7 4 6 5 5 6 2 7 1 8 3 9 11 10 8 12
REMARK H PARENT 11 11 8 13
REMARK Flexibility Score: inf
ROOT
ATOM      1  C   UNL     1       3.116  28.058  56.880  1.00  0.00     0.059 A 
ATOM      2  C   UNL     1       3.293  28.077  55.476  1.00  0.00     0.130 A 
ATOM      3  C   UNL     1       2.320  28.670  54.656  1.00  0.00     0.093 A 
ATOM      4  C   UNL     1       1.166  29.228  55.211  1.00  0.00     0.119 A 
ATOM      5  C   UNL     1       0.978  29.196  56.595  1.00  0.00     0.047 A 
ATOM      6  C   UNL     1       1.942  28.615  57.422  1.00  0.00     0.019 A 
ENDROOT
BRANCH   1   7
ATOM      7  C   UNL     1       4.118  27.463  57.805  1.00  0.00     0.163 C 
ATOM      8  C   UNL     1       3.726  26.637  58.993  1.00  0.00     0.093 C 
ATOM      9  O   UNL     1       5.346  27.653  57.590  1.00  0.00    -0.294 OA
ENDBRANCH   1   7
BRANCH   2  10
ATOM     10  O   UNL     1       4.415  27.494  54.888  1.00  0.00    -0.507 OA
ATOM     11  H   UNL     1       5.355  27.790  55.122  1.00  0.00     0.293 HD
ENDBRANCH   2  10
BRANCH   4  12
ATOM     12  O   UNL     1       0.213  29.809  54.377  1.00  0.00    -0.508 OA
ATOM     13  H   UNL     1       0.469  30.500  53.682  1.00  0.00     0.293 HD
ENDBRANCH   4  12
TORSDOF 3
ENDMDL
MODEL 2
REMARK VINA RESULT:    -5.211      1.137      3.925
REMARK INTER + INTRA:          -6.122
REMARK INTER:                  -5.960
REMARK INTRA:                  -0.162
REMARK UNBOUND:                -0.302
REMARK SMILES CC(=O)c1ccc(O)cc1O
REMARK SMILES IDX 4 1 10 2 9 3 7 4 6 5 5 6 2 7 1 8 3 9 11 10 8 12
REMARK H PARENT 11 11 8 13
REMARK Flexibility Score: inf
ROOT
ATOM      1  C   UNL     1       1.974  28.642  56.301  1.00  0.00     0.059 A 
ATOM      2  C   UNL     1       2.939  28.493  55.276  1.00  0.00     0.130 A 
ATOM      3  C   UNL     1       4.164  27.868  55.555  1.00  0.00     0.093 A 
ATOM      4  C   UNL     1       4.451  27.405  56.841  1.00  0.00     0.119 A 
ATOM      5  C   UNL     1       3.508  27.565  57.861  1.00  0.00     0.047 A 
ATOM      6  C   UNL     1       2.283  28.180  57.594  1.00  0.00     0.019 A 
ENDROOT
BRANCH   1   7
ATOM      7  C   UNL     1       0.649  29.278  56.066  1.00  0.00     0.163 C 
ATOM      8  C   UNL     1      -0.424  29.312  57.111  1.00  0.00     0.093 C 
ATOM      9  O   UNL     1       0.410  29.812  54.948  1.00  0.00    -0.294 OA
ENDBRANCH   1   7
BRANCH   2  10
ATOM     10  O   UNL     1       2.700  28.979  53.992  1.00  0.00    -0.507 OA
ATOM     11  H   UNL     1       1.762  29.174  53.660  1.00  0.00     0.293 HD
ENDBRANCH   2  10
BRANCH   4  12
ATOM     12  O   UNL     1       5.674  26.789  57.095  1.00  0.00    -0.508 OA
ATOM     13  H   UNL     1       6.072  26.117  56.450  1.00  0.00     0.293 HD
ENDBRANCH   4  12
TORSDOF 3
ENDMDL
MODEL 3
REMARK VINA RESULT:    -4.620      1.422      4.627
REMARK INTER + INTRA:          -5.463
REMARK INTER:                  -5.175
REMARK INTRA:                  -0.288
REMARK UNBOUND:                -0.302
REMARK SMILES CC(=O)c1ccc(O)cc1O
REMARK SMILES IDX 4 1 10 2 9 3 7 4 6 5 5 6 2 7 1 8 3 9 11 10 8 12
REMARK H PARENT 11 11 8 13
REMARK Flexibility Score: inf
ROOT
ATOM      1  C   UNL     1       1.732  28.986  55.405  1.00  0.00     0.059 A 
ATOM      2  C   UNL     1       1.854  28.746  56.795  1.00  0.00     0.130 A 
ATOM      3  C   UNL     1       2.996  28.100  57.296  1.00  0.00     0.093 A 
ATOM      4  C   UNL     1       4.009  27.675  56.434  1.00  0.00     0.119 A 
ATOM      5  C   UNL     1       3.885  27.893  55.059  1.00  0.00     0.047 A 
ATOM      6  C   UNL     1       2.757  28.540  54.549  1.00  0.00     0.019 A 
ENDROOT
BRANCH   1   7
ATOM      7  C   UNL     1       0.558  29.681  54.813  1.00  0.00     0.163 C 
ATOM      8  C   UNL     1       0.678  30.983  54.081  1.00  0.00     0.093 C 
ATOM      9  O   UNL     1      -0.587  29.164  54.927  1.00  0.00    -0.294 OA
ENDBRANCH   1   7
BRANCH   2  10
ATOM     10  O   UNL     1       0.843  29.122  57.678  1.00  0.00    -0.507 OA
ATOM     11  H   UNL     1      -0.136  29.080  57.417  1.00  0.00     0.293 HD
ENDBRANCH   2  10
BRANCH   4  12
ATOM     12  O   UNL     1       5.131  27.034  56.954  1.00  0.00    -0.508 OA
ATOM     13  H   UNL     1       5.750  26.491  56.365  1.00  0.00     0.293 HD
ENDBRANCH   4  12
TORSDOF 3
ENDMDL
MODEL 4
REMARK VINA RESULT:    -4.486      1.835      3.033
REMARK INTER + INTRA:          -5.313
REMARK INTER:                  -5.089
REMARK INTRA:                  -0.223
REMARK UNBOUND:                -0.302
REMARK SMILES CC(=O)c1ccc(O)cc1O
REMARK SMILES IDX 4 1 10 2 9 3 7 4 6 5 5 6 2 7 1 8 3 9 11 10 8 12
REMARK H PARENT 11 11 8 13
REMARK Flexibility Score: inf
ROOT
ATOM      1  C   UNL     1       2.269  28.595  55.643  1.00  0.00     0.059 A 
ATOM      2  C   UNL     1       2.051  28.442  57.033  1.00  0.00     0.130 A 
ATOM      3  C   UNL     1       0.819  28.818  57.593  1.00  0.00     0.093 A 
ATOM      4  C   UNL     1      -0.190  29.359  56.794  1.00  0.00     0.119 A 
ATOM      5  C   UNL     1       0.027  29.528  55.424  1.00  0.00     0.047 A 
ATOM      6  C   UNL     1       1.246  29.153  54.854  1.00  0.00     0.019 A 
ENDROOT
BRANCH   1   7
ATOM      7  C   UNL     1       3.544  28.200  54.986  1.00  0.00     0.163 C 
ATOM      8  C   UNL     1       3.939  28.699  53.629  1.00  0.00     0.093 C 
ATOM      9  O   UNL     1       4.329  27.415  55.584  1.00  0.00    -0.294 OA
ENDBRANCH   1   7
BRANCH   2  10
ATOM     10  O   UNL     1       3.052  27.943  57.865  1.00  0.00    -0.507 OA
ATOM     11  H   UNL     1       4.005  27.825  57.541  1.00  0.00     0.293 HD
ENDBRANCH   2  10
BRANCH   4  12
ATOM     12  O   UNL     1      -1.403  29.726  57.373  1.00  0.00    -0.508 OA
ATOM     13  H   UNL     1      -1.453  30.435  58.093  1.00  0.00     0.293 HD
ENDBRANCH   4  12
TORSDOF 3
ENDMDL
MODEL 5
REMARK VINA RESULT:    -4.374      1.913      3.699
REMARK INTER + INTRA:          -5.188
REMARK INTER:                  -4.885
REMARK INTRA:                  -0.302
REMARK UNBOUND:                -0.302
REMARK SMILES CC(=O)c1ccc(O)cc1O
REMARK SMILES IDX 4 1 10 2 9 3 7 4 6 5 5 6 2 7 1 8 3 9 11 10 8 12
REMARK H PARENT 11 11 8 13
REMARK Flexibility Score: inf
ROOT
ATOM      1  C   UNL     1       1.630  28.559  56.376  1.00  0.00     0.059 A 
ATOM      2  C   UNL     1       2.845  28.138  56.966  1.00  0.00     0.130 A 
ATOM      3  C   UNL     1       4.039  28.199  56.229  1.00  0.00     0.093 A 
ATOM      4  C   UNL     1       4.038  28.658  54.910  1.00  0.00     0.119 A 
ATOM      5  C   UNL     1       2.837  29.058  54.317  1.00  0.00     0.047 A 
ATOM      6  C   UNL     1       1.644  29.007  55.041  1.00  0.00     0.019 A 
ENDROOT
BRANCH   1   7
ATOM      7  C   UNL     1       0.335  28.536  57.108  1.00  0.00     0.163 C 
ATOM      8  C   UNL     1      -0.647  29.666  57.043  1.00  0.00     0.093 C 
ATOM      9  O   UNL     1       0.043  27.533  57.814  1.00  0.00    -0.294 OA
ENDBRANCH   1   7
BRANCH   2  10
ATOM     10  O   UNL     1       2.874  27.638  58.267  1.00  0.00    -0.507 OA
ATOM     11  H   UNL     1       2.310  26.844  58.546  1.00  0.00     0.293 HD
ENDBRANCH   2  10
BRANCH   4  12
ATOM     12  O   UNL     1       5.234  28.708  54.198  1.00  0.00    -0.508 OA
ATOM     13  H   UNL     1       5.524  29.547  53.709  1.00  0.00     0.293 HD
ENDBRANCH   4  12
TORSDOF 3
ENDMDL
MODEL 6
REMARK VINA RESULT:    -4.351      1.745      4.396
REMARK INTER + INTRA:          -5.162
REMARK INTER:                  -4.862
REMARK INTRA:                  -0.300
REMARK UNBOUND:                -0.302
REMARK SMILES CC(=O)c1ccc(O)cc1O
REMARK SMILES IDX 4 1 10 2 9 3 7 4 6 5 5 6 2 7 1 8 3 9 11 10 8 12
REMARK H PARENT 11 11 8 13
REMARK Flexibility Score: inf
ROOT
ATOM      1  C   UNL     1       4.058  28.460  56.083  1.00  0.00     0.059 A 
ATOM      2  C   UNL     1       5.386  28.893  56.318  1.00  0.00     0.130 A 
ATOM      3  C   UNL     1       6.062  28.478  57.476  1.00  0.00     0.093 A 
ATOM      4  C   UNL     1       5.432  27.654  58.411  1.00  0.00     0.119 A 
ATOM      5  C   UNL     1       4.116  27.238  58.192  1.00  0.00     0.047 A 
ATOM      6  C   UNL     1       3.434  27.639  57.041  1.00  0.00     0.019 A 
ENDROOT
BRANCH   1   7
ATOM      7  C   UNL     1       3.294  28.848  54.867  1.00  0.00     0.163 C 
ATOM      8  C   UNL     1       1.836  29.193  54.909  1.00  0.00     0.093 C 
ATOM      9  O   UNL     1       3.885  28.892  53.754  1.00  0.00    -0.294 OA
ENDBRANCH   1   7
BRANCH   2  10
ATOM     10  O   UNL     1       6.029  29.748  55.424  1.00  0.00    -0.507 OA
ATOM     11  H   UNL     1       5.517  30.266  54.719  1.00  0.00     0.293 HD
ENDBRANCH   2  10
BRANCH   4  12
ATOM     12  O   UNL     1       6.123  27.257  59.554  1.00  0.00    -0.508 OA
ATOM     13  H   UNL     1       6.355  27.915  60.287  1.00  0.00     0.293 HD
ENDBRANCH   4  12
TORSDOF 3
ENDMDL
MODEL 7
REMARK VINA RESULT:    -4.295      1.655      4.599
REMARK INTER + INTRA:          -5.099
REMARK INTER:                  -4.906
REMARK INTRA:                  -0.193
REMARK UNBOUND:                -0.302
REMARK SMILES CC(=O)c1ccc(O)cc1O
REMARK SMILES IDX 4 1 10 2 9 3 7 4 6 5 5 6 2 7 1 8 3 9 11 10 8 12
REMARK H PARENT 11 11 8 13
REMARK Flexibility Score: inf
ROOT
ATOM      1  C   UNL     1       3.267  28.222  56.173  1.00  0.00     0.059 A 
ATOM      2  C   UNL     1       2.634  27.958  57.411  1.00  0.00     0.130 A 
ATOM      3  C   UNL     1       3.382  27.447  58.484  1.00  0.00     0.093 A 
ATOM      4  C   UNL     1       4.745  27.181  58.339  1.00  0.00     0.119 A 
ATOM      5  C   UNL     1       5.371  27.423  57.113  1.00  0.00     0.047 A 
ATOM      6  C   UNL     1       4.639  27.937  56.039  1.00  0.00     0.019 A 
ENDROOT
BRANCH   1   7
ATOM      7  C   UNL     1       2.535  28.780  55.004  1.00  0.00     0.163 C 
ATOM      8  C   UNL     1       3.240  29.353  53.812  1.00  0.00     0.093 C 
ATOM      9  O   UNL     1       1.274  28.776  55.006  1.00  0.00    -0.294 OA
ENDBRANCH   1   7
BRANCH   2  10
ATOM     10  O   UNL     1       1.267  28.176  57.577  1.00  0.00    -0.507 OA
ATOM     11  H   UNL     1       0.875  29.110  57.607  1.00  0.00     0.293 HD
ENDBRANCH   2  10
BRANCH   4  12
ATOM     12  O   UNL     1       5.466  26.673  59.417  1.00  0.00    -0.508 OA
ATOM     13  H   UNL     1       6.400  26.299  59.300  1.00  0.00     0.293 HD
ENDBRANCH   4  12
TORSDOF 3
ENDMDL
MODEL 8
REMARK VINA RESULT:    -4.227      1.793      2.590
REMARK INTER + INTRA:          -5.023
REMARK INTER:                  -4.717
REMARK INTRA:                  -0.306
REMARK UNBOUND:                -0.302
REMARK SMILES CC(=O)c1ccc(O)cc1O
REMARK SMILES IDX 4 1 10 2 9 3 7 4 6 5 5 6 2 7 1 8 3 9 11 10 8 12
REMARK H PARENT 11 11 8 13
REMARK Flexibility Score: inf
ROOT
ATOM      1  C   UNL     1       2.603  28.760  55.833  1.00  0.00     0.059 A 
ATOM      2  C   UNL     1       1.677  29.461  55.023  1.00  0.00     0.130 A 
ATOM      3  C   UNL     1       0.361  29.656  55.473  1.00  0.00     0.093 A 
ATOM      4  C   UNL     1      -0.051  29.150  56.708  1.00  0.00     0.119 A 
ATOM      5  C   UNL     1       0.855  28.442  57.503  1.00  0.00     0.047 A 
ATOM      6  C   UNL     1       2.168  28.246  57.069  1.00  0.00     0.019 A 
ENDROOT
BRANCH   1   7
ATOM      7  C   UNL     1       4.015  28.536  55.422  1.00  0.00     0.163 C 
ATOM      8  C   UNL     1       5.171  28.791  56.341  1.00  0.00     0.093 C 
ATOM      9  O   UNL     1       4.260  28.116  54.258  1.00  0.00    -0.294 OA
ENDBRANCH   1   7
BRANCH   2  10
ATOM     10  O   UNL     1       2.045  29.945  53.768  1.00  0.00    -0.507 OA
ATOM     11  H   UNL     1       2.611  29.397  53.131  1.00  0.00     0.293 HD
ENDBRANCH   2  10
BRANCH   4  12
ATOM     12  O   UNL     1      -1.362  29.354  57.133  1.00  0.00    -0.508 OA
ATOM     13  H   UNL     1      -1.569  29.861  57.985  1.00  0.00     0.293 HD
ENDBRANCH   4  12
TORSDOF 3
ENDMDL
MODEL 9
REMARK VINA RESULT:    -4.102      1.412      2.298
REMARK INTER + INTRA:          -4.883
REMARK INTER:                  -4.581
REMARK INTRA:                  -0.303
REMARK UNBOUND:                -0.302
REMARK SMILES CC(=O)c1ccc(O)cc1O
REMARK SMILES IDX 4 1 10 2 9 3 7 4 6 5 5 6 2 7 1 8 3 9 11 10 8 12
REMARK H PARENT 11 11 8 13
REMARK Flexibility Score: inf
ROOT
ATOM      1  C   UNL     1       3.616  28.334  56.438  1.00  0.00     0.059 A 
ATOM      2  C   UNL     1       2.388  28.151  57.119  1.00  0.00     0.130 A 
ATOM      3  C   UNL     1       1.177  28.437  56.469  1.00  0.00     0.093 A 
ATOM      4  C   UNL     1       1.170  28.917  55.158  1.00  0.00     0.119 A 
ATOM      5  C   UNL     1       2.380  29.116  54.486  1.00  0.00     0.047 A 
ATOM      6  C   UNL     1       3.591  28.830  55.121  1.00  0.00     0.019 A 
ENDROOT
BRANCH   1   7
ATOM      7  C   UNL     1       4.931  28.032  57.064  1.00  0.00     0.163 C 
ATOM      8  C   UNL     1       6.124  28.924  56.899  1.00  0.00     0.093 C 
ATOM      9  O   UNL     1       5.058  26.990  57.762  1.00  0.00    -0.294 OA
ENDBRANCH   1   7
BRANCH   2  10
ATOM     10  O   UNL     1       2.363  27.710  58.442  1.00  0.00    -0.507 OA
ATOM     11  H   UNL     1       1.498  27.447  58.900  1.00  0.00     0.293 HD
ENDBRANCH   2  10
BRANCH   4  12
ATOM     12  O   UNL     1      -0.043  29.195  54.533  1.00  0.00    -0.508 OA
ATOM     13  H   UNL     1      -0.747  28.479  54.402  1.00  0.00     0.293 HD
ENDBRANCH   4  12
TORSDOF 3
ENDMDL
