MODEL 1
REMARK VINA RESULT:    -3.082      0.000      0.000
REMARK INTER + INTRA:          -4.076
REMARK INTER:                  -3.802
REMARK INTRA:                  -0.273
REMARK UNBOUND:                -0.273
REMARK SMILES CCCCCC(=O)[O-]
REMARK SMILES IDX 4 1 5 2 6 3 7 4 8 5 3 6 2 7 1 8
REMARK H PARENT
REMARK Flexibility Score: inf
ROOT
ATOM      1  C   UNL     1      30.591  51.098  23.930  1.00  0.00     0.006 C 
ENDROOT
BRANCH   1   2
ATOM      2  C   UNL     1      31.561  49.935  24.160  1.00  0.00     0.053 C 
BRANCH   2   3
ATOM      3  C   UNL     1      32.057  49.939  25.572  1.00  0.00     0.041 C 
ATOM      4  O   UNL     1      32.744  50.903  25.999  1.00  0.00    -0.550 OA
ATOM      5  O   UNL     1      31.719  48.900  26.430  1.00  0.00    -0.550 OA
ENDBRANCH   2   3
ENDBRANCH   1   2
BRANCH   1   6
ATOM      6  C   UNL     1      29.314  50.923  24.761  1.00  0.00     0.000 C 
BRANCH   6   7
ATOM      7  C   UNL     1      29.086  52.129  25.678  1.00  0.00    -0.003 C 
ATOM      8  C   UNL     1      30.125  53.218  25.426  1.00  0.00     0.004 C 
ENDBRANCH   6   7
ENDBRANCH   1   6
TORSDOF 4
ENDMDL
MODEL 2
REMARK VINA RESULT:    -2.999      1.679      2.281
REMARK INTER + INTRA:          -3.973
REMARK INTER:                  -3.891
REMARK INTRA:                  -0.082
REMARK UNBOUND:                -0.273
REMARK SMILES CCCCCC(=O)[O-]
REMARK SMILES IDX 4 1 5 2 6 3 7 4 8 5 3 6 2 7 1 8
REMARK H PARENT
REMARK Flexibility Score: inf
ROOT
ATOM      1  C   UNL     1      31.595  49.871  24.111  1.00  0.00     0.006 C 
ENDROOT
BRANCH   1   2
ATOM      2  C   UNL     1      32.451  49.558  25.343  1.00  0.00     0.053 C 
BRANCH   2   3
ATOM      3  C   UNL     1      33.432  48.471  25.036  1.00  0.00     0.041 C 
ATOM      4  O   UNL     1      33.058  47.433  24.430  1.00  0.00    -0.550 OA
ATOM      5  O   UNL     1      34.770  48.626  25.377  1.00  0.00    -0.550 OA
ENDBRANCH   2   3
ENDBRANCH   1   2
BRANCH   1   6
ATOM      6  C   UNL     1      30.865  51.209  24.273  1.00  0.00     0.000 C 
BRANCH   6   7
ATOM      7  C   UNL     1      29.450  51.000  24.825  1.00  0.00    -0.003 C 
ATOM      8  C   UNL     1      29.065  52.118  25.789  1.00  0.00     0.004 C 
ENDBRANCH   6   7
ENDBRANCH   1   6
TORSDOF 4
ENDMDL
MODEL 3
REMARK VINA RESULT:    -2.984      1.590      1.802
REMARK INTER + INTRA:          -3.955
REMARK INTER:                  -3.849
REMARK INTRA:                  -0.105
REMARK UNBOUND:                -0.273
REMARK SMILES CCCCCC(=O)[O-]
REMARK SMILES IDX 4 1 5 2 6 3 7 4 8 5 3 6 2 7 1 8
REMARK H PARENT
REMARK Flexibility Score: inf
ROOT
ATOM      1  C   UNL     1      31.264  50.228  24.134  1.00  0.00     0.006 C 
ENDROOT
BRANCH   1   2
ATOM      2  C   UNL     1      32.144  50.056  25.377  1.00  0.00     0.053 C 
BRANCH   2   3
ATOM      3  C   UNL     1      32.739  48.684  25.411  1.00  0.00     0.041 C 
ATOM      4  O   UNL     1      33.620  48.354  24.574  1.00  0.00    -0.550 OA
ATOM      5  O   UNL     1      32.355  47.784  26.397  1.00  0.00    -0.550 OA
ENDBRANCH   2   3
ENDBRANCH   1   2
BRANCH   1   6
ATOM      6  C   UNL     1      30.536  51.577  24.157  1.00  0.00     0.000 C 
BRANCH   6   7
ATOM      7  C   UNL     1      31.233  52.561  25.104  1.00  0.00    -0.003 C 
ATOM      8  C   UNL     1      31.184  53.983  24.552  1.00  0.00     0.004 C 
ENDBRANCH   6   7
ENDBRANCH   1   6
TORSDOF 4
ENDMDL
MODEL 4
REMARK VINA RESULT:    -2.975      2.257      4.183
REMARK INTER + INTRA:          -3.945
REMARK INTER:                  -3.854
REMARK INTRA:                  -0.091
REMARK UNBOUND:                -0.273
REMARK SMILES CCCCCC(=O)[O-]
REMARK SMILES IDX 4 1 5 2 6 3 7 4 8 5 3 6 2 7 1 8
REMARK H PARENT
REMARK Flexibility Score: inf
ROOT
ATOM      1  C   UNL     1      32.229  49.617  25.198  1.00  0.00     0.006 C 
ENDROOT
BRANCH   1   2
ATOM      2  C   UNL     1      31.384  50.148  24.036  1.00  0.00     0.053 C 
BRANCH   2   3
ATOM      3  C   UNL     1      30.373  51.133  24.531  1.00  0.00     0.041 C 
ATOM      4  O   UNL     1      29.198  50.760  24.788  1.00  0.00    -0.550 OA
ATOM      5  O   UNL     1      30.742  52.453  24.756  1.00  0.00    -0.550 OA
ENDBRANCH   2   3
ENDBRANCH   1   2
BRANCH   1   6
ATOM      6  C   UNL     1      33.020  48.372  24.779  1.00  0.00     0.000 C 
BRANCH   6   7
ATOM      7  C   UNL     1      34.468  48.446  25.279  1.00  0.00    -0.003 C 
ATOM      8  C   UNL     1      34.631  49.539  26.332  1.00  0.00     0.004 C 
ENDBRANCH   6   7
ENDBRANCH   1   6
TORSDOF 4
ENDMDL
MODEL 5
REMARK VINA RESULT:    -2.899      1.819      3.511
REMARK INTER + INTRA:          -3.850
REMARK INTER:                  -3.576
REMARK INTRA:                  -0.274
REMARK UNBOUND:                -0.273
REMARK SMILES CCCCCC(=O)[O-]
REMARK SMILES IDX 4 1 5 2 6 3 7 4 8 5 3 6 2 7 1 8
REMARK H PARENT
REMARK Flexibility Score: inf
ROOT
ATOM      1  C   UNL     1      29.800  51.206  25.348  1.00  0.00     0.006 C 
ENDROOT
BRANCH   1   2
ATOM      2  C   UNL     1      29.657  52.726  25.477  1.00  0.00     0.053 C 
BRANCH   2   3
ATOM      3  C   UNL     1      31.004  53.377  25.511  1.00  0.00     0.041 C 
ATOM      4  O   UNL     1      31.791  53.154  26.468  1.00  0.00    -0.550 OA
ATOM      5  O   UNL     1      31.409  54.192  24.462  1.00  0.00    -0.550 OA
ENDBRANCH   2   3
ENDBRANCH   1   2
BRANCH   1   6
ATOM      6  C   UNL     1      30.482  50.827  24.028  1.00  0.00     0.000 C 
BRANCH   6   7
ATOM      7  C   UNL     1      31.676  49.898  24.274  1.00  0.00    -0.003 C 
ATOM      8  C   UNL     1      31.845  49.599  25.761  1.00  0.00     0.004 C 
ENDBRANCH   6   7
ENDBRANCH   1   6
TORSDOF 4
ENDMDL
MODEL 6
REMARK VINA RESULT:    -2.880      2.432      3.735
REMARK INTER + INTRA:          -3.826
REMARK INTER:                  -3.634
REMARK INTRA:                  -0.192
REMARK UNBOUND:                -0.273
REMARK SMILES CCCCCC(=O)[O-]
REMARK SMILES IDX 4 1 5 2 6 3 7 4 8 5 3 6 2 7 1 8
REMARK H PARENT
REMARK Flexibility Score: inf
ROOT
ATOM      1  C   UNL     1      31.708  52.074  26.259  1.00  0.00     0.006 C 
ENDROOT
BRANCH   1   2
ATOM      2  C   UNL     1      31.037  52.322  24.904  1.00  0.00     0.053 C 
BRANCH   2   3
ATOM      3  C   UNL     1      30.441  51.055  24.376  1.00  0.00     0.041 C 
ATOM      4  O   UNL     1      31.175  50.191  23.829  1.00  0.00    -0.550 OA
ATOM      5  O   UNL     1      29.083  50.808  24.531  1.00  0.00    -0.550 OA
ENDBRANCH   2   3
ENDBRANCH   1   2
BRANCH   1   6
ATOM      6  C   UNL     1      33.199  52.428  26.207  1.00  0.00     0.000 C 
BRANCH   6   7
ATOM      7  C   UNL     1      34.046  51.341  26.879  1.00  0.00    -0.003 C 
ATOM      8  C   UNL     1      33.689  49.957  26.345  1.00  0.00     0.004 C 
ENDBRANCH   6   7
ENDBRANCH   1   6
TORSDOF 4
ENDMDL
MODEL 7
REMARK VINA RESULT:    -2.843      2.041      2.671
REMARK INTER + INTRA:          -3.781
REMARK INTER:                  -3.550
REMARK INTRA:                  -0.231
REMARK UNBOUND:                -0.273
REMARK SMILES CCCCCC(=O)[O-]
REMARK SMILES IDX 4 1 5 2 6 3 7 4 8 5 3 6 2 7 1 8
REMARK H PARENT
REMARK Flexibility Score: inf
ROOT
ATOM      1  C   UNL     1      32.079  52.357  26.035  1.00  0.00     0.006 C 
ENDROOT
BRANCH   1   2
ATOM      2  C   UNL     1      31.498  50.948  26.188  1.00  0.00     0.053 C 
BRANCH   2   3
ATOM      3  C   UNL     1      30.783  50.538  24.940  1.00  0.00     0.041 C 
ATOM      4  O   UNL     1      31.409  49.959  24.013  1.00  0.00    -0.550 OA
ATOM      5  O   UNL     1      29.417  50.753  24.819  1.00  0.00    -0.550 OA
ENDBRANCH   2   3
ENDBRANCH   1   2
BRANCH   1   6
ATOM      6  C   UNL     1      31.147  53.407  26.652  1.00  0.00     0.000 C 
BRANCH   6   7
ATOM      7  C   UNL     1      30.533  54.301  25.569  1.00  0.00    -0.003 C 
ATOM      8  C   UNL     1      31.227  54.095  24.226  1.00  0.00     0.004 C 
ENDBRANCH   6   7
ENDBRANCH   1   6
TORSDOF 4
ENDMDL
MODEL 8
REMARK VINA RESULT:    -2.820      1.214      1.771
REMARK INTER + INTRA:          -3.753
REMARK INTER:                  -3.563
REMARK INTRA:                  -0.190
REMARK UNBOUND:                -0.273
REMARK SMILES CCCCCC(=O)[O-]
REMARK SMILES IDX 4 1 5 2 6 3 7 4 8 5 3 6 2 7 1 8
REMARK H PARENT
REMARK Flexibility Score: inf
ROOT
ATOM      1  C   UNL     1      30.209  51.823  24.574  1.00  0.00     0.006 C 
ENDROOT
BRANCH   1   2
ATOM      2  C   UNL     1      30.970  50.657  23.934  1.00  0.00     0.053 C 
BRANCH   2   3
ATOM      3  C   UNL     1      31.680  49.858  24.981  1.00  0.00     0.041 C 
ATOM      4  O   UNL     1      32.584  49.046  24.653  1.00  0.00    -0.550 OA
ATOM      5  O   UNL     1      31.376  50.046  26.323  1.00  0.00    -0.550 OA
ENDBRANCH   2   3
ENDBRANCH   1   2
BRANCH   1   6
ATOM      6  C   UNL     1      31.018  53.123  24.488  1.00  0.00     0.000 C 
BRANCH   6   7
ATOM      7  C   UNL     1      30.716  54.039  25.679  1.00  0.00    -0.003 C 
ATOM      8  C   UNL     1      29.830  53.336  26.703  1.00  0.00     0.004 C 
ENDBRANCH   6   7
ENDBRANCH   1   6
TORSDOF 4
ENDMDL
MODEL 9
REMARK VINA RESULT:    -2.748      2.605      3.810
REMARK INTER + INTRA:          -3.664
REMARK INTER:                  -3.421
REMARK INTRA:                  -0.243
REMARK UNBOUND:                -0.273
REMARK SMILES CCCCCC(=O)[O-]
REMARK SMILES IDX 4 1 5 2 6 3 7 4 8 5 3 6 2 7 1 8
REMARK H PARENT
REMARK Flexibility Score: inf
ROOT
ATOM      1  C   UNL     1      32.761  51.749  26.011  1.00  0.00     0.006 C 
ENDROOT
BRANCH   1   2
ATOM      2  C   UNL     1      32.166  52.915  26.806  1.00  0.00     0.053 C 
BRANCH   2   3
ATOM      3  C   UNL     1      31.217  53.698  25.955  1.00  0.00     0.041 C 
ATOM      4  O   UNL     1      30.127  54.109  26.434  1.00  0.00    -0.550 OA
ATOM      5  O   UNL     1      31.556  54.015  24.646  1.00  0.00    -0.550 OA
ENDBRANCH   2   3
ENDBRANCH   1   2
BRANCH   1   6
ATOM      6  C   UNL     1      31.800  50.554  25.984  1.00  0.00     0.000 C 
BRANCH   6   7
ATOM      7  C   UNL     1      31.626  50.021  24.557  1.00  0.00    -0.003 C 
ATOM      8  C   UNL     1      30.492  50.742  23.835  1.00  0.00     0.004 C 
ENDBRANCH   6   7
ENDBRANCH   1   6
TORSDOF 4
ENDMDL
