MODEL 1
REMARK VINA RESULT:    -5.123      0.000      0.000
REMARK INTER + INTRA:          -5.423
REMARK INTER:                  -5.423
REMARK INTRA:                   0.000
REMARK UNBOUND:                 0.000
REMARK SMILES Cc1cc(O)c(C)c(C)c1O
REMARK SMILES IDX 1 1 2 2 3 3 4 4 6 5 8 6 10 7 9 8 7 9 11 10 5 12
REMARK H PARENT 11 11 5 13
REMARK Flexibility Score: inf
ROOT
ATOM      1  C   UNL     1     374.624 244.718 277.008  1.00  0.00     0.048 C 
ATOM      2  C   UNL     1     373.886 243.467 276.618  1.00  0.00    -0.005 A 
ATOM      3  C   UNL     1     374.549 242.237 276.617  1.00  0.00     0.053 A 
ATOM      4  C   UNL     1     373.896 241.070 276.225  1.00  0.00     0.119 A 
ATOM      5  C   UNL     1     372.546 241.121 275.802  1.00  0.00    -0.003 A 
ATOM      6  C   UNL     1     371.828 242.344 275.920  1.00  0.00    -0.002 A 
ATOM      7  C   UNL     1     372.529 243.530 276.260  1.00  0.00     0.121 A 
ATOM      8  C   UNL     1     370.337 242.401 275.673  1.00  0.00     0.049 C 
ATOM      9  C   UNL     1     371.885 239.875 275.253  1.00  0.00     0.049 C 
ENDROOT
BRANCH   7  10
ATOM     10  O   UNL     1     371.908 244.783 276.242  1.00  0.00    -0.507 OA
ATOM     11  H   UNL     1     372.359 245.639 276.538  1.00  0.00     0.293 HD
ENDBRANCH   7  10
BRANCH   4  12
ATOM     12  O   UNL     1     374.620 239.876 276.279  1.00  0.00    -0.508 OA
ATOM     13  H   UNL     1     374.295 239.044 276.756  1.00  0.00     0.293 HD
ENDBRANCH   4  12
TORSDOF 2
ENDMDL
MODEL 2
REMARK VINA RESULT:    -5.096      1.187      3.160
REMARK INTER + INTRA:          -5.394
REMARK INTER:                  -5.394
REMARK INTRA:                   0.000
REMARK UNBOUND:                 0.000
REMARK SMILES Cc1cc(O)c(C)c(C)c1O
REMARK SMILES IDX 1 1 2 2 3 3 4 4 6 5 8 6 10 7 9 8 7 9 11 10 5 12
REMARK H PARENT 11 11 5 13
REMARK Flexibility Score: inf
ROOT
ATOM      1  C   UNL     1     374.499 244.159 276.933  1.00  0.00     0.048 C 
ATOM      2  C   UNL     1     373.261 243.377 276.592  1.00  0.00    -0.005 A 
ATOM      3  C   UNL     1     372.011 244.001 276.618  1.00  0.00     0.053 A 
ATOM      4  C   UNL     1     370.846 243.288 276.341  1.00  0.00     0.119 A 
ATOM      5  C   UNL     1     370.915 241.906 276.043  1.00  0.00    -0.003 A 
ATOM      6  C   UNL     1     372.190 241.292 275.890  1.00  0.00    -0.002 A 
ATOM      7  C   UNL     1     373.357 242.020 276.239  1.00  0.00     0.121 A 
ATOM      8  C   UNL     1     372.317 239.875 275.378  1.00  0.00     0.049 C 
ATOM      9  C   UNL     1     369.639 241.112 275.873  1.00  0.00     0.049 C 
ENDROOT
BRANCH   7  10
ATOM     10  O   UNL     1     374.621 241.422 276.254  1.00  0.00    -0.507 OA
ATOM     11  H   UNL     1     374.777 240.433 276.110  1.00  0.00     0.293 HD
ENDBRANCH   7  10
BRANCH   4  12
ATOM     12  O   UNL     1     369.639 243.992 276.360  1.00  0.00    -0.508 OA
ATOM     13  H   UNL     1     369.332 244.558 277.140  1.00  0.00     0.293 HD
ENDBRANCH   4  12
TORSDOF 2
ENDMDL
MODEL 3
REMARK VINA RESULT:    -5.016      2.208      3.297
REMARK INTER + INTRA:          -5.310
REMARK INTER:                  -5.310
REMARK INTRA:                   0.000
REMARK UNBOUND:                 0.000
REMARK SMILES Cc1cc(O)c(C)c(C)c1O
REMARK SMILES IDX 1 1 2 2 3 3 4 4 6 5 8 6 10 7 9 8 7 9 11 10 5 12
REMARK H PARENT 11 11 5 13
REMARK Flexibility Score: inf
ROOT
ATOM      1  C   UNL     1     369.337 244.762 277.744  1.00  0.00     0.048 C 
ATOM      2  C   UNL     1     370.198 243.677 277.159  1.00  0.00    -0.005 A 
ATOM      3  C   UNL     1     371.451 243.992 276.625  1.00  0.00     0.053 A 
ATOM      4  C   UNL     1     372.251 243.009 276.045  1.00  0.00     0.119 A 
ATOM      5  C   UNL     1     371.793 241.672 275.974  1.00  0.00    -0.003 A 
ATOM      6  C   UNL     1     370.578 241.320 276.626  1.00  0.00    -0.002 A 
ATOM      7  C   UNL     1     369.751 242.345 277.153  1.00  0.00     0.121 A 
ATOM      8  C   UNL     1     370.150 239.875 276.751  1.00  0.00     0.049 C 
ATOM      9  C   UNL     1     372.608 240.639 275.227  1.00  0.00     0.049 C 
ENDROOT
BRANCH   7  10
ATOM     10  O   UNL     1     368.479 242.074 277.668  1.00  0.00    -0.507 OA
ATOM     11  H   UNL     1     367.621 242.225 277.154  1.00  0.00     0.293 HD
ENDBRANCH   7  10
BRANCH   4  12
ATOM     12  O   UNL     1     373.502 243.400 275.560  1.00  0.00    -0.508 OA
ATOM     13  H   UNL     1     373.639 243.870 274.674  1.00  0.00     0.293 HD
ENDBRANCH   4  12
TORSDOF 2
ENDMDL
MODEL 4
REMARK VINA RESULT:    -4.773      4.487      5.910
REMARK INTER + INTRA:          -5.052
REMARK INTER:                  -5.052
REMARK INTRA:                   0.000
REMARK UNBOUND:                 0.000
REMARK SMILES Cc1cc(O)c(C)c(C)c1O
REMARK SMILES IDX 1 1 2 2 3 3 4 4 6 5 8 6 10 7 9 8 7 9 11 10 5 12
REMARK H PARENT 11 11 5 13
REMARK Flexibility Score: inf
ROOT
ATOM      1  C   UNL     1     366.091 245.470 276.038  1.00  0.00     0.048 C 
ATOM      2  C   UNL     1     367.032 244.468 276.646  1.00  0.00    -0.005 A 
ATOM      3  C   UNL     1     366.738 243.103 276.580  1.00  0.00     0.053 A 
ATOM      4  C   UNL     1     367.577 242.158 277.168  1.00  0.00     0.119 A 
ATOM      5  C   UNL     1     368.739 242.575 277.860  1.00  0.00    -0.003 A 
ATOM      6  C   UNL     1     369.113 243.948 277.824  1.00  0.00    -0.002 A 
ATOM      7  C   UNL     1     368.213 244.898 277.276  1.00  0.00     0.121 A 
ATOM      8  C   UNL     1     370.444 244.409 278.374  1.00  0.00     0.049 C 
ATOM      9  C   UNL     1     369.573 241.557 278.607  1.00  0.00     0.049 C 
ENDROOT
BRANCH   7  10
ATOM     10  O   UNL     1     368.458 246.273 277.350  1.00  0.00    -0.507 OA
ATOM     11  H   UNL     1     368.351 246.907 276.569  1.00  0.00     0.293 HD
ENDBRANCH   7  10
BRANCH   4  12
ATOM     12  O   UNL     1     367.227 240.812 277.033  1.00  0.00    -0.508 OA
ATOM     13  H   UNL     1     367.573 240.214 276.293  1.00  0.00     0.293 HD
ENDBRANCH   4  12
TORSDOF 2
ENDMDL
MODEL 5
REMARK VINA RESULT:    -4.767      1.240      3.150
REMARK INTER + INTRA:          -5.046
REMARK INTER:                  -5.046
REMARK INTRA:                   0.000
REMARK UNBOUND:                 0.000
REMARK SMILES Cc1cc(O)c(C)c(C)c1O
REMARK SMILES IDX 1 1 2 2 3 3 4 4 6 5 8 6 10 7 9 8 7 9 11 10 5 12
REMARK H PARENT 11 11 5 13
REMARK Flexibility Score: inf
ROOT
ATOM      1  C   UNL     1     368.941 243.198 275.915  1.00  0.00     0.048 C 
ATOM      2  C   UNL     1     370.378 242.755 275.957  1.00  0.00    -0.005 A 
ATOM      3  C   UNL     1     370.750 241.537 275.382  1.00  0.00     0.053 A 
ATOM      4  C   UNL     1     372.069 241.089 275.440  1.00  0.00     0.119 A 
ATOM      5  C   UNL     1     373.051 241.863 276.103  1.00  0.00    -0.003 A 
ATOM      6  C   UNL     1     372.708 243.159 276.580  1.00  0.00    -0.002 A 
ATOM      7  C   UNL     1     371.349 243.566 276.566  1.00  0.00     0.121 A 
ATOM      8  C   UNL     1     373.766 244.100 277.112  1.00  0.00     0.049 C 
ATOM      9  C   UNL     1     374.449 241.310 276.277  1.00  0.00     0.049 C 
ENDROOT
BRANCH   7  10
ATOM     10  O   UNL     1     370.933 244.764 277.159  1.00  0.00    -0.507 OA
ATOM     11  H   UNL     1     371.402 245.195 277.944  1.00  0.00     0.293 HD
ENDBRANCH   7  10
BRANCH   4  12
ATOM     12  O   UNL     1     372.366 239.875 274.817  1.00  0.00    -0.508 OA
ATOM     13  H   UNL     1     373.165 239.301 275.057  1.00  0.00     0.293 HD
ENDBRANCH   4  12
TORSDOF 2
ENDMDL
MODEL 6
REMARK VINA RESULT:    -4.737      2.575      4.089
REMARK INTER + INTRA:          -5.014
REMARK INTER:                  -5.014
REMARK INTRA:                   0.000
REMARK UNBOUND:                 0.000
REMARK SMILES Cc1cc(O)c(C)c(C)c1O
REMARK SMILES IDX 1 1 2 2 3 3 4 4 6 5 8 6 10 7 9 8 7 9 11 10 5 12
REMARK H PARENT 11 11 5 13
REMARK Flexibility Score: inf
ROOT
ATOM      1  C   UNL     1     372.768 241.462 275.644  1.00  0.00     0.048 C 
ATOM      2  C   UNL     1     371.375 241.838 276.068  1.00  0.00    -0.005 A 
ATOM      3  C   UNL     1     370.329 240.924 275.920  1.00  0.00     0.053 A 
ATOM      4  C   UNL     1     369.024 241.263 276.272  1.00  0.00     0.119 A 
ATOM      5  C   UNL     1     368.738 242.555 276.774  1.00  0.00    -0.003 A 
ATOM      6  C   UNL     1     369.813 243.447 277.046  1.00  0.00    -0.002 A 
ATOM      7  C   UNL     1     371.123 243.105 276.621  1.00  0.00     0.121 A 
ATOM      8  C   UNL     1     369.578 244.756 277.767  1.00  0.00     0.049 C 
ATOM      9  C   UNL     1     367.302 242.959 277.029  1.00  0.00     0.049 C 
ENDROOT
BRANCH   7  10
ATOM     10  O   UNL     1     372.189 244.005 276.725  1.00  0.00    -0.507 OA
ATOM     11  H   UNL     1     372.074 245.006 276.813  1.00  0.00     0.293 HD
ENDBRANCH   7  10
BRANCH   4  12
ATOM     12  O   UNL     1     368.039 240.283 276.120  1.00  0.00    -0.508 OA
ATOM     13  H   UNL     1     368.108 239.353 276.514  1.00  0.00     0.293 HD
ENDBRANCH   4  12
TORSDOF 2
ENDMDL
MODEL 7
REMARK VINA RESULT:    -4.692      1.798      2.184
REMARK INTER + INTRA:          -4.966
REMARK INTER:                  -4.966
REMARK INTRA:                   0.000
REMARK UNBOUND:                 0.000
REMARK SMILES Cc1cc(O)c(C)c(C)c1O
REMARK SMILES IDX 1 1 2 2 3 3 4 4 6 5 8 6 10 7 9 8 7 9 11 10 5 12
REMARK H PARENT 11 11 5 13
REMARK Flexibility Score: inf
ROOT
ATOM      1  C   UNL     1     373.174 244.473 276.084  1.00  0.00     0.048 C 
ATOM      2  C   UNL     1     372.274 243.272 276.180  1.00  0.00    -0.005 A 
ATOM      3  C   UNL     1     372.570 242.118 275.450  1.00  0.00     0.053 A 
ATOM      4  C   UNL     1     371.731 241.005 275.496  1.00  0.00     0.119 A 
ATOM      5  C   UNL     1     370.552 241.038 276.277  1.00  0.00    -0.003 A 
ATOM      6  C   UNL     1     370.309 242.159 277.120  1.00  0.00    -0.002 A 
ATOM      7  C   UNL     1     371.140 243.303 277.009  1.00  0.00     0.121 A 
ATOM      8  C   UNL     1     369.173 242.153 278.118  1.00  0.00     0.049 C 
ATOM      9  C   UNL     1     369.581 239.879 276.218  1.00  0.00     0.049 C 
ENDROOT
BRANCH   7  10
ATOM     10  O   UNL     1     370.860 244.487 277.700  1.00  0.00    -0.507 OA
ATOM     11  H   UNL     1     370.737 244.538 278.703  1.00  0.00     0.293 HD
ENDBRANCH   7  10
BRANCH   4  12
ATOM     12  O   UNL     1     372.112 239.881 274.759  1.00  0.00    -0.508 OA
ATOM     13  H   UNL     1     372.778 239.908 273.997  1.00  0.00     0.293 HD
ENDBRANCH   4  12
TORSDOF 2
ENDMDL
MODEL 8
REMARK VINA RESULT:    -4.666      2.071      3.896
REMARK INTER + INTRA:          -4.938
REMARK INTER:                  -4.938
REMARK INTRA:                   0.000
REMARK UNBOUND:                 0.000
REMARK SMILES Cc1cc(O)c(C)c(C)c1O
REMARK SMILES IDX 1 1 2 2 3 3 4 4 6 5 8 6 10 7 9 8 7 9 11 10 5 12
REMARK H PARENT 11 11 5 13
REMARK Flexibility Score: inf
ROOT
ATOM      1  C   UNL     1     372.381 239.933 274.652  1.00  0.00     0.048 C 
ATOM      2  C   UNL     1     371.859 241.114 275.423  1.00  0.00    -0.005 A 
ATOM      3  C   UNL     1     372.634 242.270 275.538  1.00  0.00     0.053 A 
ATOM      4  C   UNL     1     372.187 243.364 276.278  1.00  0.00     0.119 A 
ATOM      5  C   UNL     1     370.937 243.308 276.939  1.00  0.00    -0.003 A 
ATOM      6  C   UNL     1     370.087 242.187 276.724  1.00  0.00    -0.002 A 
ATOM      7  C   UNL     1     370.589 241.061 276.022  1.00  0.00     0.121 A 
ATOM      8  C   UNL     1     368.667 242.173 277.244  1.00  0.00     0.049 C 
ATOM      9  C   UNL     1     370.518 244.445 277.846  1.00  0.00     0.049 C 
ENDROOT
BRANCH   7  10
ATOM     10  O   UNL     1     369.855 239.875 275.911  1.00  0.00    -0.507 OA
ATOM     11  H   UNL     1     370.059 239.037 276.439  1.00  0.00     0.293 HD
ENDBRANCH   7  10
BRANCH   4  12
ATOM     12  O   UNL     1     373.008 244.493 276.321  1.00  0.00    -0.508 OA
ATOM     13  H   UNL     1     373.463 244.825 277.162  1.00  0.00     0.293 HD
ENDBRANCH   4  12
TORSDOF 2
ENDMDL
MODEL 9
REMARK VINA RESULT:    -4.594      2.425      4.416
REMARK INTER + INTRA:          -4.863
REMARK INTER:                  -4.863
REMARK INTRA:                   0.000
REMARK UNBOUND:                 0.000
REMARK SMILES Cc1cc(O)c(C)c(C)c1O
REMARK SMILES IDX 1 1 2 2 3 3 4 4 6 5 8 6 10 7 9 8 7 9 11 10 5 12
REMARK H PARENT 11 11 5 13
REMARK Flexibility Score: inf
ROOT
ATOM      1  C   UNL     1     372.744 243.947 276.488  1.00  0.00     0.048 C 
ATOM      2  C   UNL     1     371.331 243.462 276.656  1.00  0.00    -0.005 A 
ATOM      3  C   UNL     1     370.315 244.368 276.971  1.00  0.00     0.053 A 
ATOM      4  C   UNL     1     369.004 243.936 277.168  1.00  0.00     0.119 A 
ATOM      5  C   UNL     1     368.688 242.560 277.066  1.00  0.00    -0.003 A 
ATOM      6  C   UNL     1     369.688 241.650 276.623  1.00  0.00    -0.002 A 
ATOM      7  C   UNL     1     371.026 242.100 276.491  1.00  0.00     0.121 A 
ATOM      8  C   UNL     1     369.348 240.211 276.307  1.00  0.00     0.049 C 
ATOM      9  C   UNL     1     367.293 242.085 277.409  1.00  0.00     0.049 C 
ENDROOT
BRANCH   7  10
ATOM     10  O   UNL     1     372.076 241.218 276.208  1.00  0.00    -0.507 OA
ATOM     11  H   UNL     1     372.889 241.104 276.798  1.00  0.00     0.293 HD
ENDBRANCH   7  10
BRANCH   4  12
ATOM     12  O   UNL     1     368.041 244.908 277.451  1.00  0.00    -0.508 OA
ATOM     13  H   UNL     1     368.142 245.602 278.180  1.00  0.00     0.293 HD
ENDBRANCH   4  12
TORSDOF 2
ENDMDL
