MODEL 1
REMARK VINA RESULT:    -4.409      0.000      0.000
REMARK INTER + INTRA:         -17.053
REMARK INTER:                 -11.627
REMARK INTRA:                  -5.426
REMARK UNBOUND:                -5.426
REMARK SMILES CCCCCCCCCCCCCCCCCCCCCCCCCCCCCC(=O)[O-]
REMARK SMILES IDX 16 1 17 2 18 3 19 4 20 5 21 6 22 7 23 8 24 9 25 10 26 11
REMARK SMILES IDX 27 12 28 13 29 14 30 15 31 16 32 17 15 18 14 19 13 20 12 21
REMARK SMILES IDX 11 22 10 23 9 24 8 25 7 26 6 27 5 28 4 29 3 30 2 31 1 32
REMARK H PARENT
REMARK Flexibility Score: inf
ROOT
ATOM      1  C   UNL     1      15.390   3.292   0.747  1.00  0.00     0.000 C 
ENDROOT
BRANCH   1   2
ATOM      2  C   UNL     1      14.482   4.381   1.343  1.00  0.00     0.000 C 
BRANCH   2   3
ATOM      3  C   UNL     1      13.058   4.343   0.765  1.00  0.00     0.000 C 
BRANCH   3   4
ATOM      4  C   UNL     1      12.010   4.975   1.695  1.00  0.00     0.000 C 
BRANCH   4   5
ATOM      5  C   UNL     1      11.915   4.233   3.046  1.00  0.00     0.000 C 
BRANCH   5   6
ATOM      6  C   UNL     1      10.997   2.999   3.015  1.00  0.00     0.000 C 
BRANCH   6   7
ATOM      7  C   UNL     1      11.497   1.836   2.134  1.00  0.00     0.000 C 
BRANCH   7   8
ATOM      8  C   UNL     1      11.015   0.438   2.571  1.00  0.00     0.000 C 
BRANCH   8   9
ATOM      9  C   UNL     1      11.713  -0.720   1.815  1.00  0.00     0.000 C 
BRANCH   9  10
ATOM     10  C   UNL     1      13.023  -0.294   1.125  1.00  0.00     0.000 C 
BRANCH  10  11
ATOM     11  C   UNL     1      14.270  -1.030   1.662  1.00  0.00     0.000 C 
BRANCH  11  12
ATOM     12  C   UNL     1      15.363  -0.090   2.205  1.00  0.00     0.000 C 
BRANCH  12  13
ATOM     13  C   UNL     1      14.960   0.611   3.507  1.00  0.00     0.006 C 
BRANCH  13  14
ATOM     14  C   UNL     1      15.895   1.785   3.818  1.00  0.00     0.053 C 
BRANCH  14  15
ATOM     15  C   UNL     1      16.718   1.493   5.032  1.00  0.00     0.041 C 
ATOM     16  O   UNL     1      16.932   0.301   5.384  1.00  0.00    -0.550 OA
ATOM     17  O   UNL     1      17.286   2.532   5.755  1.00  0.00    -0.550 OA
ENDBRANCH  14  15
ENDBRANCH  13  14
ENDBRANCH  12  13
ENDBRANCH  11  12
ENDBRANCH  10  11
ENDBRANCH   9  10
ENDBRANCH   8   9
ENDBRANCH   7   8
ENDBRANCH   6   7
ENDBRANCH   5   6
ENDBRANCH   4   5
ENDBRANCH   3   4
ENDBRANCH   2   3
ENDBRANCH   1   2
BRANCH   1  18
ATOM     18  C   UNL     1      16.142   3.809  -0.486  1.00  0.00     0.000 C 
BRANCH  18  19
ATOM     19  C   UNL     1      15.929   2.874  -1.685  1.00  0.00     0.000 C 
BRANCH  19  20
ATOM     20  C   UNL     1      15.642   1.438  -1.227  1.00  0.00     0.000 C 
BRANCH  20  21
ATOM     21  C   UNL     1      14.536   0.801  -2.082  1.00  0.00     0.000 C 
BRANCH  21  22
ATOM     22  C   UNL     1      13.264   1.664  -2.147  1.00  0.00     0.000 C 
BRANCH  22  23
ATOM     23  C   UNL     1      11.979   0.831  -1.981  1.00  0.00     0.000 C 
BRANCH  23  24
ATOM     24  C   UNL     1      10.796   1.669  -1.465  1.00  0.00    -0.000 C 
BRANCH  24  25
ATOM     25  C   UNL     1       9.605   0.798  -1.025  1.00  0.00    -0.000 C 
BRANCH  25  26
ATOM     26  C   UNL     1       8.325   1.626  -0.778  1.00  0.00    -0.000 C 
BRANCH  26  27
ATOM     27  C   UNL     1       8.244   2.225   0.639  1.00  0.00    -0.000 C 
BRANCH  27  28
ATOM     28  C   UNL     1       8.297   3.762   0.696  1.00  0.00    -0.000 C 
BRANCH  28  29
ATOM     29  C   UNL     1       8.374   4.462  -0.677  1.00  0.00    -0.000 C 
BRANCH  29  30
ATOM     30  C   UNL     1       9.722   5.140  -0.990  1.00  0.00    -0.000 C 
BRANCH  30  31
ATOM     31  C   UNL     1       9.757   5.790  -2.381  1.00  0.00    -0.003 C 
ATOM     32  C   UNL     1       9.014   7.124  -2.384  1.00  0.00     0.004 C 
ENDBRANCH  30  31
ENDBRANCH  29  30
ENDBRANCH  28  29
ENDBRANCH  27  28
ENDBRANCH  26  27
ENDBRANCH  25  26
ENDBRANCH  24  25
ENDBRANCH  23  24
ENDBRANCH  22  23
ENDBRANCH  21  22
ENDBRANCH  20  21
ENDBRANCH  19  20
ENDBRANCH  18  19
ENDBRANCH   1  18
TORSDOF 28
ENDMDL
MODEL 2
REMARK VINA RESULT:    -4.378      3.213      6.321
REMARK INTER + INTRA:         -16.970
REMARK INTER:                 -11.515
REMARK INTRA:                  -5.455
REMARK UNBOUND:                -5.426
REMARK SMILES CCCCCCCCCCCCCCCCCCCCCCCCCCCCCC(=O)[O-]
REMARK SMILES IDX 16 1 17 2 18 3 19 4 20 5 21 6 22 7 23 8 24 9 25 10 26 11
REMARK SMILES IDX 27 12 28 13 29 14 30 15 31 16 32 17 15 18 14 19 13 20 12 21
REMARK SMILES IDX 11 22 10 23 9 24 8 25 7 26 6 27 5 28 4 29 3 30 2 31 1 32
REMARK H PARENT
REMARK Flexibility Score: inf
ROOT
ATOM      1  C   UNL     1      15.393   4.085   1.062  1.00  0.00     0.000 C 
ENDROOT
BRANCH   1   2
ATOM      2  C   UNL     1      14.125   4.944   1.196  1.00  0.00     0.000 C 
BRANCH   2   3
ATOM      3  C   UNL     1      12.880   4.107   1.534  1.00  0.00     0.000 C 
BRANCH   3   4
ATOM      4  C   UNL     1      12.181   4.557   2.827  1.00  0.00     0.000 C 
BRANCH   4   5
ATOM      5  C   UNL     1      10.913   3.724   3.117  1.00  0.00     0.000 C 
BRANCH   5   6
ATOM      6  C   UNL     1      10.882   2.365   2.397  1.00  0.00     0.000 C 
BRANCH   6   7
ATOM      7  C   UNL     1      10.159   1.237   3.162  1.00  0.00     0.000 C 
BRANCH   7   8
ATOM      8  C   UNL     1       9.510   0.161   2.268  1.00  0.00     0.000 C 
BRANCH   8   9
ATOM      9  C   UNL     1       8.262   0.666   1.502  1.00  0.00     0.000 C 
BRANCH   9  10
ATOM     10  C   UNL     1       8.490   0.791  -0.017  1.00  0.00     0.000 C 
BRANCH  10  11
ATOM     11  C   UNL     1       8.248   2.217  -0.560  1.00  0.00     0.000 C 
BRANCH  11  12
ATOM     12  C   UNL     1       9.538   2.961  -0.953  1.00  0.00     0.000 C 
BRANCH  12  13
ATOM     13  C   UNL     1       9.575   4.408  -0.447  1.00  0.00     0.006 C 
BRANCH  13  14
ATOM     14  C   UNL     1       8.540   5.276  -1.171  1.00  0.00     0.053 C 
BRANCH  14  15
ATOM     15  C   UNL     1       9.204   6.141  -2.194  1.00  0.00     0.041 C 
ATOM     16  O   UNL     1       8.606   7.149  -2.660  1.00  0.00    -0.550 OA
ATOM     17  O   UNL     1      10.500   5.863  -2.605  1.00  0.00    -0.550 OA
ENDBRANCH  14  15
ENDBRANCH  13  14
ENDBRANCH  12  13
ENDBRANCH  11  12
ENDBRANCH  10  11
ENDBRANCH   9  10
ENDBRANCH   8   9
ENDBRANCH   7   8
ENDBRANCH   6   7
ENDBRANCH   5   6
ENDBRANCH   4   5
ENDBRANCH   3   4
ENDBRANCH   2   3
ENDBRANCH   1   2
BRANCH   1  18
ATOM     18  C   UNL     1      15.684   3.748  -0.406  1.00  0.00     0.000 C 
BRANCH  18  19
ATOM     19  C   UNL     1      16.594   2.515  -0.511  1.00  0.00     0.000 C 
BRANCH  19  20
ATOM     20  C   UNL     1      16.685   2.013  -1.958  1.00  0.00     0.000 C 
BRANCH  20  21
ATOM     21  C   UNL     1      16.570   0.482  -2.014  1.00  0.00     0.000 C 
BRANCH  21  22
ATOM     22  C   UNL     1      15.418   0.006  -2.916  1.00  0.00     0.000 C 
BRANCH  22  23
ATOM     23  C   UNL     1      14.116  -0.238  -2.129  1.00  0.00     0.000 C 
BRANCH  23  24
ATOM     24  C   UNL     1      13.273   1.039  -1.976  1.00  0.00    -0.000 C 
BRANCH  24  25
ATOM     25  C   UNL     1      12.698   1.198  -0.556  1.00  0.00    -0.000 C 
BRANCH  25  26
ATOM     26  C   UNL     1      12.380  -0.159   0.109  1.00  0.00    -0.000 C 
BRANCH  26  27
ATOM     27  C   UNL     1      13.203  -0.427   1.384  1.00  0.00    -0.000 C 
BRANCH  27  28
ATOM     28  C   UNL     1      14.350   0.568   1.635  1.00  0.00    -0.000 C 
BRANCH  28  29
ATOM     29  C   UNL     1      14.463   1.078   3.088  1.00  0.00    -0.000 C 
BRANCH  29  30
ATOM     30  C   UNL     1      15.812   1.730   3.447  1.00  0.00    -0.000 C 
BRANCH  30  31
ATOM     31  C   UNL     1      16.315   1.334   4.843  1.00  0.00    -0.003 C 
ATOM     32  C   UNL     1      17.318   2.353   5.377  1.00  0.00     0.004 C 
ENDBRANCH  30  31
ENDBRANCH  29  30
ENDBRANCH  28  29
ENDBRANCH  27  28
ENDBRANCH  26  27
ENDBRANCH  25  26
ENDBRANCH  24  25
ENDBRANCH  23  24
ENDBRANCH  22  23
ENDBRANCH  21  22
ENDBRANCH  20  21
ENDBRANCH  19  20
ENDBRANCH  18  19
ENDBRANCH   1  18
TORSDOF 28
ENDMDL
MODEL 3
REMARK VINA RESULT:    -4.370      1.045      3.081
REMARK INTER + INTRA:         -16.948
REMARK INTER:                 -10.851
REMARK INTRA:                  -6.097
REMARK UNBOUND:                -5.426
REMARK SMILES CCCCCCCCCCCCCCCCCCCCCCCCCCCCCC(=O)[O-]
REMARK SMILES IDX 16 1 17 2 18 3 19 4 20 5 21 6 22 7 23 8 24 9 25 10 26 11
REMARK SMILES IDX 27 12 28 13 29 14 30 15 31 16 32 17 15 18 14 19 13 20 12 21
REMARK SMILES IDX 11 22 10 23 9 24 8 25 7 26 6 27 5 28 4 29 3 30 2 31 1 32
REMARK H PARENT
REMARK Flexibility Score: inf
ROOT
ATOM      1  C   UNL     1      16.117   0.473  -0.054  1.00  0.00     0.000 C 
ENDROOT
BRANCH   1   2
ATOM      2  C   UNL     1      15.624  -0.942   0.290  1.00  0.00     0.000 C 
BRANCH   2   3
ATOM      3  C   UNL     1      14.200  -0.946   0.868  1.00  0.00     0.000 C 
BRANCH   3   4
ATOM      4  C   UNL     1      14.170  -1.018   2.403  1.00  0.00     0.000 C 
BRANCH   4   5
ATOM      5  C   UNL     1      12.902  -0.358   2.988  1.00  0.00     0.000 C 
BRANCH   5   6
ATOM      6  C   UNL     1      11.888   0.096   1.923  1.00  0.00     0.000 C 
BRANCH   6   7
ATOM      7  C   UNL     1      10.774   1.029   2.438  1.00  0.00     0.000 C 
BRANCH   7   8
ATOM      8  C   UNL     1      11.171   2.515   2.546  1.00  0.00     0.000 C 
BRANCH   8   9
ATOM      9  C   UNL     1      12.090   2.994   1.394  1.00  0.00     0.000 C 
BRANCH   9  10
ATOM     10  C   UNL     1      12.830   4.307   1.712  1.00  0.00     0.000 C 
BRANCH  10  11
ATOM     11  C   UNL     1      14.365   4.151   1.768  1.00  0.00     0.000 C 
BRANCH  11  12
ATOM     12  C   UNL     1      14.835   2.713   2.059  1.00  0.00     0.000 C 
BRANCH  12  13
ATOM     13  C   UNL     1      15.974   2.648   3.083  1.00  0.00     0.006 C 
BRANCH  13  14
ATOM     14  C   UNL     1      15.585   1.790   4.292  1.00  0.00     0.053 C 
BRANCH  14  15
ATOM     15  C   UNL     1      16.805   1.341   5.031  1.00  0.00     0.041 C 
ATOM     16  O   UNL     1      17.660   2.183   5.418  1.00  0.00    -0.550 OA
ATOM     17  O   UNL     1      16.982  -0.002   5.331  1.00  0.00    -0.550 OA
ENDBRANCH  14  15
ENDBRANCH  13  14
ENDBRANCH  12  13
ENDBRANCH  11  12
ENDBRANCH  10  11
ENDBRANCH   9  10
ENDBRANCH   8   9
ENDBRANCH   7   8
ENDBRANCH   6   7
ENDBRANCH   5   6
ENDBRANCH   4   5
ENDBRANCH   3   4
ENDBRANCH   2   3
ENDBRANCH   1   2
BRANCH   1  18
ATOM     18  C   UNL     1      17.063   0.455  -1.261  1.00  0.00     0.000 C 
BRANCH  18  19
ATOM     19  C   UNL     1      17.087   1.824  -1.956  1.00  0.00     0.000 C 
BRANCH  19  20
ATOM     20  C   UNL     1      16.341   2.880  -1.130  1.00  0.00     0.000 C 
BRANCH  20  21
ATOM     21  C   UNL     1      15.314   3.627  -1.994  1.00  0.00     0.000 C 
BRANCH  21  22
ATOM     22  C   UNL     1      13.873   3.147  -1.752  1.00  0.00     0.000 C 
BRANCH  22  23
ATOM     23  C   UNL     1      13.505   1.929  -2.621  1.00  0.00     0.000 C 
BRANCH  23  24
ATOM     24  C   UNL     1      12.933   0.765  -1.792  1.00  0.00    -0.000 C 
BRANCH  24  25
ATOM     25  C   UNL     1      11.438   0.523  -2.072  1.00  0.00    -0.000 C 
BRANCH  25  26
ATOM     26  C   UNL     1      10.531   1.579  -1.403  1.00  0.00    -0.000 C 
BRANCH  26  27
ATOM     27  C   UNL     1       9.213   1.000  -0.855  1.00  0.00    -0.000 C 
BRANCH  27  28
ATOM     28  C   UNL     1       8.281   2.029  -0.189  1.00  0.00    -0.000 C 
BRANCH  28  29
ATOM     29  C   UNL     1       8.343   3.449  -0.791  1.00  0.00    -0.000 C 
BRANCH  29  30
ATOM     30  C   UNL     1       8.888   4.536   0.154  1.00  0.00    -0.000 C 
BRANCH  30  31
ATOM     31  C   UNL     1      10.066   5.316  -0.447  1.00  0.00    -0.003 C 
ATOM     32  C   UNL     1       9.946   5.409  -1.966  1.00  0.00     0.004 C 
ENDBRANCH  30  31
ENDBRANCH  29  30
ENDBRANCH  28  29
ENDBRANCH  27  28
ENDBRANCH  26  27
ENDBRANCH  25  26
ENDBRANCH  24  25
ENDBRANCH  23  24
ENDBRANCH  22  23
ENDBRANCH  21  22
ENDBRANCH  20  21
ENDBRANCH  19  20
ENDBRANCH  18  19
ENDBRANCH   1  18
TORSDOF 28
ENDMDL
MODEL 4
REMARK VINA RESULT:    -4.250      2.188      4.624
REMARK INTER + INTRA:         -16.631
REMARK INTER:                 -10.765
REMARK INTRA:                  -5.866
REMARK UNBOUND:                -5.426
REMARK SMILES CCCCCCCCCCCCCCCCCCCCCCCCCCCCCC(=O)[O-]
REMARK SMILES IDX 16 1 17 2 18 3 19 4 20 5 21 6 22 7 23 8 24 9 25 10 26 11
REMARK SMILES IDX 27 12 28 13 29 14 30 15 31 16 32 17 15 18 14 19 13 20 12 21
REMARK SMILES IDX 11 22 10 23 9 24 8 25 7 26 6 27 5 28 4 29 3 30 2 31 1 32
REMARK H PARENT
REMARK Flexibility Score: inf
ROOT
ATOM      1  C   UNL     1      15.757   2.436   2.188  1.00  0.00     0.000 C 
ENDROOT
BRANCH   1   2
ATOM      2  C   UNL     1      15.154   3.632   1.432  1.00  0.00     0.000 C 
BRANCH   2   3
ATOM      3  C   UNL     1      15.755   3.804   0.028  1.00  0.00     0.000 C 
BRANCH   3   4
ATOM      4  C   UNL     1      16.552   2.576  -0.444  1.00  0.00     0.000 C 
BRANCH   4   5
ATOM      5  C   UNL     1      16.262   2.233  -1.922  1.00  0.00     0.000 C 
BRANCH   5   6
ATOM      6  C   UNL     1      16.769   0.845  -2.349  1.00  0.00     0.000 C 
BRANCH   6   7
ATOM      7  C   UNL     1      15.666  -0.163  -2.733  1.00  0.00     0.000 C 
BRANCH   7   8
ATOM      8  C   UNL     1      15.080  -0.963  -1.553  1.00  0.00     0.000 C 
BRANCH   8   9
ATOM      9  C   UNL     1      13.564  -0.728  -1.340  1.00  0.00     0.000 C 
BRANCH   9  10
ATOM     10  C   UNL     1      13.245   0.626  -0.678  1.00  0.00     0.000 C 
BRANCH  10  11
ATOM     11  C   UNL     1      12.488   1.602  -1.606  1.00  0.00     0.000 C 
BRANCH  11  12
ATOM     12  C   UNL     1      12.238   2.987  -0.981  1.00  0.00     0.000 C 
BRANCH  12  13
ATOM     13  C   UNL     1      11.791   2.914   0.484  1.00  0.00     0.006 C 
BRANCH  13  14
ATOM     14  C   UNL     1      11.818   4.299   1.142  1.00  0.00     0.053 C 
BRANCH  14  15
ATOM     15  C   UNL     1      11.307   4.222   2.546  1.00  0.00     0.041 C 
ATOM     16  O   UNL     1      11.233   5.262   3.253  1.00  0.00    -0.550 OA
ATOM     17  O   UNL     1      10.873   3.010   3.063  1.00  0.00    -0.550 OA
ENDBRANCH  14  15
ENDBRANCH  13  14
ENDBRANCH  12  13
ENDBRANCH  11  12
ENDBRANCH  10  11
ENDBRANCH   9  10
ENDBRANCH   8   9
ENDBRANCH   7   8
ENDBRANCH   6   7
ENDBRANCH   5   6
ENDBRANCH   4   5
ENDBRANCH   3   4
ENDBRANCH   2   3
ENDBRANCH   1   2
BRANCH   1  18
ATOM     18  C   UNL     1      14.667   1.457   2.641  1.00  0.00     0.000 C 
BRANCH  18  19
ATOM     19  C   UNL     1      15.137   0.004   2.477  1.00  0.00     0.000 C 
BRANCH  19  20
ATOM     20  C   UNL     1      13.970  -0.980   2.628  1.00  0.00     0.000 C 
BRANCH  20  21
ATOM     21  C   UNL     1      12.638  -0.231   2.784  1.00  0.00     0.000 C 
BRANCH  21  22
ATOM     22  C   UNL     1      11.435  -1.046   2.277  1.00  0.00     0.000 C 
BRANCH  22  23
ATOM     23  C   UNL     1      10.304  -0.151   1.735  1.00  0.00     0.000 C 
BRANCH  23  24
ATOM     24  C   UNL     1       9.818  -0.594   0.344  1.00  0.00    -0.000 C 
BRANCH  24  25
ATOM     25  C   UNL     1       8.475   0.053  -0.044  1.00  0.00    -0.000 C 
BRANCH  25  26
ATOM     26  C   UNL     1       8.392   1.538   0.370  1.00  0.00    -0.000 C 
BRANCH  26  27
ATOM     27  C   UNL     1       8.366   2.509  -0.827  1.00  0.00    -0.000 C 
BRANCH  27  28
ATOM     28  C   UNL     1       8.372   4.002  -0.450  1.00  0.00    -0.000 C 
BRANCH  28  29
ATOM     29  C   UNL     1       9.070   4.928  -1.468  1.00  0.00    -0.000 C 
BRANCH  29  30
ATOM     30  C   UNL     1       9.402   6.339  -0.947  1.00  0.00    -0.000 C 
BRANCH  30  31
ATOM     31  C   UNL     1       8.997   7.449  -1.927  1.00  0.00    -0.003 C 
ATOM     32  C   UNL     1       8.631   8.732  -1.185  1.00  0.00     0.004 C 
ENDBRANCH  30  31
ENDBRANCH  29  30
ENDBRANCH  28  29
ENDBRANCH  27  28
ENDBRANCH  26  27
ENDBRANCH  25  26
ENDBRANCH  24  25
ENDBRANCH  23  24
ENDBRANCH  22  23
ENDBRANCH  21  22
ENDBRANCH  20  21
ENDBRANCH  19  20
ENDBRANCH  18  19
ENDBRANCH   1  18
TORSDOF 28
ENDMDL
MODEL 5
REMARK VINA RESULT:    -4.134      2.269      5.045
REMARK INTER + INTRA:         -16.328
REMARK INTER:                 -10.378
REMARK INTRA:                  -5.950
REMARK UNBOUND:                -5.426
REMARK SMILES CCCCCCCCCCCCCCCCCCCCCCCCCCCCCC(=O)[O-]
REMARK SMILES IDX 16 1 17 2 18 3 19 4 20 5 21 6 22 7 23 8 24 9 25 10 26 11
REMARK SMILES IDX 27 12 28 13 29 14 30 15 31 16 32 17 15 18 14 19 13 20 12 21
REMARK SMILES IDX 11 22 10 23 9 24 8 25 7 26 6 27 5 28 4 29 3 30 2 31 1 32
REMARK H PARENT
REMARK Flexibility Score: inf
ROOT
ATOM      1  C   UNL     1      16.037   0.833   3.737  1.00  0.00     0.000 C 
ENDROOT
BRANCH   1   2
ATOM      2  C   UNL     1      15.707   2.226   3.176  1.00  0.00     0.000 C 
BRANCH   2   3
ATOM      3  C   UNL     1      15.797   2.279   1.642  1.00  0.00     0.000 C 
BRANCH   3   4
ATOM      4  C   UNL     1      15.519   3.678   1.067  1.00  0.00     0.000 C 
BRANCH   4   5
ATOM      5  C   UNL     1      14.311   3.677   0.106  1.00  0.00     0.000 C 
BRANCH   5   6
ATOM      6  C   UNL     1      14.698   3.583  -1.380  1.00  0.00     0.000 C 
BRANCH   6   7
ATOM      7  C   UNL     1      13.652   2.901  -2.285  1.00  0.00     0.000 C 
BRANCH   7   8
ATOM      8  C   UNL     1      12.650   1.990  -1.547  1.00  0.00     0.000 C 
BRANCH   8   9
ATOM      9  C   UNL     1      12.241   0.736  -2.359  1.00  0.00     0.000 C 
BRANCH   9  10
ATOM     10  C   UNL     1      12.194  -0.550  -1.512  1.00  0.00     0.000 C 
BRANCH  10  11
ATOM     11  C   UNL     1      13.571  -0.966  -0.949  1.00  0.00     0.000 C 
BRANCH  11  12
ATOM     12  C   UNL     1      14.742  -0.715  -1.917  1.00  0.00     0.000 C 
BRANCH  12  13
ATOM     13  C   UNL     1      15.858   0.137  -1.302  1.00  0.00     0.006 C 
BRANCH  13  14
ATOM     14  C   UNL     1      16.796   0.687  -2.383  1.00  0.00     0.053 C 
BRANCH  14  15
ATOM     15  C   UNL     1      17.994   1.330  -1.760  1.00  0.00     0.041 C 
ATOM     16  O   UNL     1      19.127   0.785  -1.848  1.00  0.00    -0.550 OA
ATOM     17  O   UNL     1      17.871   2.553  -1.116  1.00  0.00    -0.550 OA
ENDBRANCH  14  15
ENDBRANCH  13  14
ENDBRANCH  12  13
ENDBRANCH  11  12
ENDBRANCH  10  11
ENDBRANCH   9  10
ENDBRANCH   8   9
ENDBRANCH   7   8
ENDBRANCH   6   7
ENDBRANCH   5   6
ENDBRANCH   4   5
ENDBRANCH   3   4
ENDBRANCH   2   3
ENDBRANCH   1   2
BRANCH   1  18
ATOM     18  C   UNL     1      14.761   0.057   4.086  1.00  0.00     0.000 C 
BRANCH  18  19
ATOM     19  C   UNL     1      14.139  -0.562   2.826  1.00  0.00     0.000 C 
BRANCH  19  20
ATOM     20  C   UNL     1      12.640  -0.250   2.733  1.00  0.00     0.000 C 
BRANCH  20  21
ATOM     21  C   UNL     1      12.388   0.962   1.824  1.00  0.00     0.000 C 
BRANCH  21  22
ATOM     22  C   UNL     1      11.424   1.985   2.451  1.00  0.00     0.000 C 
BRANCH  22  23
ATOM     23  C   UNL     1      12.130   3.297   2.841  1.00  0.00     0.000 C 
BRANCH  23  24
ATOM     24  C   UNL     1      11.213   4.524   2.700  1.00  0.00    -0.000 C 
BRANCH  24  25
ATOM     25  C   UNL     1      11.456   5.294   1.388  1.00  0.00    -0.000 C 
BRANCH  25  26
ATOM     26  C   UNL     1      10.668   4.700   0.199  1.00  0.00    -0.000 C 
BRANCH  26  27
ATOM     27  C   UNL     1       9.224   4.300   0.557  1.00  0.00    -0.000 C 
BRANCH  27  28
ATOM     28  C   UNL     1       8.553   3.337  -0.439  1.00  0.00    -0.000 C 
BRANCH  28  29
ATOM     29  C   UNL     1       9.164   1.921  -0.488  1.00  0.00    -0.000 C 
BRANCH  29  30
ATOM     30  C   UNL     1       8.205   0.811  -0.957  1.00  0.00    -0.000 C 
BRANCH  30  31
ATOM     31  C   UNL     1       7.962  -0.262   0.115  1.00  0.00    -0.003 C 
ATOM     32  C   UNL     1       9.277  -0.735   0.729  1.00  0.00     0.004 C 
ENDBRANCH  30  31
ENDBRANCH  29  30
ENDBRANCH  28  29
ENDBRANCH  27  28
ENDBRANCH  26  27
ENDBRANCH  25  26
ENDBRANCH  24  25
ENDBRANCH  23  24
ENDBRANCH  22  23
ENDBRANCH  21  22
ENDBRANCH  20  21
ENDBRANCH  19  20
ENDBRANCH  18  19
ENDBRANCH   1  18
TORSDOF 28
ENDMDL
MODEL 6
REMARK VINA RESULT:    -4.049      7.544     11.929
REMARK INTER + INTRA:         -16.102
REMARK INTER:                 -14.199
REMARK INTRA:                  -1.903
REMARK UNBOUND:                -5.426
REMARK SMILES CCCCCCCCCCCCCCCCCCCCCCCCCCCCCC(=O)[O-]
REMARK SMILES IDX 16 1 17 2 18 3 19 4 20 5 21 6 22 7 23 8 24 9 25 10 26 11
REMARK SMILES IDX 27 12 28 13 29 14 30 15 31 16 32 17 15 18 14 19 13 20 12 21
REMARK SMILES IDX 11 22 10 23 9 24 8 25 7 26 6 27 5 28 4 29 3 30 2 31 1 32
REMARK H PARENT
REMARK Flexibility Score: inf
ROOT
ATOM      1  C   UNL     1       8.125   9.415  -2.438  1.00  0.00     0.000 C 
ENDROOT
BRANCH   1   2
ATOM      2  C   UNL     1       9.449  10.053  -1.987  1.00  0.00     0.000 C 
BRANCH   2   3
ATOM      3  C   UNL     1       9.541  11.542  -2.357  1.00  0.00     0.000 C 
BRANCH   3   4
ATOM      4  C   UNL     1      10.972  11.997  -2.687  1.00  0.00     0.000 C 
BRANCH   4   5
ATOM      5  C   UNL     1      10.989  13.162  -3.700  1.00  0.00     0.000 C 
BRANCH   5   6
ATOM      6  C   UNL     1      11.987  12.969  -4.855  1.00  0.00     0.000 C 
BRANCH   6   7
ATOM      7  C   UNL     1      12.344  14.253  -5.630  1.00  0.00     0.000 C 
BRANCH   7   8
ATOM      8  C   UNL     1      12.224  15.557  -4.816  1.00  0.00     0.000 C 
BRANCH   8   9
ATOM      9  C   UNL     1      13.448  16.494  -4.967  1.00  0.00     0.000 C 
BRANCH   9  10
ATOM     10  C   UNL     1      14.051  16.930  -3.618  1.00  0.00     0.000 C 
BRANCH  10  11
ATOM     11  C   UNL     1      14.385  18.436  -3.550  1.00  0.00     0.000 C 
BRANCH  11  12
ATOM     12  C   UNL     1      15.482  18.786  -2.527  1.00  0.00     0.000 C 
BRANCH  12  13
ATOM     13  C   UNL     1      15.809  17.627  -1.577  1.00  0.00     0.006 C 
BRANCH  13  14
ATOM     14  C   UNL     1      17.222  17.088  -1.826  1.00  0.00     0.053 C 
BRANCH  14  15
ATOM     15  C   UNL     1      17.730  16.370  -0.616  1.00  0.00     0.041 C 
ATOM     16  O   UNL     1      17.391  16.749   0.538  1.00  0.00    -0.550 OA
ATOM     17  O   UNL     1      18.544  15.256  -0.759  1.00  0.00    -0.550 OA
ENDBRANCH  14  15
ENDBRANCH  13  14
ENDBRANCH  12  13
ENDBRANCH  11  12
ENDBRANCH  10  11
ENDBRANCH   9  10
ENDBRANCH   8   9
ENDBRANCH   7   8
ENDBRANCH   6   7
ENDBRANCH   5   6
ENDBRANCH   4   5
ENDBRANCH   3   4
ENDBRANCH   2   3
ENDBRANCH   1   2
BRANCH   1  18
ATOM     18  C   UNL     1       8.343   7.986  -2.951  1.00  0.00     0.000 C 
BRANCH  18  19
ATOM     19  C   UNL     1       8.692   7.039  -1.794  1.00  0.00     0.000 C 
BRANCH  19  20
ATOM     20  C   UNL     1       9.525   5.846  -2.282  1.00  0.00     0.000 C 
BRANCH  20  21
ATOM     21  C   UNL     1       9.376   4.649  -1.331  1.00  0.00     0.000 C 
BRANCH  21  22
ATOM     22  C   UNL     1      10.552   4.524  -0.346  1.00  0.00     0.000 C 
BRANCH  22  23
ATOM     23  C   UNL     1      10.219   5.100   1.044  1.00  0.00     0.000 C 
BRANCH  23  24
ATOM     24  C   UNL     1      11.354   4.882   2.059  1.00  0.00    -0.000 C 
BRANCH  24  25
ATOM     25  C   UNL     1      12.693   4.536   1.380  1.00  0.00    -0.000 C 
BRANCH  25  26
ATOM     26  C   UNL     1      13.441   3.391   2.097  1.00  0.00    -0.000 C 
BRANCH  26  27
ATOM     27  C   UNL     1      14.900   3.223   1.630  1.00  0.00    -0.000 C 
BRANCH  27  28
ATOM     28  C   UNL     1      15.350   4.216   0.543  1.00  0.00    -0.000 C 
BRANCH  28  29
ATOM     29  C   UNL     1      16.378   3.657  -0.463  1.00  0.00    -0.000 C 
BRANCH  29  30
ATOM     30  C   UNL     1      15.773   2.951  -1.692  1.00  0.00    -0.000 C 
BRANCH  30  31
ATOM     31  C   UNL     1      14.361   3.450  -2.033  1.00  0.00    -0.003 C 
ATOM     32  C   UNL     1      13.308   2.400  -1.687  1.00  0.00     0.004 C 
ENDBRANCH  30  31
ENDBRANCH  29  30
ENDBRANCH  28  29
ENDBRANCH  27  28
ENDBRANCH  26  27
ENDBRANCH  25  26
ENDBRANCH  24  25
ENDBRANCH  23  24
ENDBRANCH  22  23
ENDBRANCH  21  22
ENDBRANCH  20  21
ENDBRANCH  19  20
ENDBRANCH  18  19
ENDBRANCH   1  18
TORSDOF 28
ENDMDL
MODEL 7
REMARK VINA RESULT:    -4.000      7.721     11.231
REMARK INTER + INTRA:         -15.973
REMARK INTER:                 -13.862
REMARK INTRA:                  -2.111
REMARK UNBOUND:                -5.426
REMARK SMILES CCCCCCCCCCCCCCCCCCCCCCCCCCCCCC(=O)[O-]
REMARK SMILES IDX 16 1 17 2 18 3 19 4 20 5 21 6 22 7 23 8 24 9 25 10 26 11
REMARK SMILES IDX 27 12 28 13 29 14 30 15 31 16 32 17 15 18 14 19 13 20 12 21
REMARK SMILES IDX 11 22 10 23 9 24 8 25 7 26 6 27 5 28 4 29 3 30 2 31 1 32
REMARK H PARENT
REMARK Flexibility Score: inf
ROOT
ATOM      1  C   UNL     1      10.112  11.630  -1.973  1.00  0.00     0.000 C 
ENDROOT
BRANCH   1   2
ATOM      2  C   UNL     1       8.888  11.179  -2.788  1.00  0.00     0.000 C 
BRANCH   2   3
ATOM      3  C   UNL     1       8.025  10.154  -2.035  1.00  0.00     0.000 C 
BRANCH   3   4
ATOM      4  C   UNL     1       8.831   8.958  -1.503  1.00  0.00     0.000 C 
BRANCH   4   5
ATOM      5  C   UNL     1       8.030   7.640  -1.582  1.00  0.00     0.000 C 
BRANCH   5   6
ATOM      6  C   UNL     1       8.628   6.605  -2.550  1.00  0.00     0.000 C 
BRANCH   6   7
ATOM      7  C   UNL     1       9.920   5.921  -2.059  1.00  0.00     0.000 C 
BRANCH   7   8
ATOM      8  C   UNL     1       9.704   4.598  -1.297  1.00  0.00     0.000 C 
BRANCH   8   9
ATOM      9  C   UNL     1       9.568   4.783   0.235  1.00  0.00     0.000 C 
BRANCH   9  10
ATOM     10  C   UNL     1      10.792   5.463   0.877  1.00  0.00     0.000 C 
BRANCH  10  11
ATOM     11  C   UNL     1      11.156   4.894   2.266  1.00  0.00     0.000 C 
BRANCH  11  12
ATOM     12  C   UNL     1      12.592   4.344   2.357  1.00  0.00     0.000 C 
BRANCH  12  13
ATOM     13  C   UNL     1      13.194   4.006   0.988  1.00  0.00     0.006 C 
BRANCH  13  14
ATOM     14  C   UNL     1      14.716   4.189   0.991  1.00  0.00     0.053 C 
BRANCH  14  15
ATOM     15  C   UNL     1      15.306   3.691  -0.290  1.00  0.00     0.041 C 
ATOM     16  O   UNL     1      14.702   3.872  -1.382  1.00  0.00    -0.550 OA
ATOM     17  O   UNL     1      16.544   3.063  -0.288  1.00  0.00    -0.550 OA
ENDBRANCH  14  15
ENDBRANCH  13  14
ENDBRANCH  12  13
ENDBRANCH  11  12
ENDBRANCH  10  11
ENDBRANCH   9  10
ENDBRANCH   8   9
ENDBRANCH   7   8
ENDBRANCH   6   7
ENDBRANCH   5   6
ENDBRANCH   4   5
ENDBRANCH   3   4
ENDBRANCH   2   3
ENDBRANCH   1   2
BRANCH   1  18
ATOM     18  C   UNL     1      11.329  11.857  -2.877  1.00  0.00     0.000 C 
BRANCH  18  19
ATOM     19  C   UNL     1      11.114  13.078  -3.783  1.00  0.00     0.000 C 
BRANCH  19  20
ATOM     20  C   UNL     1      12.087  13.070  -4.970  1.00  0.00     0.000 C 
BRANCH  20  21
ATOM     21  C   UNL     1      12.045  14.408  -5.722  1.00  0.00     0.000 C 
BRANCH  21  22
ATOM     22  C   UNL     1      12.038  15.622  -4.776  1.00  0.00     0.000 C 
BRANCH  22  23
ATOM     23  C   UNL     1      13.448  15.986  -4.274  1.00  0.00     0.000 C 
BRANCH  23  24
ATOM     24  C   UNL     1      14.082  17.132  -5.081  1.00  0.00    -0.000 C 
BRANCH  24  25
ATOM     25  C   UNL     1      14.197  18.433  -4.264  1.00  0.00    -0.000 C 
BRANCH  25  26
ATOM     26  C   UNL     1      13.870  18.224  -2.769  1.00  0.00    -0.000 C 
BRANCH  26  27
ATOM     27  C   UNL     1      15.026  18.612  -1.826  1.00  0.00    -0.000 C 
BRANCH  27  28
ATOM     28  C   UNL     1      16.355  17.885  -2.099  1.00  0.00    -0.000 C 
BRANCH  28  29
ATOM     29  C   UNL     1      16.767  16.856  -1.025  1.00  0.00    -0.000 C 
BRANCH  29  30
ATOM     30  C   UNL     1      15.608  16.030  -0.434  1.00  0.00    -0.000 C 
BRANCH  30  31
ATOM     31  C   UNL     1      15.160  16.531   0.947  1.00  0.00    -0.003 C 
ATOM     32  C   UNL     1      16.317  17.187   1.697  1.00  0.00     0.004 C 
ENDBRANCH  30  31
ENDBRANCH  29  30
ENDBRANCH  28  29
ENDBRANCH  27  28
ENDBRANCH  26  27
ENDBRANCH  25  26
ENDBRANCH  24  25
ENDBRANCH  23  24
ENDBRANCH  22  23
ENDBRANCH  21  22
ENDBRANCH  20  21
ENDBRANCH  19  20
ENDBRANCH  18  19
ENDBRANCH   1  18
TORSDOF 28
ENDMDL
MODEL 8
REMARK VINA RESULT:    -3.956      1.305      2.208
REMARK INTER + INTRA:         -15.859
REMARK INTER:                 -10.549
REMARK INTRA:                  -5.309
REMARK UNBOUND:                -5.426
REMARK SMILES CCCCCCCCCCCCCCCCCCCCCCCCCCCCCC(=O)[O-]
REMARK SMILES IDX 16 1 17 2 18 3 19 4 20 5 21 6 22 7 23 8 24 9 25 10 26 11
REMARK SMILES IDX 27 12 28 13 29 14 30 15 31 16 32 17 15 18 14 19 13 20 12 21
REMARK SMILES IDX 11 22 10 23 9 24 8 25 7 26 6 27 5 28 4 29 3 30 2 31 1 32
REMARK H PARENT
REMARK Flexibility Score: inf
ROOT
ATOM      1  C   UNL     1      14.223   3.475   0.268  1.00  0.00     0.000 C 
ENDROOT
BRANCH   1   2
ATOM      2  C   UNL     1      13.841   4.303   1.506  1.00  0.00     0.000 C 
BRANCH   2   3
ATOM      3  C   UNL     1      12.406   4.849   1.431  1.00  0.00     0.000 C 
BRANCH   3   4
ATOM      4  C   UNL     1      11.671   4.808   2.781  1.00  0.00     0.000 C 
BRANCH   4   5
ATOM      5  C   UNL     1      11.448   3.362   3.273  1.00  0.00     0.000 C 
BRANCH   5   6
ATOM      6  C   UNL     1      10.536   2.526   2.359  1.00  0.00     0.000 C 
BRANCH   6   7
ATOM      7  C   UNL     1       9.547   1.599   3.094  1.00  0.00     0.000 C 
BRANCH   7   8
ATOM      8  C   UNL     1       9.904   0.100   3.044  1.00  0.00     0.000 C 
BRANCH   8   9
ATOM      9  C   UNL     1      10.739  -0.295   1.800  1.00  0.00     0.000 C 
BRANCH   9  10
ATOM     10  C   UNL     1      11.991  -1.123   2.145  1.00  0.00     0.000 C 
BRANCH  10  11
ATOM     11  C   UNL     1      13.006  -0.366   3.028  1.00  0.00     0.000 C 
BRANCH  11  12
ATOM     12  C   UNL     1      14.146   0.301   2.236  1.00  0.00     0.000 C 
BRANCH  12  13
ATOM     13  C   UNL     1      15.401   0.549   3.080  1.00  0.00     0.006 C 
BRANCH  13  14
ATOM     14  C   UNL     1      15.850  -0.731   3.796  1.00  0.00     0.053 C 
BRANCH  14  15
ATOM     15  C   UNL     1      16.323  -0.419   5.180  1.00  0.00     0.041 C 
ATOM     16  O   UNL     1      15.719  -0.892   6.181  1.00  0.00    -0.550 OA
ATOM     17  O   UNL     1      17.456   0.360   5.369  1.00  0.00    -0.550 OA
ENDBRANCH  14  15
ENDBRANCH  13  14
ENDBRANCH  12  13
ENDBRANCH  11  12
ENDBRANCH  10  11
ENDBRANCH   9  10
ENDBRANCH   8   9
ENDBRANCH   7   8
ENDBRANCH   6   7
ENDBRANCH   5   6
ENDBRANCH   4   5
ENDBRANCH   3   4
ENDBRANCH   2   3
ENDBRANCH   1   2
BRANCH   1  18
ATOM     18  C   UNL     1      15.639   2.901   0.397  1.00  0.00     0.000 C 
BRANCH  18  19
ATOM     19  C   UNL     1      16.500   3.299  -0.810  1.00  0.00     0.000 C 
BRANCH  19  20
ATOM     20  C   UNL     1      17.435   2.157  -1.228  1.00  0.00     0.000 C 
BRANCH  20  21
ATOM     21  C   UNL     1      16.690   0.814  -1.239  1.00  0.00     0.000 C 
BRANCH  21  22
ATOM     22  C   UNL     1      16.195   0.421  -2.641  1.00  0.00     0.000 C 
BRANCH  22  23
ATOM     23  C   UNL     1      14.667   0.225  -2.693  1.00  0.00     0.000 C 
BRANCH  23  24
ATOM     24  C   UNL     1      14.120  -0.470  -1.434  1.00  0.00    -0.000 C 
BRANCH  24  25
ATOM     25  C   UNL     1      12.582  -0.561  -1.434  1.00  0.00    -0.000 C 
BRANCH  25  26
ATOM     26  C   UNL     1      11.909   0.791  -1.756  1.00  0.00    -0.000 C 
BRANCH  26  27
ATOM     27  C   UNL     1      10.372   0.755  -1.645  1.00  0.00    -0.000 C 
BRANCH  27  28
ATOM     28  C   UNL     1       9.727   2.066  -1.161  1.00  0.00    -0.000 C 
BRANCH  28  29
ATOM     29  C   UNL     1      10.660   3.295  -1.175  1.00  0.00    -0.000 C 
BRANCH  29  30
ATOM     30  C   UNL     1       9.946   4.658  -1.243  1.00  0.00    -0.000 C 
BRANCH  30  31
ATOM     31  C   UNL     1       8.884   4.833  -0.147  1.00  0.00    -0.003 C 
ATOM     32  C   UNL     1       8.967   6.221   0.482  1.00  0.00     0.004 C 
ENDBRANCH  30  31
ENDBRANCH  29  30
ENDBRANCH  28  29
ENDBRANCH  27  28
ENDBRANCH  26  27
ENDBRANCH  25  26
ENDBRANCH  24  25
ENDBRANCH  23  24
ENDBRANCH  22  23
ENDBRANCH  21  22
ENDBRANCH  20  21
ENDBRANCH  19  20
ENDBRANCH  18  19
ENDBRANCH   1  18
TORSDOF 28
ENDMDL
