MODEL 1
REMARK VINA RESULT:    -4.284      0.000      0.000
REMARK INTER + INTRA:          -7.016
REMARK INTER:                  -6.539
REMARK INTRA:                  -0.478
REMARK UNBOUND:                -0.478
REMARK SMILES CCCCCCCCCCC(=O)[O-]
REMARK SMILES IDX 7 1 8 2 9 3 10 4 11 5 12 6 13 7 6 8 5 9 4 10 3 11 2 12 1 13
REMARK H PARENT
REMARK Flexibility Score: inf
ROOT
ATOM      1  C   UNL     1      34.325  25.945  71.170  1.00  0.00     0.000 C 
ENDROOT
BRANCH   1   2
ATOM      2  C   UNL     1      32.843  25.907  70.750  1.00  0.00     0.000 C 
BRANCH   2   3
ATOM      3  C   UNL     1      32.391  24.540  70.193  1.00  0.00     0.006 C 
BRANCH   3   4
ATOM      4  C   UNL     1      31.213  24.661  69.217  1.00  0.00     0.053 C 
BRANCH   4   5
ATOM      5  C   UNL     1      31.667  24.403  67.816  1.00  0.00     0.041 C 
ATOM      6  O   UNL     1      32.871  24.117  67.583  1.00  0.00    -0.550 OA
ATOM      7  O   UNL     1      30.772  24.525  66.761  1.00  0.00    -0.550 OA
ENDBRANCH   4   5
ENDBRANCH   3   4
ENDBRANCH   2   3
ENDBRANCH   1   2
BRANCH   1   8
ATOM      8  C   UNL     1      35.092  24.627  70.959  1.00  0.00     0.000 C 
BRANCH   8   9
ATOM      9  C   UNL     1      35.958  24.570  69.683  1.00  0.00    -0.000 C 
BRANCH   9  10
ATOM     10  C   UNL     1      37.397  24.061  69.887  1.00  0.00    -0.000 C 
BRANCH  10  11
ATOM     11  C   UNL     1      37.766  23.891  71.371  1.00  0.00    -0.000 C 
BRANCH  11  12
ATOM     12  C   UNL     1      39.241  24.220  71.650  1.00  0.00    -0.003 C 
ATOM     13  C   UNL     1      39.459  24.844  73.028  1.00  0.00     0.004 C 
ENDBRANCH  11  12
ENDBRANCH  10  11
ENDBRANCH   9  10
ENDBRANCH   8   9
ENDBRANCH   1   8
TORSDOF 9
ENDMDL
MODEL 2
REMARK VINA RESULT:    -4.118      3.650      6.723
REMARK INTER + INTRA:          -6.762
REMARK INTER:                  -6.228
REMARK INTRA:                  -0.534
REMARK UNBOUND:                -0.478
REMARK SMILES CCCCCCCCCCC(=O)[O-]
REMARK SMILES IDX 7 1 8 2 9 3 10 4 11 5 12 6 13 7 6 8 5 9 4 10 3 11 2 12 1 13
REMARK H PARENT
REMARK Flexibility Score: inf
ROOT
ATOM      1  C   UNL     1      35.308  25.269  69.507  1.00  0.00     0.000 C 
ENDROOT
BRANCH   1   2
ATOM      2  C   UNL     1      36.011  23.905  69.642  1.00  0.00     0.000 C 
BRANCH   2   3
ATOM      3  C   UNL     1      37.509  24.012  70.003  1.00  0.00     0.006 C 
BRANCH   3   4
ATOM      4  C   UNL     1      37.762  23.876  71.510  1.00  0.00     0.053 C 
BRANCH   4   5
ATOM      5  C   UNL     1      39.109  24.420  71.864  1.00  0.00     0.041 C 
ATOM      6  O   UNL     1      40.011  24.500  70.988  1.00  0.00    -0.550 OA
ATOM      7  O   UNL     1      39.386  24.796  73.172  1.00  0.00    -0.550 OA
ENDBRANCH   4   5
ENDBRANCH   3   4
ENDBRANCH   2   3
ENDBRANCH   1   2
BRANCH   1   8
ATOM      8  C   UNL     1      34.939  25.942  70.841  1.00  0.00     0.000 C 
BRANCH   8   9
ATOM      9  C   UNL     1      33.617  26.739  70.830  1.00  0.00    -0.000 C 
BRANCH   9  10
ATOM     10  C   UNL     1      32.428  26.050  71.525  1.00  0.00    -0.000 C 
BRANCH  10  11
ATOM     11  C   UNL     1      31.326  25.623  70.539  1.00  0.00    -0.000 C 
BRANCH  11  12
ATOM     12  C   UNL     1      31.728  24.397  69.704  1.00  0.00    -0.003 C 
ATOM     13  C   UNL     1      31.048  24.362  68.336  1.00  0.00     0.004 C 
ENDBRANCH  11  12
ENDBRANCH  10  11
ENDBRANCH   9  10
ENDBRANCH   8   9
ENDBRANCH   1   8
TORSDOF 9
ENDMDL
MODEL 3
REMARK VINA RESULT:    -4.023      2.000      4.421
REMARK INTER + INTRA:          -6.617
REMARK INTER:                  -5.711
REMARK INTRA:                  -0.906
REMARK UNBOUND:                -0.478
REMARK SMILES CCCCCCCCCCC(=O)[O-]
REMARK SMILES IDX 7 1 8 2 9 3 10 4 11 5 12 6 13 7 6 8 5 9 4 10 3 11 2 12 1 13
REMARK H PARENT
REMARK Flexibility Score: inf
ROOT
ATOM      1  C   UNL     1      35.743  25.012  68.521  1.00  0.00     0.000 C 
ENDROOT
BRANCH   1   2
ATOM      2  C   UNL     1      35.259  23.980  67.484  1.00  0.00     0.000 C 
BRANCH   2   3
ATOM      3  C   UNL     1      33.749  24.070  67.176  1.00  0.00     0.006 C 
BRANCH   3   4
ATOM      4  C   UNL     1      33.446  23.978  65.675  1.00  0.00     0.053 C 
BRANCH   4   5
ATOM      5  C   UNL     1      32.219  24.764  65.340  1.00  0.00     0.041 C 
ATOM      6  O   UNL     1      32.257  25.647  64.443  1.00  0.00    -0.550 OA
ATOM      7  O   UNL     1      31.044  24.554  66.051  1.00  0.00    -0.550 OA
ENDBRANCH   4   5
ENDBRANCH   3   4
ENDBRANCH   2   3
ENDBRANCH   1   2
BRANCH   1   8
ATOM      8  C   UNL     1      36.108  24.425  69.896  1.00  0.00     0.000 C 
BRANCH   8   9
ATOM      9  C   UNL     1      35.118  24.756  71.034  1.00  0.00    -0.000 C 
BRANCH   9  10
ATOM     10  C   UNL     1      34.490  26.161  70.971  1.00  0.00    -0.000 C 
BRANCH  10  11
ATOM     11  C   UNL     1      32.953  26.125  70.913  1.00  0.00    -0.000 C 
BRANCH  11  12
ATOM     12  C   UNL     1      32.411  24.729  70.567  1.00  0.00    -0.003 C 
ATOM     13  C   UNL     1      31.193  24.777  69.644  1.00  0.00     0.004 C 
ENDBRANCH  11  12
ENDBRANCH  10  11
ENDBRANCH   9  10
ENDBRANCH   8   9
ENDBRANCH   1   8
TORSDOF 9
ENDMDL
MODEL 4
REMARK VINA RESULT:    -3.978      3.101      5.318
REMARK INTER + INTRA:          -6.549
REMARK INTER:                  -6.085
REMARK INTRA:                  -0.464
REMARK UNBOUND:                -0.478
REMARK SMILES CCCCCCCCCCC(=O)[O-]
REMARK SMILES IDX 7 1 8 2 9 3 10 4 11 5 12 6 13 7 6 8 5 9 4 10 3 11 2 12 1 13
REMARK H PARENT
REMARK Flexibility Score: inf
ROOT
ATOM      1  C   UNL     1      32.927  24.286  66.968  1.00  0.00     0.000 C 
ENDROOT
BRANCH   1   2
ATOM      2  C   UNL     1      33.095  24.279  65.437  1.00  0.00     0.000 C 
BRANCH   2   3
ATOM      3  C   UNL     1      32.053  25.142  64.693  1.00  0.00     0.006 C 
BRANCH   3   4
ATOM      4  C   UNL     1      32.614  25.767  63.409  1.00  0.00     0.053 C 
BRANCH   4   5
ATOM      5  C   UNL     1      31.739  26.889  62.949  1.00  0.00     0.041 C 
ATOM      6  O   UNL     1      32.251  27.943  62.486  1.00  0.00    -0.550 OA
ATOM      7  O   UNL     1      30.360  26.793  63.077  1.00  0.00    -0.550 OA
ENDBRANCH   4   5
ENDBRANCH   3   4
ENDBRANCH   2   3
ENDBRANCH   1   2
BRANCH   1   8
ATOM      8  C   UNL     1      31.508  24.623  67.462  1.00  0.00     0.000 C 
BRANCH   8   9
ATOM      9  C   UNL     1      31.310  24.538  68.991  1.00  0.00    -0.000 C 
BRANCH   9  10
ATOM     10  C   UNL     1      32.601  24.600  69.826  1.00  0.00    -0.000 C 
BRANCH  10  11
ATOM     11  C   UNL     1      32.667  25.840  70.735  1.00  0.00    -0.000 C 
BRANCH  11  12
ATOM     12  C   UNL     1      34.098  26.378  70.890  1.00  0.00    -0.003 C 
ATOM     13  C   UNL     1      35.164  25.326  70.591  1.00  0.00     0.004 C 
ENDBRANCH  11  12
ENDBRANCH  10  11
ENDBRANCH   9  10
ENDBRANCH   8   9
ENDBRANCH   1   8
TORSDOF 9
ENDMDL
MODEL 5
REMARK VINA RESULT:    -3.889      2.859      5.842
REMARK INTER + INTRA:          -6.412
REMARK INTER:                  -5.600
REMARK INTRA:                  -0.812
REMARK UNBOUND:                -0.478
REMARK SMILES CCCCCCCCCCC(=O)[O-]
REMARK SMILES IDX 7 1 8 2 9 3 10 4 11 5 12 6 13 7 6 8 5 9 4 10 3 11 2 12 1 13
REMARK H PARENT
REMARK Flexibility Score: inf
ROOT
ATOM      1  C   UNL     1      32.835  26.618  70.697  1.00  0.00     0.000 C 
ENDROOT
BRANCH   1   2
ATOM      2  C   UNL     1      34.039  25.988  71.423  1.00  0.00     0.000 C 
BRANCH   2   3
ATOM      3  C   UNL     1      35.095  25.387  70.469  1.00  0.00     0.006 C 
BRANCH   3   4
ATOM      4  C   UNL     1      35.705  24.087  71.008  1.00  0.00     0.053 C 
BRANCH   4   5
ATOM      5  C   UNL     1      37.187  24.085  70.813  1.00  0.00     0.041 C 
ATOM      6  O   UNL     1      37.955  23.875  71.788  1.00  0.00    -0.550 OA
ATOM      7  O   UNL     1      37.724  24.362  69.562  1.00  0.00    -0.550 OA
ENDBRANCH   4   5
ENDBRANCH   3   4
ENDBRANCH   2   3
ENDBRANCH   1   2
BRANCH   1   8
ATOM      8  C   UNL     1      31.462  26.069  71.124  1.00  0.00     0.000 C 
BRANCH   8   9
ATOM      9  C   UNL     1      31.326  24.533  71.076  1.00  0.00    -0.000 C 
BRANCH   9  10
ATOM     10  C   UNL     1      31.759  23.875  69.753  1.00  0.00    -0.000 C 
BRANCH  10  11
ATOM     11  C   UNL     1      31.120  24.536  68.520  1.00  0.00    -0.000 C 
BRANCH  11  12
ATOM     12  C   UNL     1      31.840  24.163  67.215  1.00  0.00    -0.003 C 
ATOM     13  C   UNL     1      33.360  24.284  67.319  1.00  0.00     0.004 C 
ENDBRANCH  11  12
ENDBRANCH  10  11
ENDBRANCH   9  10
ENDBRANCH   8   9
ENDBRANCH   1   8
TORSDOF 9
ENDMDL
MODEL 6
REMARK VINA RESULT:    -3.852      3.026      4.793
REMARK INTER + INTRA:          -6.357
REMARK INTER:                  -5.668
REMARK INTRA:                  -0.689
REMARK UNBOUND:                -0.478
REMARK SMILES CCCCCCCCCCC(=O)[O-]
REMARK SMILES IDX 7 1 8 2 9 3 10 4 11 5 12 6 13 7 6 8 5 9 4 10 3 11 2 12 1 13
REMARK H PARENT
REMARK Flexibility Score: inf
ROOT
ATOM      1  C   UNL     1      33.494  24.259  67.456  1.00  0.00     0.000 C 
ENDROOT
BRANCH   1   2
ATOM      2  C   UNL     1      31.984  24.543  67.332  1.00  0.00     0.000 C 
BRANCH   2   3
ATOM      3  C   UNL     1      31.485  24.618  65.873  1.00  0.00     0.006 C 
BRANCH   3   4
ATOM      4  C   UNL     1      32.612  24.411  64.852  1.00  0.00     0.053 C 
BRANCH   4   5
ATOM      5  C   UNL     1      32.473  25.374  63.718  1.00  0.00     0.041 C 
ATOM      6  O   UNL     1      31.589  26.271  63.752  1.00  0.00    -0.550 OA
ATOM      7  O   UNL     1      33.288  25.254  62.600  1.00  0.00    -0.550 OA
ENDBRANCH   4   5
ENDBRANCH   3   4
ENDBRANCH   2   3
ENDBRANCH   1   2
BRANCH   1   8
ATOM      8  C   UNL     1      34.012  24.129  68.900  1.00  0.00     0.000 C 
BRANCH   8   9
ATOM      9  C   UNL     1      35.178  25.072  69.265  1.00  0.00    -0.000 C 
BRANCH   9  10
ATOM     10  C   UNL     1      34.841  26.168  70.292  1.00  0.00    -0.000 C 
BRANCH  10  11
ATOM     11  C   UNL     1      33.720  25.754  71.261  1.00  0.00    -0.000 C 
BRANCH  11  12
ATOM     12  C   UNL     1      32.411  26.517  71.004  1.00  0.00    -0.003 C 
ATOM     13  C   UNL     1      31.173  25.627  71.114  1.00  0.00     0.004 C 
ENDBRANCH  11  12
ENDBRANCH  10  11
ENDBRANCH   9  10
ENDBRANCH   8   9
ENDBRANCH   1   8
TORSDOF 9
ENDMDL
MODEL 7
REMARK VINA RESULT:    -3.824     19.967     20.599
REMARK INTER + INTRA:          -6.314
REMARK INTER:                  -5.239
REMARK INTRA:                  -1.075
REMARK UNBOUND:                -0.478
REMARK SMILES CCCCCCCCCCC(=O)[O-]
REMARK SMILES IDX 7 1 8 2 9 3 10 4 11 5 12 6 13 7 6 8 5 9 4 10 3 11 2 12 1 13
REMARK H PARENT
REMARK Flexibility Score: inf
ROOT
ATOM      1  C   UNL     1      37.757  40.487  62.000  1.00  0.00     0.000 C 
ENDROOT
BRANCH   1   2
ATOM      2  C   UNL     1      38.374  39.622  60.885  1.00  0.00     0.000 C 
BRANCH   2   3
ATOM      3  C   UNL     1      39.815  40.029  60.509  1.00  0.00     0.006 C 
BRANCH   3   4
ATOM      4  C   UNL     1      39.953  40.411  59.029  1.00  0.00     0.053 C 
BRANCH   4   5
ATOM      5  C   UNL     1      41.359  40.206  58.565  1.00  0.00     0.041 C 
ATOM      6  O   UNL     1      42.124  41.194  58.406  1.00  0.00    -0.550 OA
ATOM      7  O   UNL     1      41.813  38.929  58.263  1.00  0.00    -0.550 OA
ENDBRANCH   4   5
ENDBRANCH   3   4
ENDBRANCH   2   3
ENDBRANCH   1   2
BRANCH   1   8
ATOM      8  C   UNL     1      38.480  41.822  62.260  1.00  0.00     0.000 C 
BRANCH   8   9
ATOM      9  C   UNL     1      38.129  42.958  61.276  1.00  0.00    -0.000 C 
BRANCH   9  10
ATOM     10  C   UNL     1      39.132  44.125  61.234  1.00  0.00    -0.000 C 
BRANCH  10  11
ATOM     11  C   UNL     1      40.230  43.931  60.174  1.00  0.00    -0.000 C 
BRANCH  11  12
ATOM     12  C   UNL     1      41.644  44.000  60.773  1.00  0.00    -0.003 C 
ATOM     13  C   UNL     1      41.978  42.793  61.648  1.00  0.00     0.004 C 
ENDBRANCH  11  12
ENDBRANCH  10  11
ENDBRANCH   9  10
ENDBRANCH   8   9
ENDBRANCH   1   8
TORSDOF 9
ENDMDL
MODEL 8
REMARK VINA RESULT:    -3.818      2.122      3.739
REMARK INTER + INTRA:          -6.305
REMARK INTER:                  -5.597
REMARK INTRA:                  -0.707
REMARK UNBOUND:                -0.478
REMARK SMILES CCCCCCCCCCC(=O)[O-]
REMARK SMILES IDX 7 1 8 2 9 3 10 4 11 5 12 6 13 7 6 8 5 9 4 10 3 11 2 12 1 13
REMARK H PARENT
REMARK Flexibility Score: inf
ROOT
ATOM      1  C   UNL     1      32.054  24.618  68.484  1.00  0.00     0.000 C 
ENDROOT
BRANCH   1   2
ATOM      2  C   UNL     1      33.282  24.221  67.643  1.00  0.00     0.000 C 
BRANCH   2   3
ATOM      3  C   UNL     1      33.029  24.256  66.120  1.00  0.00     0.006 C 
BRANCH   3   4
ATOM      4  C   UNL     1      31.682  24.896  65.761  1.00  0.00     0.053 C 
BRANCH   4   5
ATOM      5  C   UNL     1      31.640  25.245  64.308  1.00  0.00     0.041 C 
ATOM      6  O   UNL     1      30.572  25.109  63.654  1.00  0.00    -0.550 OA
ATOM      7  O   UNL     1      32.792  25.677  63.663  1.00  0.00    -0.550 OA
ENDBRANCH   4   5
ENDBRANCH   3   4
ENDBRANCH   2   3
ENDBRANCH   1   2
BRANCH   1   8
ATOM      8  C   UNL     1      32.243  24.489  70.007  1.00  0.00     0.000 C 
BRANCH   8   9
ATOM      9  C   UNL     1      32.768  25.758  70.711  1.00  0.00    -0.000 C 
BRANCH   9  10
ATOM     10  C   UNL     1      34.291  25.804  70.934  1.00  0.00    -0.000 C 
BRANCH  10  11
ATOM     11  C   UNL     1      34.925  24.405  71.019  1.00  0.00    -0.000 C 
BRANCH  11  12
ATOM     12  C   UNL     1      36.420  24.415  70.662  1.00  0.00    -0.003 C 
ATOM     13  C   UNL     1      36.684  24.046  69.203  1.00  0.00     0.004 C 
ENDBRANCH  11  12
ENDBRANCH  10  11
ENDBRANCH   9  10
ENDBRANCH   8   9
ENDBRANCH   1   8
TORSDOF 9
ENDMDL
