MODEL 1
REMARK VINA RESULT:    -1.673      0.000      0.000
REMARK INTER + INTRA:          -1.673
REMARK INTER:                  -1.673
REMARK INTRA:                   0.000
REMARK UNBOUND:                 0.000
REMARK SMILES CC(=O)[O-]
REMARK SMILES IDX 1 1 2 2 3 3 4 4
REMARK H PARENT
REMARK Flexibility Score: inf
ROOT
ATOM      1  C   UNL     1     -24.385  29.854 -18.984  1.00  0.00     0.063 C 
ATOM      2  C   UNL     1     -24.709  29.627 -20.421  1.00  0.00     0.038 C 
ATOM      3  O   UNL     1     -25.117  30.581 -21.135  1.00  0.00    -0.550 OA
ATOM      4  O   UNL     1     -24.616  28.352 -20.964  1.00  0.00    -0.550 OA
ENDROOT
TORSDOF 0
ENDMDL
MODEL 2
REMARK VINA RESULT:    -1.659     16.183     16.747
REMARK INTER + INTRA:          -1.659
REMARK INTER:                  -1.659
REMARK INTRA:                   0.000
REMARK UNBOUND:                 0.000
REMARK SMILES CC(=O)[O-]
REMARK SMILES IDX 1 1 2 2 3 3 4 4
REMARK H PARENT
REMARK Flexibility Score: inf
ROOT
ATOM      1  C   UNL     1     -21.164  12.835 -24.712  1.00  0.00     0.063 C 
ATOM      2  C   UNL     1     -21.843  13.600 -23.628  1.00  0.00     0.038 C 
ATOM      3  O   UNL     1     -21.463  13.474 -22.433  1.00  0.00    -0.550 OA
ATOM      4  O   UNL     1     -22.931  14.411 -23.922  1.00  0.00    -0.550 OA
ENDROOT
TORSDOF 0
ENDMDL
MODEL 3
REMARK VINA RESULT:    -1.654      2.082      2.217
REMARK INTER + INTRA:          -1.654
REMARK INTER:                  -1.654
REMARK INTRA:                   0.000
REMARK UNBOUND:                 0.000
REMARK SMILES CC(=O)[O-]
REMARK SMILES IDX 1 1 2 2 3 3 4 4
REMARK H PARENT
REMARK Flexibility Score: inf
ROOT
ATOM      1  C   UNL     1     -24.813  30.002 -21.087  1.00  0.00     0.063 C 
ATOM      2  C   UNL     1     -23.705  29.261 -21.754  1.00  0.00     0.038 C 
ATOM      3  O   UNL     1     -22.517  29.417 -21.366  1.00  0.00    -0.550 OA
ATOM      4  O   UNL     1     -23.971  28.439 -22.841  1.00  0.00    -0.550 OA
ENDROOT
TORSDOF 0
ENDMDL
MODEL 4
REMARK VINA RESULT:    -1.653     16.659     17.324
REMARK INTER + INTRA:          -1.653
REMARK INTER:                  -1.653
REMARK INTRA:                   0.000
REMARK UNBOUND:                 0.000
REMARK SMILES CC(=O)[O-]
REMARK SMILES IDX 1 1 2 2 3 3 4 4
REMARK H PARENT
REMARK Flexibility Score: inf
ROOT
ATOM      1  C   UNL     1     -21.882  13.362 -23.266  1.00  0.00     0.063 C 
ATOM      2  C   UNL     1     -21.156  13.221 -24.559  1.00  0.00     0.038 C 
ATOM      3  O   UNL     1     -21.086  12.097 -25.125  1.00  0.00    -0.550 OA
ATOM      4  O   UNL     1     -20.506  14.314 -25.118  1.00  0.00    -0.550 OA
ENDROOT
TORSDOF 0
ENDMDL
MODEL 5
REMARK VINA RESULT:    -1.638      2.063      2.334
REMARK INTER + INTRA:          -1.638
REMARK INTER:                  -1.638
REMARK INTRA:                   0.000
REMARK UNBOUND:                 0.000
REMARK SMILES CC(=O)[O-]
REMARK SMILES IDX 1 1 2 2 3 3 4 4
REMARK H PARENT
REMARK Flexibility Score: inf
ROOT
ATOM      1  C   UNL     1     -24.815  29.989 -21.086  1.00  0.00     0.063 C 
ATOM      2  C   UNL     1     -23.726  29.246 -21.781  1.00  0.00     0.038 C 
ATOM      3  O   UNL     1     -23.998  28.486 -22.748  1.00  0.00    -0.550 OA
ATOM      4  O   UNL     1     -22.416  29.346 -21.332  1.00  0.00    -0.550 OA
ENDROOT
TORSDOF 0
ENDMDL
MODEL 6
REMARK VINA RESULT:    -1.625     16.265     16.737
REMARK INTER + INTRA:          -1.625
REMARK INTER:                  -1.625
REMARK INTRA:                   0.000
REMARK UNBOUND:                 0.000
REMARK SMILES CC(=O)[O-]
REMARK SMILES IDX 1 1 2 2 3 3 4 4
REMARK H PARENT
REMARK Flexibility Score: inf
ROOT
ATOM      1  C   UNL     1     -21.133  12.856 -24.857  1.00  0.00     0.063 C 
ATOM      2  C   UNL     1     -21.723  13.612 -23.717  1.00  0.00     0.038 C 
ATOM      3  O   UNL     1     -22.780  14.278 -23.880  1.00  0.00    -0.550 OA
ATOM      4  O   UNL     1     -21.082  13.631 -22.485  1.00  0.00    -0.550 OA
ENDROOT
TORSDOF 0
ENDMDL
MODEL 7
REMARK VINA RESULT:    -1.623     16.884     17.587
REMARK INTER + INTRA:          -1.623
REMARK INTER:                  -1.623
REMARK INTRA:                   0.000
REMARK UNBOUND:                 0.000
REMARK SMILES CC(=O)[O-]
REMARK SMILES IDX 1 1 2 2 3 3 4 4
REMARK H PARENT
REMARK Flexibility Score: inf
ROOT
ATOM      1  C   UNL     1     -21.112  12.753 -24.959  1.00  0.00     0.063 C 
ATOM      2  C   UNL     1     -19.863  13.310 -24.365  1.00  0.00     0.038 C 
ATOM      3  O   UNL     1     -18.797  12.640 -24.392  1.00  0.00    -0.550 OA
ATOM      4  O   UNL     1     -19.883  14.546 -23.732  1.00  0.00    -0.550 OA
ENDROOT
TORSDOF 0
ENDMDL
MODEL 8
REMARK VINA RESULT:    -1.586      1.960      2.083
REMARK INTER + INTRA:          -1.586
REMARK INTER:                  -1.586
REMARK INTRA:                   0.000
REMARK UNBOUND:                 0.000
REMARK SMILES CC(=O)[O-]
REMARK SMILES IDX 1 1 2 2 3 3 4 4
REMARK H PARENT
REMARK Flexibility Score: inf
ROOT
ATOM      1  C   UNL     1     -25.125  29.014 -20.966  1.00  0.00     0.063 C 
ATOM      2  C   UNL     1     -23.699  29.371 -20.716  1.00  0.00     0.038 C 
ATOM      3  O   UNL     1     -22.955  29.710 -21.674  1.00  0.00    -0.550 OA
ATOM      4  O   UNL     1     -23.172  29.279 -19.434  1.00  0.00    -0.550 OA
ENDROOT
TORSDOF 0
ENDMDL
