MODEL 1
REMARK VINA RESULT:    -4.692      0.000      0.000
REMARK INTER + INTRA:          -6.372
REMARK INTER:                  -5.789
REMARK INTRA:                  -0.583
REMARK UNBOUND:                -0.583
REMARK SMILES CCCCC(=O)c1ccccc1
REMARK SMILES IDX 4 1 3 2 2 3 1 4 5 5 6 6 7 7 8 8 12 9 9 10 11 11 10 12
REMARK H PARENT
REMARK Flexibility Score: inf
ROOT
ATOM      1  C   UNL     1      18.718 -49.749   7.681  1.00  0.00     0.081 C 
ENDROOT
BRANCH   1   2
ATOM      2  C   UNL     1      18.117 -49.706   6.268  1.00  0.00     0.008 C 
BRANCH   2   3
ATOM      3  C   UNL     1      17.025 -48.635   6.169  1.00  0.00    -0.003 C 
ATOM      4  C   UNL     1      15.831 -49.138   5.363  1.00  0.00     0.004 C 
ENDBRANCH   2   3
ENDBRANCH   1   2
BRANCH   1   5
ATOM      5  C   UNL     1      17.743 -50.242   8.727  1.00  0.00     0.162 C 
ATOM      6  O   UNL     1      17.789 -49.762   9.894  1.00  0.00    -0.294 OA
BRANCH   5   7
ATOM      7  C   UNL     1      16.725 -51.281   8.409  1.00  0.00     0.017 A 
ATOM      8  C   UNL     1      15.345 -51.025   8.542  1.00  0.00     0.012 A 
ATOM      9  C   UNL     1      17.135 -52.556   7.965  1.00  0.00     0.012 A 
ATOM     10  C   UNL     1      14.406 -52.016   8.237  1.00  0.00     0.001 A 
ATOM     11  C   UNL     1      16.190 -53.541   7.663  1.00  0.00     0.001 A 
ATOM     12  C   UNL     1      14.828 -53.272   7.799  1.00  0.00     0.000 A 
ENDBRANCH   5   7
ENDBRANCH   1   5
TORSDOF 4
ENDMDL
MODEL 2
REMARK VINA RESULT:    -4.529      1.843      3.912
REMARK INTER + INTRA:          -6.171
REMARK INTER:                  -5.432
REMARK INTRA:                  -0.739
REMARK UNBOUND:                -0.583
REMARK SMILES CCCCC(=O)c1ccccc1
REMARK SMILES IDX 4 1 3 2 2 3 1 4 5 5 6 6 7 7 8 8 12 9 9 10 11 11 10 12
REMARK H PARENT
REMARK Flexibility Score: inf
ROOT
ATOM      1  C   UNL     1      14.338 -52.366   8.110  1.00  0.00     0.081 C 
ENDROOT
BRANCH   1   2
ATOM      2  C   UNL     1      13.805 -51.676   6.846  1.00  0.00     0.008 C 
BRANCH   2   3
ATOM      3  C   UNL     1      13.860 -50.151   6.988  1.00  0.00    -0.003 C 
ATOM      4  C   UNL     1      14.867 -49.542   6.016  1.00  0.00     0.004 C 
ENDBRANCH   2   3
ENDBRANCH   1   2
BRANCH   1   5
ATOM      5  C   UNL     1      15.787 -52.781   7.995  1.00  0.00     0.162 C 
ATOM      6  O   UNL     1      16.078 -54.006   7.906  1.00  0.00    -0.294 OA
BRANCH   5   7
ATOM      7  C   UNL     1      16.883 -51.772   7.982  1.00  0.00     0.017 A 
ATOM      8  C   UNL     1      17.861 -51.760   6.967  1.00  0.00     0.012 A 
ATOM      9  C   UNL     1      16.958 -50.800   9.002  1.00  0.00     0.012 A 
ATOM     10  C   UNL     1      18.881 -50.803   6.973  1.00  0.00     0.001 A 
ATOM     11  C   UNL     1      17.981 -49.848   9.002  1.00  0.00     0.001 A 
ATOM     12  C   UNL     1      18.941 -49.849   7.989  1.00  0.00     0.000 A 
ENDBRANCH   5   7
ENDBRANCH   1   5
TORSDOF 4
ENDMDL
MODEL 3
REMARK VINA RESULT:    -4.517      1.436      4.242
REMARK INTER + INTRA:          -6.156
REMARK INTER:                  -5.570
REMARK INTRA:                  -0.586
REMARK UNBOUND:                -0.583
REMARK SMILES CCCCC(=O)c1ccccc1
REMARK SMILES IDX 4 1 3 2 2 3 1 4 5 5 6 6 7 7 8 8 12 9 9 10 11 11 10 12
REMARK H PARENT
REMARK Flexibility Score: inf
ROOT
ATOM      1  C   UNL     1      14.947 -51.047   8.705  1.00  0.00     0.081 C 
ENDROOT
BRANCH   1   2
ATOM      2  C   UNL     1      14.968 -52.058   7.548  1.00  0.00     0.008 C 
BRANCH   2   3
ATOM      3  C   UNL     1      15.856 -53.260   7.886  1.00  0.00    -0.003 C 
ATOM      4  C   UNL     1      17.274 -53.065   7.356  1.00  0.00     0.004 C 
ENDBRANCH   2   3
ENDBRANCH   1   2
BRANCH   1   5
ATOM      5  C   UNL     1      15.263 -49.635   8.265  1.00  0.00     0.162 C 
ATOM      6  O   UNL     1      14.767 -48.662   8.899  1.00  0.00    -0.294 OA
BRANCH   5   7
ATOM      7  C   UNL     1      16.150 -49.366   7.100  1.00  0.00     0.017 A 
ATOM      8  C   UNL     1      15.628 -48.948   5.858  1.00  0.00     0.012 A 
ATOM      9  C   UNL     1      17.545 -49.529   7.224  1.00  0.00     0.012 A 
ATOM     10  C   UNL     1      16.479 -48.700   4.777  1.00  0.00     0.001 A 
ATOM     11  C   UNL     1      18.389 -49.280   6.138  1.00  0.00     0.001 A 
ATOM     12  C   UNL     1      17.858 -48.866   4.916  1.00  0.00     0.000 A 
ENDBRANCH   5   7
ENDBRANCH   1   5
TORSDOF 4
ENDMDL
MODEL 4
REMARK VINA RESULT:    -4.478      2.186      5.237
REMARK INTER + INTRA:          -6.107
REMARK INTER:                  -5.906
REMARK INTRA:                  -0.201
REMARK UNBOUND:                -0.583
REMARK SMILES CCCCC(=O)c1ccccc1
REMARK SMILES IDX 4 1 3 2 2 3 1 4 5 5 6 6 7 7 8 8 12 9 9 10 11 11 10 12
REMARK H PARENT
REMARK Flexibility Score: inf
ROOT
ATOM      1  C   UNL     1      15.760 -54.071   7.792  1.00  0.00     0.081 C 
ENDROOT
BRANCH   1   2
ATOM      2  C   UNL     1      14.456 -54.872   7.930  1.00  0.00     0.008 C 
BRANCH   2   3
ATOM      3  C   UNL     1      14.504 -55.791   9.156  1.00  0.00    -0.003 C 
ATOM      4  C   UNL     1      15.083 -57.157   8.800  1.00  0.00     0.004 C 
ENDBRANCH   2   3
ENDBRANCH   1   2
BRANCH   1   5
ATOM      5  C   UNL     1      15.532 -52.581   7.673  1.00  0.00     0.162 C 
ATOM      6  O   UNL     1      14.396 -52.152   7.327  1.00  0.00    -0.294 OA
BRANCH   5   7
ATOM      7  C   UNL     1      16.620 -51.606   7.959  1.00  0.00     0.017 A 
ATOM      8  C   UNL     1      17.710 -51.441   7.079  1.00  0.00     0.012 A 
ATOM      9  C   UNL     1      16.575 -50.824   9.131  1.00  0.00     0.012 A 
ATOM     10  C   UNL     1      18.721 -50.518   7.367  1.00  0.00     0.001 A 
ATOM     11  C   UNL     1      17.591 -49.905   9.412  1.00  0.00     0.001 A 
ATOM     12  C   UNL     1      18.662 -49.752   8.532  1.00  0.00     0.000 A 
ENDBRANCH   5   7
ENDBRANCH   1   5
TORSDOF 4
ENDMDL
MODEL 5
REMARK VINA RESULT:    -4.443     10.097     11.414
REMARK INTER + INTRA:          -6.065
REMARK INTER:                  -5.617
REMARK INTRA:                  -0.448
REMARK UNBOUND:                -0.583
REMARK SMILES CCCCC(=O)c1ccccc1
REMARK SMILES IDX 4 1 3 2 2 3 1 4 5 5 6 6 7 7 8 8 12 9 9 10 11 11 10 12
REMARK H PARENT
REMARK Flexibility Score: inf
ROOT
ATOM      1  C   UNL     1      16.659 -53.042  -1.107  1.00  0.00     0.081 C 
ENDROOT
BRANCH   1   2
ATOM      2  C   UNL     1      16.729 -51.548  -0.756  1.00  0.00     0.008 C 
BRANCH   2   3
ATOM      3  C   UNL     1      15.352 -51.015  -0.345  1.00  0.00    -0.003 C 
ATOM      4  C   UNL     1      14.491 -50.711  -1.567  1.00  0.00     0.004 C 
ENDBRANCH   2   3
ENDBRANCH   1   2
BRANCH   1   5
ATOM      5  C   UNL     1      17.357 -53.381  -2.404  1.00  0.00     0.162 C 
ATOM      6  O   UNL     1      18.606 -53.218  -2.499  1.00  0.00    -0.294 OA
BRANCH   5   7
ATOM      7  C   UNL     1      16.603 -53.909  -3.575  1.00  0.00     0.017 A 
ATOM      8  C   UNL     1      15.233 -53.629  -3.755  1.00  0.00     0.012 A 
ATOM      9  C   UNL     1      17.259 -54.709  -4.533  1.00  0.00     0.012 A 
ATOM     10  C   UNL     1      14.544 -54.134  -4.862  1.00  0.00     0.001 A 
ATOM     11  C   UNL     1      16.563 -55.211  -5.636  1.00  0.00     0.001 A 
ATOM     12  C   UNL     1      15.208 -54.924  -5.801  1.00  0.00     0.000 A 
ENDBRANCH   5   7
ENDBRANCH   1   5
TORSDOF 4
ENDMDL
MODEL 6
REMARK VINA RESULT:    -4.415      1.230      3.994
REMARK INTER + INTRA:          -6.030
REMARK INTER:                  -5.504
REMARK INTRA:                  -0.527
REMARK UNBOUND:                -0.583
REMARK SMILES CCCCC(=O)c1ccccc1
REMARK SMILES IDX 4 1 3 2 2 3 1 4 5 5 6 6 7 7 8 8 12 9 9 10 11 11 10 12
REMARK H PARENT
REMARK Flexibility Score: inf
ROOT
ATOM      1  C   UNL     1      17.385 -51.436   8.411  1.00  0.00     0.081 C 
ENDROOT
BRANCH   1   2
ATOM      2  C   UNL     1      17.390 -52.664   7.488  1.00  0.00     0.008 C 
BRANCH   2   3
ATOM      3  C   UNL     1      16.123 -53.503   7.684  1.00  0.00    -0.003 C 
ATOM      4  C   UNL     1      14.880 -52.619   7.746  1.00  0.00     0.004 C 
ENDBRANCH   2   3
ENDBRANCH   1   2
BRANCH   1   5
ATOM      5  C   UNL     1      17.913 -50.187   7.742  1.00  0.00     0.162 C 
ATOM      6  O   UNL     1      19.094 -49.808   7.980  1.00  0.00    -0.294 OA
BRANCH   5   7
ATOM      7  C   UNL     1      17.071 -49.395   6.804  1.00  0.00     0.017 A 
ATOM      8  C   UNL     1      15.766 -48.989   7.150  1.00  0.00     0.012 A 
ATOM      9  C   UNL     1      17.575 -49.037   5.536  1.00  0.00     0.012 A 
ATOM     10  C   UNL     1      14.992 -48.245   6.253  1.00  0.00     0.001 A 
ATOM     11  C   UNL     1      16.795 -48.294   4.646  1.00  0.00     0.001 A 
ATOM     12  C   UNL     1      15.505 -47.898   5.003  1.00  0.00     0.000 A 
ENDBRANCH   5   7
ENDBRANCH   1   5
TORSDOF 4
ENDMDL
MODEL 7
REMARK VINA RESULT:    -4.415      2.268      4.421
REMARK INTER + INTRA:          -6.030
REMARK INTER:                  -5.464
REMARK INTRA:                  -0.566
REMARK UNBOUND:                -0.583
REMARK SMILES CCCCC(=O)c1ccccc1
REMARK SMILES IDX 4 1 3 2 2 3 1 4 5 5 6 6 7 7 8 8 12 9 9 10 11 11 10 12
REMARK H PARENT
REMARK Flexibility Score: inf
ROOT
ATOM      1  C   UNL     1      18.263 -49.495   7.035  1.00  0.00     0.081 C 
ENDROOT
BRANCH   1   2
ATOM      2  C   UNL     1      18.083 -50.989   7.344  1.00  0.00     0.008 C 
BRANCH   2   3
ATOM      3  C   UNL     1      17.093 -51.195   8.496  1.00  0.00    -0.003 C 
ATOM      4  C   UNL     1      17.281 -50.138   9.581  1.00  0.00     0.004 C 
ENDBRANCH   2   3
ENDBRANCH   1   2
BRANCH   1   5
ATOM      5  C   UNL     1      17.604 -49.071   5.741  1.00  0.00     0.162 C 
ATOM      6  O   UNL     1      18.277 -49.070   4.673  1.00  0.00    -0.294 OA
BRANCH   5   7
ATOM      7  C   UNL     1      16.174 -48.658   5.699  1.00  0.00     0.017 A 
ATOM      8  C   UNL     1      15.429 -48.707   4.503  1.00  0.00     0.012 A 
ATOM      9  C   UNL     1      15.537 -48.203   6.873  1.00  0.00     0.012 A 
ATOM     10  C   UNL     1      14.086 -48.314   4.487  1.00  0.00     0.001 A 
ATOM     11  C   UNL     1      14.196 -47.812   6.847  1.00  0.00     0.001 A 
ATOM     12  C   UNL     1      13.471 -47.867   5.656  1.00  0.00     0.000 A 
ENDBRANCH   5   7
ENDBRANCH   1   5
TORSDOF 4
ENDMDL
MODEL 8
REMARK VINA RESULT:    -4.408      1.521      4.234
REMARK INTER + INTRA:          -6.021
REMARK INTER:                  -5.289
REMARK INTRA:                  -0.732
REMARK UNBOUND:                -0.583
REMARK SMILES CCCCC(=O)c1ccccc1
REMARK SMILES IDX 4 1 3 2 2 3 1 4 5 5 6 6 7 7 8 8 12 9 9 10 11 11 10 12
REMARK H PARENT
REMARK Flexibility Score: inf
ROOT
ATOM      1  C   UNL     1      14.019 -51.418   8.684  1.00  0.00     0.081 C 
ENDROOT
BRANCH   1   2
ATOM      2  C   UNL     1      14.312 -52.357   7.504  1.00  0.00     0.008 C 
BRANCH   2   3
ATOM      3  C   UNL     1      15.181 -53.540   7.947  1.00  0.00    -0.003 C 
ATOM      4  C   UNL     1      16.639 -53.334   7.546  1.00  0.00     0.004 C 
ENDBRANCH   2   3
ENDBRANCH   1   2
BRANCH   1   5
ATOM      5  C   UNL     1      14.653 -50.054   8.529  1.00  0.00     0.162 C 
ATOM      6  O   UNL     1      13.951 -49.019   8.704  1.00  0.00    -0.294 OA
BRANCH   5   7
ATOM      7  C   UNL     1      16.092 -49.903   8.177  1.00  0.00     0.017 A 
ATOM      8  C   UNL     1      16.500 -49.600   6.862  1.00  0.00     0.012 A 
ATOM      9  C   UNL     1      17.081 -50.067   9.169  1.00  0.00     0.012 A 
ATOM     10  C   UNL     1      17.857 -49.462   6.553  1.00  0.00     0.001 A 
ATOM     11  C   UNL     1      18.435 -49.928   8.852  1.00  0.00     0.001 A 
ATOM     12  C   UNL     1      18.823 -49.627   7.547  1.00  0.00     0.000 A 
ENDBRANCH   5   7
ENDBRANCH   1   5
TORSDOF 4
ENDMDL
MODEL 9
REMARK VINA RESULT:    -4.408      2.526      3.769
REMARK INTER + INTRA:          -6.021
REMARK INTER:                  -5.466
REMARK INTRA:                  -0.555
REMARK UNBOUND:                -0.583
REMARK SMILES CCCCC(=O)c1ccccc1
REMARK SMILES IDX 4 1 3 2 2 3 1 4 5 5 6 6 7 7 8 8 12 9 9 10 11 11 10 12
REMARK H PARENT
REMARK Flexibility Score: inf
ROOT
ATOM      1  C   UNL     1      15.496 -48.524   4.798  1.00  0.00     0.081 C 
ENDROOT
BRANCH   1   2
ATOM      2  C   UNL     1      15.233 -47.017   4.936  1.00  0.00     0.008 C 
BRANCH   2   3
ATOM      3  C   UNL     1      14.005 -46.753   5.814  1.00  0.00    -0.003 C 
ATOM      4  C   UNL     1      14.414 -46.295   7.212  1.00  0.00     0.004 C 
ENDBRANCH   2   3
ENDBRANCH   1   2
BRANCH   1   5
ATOM      5  C   UNL     1      16.843 -48.944   5.343  1.00  0.00     0.162 C 
ATOM      6  O   UNL     1      17.856 -48.909   4.590  1.00  0.00    -0.294 OA
BRANCH   5   7
ATOM      7  C   UNL     1      17.002 -49.396   6.753  1.00  0.00     0.017 A 
ATOM      8  C   UNL     1      15.884 -49.673   7.568  1.00  0.00     0.012 A 
ATOM      9  C   UNL     1      18.292 -49.555   7.301  1.00  0.00     0.012 A 
ATOM     10  C   UNL     1      16.056 -50.097   8.889  1.00  0.00     0.001 A 
ATOM     11  C   UNL     1      18.455 -49.978   8.623  1.00  0.00     0.001 A 
ATOM     12  C   UNL     1      17.339 -50.249   9.416  1.00  0.00     0.000 A 
ENDBRANCH   5   7
ENDBRANCH   1   5
TORSDOF 4
ENDMDL
