MODEL 1
REMARK VINA RESULT:    -4.528      0.000      0.000
REMARK INTER + INTRA:          -7.199
REMARK INTER:                  -6.249
REMARK INTRA:                  -0.950
REMARK UNBOUND:                -0.950
REMARK SMILES OC[C@@H](O)[C@H](O)[C@@H](O)CO
REMARK SMILES IDX 5 1 3 2 2 3 1 4 4 6 7 8 9 9 10 10 8 12 6 14
REMARK H PARENT 1 5 4 7 10 11 8 13 6 15
REMARK Flexibility Score: inf
ROOT
ATOM      1  C   UNL     1      16.863  -4.322  18.174  1.00  0.00     0.176 C 
ENDROOT
BRANCH   1   2
ATOM      2  C   UNL     1      18.122  -3.491  17.796  1.00  0.00     0.171 C 
BRANCH   2   3
ATOM      3  C   UNL     1      19.422  -4.274  18.042  1.00  0.00     0.190 C 
BRANCH   3   4
ATOM      4  O   UNL     1      19.435  -5.474  17.315  1.00  0.00    -0.394 OA
ATOM      5  H   UNL     1      18.886  -6.130  17.820  1.00  0.00     0.210 HD
ENDBRANCH   3   4
ENDBRANCH   2   3
BRANCH   2   6
ATOM      6  O   UNL     1      18.072  -3.088  16.450  1.00  0.00    -0.388 OA
ATOM      7  H   UNL     1      18.890  -3.437  16.009  1.00  0.00     0.211 HD
ENDBRANCH   2   6
ENDBRANCH   1   2
BRANCH   1   8
ATOM      8  C   UNL     1      16.020  -4.786  16.951  1.00  0.00     0.171 C 
BRANCH   8   9
ATOM      9  C   UNL     1      14.728  -5.516  17.355  1.00  0.00     0.190 C 
BRANCH   9  10
ATOM     10  O   UNL     1      14.405  -5.243  18.690  1.00  0.00    -0.394 OA
ATOM     11  H   UNL     1      14.455  -4.258  18.792  1.00  0.00     0.210 HD
ENDBRANCH   9  10
ENDBRANCH   8   9
BRANCH   8  12
ATOM     12  O   UNL     1      16.793  -5.669  16.175  1.00  0.00    -0.388 OA
ATOM     13  H   UNL     1      16.365  -5.727  15.281  1.00  0.00     0.211 HD
ENDBRANCH   8  12
ENDBRANCH   1   8
BRANCH   1  14
ATOM     14  O   UNL     1      17.220  -5.432  18.963  1.00  0.00    -0.388 OA
ATOM     15  H   UNL     1      17.404  -6.190  18.348  1.00  0.00     0.211 HD
ENDBRANCH   1  14
TORSDOF 9
ENDMDL
MODEL 2
REMARK VINA RESULT:    -4.464      1.816      4.558
REMARK INTER + INTRA:          -7.110
REMARK INTER:                  -6.179
REMARK INTRA:                  -0.931
REMARK UNBOUND:                -0.950
REMARK SMILES OC[C@@H](O)[C@H](O)[C@@H](O)CO
REMARK SMILES IDX 5 1 3 2 2 3 1 4 4 6 7 8 9 9 10 10 8 12 6 14
REMARK H PARENT 1 5 4 7 10 11 8 13 6 15
REMARK Flexibility Score: inf
ROOT
ATOM      1  C   UNL     1      19.930  -4.038  17.899  1.00  0.00     0.176 C 
ENDROOT
BRANCH   1   2
ATOM      2  C   UNL     1      18.563  -4.229  18.615  1.00  0.00     0.171 C 
BRANCH   2   3
ATOM      3  C   UNL     1      17.380  -4.082  17.645  1.00  0.00     0.190 C 
BRANCH   3   4
ATOM      4  O   UNL     1      17.347  -5.140  16.723  1.00  0.00    -0.394 OA
ATOM      5  H   UNL     1      18.287  -5.335  16.466  1.00  0.00     0.210 HD
ENDBRANCH   3   4
ENDBRANCH   2   3
BRANCH   2   6
ATOM      6  O   UNL     1      18.495  -5.486  19.241  1.00  0.00    -0.388 OA
ATOM      7  H   UNL     1      17.909  -5.387  20.035  1.00  0.00     0.211 HD
ENDBRANCH   2   6
ENDBRANCH   1   2
BRANCH   1   8
ATOM      8  C   UNL     1      20.739  -5.355  17.718  1.00  0.00     0.171 C 
BRANCH   8   9
ATOM      9  C   UNL     1      22.066  -5.145  16.969  1.00  0.00     0.190 C 
BRANCH   9  10
ATOM     10  O   UNL     1      22.457  -3.802  17.026  1.00  0.00    -0.394 OA
ATOM     11  H   UNL     1      22.134  -3.456  17.897  1.00  0.00     0.210 HD
ENDBRANCH   9  10
ENDBRANCH   8   9
BRANCH   8  12
ATOM     12  O   UNL     1      19.964  -6.268  16.980  1.00  0.00    -0.388 OA
ATOM     13  H   UNL     1      19.339  -6.704  17.615  1.00  0.00     0.211 HD
ENDBRANCH   8  12
ENDBRANCH   1   8
BRANCH   1  14
ATOM     14  O   UNL     1      19.753  -3.406  16.654  1.00  0.00    -0.388 OA
ATOM     15  H   UNL     1      19.363  -4.074  16.031  1.00  0.00     0.211 HD
ENDBRANCH   1  14
TORSDOF 9
ENDMDL
MODEL 3
REMARK VINA RESULT:    -4.462      1.570      2.125
REMARK INTER + INTRA:          -7.107
REMARK INTER:                  -6.152
REMARK INTRA:                  -0.955
REMARK UNBOUND:                -0.950
REMARK SMILES OC[C@@H](O)[C@H](O)[C@@H](O)CO
REMARK SMILES IDX 5 1 3 2 2 3 1 4 4 6 7 8 9 9 10 10 8 12 6 14
REMARK H PARENT 1 5 4 7 10 11 8 13 6 15
REMARK Flexibility Score: inf
ROOT
ATOM      1  C   UNL     1      15.734  -3.455  17.395  1.00  0.00     0.176 C 
ENDROOT
BRANCH   1   2
ATOM      2  C   UNL     1      17.133  -2.778  17.360  1.00  0.00     0.171 C 
BRANCH   2   3
ATOM      3  C   UNL     1      17.500  -2.144  18.711  1.00  0.00     0.190 C 
BRANCH   3   4
ATOM      4  O   UNL     1      17.720  -3.128  19.689  1.00  0.00    -0.394 OA
ATOM      5  H   UNL     1      18.689  -3.116  19.904  1.00  0.00     0.210 HD
ENDBRANCH   3   4
ENDBRANCH   2   3
BRANCH   2   6
ATOM      6  O   UNL     1      18.129  -3.702  16.997  1.00  0.00    -0.388 OA
ATOM      7  H   UNL     1      17.864  -4.090  16.123  1.00  0.00     0.211 HD
ENDBRANCH   2   6
ENDBRANCH   1   2
BRANCH   1   8
ATOM      8  C   UNL     1      15.782  -5.010  17.378  1.00  0.00     0.171 C 
BRANCH   8   9
ATOM      9  C   UNL     1      14.386  -5.654  17.429  1.00  0.00     0.190 C 
BRANCH   9  10
ATOM     10  O   UNL     1      13.895  -5.662  18.741  1.00  0.00    -0.394 OA
ATOM     11  H   UNL     1      12.906  -5.657  18.666  1.00  0.00     0.210 HD
ENDBRANCH   9  10
ENDBRANCH   8   9
BRANCH   8  12
ATOM     12  O   UNL     1      16.508  -5.456  18.497  1.00  0.00    -0.388 OA
ATOM     13  H   UNL     1      17.462  -5.505  18.230  1.00  0.00     0.211 HD
ENDBRANCH   8  12
ENDBRANCH   1   8
BRANCH   1  14
ATOM     14  O   UNL     1      14.996  -3.009  18.508  1.00  0.00    -0.388 OA
ATOM     15  H   UNL     1      14.591  -2.134  18.268  1.00  0.00     0.211 HD
ENDBRANCH   1  14
TORSDOF 9
ENDMDL
MODEL 4
REMARK VINA RESULT:    -4.459      1.029      3.920
REMARK INTER + INTRA:          -7.103
REMARK INTER:                  -6.606
REMARK INTRA:                  -0.497
REMARK UNBOUND:                -0.950
REMARK SMILES OC[C@@H](O)[C@H](O)[C@@H](O)CO
REMARK SMILES IDX 5 1 3 2 2 3 1 4 4 6 7 8 9 9 10 10 8 12 6 14
REMARK H PARENT 1 5 4 7 10 11 8 13 6 15
REMARK Flexibility Score: inf
ROOT
ATOM      1  C   UNL     1      16.831  -4.321  17.079  1.00  0.00     0.176 C 
ENDROOT
BRANCH   1   2
ATOM      2  C   UNL     1      15.336  -4.148  17.468  1.00  0.00     0.171 C 
BRANCH   2   3
ATOM      3  C   UNL     1      14.588  -5.491  17.490  1.00  0.00     0.190 C 
BRANCH   3   4
ATOM      4  O   UNL     1      13.893  -5.664  18.697  1.00  0.00    -0.394 OA
ATOM      5  H   UNL     1      12.984  -5.286  18.570  1.00  0.00     0.210 HD
ENDBRANCH   3   4
ENDBRANCH   2   3
BRANCH   2   6
ATOM      6  O   UNL     1      15.212  -3.530  18.725  1.00  0.00    -0.388 OA
ATOM      7  H   UNL     1      15.874  -3.956  19.328  1.00  0.00     0.211 HD
ENDBRANCH   2   6
ENDBRANCH   1   2
BRANCH   1   8
ATOM      8  C   UNL     1      17.808  -4.284  18.290  1.00  0.00     0.171 C 
BRANCH   8   9
ATOM      9  C   UNL     1      19.287  -4.344  17.869  1.00  0.00     0.190 C 
BRANCH   9  10
ATOM     10  O   UNL     1      19.615  -5.623  17.401  1.00  0.00    -0.394 OA
ATOM     11  H   UNL     1      19.705  -6.197  18.205  1.00  0.00     0.210 HD
ENDBRANCH   9  10
ENDBRANCH   8   9
BRANCH   8  12
ATOM     12  O   UNL     1      17.548  -5.390  19.119  1.00  0.00    -0.388 OA
ATOM     13  H   UNL     1      16.805  -5.900  18.705  1.00  0.00     0.211 HD
ENDBRANCH   8  12
ENDBRANCH   1   8
BRANCH   1  14
ATOM     14  O   UNL     1      17.018  -5.507  16.346  1.00  0.00    -0.388 OA
ATOM     15  H   UNL     1      16.859  -6.270  16.962  1.00  0.00     0.211 HD
ENDBRANCH   1  14
TORSDOF 9
ENDMDL
MODEL 5
REMARK VINA RESULT:    -4.448      1.354      3.858
REMARK INTER + INTRA:          -7.088
REMARK INTER:                  -6.103
REMARK INTRA:                  -0.985
REMARK UNBOUND:                -0.950
REMARK SMILES OC[C@@H](O)[C@H](O)[C@@H](O)CO
REMARK SMILES IDX 5 1 3 2 2 3 1 4 4 6 7 8 9 9 10 10 8 12 6 14
REMARK H PARENT 1 5 4 7 10 11 8 13 6 15
REMARK Flexibility Score: inf
ROOT
ATOM      1  C   UNL     1      15.732  -4.515  18.592  1.00  0.00     0.176 C 
ENDROOT
BRANCH   1   2
ATOM      2  C   UNL     1      15.322  -5.387  17.372  1.00  0.00     0.171 C 
BRANCH   2   3
ATOM      3  C   UNL     1      13.884  -5.913  17.498  1.00  0.00     0.190 C 
BRANCH   3   4
ATOM      4  O   UNL     1      13.456  -5.903  18.835  1.00  0.00    -0.394 OA
ATOM      5  H   UNL     1      14.146  -5.418  19.360  1.00  0.00     0.210 HD
ENDBRANCH   3   4
ENDBRANCH   2   3
BRANCH   2   6
ATOM      6  O   UNL     1      15.447  -4.664  16.173  1.00  0.00    -0.388 OA
ATOM      7  H   UNL     1      16.272  -4.117  16.244  1.00  0.00     0.211 HD
ENDBRANCH   2   6
ENDBRANCH   1   2
BRANCH   1   8
ATOM      8  C   UNL     1      17.260  -4.233  18.684  1.00  0.00     0.171 C 
BRANCH   8   9
ATOM      9  C   UNL     1      17.619  -2.767  18.385  1.00  0.00     0.190 C 
BRANCH   9  10
ATOM     10  O   UNL     1      17.308  -2.445  17.058  1.00  0.00    -0.394 OA
ATOM     11  H   UNL     1      16.366  -2.134  17.062  1.00  0.00     0.210 HD
ENDBRANCH   9  10
ENDBRANCH   8   9
BRANCH   8  12
ATOM     12  O   UNL     1      17.930  -5.044  17.750  1.00  0.00    -0.388 OA
ATOM     13  H   UNL     1      18.706  -5.450  18.216  1.00  0.00     0.211 HD
ENDBRANCH   8  12
ENDBRANCH   1   8
BRANCH   1  14
ATOM     14  O   UNL     1      15.018  -3.302  18.596  1.00  0.00    -0.388 OA
ATOM     15  H   UNL     1      15.557  -2.634  18.096  1.00  0.00     0.211 HD
ENDBRANCH   1  14
TORSDOF 9
ENDMDL
MODEL 6
REMARK VINA RESULT:    -4.390      2.174      3.559
REMARK INTER + INTRA:          -7.009
REMARK INTER:                  -6.482
REMARK INTRA:                  -0.527
REMARK UNBOUND:                -0.950
REMARK SMILES OC[C@@H](O)[C@H](O)[C@@H](O)CO
REMARK SMILES IDX 5 1 3 2 2 3 1 4 4 6 7 8 9 9 10 10 8 12 6 14
REMARK H PARENT 1 5 4 7 10 11 8 13 6 15
REMARK Flexibility Score: inf
ROOT
ATOM      1  C   UNL     1      20.091  -5.032  18.225  1.00  0.00     0.176 C 
ENDROOT
BRANCH   1   2
ATOM      2  C   UNL     1      21.609  -4.701  18.273  1.00  0.00     0.171 C 
BRANCH   2   3
ATOM      3  C   UNL     1      22.294  -4.941  16.919  1.00  0.00     0.190 C 
BRANCH   3   4
ATOM      4  O   UNL     1      22.971  -3.791  16.482  1.00  0.00    -0.394 OA
ATOM      5  H   UNL     1      22.805  -3.080  17.155  1.00  0.00     0.210 HD
ENDBRANCH   3   4
ENDBRANCH   2   3
BRANCH   2   6
ATOM      6  O   UNL     1      21.820  -3.368  18.668  1.00  0.00    -0.388 OA
ATOM      7  H   UNL     1      21.724  -3.336  19.655  1.00  0.00     0.211 HD
ENDBRANCH   2   6
ENDBRANCH   1   2
BRANCH   1   8
ATOM      8  C   UNL     1      19.173  -3.780  18.120  1.00  0.00     0.171 C 
BRANCH   8   9
ATOM      9  C   UNL     1      17.682  -4.111  18.311  1.00  0.00     0.190 C 
BRANCH   9  10
ATOM     10  O   UNL     1      17.529  -5.375  18.895  1.00  0.00    -0.394 OA
ATOM     11  H   UNL     1      18.249  -5.944  18.517  1.00  0.00     0.210 HD
ENDBRANCH   9  10
ENDBRANCH   8   9
BRANCH   8  12
ATOM     12  O   UNL     1      19.330  -3.205  16.847  1.00  0.00    -0.388 OA
ATOM     13  H   UNL     1      19.456  -2.229  16.978  1.00  0.00     0.211 HD
ENDBRANCH   8  12
ENDBRANCH   1   8
BRANCH   1  14
ATOM     14  O   UNL     1      19.812  -5.923  17.172  1.00  0.00    -0.388 OA
ATOM     15  H   UNL     1      18.829  -6.070  17.154  1.00  0.00     0.211 HD
ENDBRANCH   1  14
TORSDOF 9
ENDMDL
MODEL 7
REMARK VINA RESULT:    -4.368      1.519      3.744
REMARK INTER + INTRA:          -6.978
REMARK INTER:                  -6.082
REMARK INTRA:                  -0.896
REMARK UNBOUND:                -0.950
REMARK SMILES OC[C@@H](O)[C@H](O)[C@@H](O)CO
REMARK SMILES IDX 5 1 3 2 2 3 1 4 4 6 7 8 9 9 10 10 8 12 6 14
REMARK H PARENT 1 5 4 7 10 11 8 13 6 15
REMARK Flexibility Score: inf
ROOT
ATOM      1  C   UNL     1      16.944  -4.484  17.655  1.00  0.00     0.176 C 
ENDROOT
BRANCH   1   2
ATOM      2  C   UNL     1      15.436  -4.170  17.441  1.00  0.00     0.171 C 
BRANCH   2   3
ATOM      3  C   UNL     1      14.576  -5.444  17.455  1.00  0.00     0.190 C 
BRANCH   3   4
ATOM      4  O   UNL     1      13.971  -5.632  18.708  1.00  0.00    -0.394 OA
ATOM      5  H   UNL     1      12.989  -5.613  18.566  1.00  0.00     0.210 HD
ENDBRANCH   3   4
ENDBRANCH   2   3
BRANCH   2   6
ATOM      6  O   UNL     1      14.963  -3.282  18.423  1.00  0.00    -0.388 OA
ATOM      7  H   UNL     1      15.179  -3.680  19.306  1.00  0.00     0.211 HD
ENDBRANCH   2   6
ENDBRANCH   1   2
BRANCH   1   8
ATOM      8  C   UNL     1      17.856  -3.223  17.673  1.00  0.00     0.171 C 
BRANCH   8   9
ATOM      9  C   UNL     1      18.409  -2.903  19.073  1.00  0.00     0.190 C 
BRANCH   9  10
ATOM     10  O   UNL     1      17.375  -2.513  19.933  1.00  0.00    -0.394 OA
ATOM     11  H   UNL     1      16.940  -3.349  20.241  1.00  0.00     0.210 HD
ENDBRANCH   9  10
ENDBRANCH   8   9
BRANCH   8  12
ATOM     12  O   UNL     1      17.110  -2.114  17.237  1.00  0.00    -0.388 OA
ATOM     13  H   UNL     1      17.550  -1.302  17.599  1.00  0.00     0.211 HD
ENDBRANCH   8  12
ENDBRANCH   1   8
BRANCH   1  14
ATOM     14  O   UNL     1      17.132  -5.231  18.833  1.00  0.00    -0.388 OA
ATOM     15  H   UNL     1      17.970  -5.754  18.727  1.00  0.00     0.211 HD
ENDBRANCH   1  14
TORSDOF 9
ENDMDL
MODEL 8
REMARK VINA RESULT:    -4.246      3.703      4.617
REMARK INTER + INTRA:          -6.809
REMARK INTER:                  -6.090
REMARK INTRA:                  -0.719
REMARK UNBOUND:                -0.950
REMARK SMILES OC[C@@H](O)[C@H](O)[C@@H](O)CO
REMARK SMILES IDX 5 1 3 2 2 3 1 4 4 6 7 8 9 9 10 10 8 12 6 14
REMARK H PARENT 1 5 4 7 10 11 8 13 6 15
REMARK Flexibility Score: inf
ROOT
ATOM      1  C   UNL     1      19.933  -3.499  18.064  1.00  0.00     0.176 C 
ENDROOT
BRANCH   1   2
ATOM      2  C   UNL     1      21.251  -4.228  18.450  1.00  0.00     0.171 C 
BRANCH   2   3
ATOM      3  C   UNL     1      21.993  -4.767  17.217  1.00  0.00     0.190 C 
BRANCH   3   4
ATOM      4  O   UNL     1      22.787  -3.770  16.627  1.00  0.00    -0.394 OA
ATOM      5  H   UNL     1      22.170  -3.117  16.203  1.00  0.00     0.210 HD
ENDBRANCH   3   4
ENDBRANCH   2   3
BRANCH   2   6
ATOM      6  O   UNL     1      22.106  -3.372  19.167  1.00  0.00    -0.388 OA
ATOM      7  H   UNL     1      21.838  -2.441  18.951  1.00  0.00     0.211 HD
ENDBRANCH   2   6
ENDBRANCH   1   2
BRANCH   1   8
ATOM      8  C   UNL     1      19.791  -2.077  18.680  1.00  0.00     0.171 C 
BRANCH   8   9
ATOM      9  C   UNL     1      18.423  -1.433  18.392  1.00  0.00     0.190 C 
BRANCH   9  10
ATOM     10  O   UNL     1      18.312  -1.096  17.038  1.00  0.00    -0.394 OA
ATOM     11  H   UNL     1      17.384  -0.773  16.908  1.00  0.00     0.210 HD
ENDBRANCH   9  10
ENDBRANCH   8   9
BRANCH   8  12
ATOM     12  O   UNL     1      20.785  -1.244  18.137  1.00  0.00    -0.388 OA
ATOM     13  H   UNL     1      20.374  -0.354  17.986  1.00  0.00     0.211 HD
ENDBRANCH   8  12
ENDBRANCH   1   8
BRANCH   1  14
ATOM     14  O   UNL     1      19.795  -3.434  16.664  1.00  0.00    -0.388 OA
ATOM     15  H   UNL     1      20.510  -2.836  16.320  1.00  0.00     0.211 HD
ENDBRANCH   1  14
TORSDOF 9
ENDMDL
MODEL 9
REMARK VINA RESULT:    -4.244      6.828      8.156
REMARK INTER + INTRA:          -6.807
REMARK INTER:                  -5.865
REMARK INTRA:                  -0.942
REMARK UNBOUND:                -0.950
REMARK SMILES OC[C@@H](O)[C@H](O)[C@@H](O)CO
REMARK SMILES IDX 5 1 3 2 2 3 1 4 4 6 7 8 9 9 10 10 8 12 6 14
REMARK H PARENT 1 5 4 7 10 11 8 13 6 15
REMARK Flexibility Score: inf
ROOT
ATOM      1  C   UNL     1      22.197  -1.491  22.464  1.00  0.00     0.176 C 
ENDROOT
BRANCH   1   2
ATOM      2  C   UNL     1      23.631  -1.446  21.864  1.00  0.00     0.171 C 
BRANCH   2   3
ATOM      3  C   UNL     1      24.460  -0.288  22.443  1.00  0.00     0.190 C 
BRANCH   3   4
ATOM      4  O   UNL     1      25.001  -0.628  23.693  1.00  0.00    -0.394 OA
ATOM      5  H   UNL     1      25.814  -1.172  23.524  1.00  0.00     0.210 HD
ENDBRANCH   3   4
ENDBRANCH   2   3
BRANCH   2   6
ATOM      6  O   UNL     1      24.308  -2.657  22.089  1.00  0.00    -0.388 OA
ATOM      7  H   UNL     1      25.280  -2.463  22.043  1.00  0.00     0.211 HD
ENDBRANCH   2   6
ENDBRANCH   1   2
BRANCH   1   8
ATOM      8  C   UNL     1      21.317  -2.650  21.913  1.00  0.00     0.171 C 
BRANCH   8   9
ATOM      9  C   UNL     1      21.023  -3.732  22.967  1.00  0.00     0.190 C 
BRANCH   9  10
ATOM     10  O   UNL     1      22.183  -4.456  23.268  1.00  0.00    -0.394 OA
ATOM     11  H   UNL     1      22.590  -4.701  22.398  1.00  0.00     0.210 HD
ENDBRANCH   9  10
ENDBRANCH   8   9
BRANCH   8  12
ATOM     12  O   UNL     1      21.989  -3.262  20.840  1.00  0.00    -0.388 OA
ATOM     13  H   UNL     1      21.307  -3.740  20.300  1.00  0.00     0.211 HD
ENDBRANCH   8  12
ENDBRANCH   1   8
BRANCH   1  14
ATOM     14  O   UNL     1      22.250  -1.552  23.869  1.00  0.00    -0.388 OA
ATOM     15  H   UNL     1      22.393  -2.502  24.124  1.00  0.00     0.211 HD
ENDBRANCH   1  14
TORSDOF 9
ENDMDL
