MODEL 1
REMARK VINA RESULT:    -4.144      0.000      0.000
REMARK INTER + INTRA:          -7.844
REMARK INTER:                  -6.566
REMARK INTRA:                  -1.277
REMARK UNBOUND:                -1.277
REMARK SMILES CCCCCCCCCCCC(=O)[O-]
REMARK SMILES IDX 7 1 8 2 9 3 10 4 11 5 12 6 13 7 14 8 6 9 5 10 4 11 3 12 2 13
REMARK SMILES IDX 1 14
REMARK H PARENT
REMARK Flexibility Score: inf
ROOT
ATOM      1  C   UNL     1      56.249  13.640  91.015  1.00  0.00     0.000 C 
ENDROOT
BRANCH   1   2
ATOM      2  C   UNL     1      57.081  13.347  92.271  1.00  0.00     0.000 C 
BRANCH   2   3
ATOM      3  C   UNL     1      57.011  11.861  92.644  1.00  0.00     0.000 C 
BRANCH   3   4
ATOM      4  C   UNL     1      55.580  11.457  93.028  1.00  0.00     0.006 C 
BRANCH   4   5
ATOM      5  C   UNL     1      55.136  10.160  92.337  1.00  0.00     0.053 C 
BRANCH   5   6
ATOM      6  C   UNL     1      54.455   9.227  93.291  1.00  0.00     0.041 C 
ATOM      7  O   UNL     1      53.601   8.403  92.869  1.00  0.00    -0.550 OA
ATOM      8  O   UNL     1      54.738   9.290  94.649  1.00  0.00    -0.550 OA
ENDBRANCH   5   6
ENDBRANCH   4   5
ENDBRANCH   3   4
ENDBRANCH   2   3
ENDBRANCH   1   2
BRANCH   1   9
ATOM      9  C   UNL     1      57.031  13.393  89.715  1.00  0.00     0.000 C 
BRANCH   9  10
ATOM     10  C   UNL     1      56.324  12.398  88.777  1.00  0.00    -0.000 C 
BRANCH  10  11
ATOM     11  C   UNL     1      57.135  11.098  88.591  1.00  0.00    -0.000 C 
BRANCH  11  12
ATOM     12  C   UNL     1      58.576  11.191  89.124  1.00  0.00    -0.000 C 
BRANCH  12  13
ATOM     13  C   UNL     1      58.911  10.087  90.134  1.00  0.00    -0.003 C 
ATOM     14  C   UNL     1      60.238  10.365  90.835  1.00  0.00     0.004 C 
ENDBRANCH  12  13
ENDBRANCH  11  12
ENDBRANCH  10  11
ENDBRANCH   9  10
ENDBRANCH   1   9
TORSDOF 10
ENDMDL
MODEL 2
REMARK VINA RESULT:    -4.134      1.587      2.661
REMARK INTER + INTRA:          -7.828
REMARK INTER:                  -6.827
REMARK INTRA:                  -1.001
REMARK UNBOUND:                -1.277
REMARK SMILES CCCCCCCCCCCC(=O)[O-]
REMARK SMILES IDX 7 1 8 2 9 3 10 4 11 5 12 6 13 7 14 8 6 9 5 10 4 11 3 12 2 13
REMARK SMILES IDX 1 14
REMARK H PARENT
REMARK Flexibility Score: inf
ROOT
ATOM      1  C   UNL     1      54.765  12.030  91.800  1.00  0.00     0.000 C 
ENDROOT
BRANCH   1   2
ATOM      2  C   UNL     1      54.971  10.996  92.917  1.00  0.00     0.000 C 
BRANCH   2   3
ATOM      3  C   UNL     1      54.872   9.568  92.368  1.00  0.00     0.000 C 
BRANCH   3   4
ATOM      4  C   UNL     1      54.351   8.601  93.441  1.00  0.00     0.006 C 
BRANCH   4   5
ATOM      5  C   UNL     1      54.169   9.286  94.803  1.00  0.00     0.053 C 
BRANCH   5   6
ATOM      6  C   UNL     1      55.001   8.638  95.868  1.00  0.00     0.041 C 
ATOM      7  O   UNL     1      56.028   9.217  96.308  1.00  0.00    -0.550 OA
ATOM      8  O   UNL     1      54.660   7.379  96.349  1.00  0.00    -0.550 OA
ENDBRANCH   5   6
ENDBRANCH   4   5
ENDBRANCH   3   4
ENDBRANCH   2   3
ENDBRANCH   1   2
BRANCH   1   9
ATOM      9  C   UNL     1      55.803  13.162  91.842  1.00  0.00     0.000 C 
BRANCH   9  10
ATOM     10  C   UNL     1      56.698  13.193  90.590  1.00  0.00    -0.000 C 
BRANCH  10  11
ATOM     11  C   UNL     1      56.100  12.371  89.428  1.00  0.00    -0.000 C 
BRANCH  11  12
ATOM     12  C   UNL     1      57.140  11.520  88.677  1.00  0.00    -0.000 C 
BRANCH  12  13
ATOM     13  C   UNL     1      58.282  11.038  89.580  1.00  0.00    -0.003 C 
ATOM     14  C   UNL     1      57.926   9.719  90.260  1.00  0.00     0.004 C 
ENDBRANCH  12  13
ENDBRANCH  11  12
ENDBRANCH  10  11
ENDBRANCH   9  10
ENDBRANCH   1   9
TORSDOF 10
ENDMDL
MODEL 3
REMARK VINA RESULT:    -4.065      3.836      5.281
REMARK INTER + INTRA:          -7.718
REMARK INTER:                  -6.798
REMARK INTRA:                  -0.920
REMARK UNBOUND:                -1.277
REMARK SMILES CCCCCCCCCCCC(=O)[O-]
REMARK SMILES IDX 7 1 8 2 9 3 10 4 11 5 12 6 13 7 14 8 6 9 5 10 4 11 3 12 2 13
REMARK SMILES IDX 1 14
REMARK H PARENT
REMARK Flexibility Score: inf
ROOT
ATOM      1  C   UNL     1      57.200  11.461  88.587  1.00  0.00     0.000 C 
ENDROOT
BRANCH   1   2
ATOM      2  C   UNL     1      58.441  10.922  89.314  1.00  0.00     0.000 C 
BRANCH   2   3
ATOM      3  C   UNL     1      58.331  11.144  90.827  1.00  0.00     0.000 C 
BRANCH   3   4
ATOM      4  C   UNL     1      59.686  11.548  91.424  1.00  0.00     0.006 C 
BRANCH   4   5
ATOM      5  C   UNL     1      60.802  10.560  91.058  1.00  0.00     0.053 C 
BRANCH   5   6
ATOM      6  C   UNL     1      61.833  10.457  92.140  1.00  0.00     0.041 C 
ATOM      7  O   UNL     1      62.220   9.328  92.540  1.00  0.00    -0.550 OA
ATOM      8  O   UNL     1      62.340  11.608  92.731  1.00  0.00    -0.550 OA
ENDBRANCH   5   6
ENDBRANCH   4   5
ENDBRANCH   3   4
ENDBRANCH   2   3
ENDBRANCH   1   2
BRANCH   1   9
ATOM      9  C   UNL     1      56.335  12.364  89.481  1.00  0.00     0.000 C 
BRANCH   9  10
ATOM     10  C   UNL     1      56.333  13.832  89.017  1.00  0.00    -0.000 C 
BRANCH  10  11
ATOM     11  C   UNL     1      57.093  14.751  89.997  1.00  0.00    -0.000 C 
BRANCH  11  12
ATOM     12  C   UNL     1      58.598  14.863  89.694  1.00  0.00    -0.000 C 
BRANCH  12  13
ATOM     13  C   UNL     1      59.198  16.203  90.137  1.00  0.00    -0.003 C 
ATOM     14  C   UNL     1      59.755  16.114  91.555  1.00  0.00     0.004 C 
ENDBRANCH  12  13
ENDBRANCH  11  12
ENDBRANCH  10  11
ENDBRANCH   9  10
ENDBRANCH   1   9
TORSDOF 10
ENDMDL
MODEL 4
REMARK VINA RESULT:    -4.010     11.580     14.766
REMARK INTER + INTRA:          -7.631
REMARK INTER:                  -6.580
REMARK INTRA:                  -1.051
REMARK UNBOUND:                -1.277
REMARK SMILES CCCCCCCCCCCC(=O)[O-]
REMARK SMILES IDX 7 1 8 2 9 3 10 4 11 5 12 6 13 7 14 8 6 9 5 10 4 11 3 12 2 13
REMARK SMILES IDX 1 14
REMARK H PARENT
REMARK Flexibility Score: inf
ROOT
ATOM      1  C   UNL     1      50.259   2.908 104.471  1.00  0.00     0.000 C 
ENDROOT
BRANCH   1   2
ATOM      2  C   UNL     1      50.800   4.345 104.480  1.00  0.00     0.000 C 
BRANCH   2   3
ATOM      3  C   UNL     1      51.244   4.774 103.076  1.00  0.00     0.000 C 
BRANCH   3   4
ATOM      4  C   UNL     1      50.766   6.198 102.758  1.00  0.00     0.006 C 
BRANCH   4   5
ATOM      5  C   UNL     1      51.726   6.937 101.816  1.00  0.00     0.053 C 
BRANCH   5   6
ATOM      6  C   UNL     1      51.245   6.910 100.398  1.00  0.00     0.041 C 
ATOM      7  O   UNL     1      50.159   6.343 100.109  1.00  0.00    -0.550 OA
ATOM      8  O   UNL     1      52.012   7.483  99.391  1.00  0.00    -0.550 OA
ENDBRANCH   5   6
ENDBRANCH   4   5
ENDBRANCH   3   4
ENDBRANCH   2   3
ENDBRANCH   1   2
BRANCH   1   9
ATOM      9  C   UNL     1      50.864   2.054 103.347  1.00  0.00     0.000 C 
BRANCH   9  10
ATOM     10  C   UNL     1      51.938   1.076 103.856  1.00  0.00    -0.000 C 
BRANCH  10  11
ATOM     11  C   UNL     1      53.362   1.515 103.451  1.00  0.00    -0.000 C 
BRANCH  11  12
ATOM     12  C   UNL     1      53.972   2.569 104.393  1.00  0.00    -0.000 C 
BRANCH  12  13
ATOM     13  C   UNL     1      55.113   3.361 103.743  1.00  0.00    -0.003 C 
ATOM     14  C   UNL     1      54.702   3.893 102.372  1.00  0.00     0.004 C 
ENDBRANCH  12  13
ENDBRANCH  11  12
ENDBRANCH  10  11
ENDBRANCH   9  10
ENDBRANCH   1   9
TORSDOF 10
ENDMDL
MODEL 5
REMARK VINA RESULT:    -4.006      1.186      2.451
REMARK INTER + INTRA:          -7.626
REMARK INTER:                  -6.296
REMARK INTRA:                  -1.330
REMARK UNBOUND:                -1.277
REMARK SMILES CCCCCCCCCCCC(=O)[O-]
REMARK SMILES IDX 7 1 8 2 9 3 10 4 11 5 12 6 13 7 14 8 6 9 5 10 4 11 3 12 2 13
REMARK SMILES IDX 1 14
REMARK H PARENT
REMARK Flexibility Score: inf
ROOT
ATOM      1  C   UNL     1      57.082  12.350  93.067  1.00  0.00     0.000 C 
ENDROOT
BRANCH   1   2
ATOM      2  C   UNL     1      55.783  12.952  92.514  1.00  0.00     0.000 C 
BRANCH   2   3
ATOM      3  C   UNL     1      54.800  11.850  92.100  1.00  0.00     0.000 C 
BRANCH   3   4
ATOM      4  C   UNL     1      55.449  10.463  92.212  1.00  0.00     0.006 C 
BRANCH   4   5
ATOM      5  C   UNL     1      54.423   9.364  92.523  1.00  0.00     0.053 C 
BRANCH   5   6
ATOM      6  C   UNL     1      54.443   8.978  93.970  1.00  0.00     0.041 C 
ATOM      7  O   UNL     1      53.958   7.876  94.338  1.00  0.00    -0.550 OA
ATOM      8  O   UNL     1      54.965   9.851  94.917  1.00  0.00    -0.550 OA
ENDBRANCH   5   6
ENDBRANCH   4   5
ENDBRANCH   3   4
ENDBRANCH   2   3
ENDBRANCH   1   2
BRANCH   1   9
ATOM      9  C   UNL     1      58.337  12.917  92.383  1.00  0.00     0.000 C 
BRANCH   9  10
ATOM     10  C   UNL     1      58.981  11.919  91.404  1.00  0.00    -0.000 C 
BRANCH  10  11
ATOM     11  C   UNL     1      58.700  12.288  89.931  1.00  0.00    -0.000 C 
BRANCH  11  12
ATOM     12  C   UNL     1      58.129  11.122  89.104  1.00  0.00    -0.000 C 
BRANCH  12  13
ATOM     13  C   UNL     1      56.833  11.488  88.372  1.00  0.00    -0.003 C 
ATOM     14  C   UNL     1      56.287  12.829  88.856  1.00  0.00     0.004 C 
ENDBRANCH  12  13
ENDBRANCH  11  12
ENDBRANCH  10  11
ENDBRANCH   9  10
ENDBRANCH   1   9
TORSDOF 10
ENDMDL
MODEL 6
REMARK VINA RESULT:    -3.988      3.055      5.481
REMARK INTER + INTRA:          -7.596
REMARK INTER:                  -6.598
REMARK INTRA:                  -0.998
REMARK UNBOUND:                -1.277
REMARK SMILES CCCCCCCCCCCC(=O)[O-]
REMARK SMILES IDX 7 1 8 2 9 3 10 4 11 5 12 6 13 7 14 8 6 9 5 10 4 11 3 12 2 13
REMARK SMILES IDX 1 14
REMARK H PARENT
REMARK Flexibility Score: inf
ROOT
ATOM      1  C   UNL     1      56.742  10.765  91.236  1.00  0.00     0.000 C 
ENDROOT
BRANCH   1   2
ATOM      2  C   UNL     1      57.471  10.174  90.020  1.00  0.00     0.000 C 
BRANCH   2   3
ATOM      3  C   UNL     1      58.132  11.279  89.187  1.00  0.00     0.000 C 
BRANCH   3   4
ATOM      4  C   UNL     1      59.663  11.203  89.287  1.00  0.00     0.006 C 
BRANCH   4   5
ATOM      5  C   UNL     1      60.128  10.146  90.298  1.00  0.00     0.053 C 
BRANCH   5   6
ATOM      6  C   UNL     1      60.818  10.766  91.474  1.00  0.00     0.041 C 
ATOM      7  O   UNL     1      61.876  10.258  91.928  1.00  0.00    -0.550 OA
ATOM      8  O   UNL     1      60.272  11.886  92.091  1.00  0.00    -0.550 OA
ENDBRANCH   5   6
ENDBRANCH   4   5
ENDBRANCH   3   4
ENDBRANCH   2   3
ENDBRANCH   1   2
BRANCH   1   9
ATOM      9  C   UNL     1      56.823  12.299  91.288  1.00  0.00     0.000 C 
BRANCH   9  10
ATOM     10  C   UNL     1      55.441  12.970  91.188  1.00  0.00    -0.000 C 
BRANCH  10  11
ATOM     11  C   UNL     1      54.401  12.296  92.109  1.00  0.00    -0.000 C 
BRANCH  11  12
ATOM     12  C   UNL     1      54.055  13.126  93.358  1.00  0.00    -0.000 C 
BRANCH  12  13
ATOM     13  C   UNL     1      54.722  12.593  94.632  1.00  0.00    -0.003 C 
ATOM     14  C   UNL     1      54.933  11.084  94.552  1.00  0.00     0.004 C 
ENDBRANCH  12  13
ENDBRANCH  11  12
ENDBRANCH  10  11
ENDBRANCH   9  10
ENDBRANCH   1   9
TORSDOF 10
ENDMDL
MODEL 7
REMARK VINA RESULT:    -3.980      8.157      9.808
REMARK INTER + INTRA:          -7.584
REMARK INTER:                  -6.281
REMARK INTRA:                  -1.303
REMARK UNBOUND:                -1.277
REMARK SMILES CCCCCCCCCCCC(=O)[O-]
REMARK SMILES IDX 7 1 8 2 9 3 10 4 11 5 12 6 13 7 14 8 6 9 5 10 4 11 3 12 2 13
REMARK SMILES IDX 1 14
REMARK H PARENT
REMARK Flexibility Score: inf
ROOT
ATOM      1  C   UNL     1      50.184  17.060  97.175  1.00  0.00     0.000 C 
ENDROOT
BRANCH   1   2
ATOM      2  C   UNL     1      49.625  15.746  96.612  1.00  0.00     0.000 C 
BRANCH   2   3
ATOM      3  C   UNL     1      48.419  16.007  95.700  1.00  0.00     0.000 C 
BRANCH   3   4
ATOM      4  C   UNL     1      48.033  14.742  94.922  1.00  0.00     0.006 C 
BRANCH   4   5
ATOM      5  C   UNL     1      47.079  13.839  95.715  1.00  0.00     0.053 C 
BRANCH   5   6
ATOM      6  C   UNL     1      46.624  12.662  94.906  1.00  0.00     0.041 C 
ATOM      7  O   UNL     1      46.660  11.504  95.398  1.00  0.00    -0.550 OA
ATOM      8  O   UNL     1      46.192  12.842  93.598  1.00  0.00    -0.550 OA
ENDBRANCH   5   6
ENDBRANCH   4   5
ENDBRANCH   3   4
ENDBRANCH   2   3
ENDBRANCH   1   2
BRANCH   1   9
ATOM      9  C   UNL     1      50.064  18.229  96.184  1.00  0.00     0.000 C 
BRANCH   9  10
ATOM     10  C   UNL     1      51.434  18.756  95.720  1.00  0.00    -0.000 C 
BRANCH  10  11
ATOM     11  C   UNL     1      51.777  18.298  94.286  1.00  0.00    -0.000 C 
BRANCH  11  12
ATOM     12  C   UNL     1      50.545  17.884  93.461  1.00  0.00    -0.000 C 
BRANCH  12  13
ATOM     13  C   UNL     1      50.723  16.532  92.761  1.00  0.00    -0.003 C 
ATOM     14  C   UNL     1      51.639  15.612  93.565  1.00  0.00     0.004 C 
ENDBRANCH  12  13
ENDBRANCH  11  12
ENDBRANCH  10  11
ENDBRANCH   9  10
ENDBRANCH   1   9
TORSDOF 10
ENDMDL
MODEL 8
REMARK VINA RESULT:    -3.974      2.338      4.670
REMARK INTER + INTRA:          -7.574
REMARK INTER:                  -5.918
REMARK INTRA:                  -1.657
REMARK UNBOUND:                -1.277
REMARK SMILES CCCCCCCCCCCC(=O)[O-]
REMARK SMILES IDX 7 1 8 2 9 3 10 4 11 5 12 6 13 7 14 8 6 9 5 10 4 11 3 12 2 13
REMARK SMILES IDX 1 14
REMARK H PARENT
REMARK Flexibility Score: inf
ROOT
ATOM      1  C   UNL     1      56.766  14.614  90.640  1.00  0.00     0.000 C 
ENDROOT
BRANCH   1   2
ATOM      2  C   UNL     1      56.869  14.021  89.227  1.00  0.00     0.000 C 
BRANCH   2   3
ATOM      3  C   UNL     1      56.044  12.733  89.110  1.00  0.00     0.000 C 
BRANCH   3   4
ATOM      4  C   UNL     1      56.883  11.595  88.512  1.00  0.00     0.006 C 
BRANCH   4   5
ATOM      5  C   UNL     1      58.290  11.527  89.121  1.00  0.00     0.053 C 
BRANCH   5   6
ATOM      6  C   UNL     1      58.435  10.368  90.061  1.00  0.00     0.041 C 
ATOM      7  O   UNL     1      59.531  10.159  90.644  1.00  0.00    -0.550 OA
ATOM      8  O   UNL     1      57.369   9.500  90.265  1.00  0.00    -0.550 OA
ENDBRANCH   5   6
ENDBRANCH   4   5
ENDBRANCH   3   4
ENDBRANCH   2   3
ENDBRANCH   1   2
BRANCH   1   9
ATOM      9  C   UNL     1      58.083  14.509  91.424  1.00  0.00     0.000 C 
BRANCH   9  10
ATOM     10  C   UNL     1      58.094  13.329  92.412  1.00  0.00    -0.000 C 
BRANCH  10  11
ATOM     11  C   UNL     1      56.704  13.081  93.036  1.00  0.00    -0.000 C 
BRANCH  11  12
ATOM     12  C   UNL     1      56.183  11.648  92.827  1.00  0.00    -0.000 C 
BRANCH  12  13
ATOM     13  C   UNL     1      54.723  11.606  92.358  1.00  0.00    -0.003 C 
ATOM     14  C   UNL     1      54.048  12.963  92.539  1.00  0.00     0.004 C 
ENDBRANCH  12  13
ENDBRANCH  11  12
ENDBRANCH  10  11
ENDBRANCH   9  10
ENDBRANCH   1   9
TORSDOF 10
ENDMDL
MODEL 9
REMARK VINA RESULT:    -3.880      2.551      3.056
REMARK INTER + INTRA:          -7.426
REMARK INTER:                  -6.026
REMARK INTRA:                  -1.400
REMARK UNBOUND:                -1.277
REMARK SMILES CCCCCCCCCCCC(=O)[O-]
REMARK SMILES IDX 7 1 8 2 9 3 10 4 11 5 12 6 13 7 14 8 6 9 5 10 4 11 3 12 2 13
REMARK SMILES IDX 1 14
REMARK H PARENT
REMARK Flexibility Score: inf
ROOT
ATOM      1  C   UNL     1      58.116  14.043  91.766  1.00  0.00     0.000 C 
ENDROOT
BRANCH   1   2
ATOM      2  C   UNL     1      58.387  12.790  92.611  1.00  0.00     0.000 C 
BRANCH   2   3
ATOM      3  C   UNL     1      57.077  12.090  92.991  1.00  0.00     0.000 C 
BRANCH   3   4
ATOM      4  C   UNL     1      55.960  13.112  93.248  1.00  0.00     0.006 C 
BRANCH   4   5
ATOM      5  C   UNL     1      55.439  13.054  94.690  1.00  0.00     0.053 C 
BRANCH   5   6
ATOM      6  C   UNL     1      56.526  13.324  95.686  1.00  0.00     0.041 C 
ATOM      7  O   UNL     1      57.086  14.451  95.722  1.00  0.00    -0.550 OA
ATOM      8  O   UNL     1      56.943  12.320  96.551  1.00  0.00    -0.550 OA
ENDBRANCH   5   6
ENDBRANCH   4   5
ENDBRANCH   3   4
ENDBRANCH   2   3
ENDBRANCH   1   2
BRANCH   1   9
ATOM      9  C   UNL     1      58.435  13.836  90.277  1.00  0.00     0.000 C 
BRANCH   9  10
ATOM     10  C   UNL     1      57.194  13.447  89.453  1.00  0.00    -0.000 C 
BRANCH  10  11
ATOM     11  C   UNL     1      57.135  11.929  89.175  1.00  0.00    -0.000 C 
BRANCH  11  12
ATOM     12  C   UNL     1      58.521  11.270  89.064  1.00  0.00    -0.000 C 
BRANCH  12  13
ATOM     13  C   UNL     1      58.729  10.143  90.084  1.00  0.00    -0.003 C 
ATOM     14  C   UNL     1      60.138  10.182  90.668  1.00  0.00     0.004 C 
ENDBRANCH  12  13
ENDBRANCH  11  12
ENDBRANCH  10  11
ENDBRANCH   9  10
ENDBRANCH   1   9
TORSDOF 10
ENDMDL
