MODEL 1
REMARK VINA RESULT:    -3.699      0.000      0.000
REMARK INTER + INTRA:          -7.673
REMARK INTER:                  -6.293
REMARK INTRA:                  -1.379
REMARK UNBOUND:                -1.379
REMARK SMILES CCCCCCCCCCCCCC(=O)[O-]
REMARK SMILES IDX 8 1 9 2 10 3 11 4 12 5 13 6 14 7 15 8 16 9 7 10 6 11 5 12
REMARK SMILES IDX 4 13 3 14 2 15 1 16
REMARK H PARENT
REMARK Flexibility Score: inf
ROOT
ATOM      1  C   UNL     1      38.734  25.867 223.974  1.00  0.00     0.000 C 
ENDROOT
BRANCH   1   2
ATOM      2  C   UNL     1      37.748  25.079 224.850  1.00  0.00     0.000 C 
BRANCH   2   3
ATOM      3  C   UNL     1      36.496  24.636 224.075  1.00  0.00     0.000 C 
BRANCH   3   4
ATOM      4  C   UNL     1      36.425  25.255 222.668  1.00  0.00     0.000 C 
BRANCH   4   5
ATOM      5  C   UNL     1      35.709  24.352 221.648  1.00  0.00     0.006 C 
BRANCH   5   6
ATOM      6  C   UNL     1      36.664  23.591 220.711  1.00  0.00     0.053 C 
BRANCH   6   7
ATOM      7  C   UNL     1      36.273  23.713 219.269  1.00  0.00     0.041 C 
ATOM      8  O   UNL     1      35.245  24.365 218.946  1.00  0.00    -0.550 OA
ATOM      9  O   UNL     1      37.060  23.137 218.280  1.00  0.00    -0.550 OA
ENDBRANCH   6   7
ENDBRANCH   5   6
ENDBRANCH   4   5
ENDBRANCH   3   4
ENDBRANCH   2   3
ENDBRANCH   1   2
BRANCH   1  10
ATOM     10  C   UNL     1      40.205  25.582 224.325  1.00  0.00     0.000 C 
BRANCH  10  11
ATOM     11  C   UNL     1      40.755  24.295 223.672  1.00  0.00    -0.000 C 
BRANCH  11  12
ATOM     12  C   UNL     1      40.364  24.185 222.187  1.00  0.00    -0.000 C 
BRANCH  12  13
ATOM     13  C   UNL     1      39.904  22.771 221.796  1.00  0.00    -0.000 C 
BRANCH  13  14
ATOM     14  C   UNL     1      40.047  21.763 222.949  1.00  0.00    -0.000 C 
BRANCH  14  15
ATOM     15  C   UNL     1      40.794  20.489 222.526  1.00  0.00    -0.003 C 
ATOM     16  C   UNL     1      41.502  20.636 221.179  1.00  0.00     0.004 C 
ENDBRANCH  14  15
ENDBRANCH  13  14
ENDBRANCH  12  13
ENDBRANCH  11  12
ENDBRANCH  10  11
ENDBRANCH   1  10
TORSDOF 12
ENDMDL
MODEL 2
REMARK VINA RESULT:    -3.634      4.020      6.643
REMARK INTER + INTRA:          -7.563
REMARK INTER:                  -6.567
REMARK INTRA:                  -0.996
REMARK UNBOUND:                -1.379
REMARK SMILES CCCCCCCCCCCCCC(=O)[O-]
REMARK SMILES IDX 8 1 9 2 10 3 11 4 12 5 13 6 14 7 15 8 16 9 7 10 6 11 5 12
REMARK SMILES IDX 4 13 3 14 2 15 1 16
REMARK H PARENT
REMARK Flexibility Score: inf
ROOT
ATOM      1  C   UNL     1      39.802  24.200 222.081  1.00  0.00     0.000 C 
ENDROOT
BRANCH   1   2
ATOM      2  C   UNL     1      39.644  22.765 221.554  1.00  0.00     0.000 C 
BRANCH   2   3
ATOM      3  C   UNL     1      40.508  21.755 222.328  1.00  0.00     0.000 C 
BRANCH   3   4
ATOM      4  C   UNL     1      41.253  20.782 221.398  1.00  0.00     0.000 C 
BRANCH   4   5
ATOM      5  C   UNL     1      42.783  20.875 221.532  1.00  0.00     0.006 C 
BRANCH   5   6
ATOM      6  C   UNL     1      43.267  21.191 222.958  1.00  0.00     0.053 C 
BRANCH   6   7
ATOM      7  C   UNL     1      44.300  20.219 223.443  1.00  0.00     0.041 C 
ATOM      8  O   UNL     1      44.249  19.778 224.622  1.00  0.00    -0.550 OA
ATOM      9  O   UNL     1      45.298  19.772 222.586  1.00  0.00    -0.550 OA
ENDBRANCH   6   7
ENDBRANCH   5   6
ENDBRANCH   4   5
ENDBRANCH   3   4
ENDBRANCH   2   3
ENDBRANCH   1   2
BRANCH   1  10
ATOM     10  C   UNL     1      38.549  24.709 222.814  1.00  0.00     0.000 C 
BRANCH  10  11
ATOM     11  C   UNL     1      37.585  23.581 223.241  1.00  0.00    -0.000 C 
BRANCH  11  12
ATOM     12  C   UNL     1      36.130  23.876 222.836  1.00  0.00    -0.000 C 
BRANCH  12  13
ATOM     13  C   UNL     1      35.790  23.367 221.426  1.00  0.00    -0.000 C 
BRANCH  13  14
ATOM     14  C   UNL     1      35.834  24.483 220.368  1.00  0.00    -0.000 C 
BRANCH  14  15
ATOM     15  C   UNL     1      35.917  23.932 218.936  1.00  0.00    -0.003 C 
ATOM     16  C   UNL     1      37.189  23.121 218.685  1.00  0.00     0.004 C 
ENDBRANCH  14  15
ENDBRANCH  13  14
ENDBRANCH  12  13
ENDBRANCH  11  12
ENDBRANCH  10  11
ENDBRANCH   1  10
TORSDOF 12
ENDMDL
MODEL 3
REMARK VINA RESULT:    -3.627      1.403      2.199
REMARK INTER + INTRA:          -7.551
REMARK INTER:                  -6.186
REMARK INTRA:                  -1.365
REMARK UNBOUND:                -1.379
REMARK SMILES CCCCCCCCCCCCCC(=O)[O-]
REMARK SMILES IDX 8 1 9 2 10 3 11 4 12 5 13 6 14 7 15 8 16 9 7 10 6 11 5 12
REMARK SMILES IDX 4 13 3 14 2 15 1 16
REMARK H PARENT
REMARK Flexibility Score: inf
ROOT
ATOM      1  C   UNL     1      39.446  25.138 223.618  1.00  0.00     0.000 C 
ENDROOT
BRANCH   1   2
ATOM      2  C   UNL     1      38.050  25.768 223.739  1.00  0.00     0.000 C 
BRANCH   2   3
ATOM      3  C   UNL     1      37.187  25.530 222.488  1.00  0.00     0.000 C 
BRANCH   3   4
ATOM      4  C   UNL     1      35.872  24.799 222.811  1.00  0.00     0.000 C 
BRANCH   4   5
ATOM      5  C   UNL     1      35.388  23.896 221.662  1.00  0.00     0.006 C 
BRANCH   5   6
ATOM      6  C   UNL     1      36.475  23.574 220.622  1.00  0.00     0.053 C 
BRANCH   6   7
ATOM      7  C   UNL     1      36.034  23.868 219.220  1.00  0.00     0.041 C 
ATOM      8  O   UNL     1      36.866  23.833 218.275  1.00  0.00    -0.550 OA
ATOM      9  O   UNL     1      34.700  24.149 218.950  1.00  0.00    -0.550 OA
ENDBRANCH   6   7
ENDBRANCH   5   6
ENDBRANCH   4   5
ENDBRANCH   3   4
ENDBRANCH   2   3
ENDBRANCH   1   2
BRANCH   1  10
ATOM     10  C   UNL     1      39.640  24.362 222.304  1.00  0.00     0.000 C 
BRANCH  10  11
ATOM     11  C   UNL     1      39.934  22.860 222.514  1.00  0.00    -0.000 C 
BRANCH  11  12
ATOM     12  C   UNL     1      38.774  22.135 223.219  1.00  0.00    -0.000 C 
BRANCH  12  13
ATOM     13  C   UNL     1      39.106  21.753 224.671  1.00  0.00    -0.000 C 
BRANCH  13  14
ATOM     14  C   UNL     1      40.176  20.652 224.763  1.00  0.00    -0.000 C 
BRANCH  14  15
ATOM     15  C   UNL     1      39.837  19.430 223.897  1.00  0.00    -0.003 C 
ATOM     16  C   UNL     1      39.273  18.264 224.710  1.00  0.00     0.004 C 
ENDBRANCH  14  15
ENDBRANCH  13  14
ENDBRANCH  12  13
ENDBRANCH  11  12
ENDBRANCH  10  11
ENDBRANCH   1  10
TORSDOF 12
ENDMDL
MODEL 4
REMARK VINA RESULT:    -3.623      2.128      3.756
REMARK INTER + INTRA:          -7.544
REMARK INTER:                  -5.423
REMARK INTRA:                  -2.121
REMARK UNBOUND:                -1.379
REMARK SMILES CCCCCCCCCCCCCC(=O)[O-]
REMARK SMILES IDX 8 1 9 2 10 3 11 4 12 5 13 6 14 7 15 8 16 9 7 10 6 11 5 12
REMARK SMILES IDX 4 13 3 14 2 15 1 16
REMARK H PARENT
REMARK Flexibility Score: inf
ROOT
ATOM      1  C   UNL     1      41.648  22.792 225.357  1.00  0.00     0.000 C 
ENDROOT
BRANCH   1   2
ATOM      2  C   UNL     1      41.863  23.412 223.967  1.00  0.00     0.000 C 
BRANCH   2   3
ATOM      3  C   UNL     1      40.674  24.279 223.520  1.00  0.00     0.000 C 
BRANCH   3   4
ATOM      4  C   UNL     1      40.310  24.062 222.041  1.00  0.00     0.000 C 
BRANCH   4   5
ATOM      5  C   UNL     1      39.338  22.888 221.826  1.00  0.00     0.006 C 
BRANCH   5   6
ATOM      6  C   UNL     1      38.152  22.874 222.806  1.00  0.00     0.053 C 
BRANCH   6   7
ATOM      7  C   UNL     1      36.875  23.336 222.170  1.00  0.00     0.041 C 
ATOM      8  O   UNL     1      35.996  22.499 221.835  1.00  0.00    -0.550 OA
ATOM      9  O   UNL     1      36.640  24.692 221.978  1.00  0.00    -0.550 OA
ENDBRANCH   6   7
ENDBRANCH   5   6
ENDBRANCH   4   5
ENDBRANCH   3   4
ENDBRANCH   2   3
ENDBRANCH   1   2
BRANCH   1  10
ATOM     10  C   UNL     1      41.666  21.254 225.335  1.00  0.00     0.000 C 
BRANCH  10  11
ATOM     11  C   UNL     1      40.257  20.622 225.329  1.00  0.00    -0.000 C 
BRANCH  11  12
ATOM     12  C   UNL     1      39.953  19.894 224.008  1.00  0.00    -0.000 C 
BRANCH  12  13
ATOM     13  C   UNL     1      41.224  19.506 223.235  1.00  0.00    -0.000 C 
BRANCH  13  14
ATOM     14  C   UNL     1      41.184  19.958 221.765  1.00  0.00    -0.000 C 
BRANCH  14  15
ATOM     15  C   UNL     1      42.424  20.774 221.368  1.00  0.00    -0.003 C 
ATOM     16  C   UNL     1      43.627  20.502 222.270  1.00  0.00     0.004 C 
ENDBRANCH  14  15
ENDBRANCH  13  14
ENDBRANCH  12  13
ENDBRANCH  11  12
ENDBRANCH  10  11
ENDBRANCH   1  10
TORSDOF 12
ENDMDL
MODEL 5
REMARK VINA RESULT:    -3.582      1.676      2.201
REMARK INTER + INTRA:          -7.475
REMARK INTER:                  -6.245
REMARK INTRA:                  -1.230
REMARK UNBOUND:                -1.379
REMARK SMILES CCCCCCCCCCCCCC(=O)[O-]
REMARK SMILES IDX 8 1 9 2 10 3 11 4 12 5 13 6 14 7 15 8 16 9 7 10 6 11 5 12
REMARK SMILES IDX 4 13 3 14 2 15 1 16
REMARK H PARENT
REMARK Flexibility Score: inf
ROOT
ATOM      1  C   UNL     1      39.468  24.695 223.349  1.00  0.00     0.000 C 
ENDROOT
BRANCH   1   2
ATOM      2  C   UNL     1      38.084  25.361 223.306  1.00  0.00     0.000 C 
BRANCH   2   3
ATOM      3  C   UNL     1      36.957  24.403 223.727  1.00  0.00     0.000 C 
BRANCH   3   4
ATOM      4  C   UNL     1      35.778  24.409 222.739  1.00  0.00     0.000 C 
BRANCH   4   5
ATOM      5  C   UNL     1      35.968  23.427 221.569  1.00  0.00     0.006 C 
BRANCH   5   6
ATOM      6  C   UNL     1      35.617  24.020 220.194  1.00  0.00     0.053 C 
BRANCH   6   7
ATOM      7  C   UNL     1      36.524  23.528 219.107  1.00  0.00     0.041 C 
ATOM      8  O   UNL     1      36.138  23.536 217.908  1.00  0.00    -0.550 OA
ATOM      9  O   UNL     1      37.808  23.094 219.411  1.00  0.00    -0.550 OA
ENDBRANCH   6   7
ENDBRANCH   5   6
ENDBRANCH   4   5
ENDBRANCH   3   4
ENDBRANCH   2   3
ENDBRANCH   1   2
BRANCH   1  10
ATOM     10  C   UNL     1      39.938  24.204 221.969  1.00  0.00     0.000 C 
BRANCH  10  11
ATOM     11  C   UNL     1      40.252  22.692 221.928  1.00  0.00    -0.000 C 
BRANCH  11  12
ATOM     12  C   UNL     1      39.675  21.947 223.145  1.00  0.00    -0.000 C 
BRANCH  12  13
ATOM     13  C   UNL     1      40.738  21.138 223.906  1.00  0.00    -0.000 C 
BRANCH  13  14
ATOM     14  C   UNL     1      41.765  22.035 224.618  1.00  0.00    -0.000 C 
BRANCH  14  15
ATOM     15  C   UNL     1      43.178  21.891 224.031  1.00  0.00    -0.003 C 
ATOM     16  C   UNL     1      44.098  21.034 224.901  1.00  0.00     0.004 C 
ENDBRANCH  14  15
ENDBRANCH  13  14
ENDBRANCH  12  13
ENDBRANCH  11  12
ENDBRANCH  10  11
ENDBRANCH   1  10
TORSDOF 12
ENDMDL
MODEL 6
REMARK VINA RESULT:    -3.577      2.186      4.087
REMARK INTER + INTRA:          -7.465
REMARK INTER:                  -5.580
REMARK INTRA:                  -1.885
REMARK UNBOUND:                -1.379
REMARK SMILES CCCCCCCCCCCCCC(=O)[O-]
REMARK SMILES IDX 8 1 9 2 10 3 11 4 12 5 13 6 14 7 15 8 16 9 7 10 6 11 5 12
REMARK SMILES IDX 4 13 3 14 2 15 1 16
REMARK H PARENT
REMARK Flexibility Score: inf
ROOT
ATOM      1  C   UNL     1      41.137  22.129 221.962  1.00  0.00     0.000 C 
ENDROOT
BRANCH   1   2
ATOM      2  C   UNL     1      40.992  23.526 222.585  1.00  0.00     0.000 C 
BRANCH   2   3
ATOM      3  C   UNL     1      39.614  24.152 222.312  1.00  0.00     0.000 C 
BRANCH   3   4
ATOM      4  C   UNL     1      38.633  23.157 221.668  1.00  0.00     0.000 C 
BRANCH   4   5
ATOM      5  C   UNL     1      37.470  22.770 222.599  1.00  0.00     0.006 C 
BRANCH   5   6
ATOM      6  C   UNL     1      36.943  23.934 223.455  1.00  0.00     0.053 C 
BRANCH   6   7
ATOM      7  C   UNL     1      35.599  24.420 223.000  1.00  0.00     0.041 C 
ATOM      8  O   UNL     1      34.872  25.090 223.779  1.00  0.00    -0.550 OA
ATOM      9  O   UNL     1      35.164  24.163 221.706  1.00  0.00    -0.550 OA
ENDBRANCH   6   7
ENDBRANCH   5   6
ENDBRANCH   4   5
ENDBRANCH   3   4
ENDBRANCH   2   3
ENDBRANCH   1   2
BRANCH   1  10
ATOM     10  C   UNL     1      42.408  21.397 222.426  1.00  0.00     0.000 C 
BRANCH  10  11
ATOM     11  C   UNL     1      42.245  19.863 222.491  1.00  0.00    -0.000 C 
BRANCH  11  12
ATOM     12  C   UNL     1      40.771  19.431 222.392  1.00  0.00    -0.000 C 
BRANCH  12  13
ATOM     13  C   UNL     1      40.185  19.000 223.746  1.00  0.00    -0.000 C 
BRANCH  13  14
ATOM     14  C   UNL     1      39.277  20.075 224.367  1.00  0.00    -0.000 C 
BRANCH  14  15
ATOM     15  C   UNL     1      39.931  20.774 225.568  1.00  0.00    -0.003 C 
ATOM     16  C   UNL     1      39.523  22.242 225.694  1.00  0.00     0.004 C 
ENDBRANCH  14  15
ENDBRANCH  13  14
ENDBRANCH  12  13
ENDBRANCH  11  12
ENDBRANCH  10  11
ENDBRANCH   1  10
TORSDOF 12
ENDMDL
MODEL 7
REMARK VINA RESULT:    -3.546      3.801      5.762
REMARK INTER + INTRA:          -7.413
REMARK INTER:                  -6.017
REMARK INTRA:                  -1.396
REMARK UNBOUND:                -1.379
REMARK SMILES CCCCCCCCCCCCCC(=O)[O-]
REMARK SMILES IDX 8 1 9 2 10 3 11 4 12 5 13 6 14 7 15 8 16 9 7 10 6 11 5 12
REMARK SMILES IDX 4 13 3 14 2 15 1 16
REMARK H PARENT
REMARK Flexibility Score: inf
ROOT
ATOM      1  C   UNL     1      39.859  24.125 222.155  1.00  0.00     0.000 C 
ENDROOT
BRANCH   1   2
ATOM      2  C   UNL     1      39.800  22.589 222.126  1.00  0.00     0.000 C 
BRANCH   2   3
ATOM      3  C   UNL     1      39.921  21.970 223.528  1.00  0.00     0.000 C 
BRANCH   3   4
ATOM      4  C   UNL     1      38.675  21.158 223.923  1.00  0.00     0.000 C 
BRANCH   4   5
ATOM      5  C   UNL     1      39.007  19.926 224.783  1.00  0.00     0.006 C 
BRANCH   5   6
ATOM      6  C   UNL     1      38.046  19.713 225.965  1.00  0.00     0.053 C 
BRANCH   6   7
ATOM      7  C   UNL     1      37.228  18.465 225.824  1.00  0.00     0.041 C 
ATOM      8  O   UNL     1      37.011  17.733 226.826  1.00  0.00    -0.550 OA
ATOM      9  O   UNL     1      36.676  18.126 224.595  1.00  0.00    -0.550 OA
ENDBRANCH   6   7
ENDBRANCH   5   6
ENDBRANCH   4   5
ENDBRANCH   3   4
ENDBRANCH   2   3
ENDBRANCH   1   2
BRANCH   1  10
ATOM     10  C   UNL     1      39.115  24.729 223.358  1.00  0.00     0.000 C 
BRANCH  10  11
ATOM     11  C   UNL     1      38.173  25.892 222.978  1.00  0.00    -0.000 C 
BRANCH  11  12
ATOM     12  C   UNL     1      36.710  25.434 222.844  1.00  0.00    -0.000 C 
BRANCH  12  13
ATOM     13  C   UNL     1      36.532  23.928 223.095  1.00  0.00    -0.000 C 
BRANCH  13  14
ATOM     14  C   UNL     1      35.805  23.218 221.940  1.00  0.00    -0.000 C 
BRANCH  14  15
ATOM     15  C   UNL     1      35.946  23.969 220.607  1.00  0.00    -0.003 C 
ATOM     16  C   UNL     1      37.007  23.359 219.692  1.00  0.00     0.004 C 
ENDBRANCH  14  15
ENDBRANCH  13  14
ENDBRANCH  12  13
ENDBRANCH  11  12
ENDBRANCH  10  11
ENDBRANCH   1  10
TORSDOF 12
ENDMDL
MODEL 8
REMARK VINA RESULT:    -3.474      3.262      5.852
REMARK INTER + INTRA:          -7.291
REMARK INTER:                  -5.858
REMARK INTRA:                  -1.433
REMARK UNBOUND:                -1.379
REMARK SMILES CCCCCCCCCCCCCC(=O)[O-]
REMARK SMILES IDX 8 1 9 2 10 3 11 4 12 5 13 6 14 7 15 8 16 9 7 10 6 11 5 12
REMARK SMILES IDX 4 13 3 14 2 15 1 16
REMARK H PARENT
REMARK Flexibility Score: inf
ROOT
ATOM      1  C   UNL     1      39.544  23.961 223.186  1.00  0.00     0.000 C 
ENDROOT
BRANCH   1   2
ATOM      2  C   UNL     1      40.185  23.598 221.837  1.00  0.00     0.000 C 
BRANCH   2   3
ATOM      3  C   UNL     1      40.580  22.115 221.753  1.00  0.00     0.000 C 
BRANCH   3   4
ATOM      4  C   UNL     1      41.888  21.810 222.505  1.00  0.00     0.000 C 
BRANCH   4   5
ATOM      5  C   UNL     1      41.768  20.609 223.459  1.00  0.00     0.006 C 
BRANCH   5   6
ATOM      6  C   UNL     1      40.532  19.730 223.202  1.00  0.00     0.053 C 
BRANCH   6   7
ATOM      7  C   UNL     1      39.941  19.184 224.467  1.00  0.00     0.041 C 
ATOM      8  O   UNL     1      38.964  18.391 224.419  1.00  0.00    -0.550 OA
ATOM      9  O   UNL     1      40.489  19.524 225.698  1.00  0.00    -0.550 OA
ENDBRANCH   6   7
ENDBRANCH   5   6
ENDBRANCH   4   5
ENDBRANCH   3   4
ENDBRANCH   2   3
ENDBRANCH   1   2
BRANCH   1  10
ATOM     10  C   UNL     1      38.527  22.911 223.666  1.00  0.00     0.000 C 
BRANCH  10  11
ATOM     11  C   UNL     1      37.059  23.364 223.517  1.00  0.00    -0.000 C 
BRANCH  11  12
ATOM     12  C   UNL     1      36.945  24.769 222.898  1.00  0.00    -0.000 C 
BRANCH  12  13
ATOM     13  C   UNL     1      36.192  24.770 221.558  1.00  0.00    -0.000 C 
BRANCH  13  14
ATOM     14  C   UNL     1      36.184  23.388 220.883  1.00  0.00    -0.000 C 
BRANCH  14  15
ATOM     15  C   UNL     1      37.228  23.277 219.761  1.00  0.00    -0.003 C 
ATOM     16  C   UNL     1      36.648  23.575 218.379  1.00  0.00     0.004 C 
ENDBRANCH  14  15
ENDBRANCH  13  14
ENDBRANCH  12  13
ENDBRANCH  11  12
ENDBRANCH  10  11
ENDBRANCH   1  10
TORSDOF 12
ENDMDL
MODEL 9
REMARK VINA RESULT:    -3.473      3.247      5.456
REMARK INTER + INTRA:          -7.289
REMARK INTER:                  -5.600
REMARK INTRA:                  -1.689
REMARK UNBOUND:                -1.379
REMARK SMILES CCCCCCCCCCCCCC(=O)[O-]
REMARK SMILES IDX 8 1 9 2 10 3 11 4 12 5 13 6 14 7 15 8 16 9 7 10 6 11 5 12
REMARK SMILES IDX 4 13 3 14 2 15 1 16
REMARK H PARENT
REMARK Flexibility Score: inf
ROOT
ATOM      1  C   UNL     1      38.928  26.216 224.347  1.00  0.00     0.000 C 
ENDROOT
BRANCH   1   2
ATOM      2  C   UNL     1      39.876  25.087 224.778  1.00  0.00     0.000 C 
BRANCH   2   3
ATOM      3  C   UNL     1      40.709  24.539 223.607  1.00  0.00     0.000 C 
BRANCH   3   4
ATOM      4  C   UNL     1      40.714  23.002 223.555  1.00  0.00     0.000 C 
BRANCH   4   5
ATOM      5  C   UNL     1      39.725  22.363 224.545  1.00  0.00     0.006 C 
BRANCH   5   6
ATOM      6  C   UNL     1      39.104  21.046 224.045  1.00  0.00     0.053 C 
BRANCH   6   7
ATOM      7  C   UNL     1      39.882  19.842 224.482  1.00  0.00     0.041 C 
ATOM      8  O   UNL     1      39.686  18.727 223.928  1.00  0.00    -0.550 OA
ATOM      9  O   UNL     1      40.848  19.954 225.474  1.00  0.00    -0.550 OA
ENDBRANCH   6   7
ENDBRANCH   5   6
ENDBRANCH   4   5
ENDBRANCH   3   4
ENDBRANCH   2   3
ENDBRANCH   1   2
BRANCH   1  10
ATOM     10  C   UNL     1      37.987  25.803 223.203  1.00  0.00     0.000 C 
BRANCH  10  11
ATOM     11  C   UNL     1      36.777  24.966 223.672  1.00  0.00    -0.000 C 
BRANCH  11  12
ATOM     12  C   UNL     1      36.629  23.660 222.871  1.00  0.00    -0.000 C 
BRANCH  12  13
ATOM     13  C   UNL     1      37.587  23.585 221.671  1.00  0.00    -0.000 C 
BRANCH  13  14
ATOM     14  C   UNL     1      36.852  23.338 220.343  1.00  0.00    -0.000 C 
BRANCH  14  15
ATOM     15  C   UNL     1      35.619  24.239 220.177  1.00  0.00    -0.003 C 
ATOM     16  C   UNL     1      34.971  24.111 218.798  1.00  0.00     0.004 C 
ENDBRANCH  14  15
ENDBRANCH  13  14
ENDBRANCH  12  13
ENDBRANCH  11  12
ENDBRANCH  10  11
ENDBRANCH   1  10
TORSDOF 12
ENDMDL
