MODEL 1
REMARK VINA RESULT:    -5.288      0.000      0.000
REMARK INTER + INTRA:          -7.799
REMARK INTER:                  -6.680
REMARK INTRA:                  -1.120
REMARK UNBOUND:                -1.120
REMARK SMILES O=C(C=Cc1ccc(O)cc1)c1ccc(O)cc1O
REMARK SMILES IDX 4 1 3 2 5 3 6 4 7 5 8 6 11 7 10 8 9 9 2 11 1 12 12 13 18 14
REMARK SMILES IDX 13 15 17 16 14 17 15 18 19 19 16 21
REMARK H PARENT 9 10 19 20 16 22
REMARK Flexibility Score: inf
ROOT
ATOM      1  C   UNL     1      20.191  21.902  15.887  1.00  0.00     0.012 C 
ATOM      2  C   UNL     1      20.919  22.821  16.542  1.00  0.00     0.053 C 
ENDROOT
BRANCH   1   3
ATOM      3  C   UNL     1      18.776  21.579  16.163  1.00  0.00    -0.025 A 
ATOM      4  C   UNL     1      18.468  20.499  17.003  1.00  0.00     0.012 A 
ATOM      5  C   UNL     1      17.135  20.149  17.241  1.00  0.00     0.047 A 
ATOM      6  C   UNL     1      16.098  20.859  16.626  1.00  0.00     0.115 A 
ATOM      7  C   UNL     1      17.734  22.272  15.522  1.00  0.00     0.012 A 
ATOM      8  C   UNL     1      16.402  21.920  15.762  1.00  0.00     0.047 A 
BRANCH   6   9
ATOM      9  O   UNL     1      14.776  20.500  16.874  1.00  0.00    -0.508 OA
ATOM     10  H   UNL     1      14.535  19.583  17.231  1.00  0.00     0.293 HD
ENDBRANCH   6   9
ENDBRANCH   1   3
BRANCH   2  11
ATOM     11  C   UNL     1      20.496  23.539  17.768  1.00  0.00     0.189 C 
ATOM     12  O   UNL     1      20.528  24.799  17.815  1.00  0.00    -0.289 OA
BRANCH  11  13
ATOM     13  C   UNL     1      19.955  22.792  18.923  1.00  0.00     0.064 A 
ATOM     14  C   UNL     1      18.612  22.950  19.343  1.00  0.00     0.130 A 
ATOM     15  C   UNL     1      20.778  21.872  19.596  1.00  0.00     0.020 A 
ATOM     16  C   UNL     1      18.121  22.179  20.405  1.00  0.00     0.093 A 
ATOM     17  C   UNL     1      20.280  21.118  20.661  1.00  0.00     0.047 A 
ATOM     18  C   UNL     1      18.952  21.266  21.066  1.00  0.00     0.119 A 
BRANCH  14  19
ATOM     19  O   UNL     1      17.749  23.874  18.750  1.00  0.00    -0.507 OA
ATOM     20  H   UNL     1      16.764  23.933  18.972  1.00  0.00     0.293 HD
ENDBRANCH  14  19
BRANCH  18  21
ATOM     21  O   UNL     1      18.467  20.502  22.125  1.00  0.00    -0.508 OA
ATOM     22  H   UNL     1      17.567  20.697  22.550  1.00  0.00     0.293 HD
ENDBRANCH  18  21
ENDBRANCH  11  13
ENDBRANCH   2  11
TORSDOF 6
ENDMDL
MODEL 2
REMARK VINA RESULT:    -4.775      2.007      3.004
REMARK INTER + INTRA:          -7.151
REMARK INTER:                  -6.119
REMARK INTRA:                  -1.032
REMARK UNBOUND:                -1.120
REMARK SMILES O=C(C=Cc1ccc(O)cc1)c1ccc(O)cc1O
REMARK SMILES IDX 4 1 3 2 5 3 6 4 7 5 8 6 11 7 10 8 9 9 2 11 1 12 12 13 18 14
REMARK SMILES IDX 13 15 17 16 14 17 15 18 19 19 16 21
REMARK H PARENT 9 10 19 20 16 22
REMARK Flexibility Score: inf
ROOT
ATOM      1  C   UNL     1      20.279  21.768  17.008  1.00  0.00     0.012 C 
ATOM      2  C   UNL     1      20.888  22.413  18.016  1.00  0.00     0.053 C 
ENDROOT
BRANCH   1   3
ATOM      3  C   UNL     1      18.833  21.475  16.932  1.00  0.00    -0.025 A 
ATOM      4  C   UNL     1      18.291  20.467  17.743  1.00  0.00     0.012 A 
ATOM      5  C   UNL     1      16.933  20.144  17.653  1.00  0.00     0.047 A 
ATOM      6  C   UNL     1      16.109  20.808  16.737  1.00  0.00     0.115 A 
ATOM      7  C   UNL     1      18.010  22.119  15.991  1.00  0.00     0.012 A 
ATOM      8  C   UNL     1      16.653  21.795  15.903  1.00  0.00     0.047 A 
BRANCH   6   9
ATOM      9  O   UNL     1      14.759  20.477  16.661  1.00  0.00    -0.508 OA
ATOM     10  H   UNL     1      14.239  20.185  17.480  1.00  0.00     0.293 HD
ENDBRANCH   6   9
ENDBRANCH   1   3
BRANCH   2  11
ATOM     11  C   UNL     1      20.257  22.780  19.307  1.00  0.00     0.189 C 
ATOM     12  O   UNL     1      20.354  22.017  20.306  1.00  0.00    -0.289 OA
BRANCH  11  13
ATOM     13  C   UNL     1      19.575  24.083  19.462  1.00  0.00     0.064 A 
ATOM     14  C   UNL     1      18.214  24.164  19.844  1.00  0.00     0.130 A 
ATOM     15  C   UNL     1      20.303  25.270  19.266  1.00  0.00     0.020 A 
ATOM     16  C   UNL     1      17.621  25.418  20.039  1.00  0.00     0.093 A 
ATOM     17  C   UNL     1      19.697  26.514  19.452  1.00  0.00     0.047 A 
ATOM     18  C   UNL     1      18.358  26.593  19.842  1.00  0.00     0.119 A 
BRANCH  14  19
ATOM     19  O   UNL     1      17.418  23.029  20.014  1.00  0.00    -0.507 OA
ATOM     20  H   UNL     1      16.465  22.966  19.681  1.00  0.00     0.293 HD
ENDBRANCH  14  19
BRANCH  18  21
ATOM     21  O   UNL     1      17.769  27.841  20.030  1.00  0.00    -0.508 OA
ATOM     22  H   UNL     1      16.856  27.936  20.461  1.00  0.00     0.293 HD
ENDBRANCH  18  21
ENDBRANCH  11  13
ENDBRANCH   2  11
TORSDOF 6
ENDMDL
MODEL 3
REMARK VINA RESULT:    -4.760     10.927     13.340
REMARK INTER + INTRA:          -7.132
REMARK INTER:                  -6.100
REMARK INTRA:                  -1.032
REMARK UNBOUND:                -1.120
REMARK SMILES O=C(C=Cc1ccc(O)cc1)c1ccc(O)cc1O
REMARK SMILES IDX 4 1 3 2 5 3 6 4 7 5 8 6 11 7 10 8 9 9 2 11 1 12 12 13 18 14
REMARK SMILES IDX 13 15 17 16 14 17 15 18 19 19 16 21
REMARK H PARENT 9 10 19 20 16 22
REMARK Flexibility Score: inf
ROOT
ATOM      1  C   UNL     1      15.653  19.407   3.341  1.00  0.00     0.012 C 
ATOM      2  C   UNL     1      16.110  18.740   4.412  1.00  0.00     0.053 C 
ENDROOT
BRANCH   1   3
ATOM      3  C   UNL     1      14.912  20.684   3.382  1.00  0.00    -0.025 A 
ATOM      4  C   UNL     1      13.510  20.665   3.429  1.00  0.00     0.012 A 
ATOM      5  C   UNL     1      12.788  21.862   3.424  1.00  0.00     0.047 A 
ATOM      6  C   UNL     1      13.457  23.089   3.349  1.00  0.00     0.115 A 
ATOM      7  C   UNL     1      15.580  21.916   3.276  1.00  0.00     0.012 A 
ATOM      8  C   UNL     1      14.856  23.112   3.271  1.00  0.00     0.047 A 
BRANCH   6   9
ATOM      9  O   UNL     1      12.725  24.273   3.347  1.00  0.00    -0.508 OA
ATOM     10  H   UNL     1      12.495  24.755   4.208  1.00  0.00     0.293 HD
ENDBRANCH   6   9
ENDBRANCH   1   3
BRANCH   2  11
ATOM     11  C   UNL     1      15.796  19.064   5.824  1.00  0.00     0.189 C 
ATOM     12  O   UNL     1      14.755  18.607   6.369  1.00  0.00    -0.289 OA
BRANCH  11  13
ATOM     13  C   UNL     1      16.740  19.860   6.637  1.00  0.00     0.064 A 
ATOM     14  C   UNL     1      16.780  19.747   8.048  1.00  0.00     0.130 A 
ATOM     15  C   UNL     1      17.648  20.721   5.994  1.00  0.00     0.020 A 
ATOM     16  C   UNL     1      17.731  20.474   8.776  1.00  0.00     0.093 A 
ATOM     17  C   UNL     1      18.582  21.450   6.732  1.00  0.00     0.047 A 
ATOM     18  C   UNL     1      18.629  21.327   8.123  1.00  0.00     0.119 A 
BRANCH  14  19
ATOM     19  O   UNL     1      15.883  18.946   8.757  1.00  0.00    -0.507 OA
ATOM     20  H   UNL     1      15.840  18.924   9.768  1.00  0.00     0.293 HD
ENDBRANCH  14  19
BRANCH  18  21
ATOM     21  O   UNL     1      19.571  22.055   8.846  1.00  0.00    -0.508 OA
ATOM     22  H   UNL     1      20.241  21.598   9.454  1.00  0.00     0.293 HD
ENDBRANCH  18  21
ENDBRANCH  11  13
ENDBRANCH   2  11
TORSDOF 6
ENDMDL
MODEL 4
REMARK VINA RESULT:    -4.689      2.183      4.941
REMARK INTER + INTRA:          -7.042
REMARK INTER:                  -5.936
REMARK INTRA:                  -1.106
REMARK UNBOUND:                -1.120
REMARK SMILES O=C(C=Cc1ccc(O)cc1)c1ccc(O)cc1O
REMARK SMILES IDX 4 1 3 2 5 3 6 4 7 5 8 6 11 7 10 8 9 9 2 11 1 12 12 13 18 14
REMARK SMILES IDX 13 15 17 16 14 17 15 18 19 19 16 21
REMARK H PARENT 9 10 19 20 16 22
REMARK Flexibility Score: inf
ROOT
ATOM      1  C   UNL     1      20.697  22.924  19.771  1.00  0.00     0.012 C 
ATOM      2  C   UNL     1      20.733  22.016  18.782  1.00  0.00     0.053 C 
ENDROOT
BRANCH   1   3
ATOM      3  C   UNL     1      19.859  24.140  19.783  1.00  0.00    -0.025 A 
ATOM      4  C   UNL     1      20.445  25.383  19.500  1.00  0.00     0.012 A 
ATOM      5  C   UNL     1      19.680  26.552  19.551  1.00  0.00     0.047 A 
ATOM      6  C   UNL     1      18.328  26.494  19.905  1.00  0.00     0.115 A 
ATOM      7  C   UNL     1      18.508  24.089  20.170  1.00  0.00     0.012 A 
ATOM      8  C   UNL     1      17.744  25.259  20.219  1.00  0.00     0.047 A 
BRANCH   6   9
ATOM      9  O   UNL     1      17.577  27.666  19.949  1.00  0.00    -0.508 OA
ATOM     10  H   UNL     1      16.590  27.654  20.176  1.00  0.00     0.293 HD
ENDBRANCH   6   9
ENDBRANCH   1   3
BRANCH   2  11
ATOM     11  C   UNL     1      20.086  22.163  17.457  1.00  0.00     0.189 C 
ATOM     12  O   UNL     1      20.741  22.595  16.470  1.00  0.00    -0.289 OA
BRANCH  11  13
ATOM     13  C   UNL     1      18.686  21.731  17.256  1.00  0.00     0.064 A 
ATOM     14  C   UNL     1      17.896  22.251  16.202  1.00  0.00     0.130 A 
ATOM     15  C   UNL     1      18.139  20.751  18.102  1.00  0.00     0.020 A 
ATOM     16  C   UNL     1      16.594  21.771  16.009  1.00  0.00     0.093 A 
ATOM     17  C   UNL     1      16.835  20.289  17.906  1.00  0.00     0.047 A 
ATOM     18  C   UNL     1      16.061  20.794  16.858  1.00  0.00     0.119 A 
BRANCH  14  19
ATOM     19  O   UNL     1      18.357  23.256  15.349  1.00  0.00    -0.507 OA
ATOM     20  H   UNL     1      18.327  24.239  15.585  1.00  0.00     0.293 HD
ENDBRANCH  14  19
BRANCH  18  21
ATOM     21  O   UNL     1      14.765  20.319  16.671  1.00  0.00    -0.508 OA
ATOM     22  H   UNL     1      13.984  20.951  16.540  1.00  0.00     0.293 HD
ENDBRANCH  18  21
ENDBRANCH  11  13
ENDBRANCH   2  11
TORSDOF 6
ENDMDL
MODEL 5
REMARK VINA RESULT:    -4.573      2.002      4.743
REMARK INTER + INTRA:          -6.895
REMARK INTER:                  -6.158
REMARK INTRA:                  -0.737
REMARK UNBOUND:                -1.120
REMARK SMILES O=C(C=Cc1ccc(O)cc1)c1ccc(O)cc1O
REMARK SMILES IDX 4 1 3 2 5 3 6 4 7 5 8 6 11 7 10 8 9 9 2 11 1 12 12 13 18 14
REMARK SMILES IDX 13 15 17 16 14 17 15 18 19 19 16 21
REMARK H PARENT 9 10 19 20 16 22
REMARK Flexibility Score: inf
ROOT
ATOM      1  C   UNL     1      20.663  21.460  19.853  1.00  0.00     0.012 C 
ATOM      2  C   UNL     1      21.047  22.044  18.707  1.00  0.00     0.053 C 
ENDROOT
BRANCH   1   3
ATOM      3  C   UNL     1      19.270  21.365  20.338  1.00  0.00    -0.025 A 
ATOM      4  C   UNL     1      18.269  20.908  19.469  1.00  0.00     0.012 A 
ATOM      5  C   UNL     1      16.938  20.854  19.894  1.00  0.00     0.047 A 
ATOM      6  C   UNL     1      16.591  21.276  21.182  1.00  0.00     0.115 A 
ATOM      7  C   UNL     1      18.915  21.819  21.621  1.00  0.00     0.012 A 
ATOM      8  C   UNL     1      17.583  21.763  22.043  1.00  0.00     0.047 A 
BRANCH   6   9
ATOM      9  O   UNL     1      15.262  21.215  21.592  1.00  0.00    -0.508 OA
ATOM     10  H   UNL     1      14.784  20.328  21.708  1.00  0.00     0.293 HD
ENDBRANCH   6   9
ENDBRANCH   1   3
BRANCH   2  11
ATOM     11  C   UNL     1      20.178  22.855  17.821  1.00  0.00     0.189 C 
ATOM     12  O   UNL     1      19.841  24.024  18.152  1.00  0.00    -0.289 OA
BRANCH  11  13
ATOM     13  C   UNL     1      19.760  22.333  16.503  1.00  0.00     0.064 A 
ATOM     14  C   UNL     1      18.441  22.512  16.021  1.00  0.00     0.130 A 
ATOM     15  C   UNL     1      20.702  21.679  15.689  1.00  0.00     0.020 A 
ATOM     16  C   UNL     1      18.101  22.056  14.741  1.00  0.00     0.093 A 
ATOM     17  C   UNL     1      20.347  21.219  14.420  1.00  0.00     0.047 A 
ATOM     18  C   UNL     1      19.049  21.408  13.940  1.00  0.00     0.119 A 
BRANCH  14  19
ATOM     19  O   UNL     1      17.441  23.113  16.790  1.00  0.00    -0.507 OA
ATOM     20  H   UNL     1      16.457  22.909  16.676  1.00  0.00     0.293 HD
ENDBRANCH  14  19
BRANCH  18  21
ATOM     21  O   UNL     1      18.712  20.949  12.670  1.00  0.00    -0.508 OA
ATOM     22  H   UNL     1      19.149  21.327  11.837  1.00  0.00     0.293 HD
ENDBRANCH  18  21
ENDBRANCH  11  13
ENDBRANCH   2  11
TORSDOF 6
ENDMDL
MODEL 6
REMARK VINA RESULT:    -4.522     10.594     13.586
REMARK INTER + INTRA:          -6.832
REMARK INTER:                  -5.988
REMARK INTRA:                  -0.843
REMARK UNBOUND:                -1.120
REMARK SMILES O=C(C=Cc1ccc(O)cc1)c1ccc(O)cc1O
REMARK SMILES IDX 4 1 3 2 5 3 6 4 7 5 8 6 11 7 10 8 9 9 2 11 1 12 12 13 18 14
REMARK SMILES IDX 13 15 17 16 14 17 15 18 19 19 16 21
REMARK H PARENT 9 10 19 20 16 22
REMARK Flexibility Score: inf
ROOT
ATOM      1  C   UNL     1      15.021  17.826   7.069  1.00  0.00     0.012 C 
ATOM      2  C   UNL     1      14.750  18.261   5.828  1.00  0.00     0.053 C 
ENDROOT
BRANCH   1   3
ATOM      3  C   UNL     1      16.179  18.243   7.885  1.00  0.00    -0.025 A 
ATOM      4  C   UNL     1      17.236  17.343   8.091  1.00  0.00     0.012 A 
ATOM      5  C   UNL     1      18.320  17.702   8.897  1.00  0.00     0.047 A 
ATOM      6  C   UNL     1      18.351  18.953   9.523  1.00  0.00     0.115 A 
ATOM      7  C   UNL     1      16.197  19.487   8.540  1.00  0.00     0.012 A 
ATOM      8  C   UNL     1      17.283  19.844   9.345  1.00  0.00     0.047 A 
BRANCH   6   9
ATOM      9  O   UNL     1      19.438  19.297  10.321  1.00  0.00    -0.508 OA
ATOM     10  H   UNL     1      20.290  19.674   9.921  1.00  0.00     0.293 HD
ENDBRANCH   6   9
ENDBRANCH   1   3
BRANCH   2  11
ATOM     11  C   UNL     1      15.652  19.085   4.989  1.00  0.00     0.189 C 
ATOM     12  O   UNL     1      16.762  18.628   4.604  1.00  0.00    -0.289 OA
BRANCH  11  13
ATOM     13  C   UNL     1      15.228  20.424   4.527  1.00  0.00     0.064 A 
ATOM     14  C   UNL     1      16.142  21.503   4.449  1.00  0.00     0.130 A 
ATOM     15  C   UNL     1      13.898  20.623   4.117  1.00  0.00     0.020 A 
ATOM     16  C   UNL     1      15.715  22.740   3.949  1.00  0.00     0.093 A 
ATOM     17  C   UNL     1      13.482  21.864   3.631  1.00  0.00     0.047 A 
ATOM     18  C   UNL     1      14.388  22.924   3.542  1.00  0.00     0.119 A 
BRANCH  14  19
ATOM     19  O   UNL     1      17.466  21.392   4.879  1.00  0.00    -0.507 OA
ATOM     20  H   UNL     1      17.736  20.897   5.719  1.00  0.00     0.293 HD
ENDBRANCH  14  19
BRANCH  18  21
ATOM     21  O   UNL     1      13.960  24.155   3.050  1.00  0.00    -0.508 OA
ATOM     22  H   UNL     1      14.616  24.840   2.694  1.00  0.00     0.293 HD
ENDBRANCH  18  21
ENDBRANCH  11  13
ENDBRANCH   2  11
TORSDOF 6
ENDMDL
MODEL 7
REMARK VINA RESULT:    -4.514     11.310     14.333
REMARK INTER + INTRA:          -6.821
REMARK INTER:                  -5.883
REMARK INTRA:                  -0.938
REMARK UNBOUND:                -1.120
REMARK SMILES O=C(C=Cc1ccc(O)cc1)c1ccc(O)cc1O
REMARK SMILES IDX 4 1 3 2 5 3 6 4 7 5 8 6 11 7 10 8 9 9 2 11 1 12 12 13 18 14
REMARK SMILES IDX 13 15 17 16 14 17 15 18 19 19 16 21
REMARK H PARENT 9 10 19 20 16 22
REMARK Flexibility Score: inf
ROOT
ATOM      1  C   UNL     1      18.068  19.599   4.771  1.00  0.00     0.012 C 
ATOM      2  C   UNL     1      17.305  19.376   3.690  1.00  0.00     0.053 C 
ENDROOT
BRANCH   1   3
ATOM      3  C   UNL     1      17.579  19.658   6.164  1.00  0.00    -0.025 A 
ATOM      4  C   UNL     1      17.668  20.864   6.874  1.00  0.00     0.012 A 
ATOM      5  C   UNL     1      17.253  20.930   8.208  1.00  0.00     0.047 A 
ATOM      6  C   UNL     1      16.764  19.788   8.851  1.00  0.00     0.115 A 
ATOM      7  C   UNL     1      17.117  18.505   6.822  1.00  0.00     0.012 A 
ATOM      8  C   UNL     1      16.701  18.573   8.155  1.00  0.00     0.047 A 
BRANCH   6   9
ATOM      9  O   UNL     1      16.352  19.869  10.178  1.00  0.00    -0.508 OA
ATOM     10  H   UNL     1      16.441  19.081  10.809  1.00  0.00     0.293 HD
ENDBRANCH   6   9
ENDBRANCH   1   3
BRANCH   2  11
ATOM     11  C   UNL     1      15.823  19.335   3.677  1.00  0.00     0.189 C 
ATOM     12  O   UNL     1      15.212  18.245   3.849  1.00  0.00    -0.289 OA
BRANCH  11  13
ATOM     13  C   UNL     1      15.041  20.582   3.542  1.00  0.00     0.064 A 
ATOM     14  C   UNL     1      13.683  20.564   3.140  1.00  0.00     0.130 A 
ATOM     15  C   UNL     1      15.644  21.812   3.859  1.00  0.00     0.020 A 
ATOM     16  C   UNL     1      12.960  21.762   3.083  1.00  0.00     0.093 A 
ATOM     17  C   UNL     1      14.914  23.001   3.786  1.00  0.00     0.047 A 
ATOM     18  C   UNL     1      13.572  22.980   3.402  1.00  0.00     0.119 A 
BRANCH  14  19
ATOM     19  O   UNL     1      13.031  19.385   2.769  1.00  0.00    -0.507 OA
ATOM     20  H   UNL     1      12.484  19.298   1.922  1.00  0.00     0.293 HD
ENDBRANCH  14  19
BRANCH  18  21
ATOM     21  O   UNL     1      12.856  24.173   3.340  1.00  0.00    -0.508 OA
ATOM     22  H   UNL     1      12.011  24.255   2.786  1.00  0.00     0.293 HD
ENDBRANCH  18  21
ENDBRANCH  11  13
ENDBRANCH   2  11
TORSDOF 6
ENDMDL
MODEL 8
REMARK VINA RESULT:    -4.509      2.998      5.285
REMARK INTER + INTRA:          -6.814
REMARK INTER:                  -6.071
REMARK INTRA:                  -0.743
REMARK UNBOUND:                -1.120
REMARK SMILES O=C(C=Cc1ccc(O)cc1)c1ccc(O)cc1O
REMARK SMILES IDX 4 1 3 2 5 3 6 4 7 5 8 6 11 7 10 8 9 9 2 11 1 12 12 13 18 14
REMARK SMILES IDX 13 15 17 16 14 17 15 18 19 19 16 21
REMARK H PARENT 9 10 19 20 16 22
REMARK Flexibility Score: inf
ROOT
ATOM      1  C   UNL     1      20.008  22.086  17.830  1.00  0.00     0.012 C 
ATOM      2  C   UNL     1      21.055  21.993  16.995  1.00  0.00     0.053 C 
ENDROOT
BRANCH   1   3
ATOM      3  C   UNL     1      18.625  21.671  17.516  1.00  0.00    -0.025 A 
ATOM      4  C   UNL     1      18.086  20.540  18.147  1.00  0.00     0.012 A 
ATOM      5  C   UNL     1      16.795  20.105  17.830  1.00  0.00     0.047 A 
ATOM      6  C   UNL     1      16.040  20.780  16.864  1.00  0.00     0.115 A 
ATOM      7  C   UNL     1      17.877  22.329  16.524  1.00  0.00     0.012 A 
ATOM      8  C   UNL     1      16.587  21.892  16.209  1.00  0.00     0.047 A 
BRANCH   6   9
ATOM      9  O   UNL     1      14.756  20.336  16.561  1.00  0.00    -0.508 OA
ATOM     10  H   UNL     1      14.318  19.586  17.083  1.00  0.00     0.293 HD
ENDBRANCH   6   9
ENDBRANCH   1   3
BRANCH   2  11
ATOM     11  C   UNL     1      20.979  21.635  15.558  1.00  0.00     0.189 C 
ATOM     12  O   UNL     1      21.089  20.434  15.192  1.00  0.00    -0.289 OA
BRANCH  11  13
ATOM     13  C   UNL     1      20.695  22.671  14.543  1.00  0.00     0.064 A 
ATOM     14  C   UNL     1      20.270  22.330  13.236  1.00  0.00     0.130 A 
ATOM     15  C   UNL     1      20.808  24.029  14.893  1.00  0.00     0.020 A 
ATOM     16  C   UNL     1      19.953  23.343  12.322  1.00  0.00     0.093 A 
ATOM     17  C   UNL     1      20.500  25.029  13.968  1.00  0.00     0.047 A 
ATOM     18  C   UNL     1      20.069  24.691  12.683  1.00  0.00     0.119 A 
BRANCH  14  19
ATOM     19  O   UNL     1      20.176  21.005  12.805  1.00  0.00    -0.507 OA
ATOM     20  H   UNL     1      20.195  20.215  13.436  1.00  0.00     0.293 HD
ENDBRANCH  14  19
BRANCH  18  21
ATOM     21  O   UNL     1      19.759  25.699  11.774  1.00  0.00    -0.508 OA
ATOM     22  H   UNL     1      19.347  25.490  10.872  1.00  0.00     0.293 HD
ENDBRANCH  18  21
ENDBRANCH  11  13
ENDBRANCH   2  11
TORSDOF 6
ENDMDL
MODEL 9
REMARK VINA RESULT:    -4.507     11.062     13.248
REMARK INTER + INTRA:          -6.813
REMARK INTER:                  -6.256
REMARK INTRA:                  -0.556
REMARK UNBOUND:                -1.120
REMARK SMILES O=C(C=Cc1ccc(O)cc1)c1ccc(O)cc1O
REMARK SMILES IDX 4 1 3 2 5 3 6 4 7 5 8 6 11 7 10 8 9 9 2 11 1 12 12 13 18 14
REMARK SMILES IDX 13 15 17 16 14 17 15 18 19 19 16 21
REMARK H PARENT 9 10 19 20 16 22
REMARK Flexibility Score: inf
ROOT
ATOM      1  C   UNL     1      15.629  19.286   3.385  1.00  0.00     0.012 C 
ATOM      2  C   UNL     1      16.809  19.025   3.969  1.00  0.00     0.053 C 
ENDROOT
BRANCH   1   3
ATOM      3  C   UNL     1      14.933  20.589   3.413  1.00  0.00    -0.025 A 
ATOM      4  C   UNL     1      13.576  20.637   3.765  1.00  0.00     0.012 A 
ATOM      5  C   UNL     1      12.887  21.853   3.755  1.00  0.00     0.047 A 
ATOM      6  C   UNL     1      13.540  23.030   3.372  1.00  0.00     0.115 A 
ATOM      7  C   UNL     1      15.578  21.767   2.999  1.00  0.00     0.012 A 
ATOM      8  C   UNL     1      14.887  22.983   2.990  1.00  0.00     0.047 A 
BRANCH   6   9
ATOM      9  O   UNL     1      12.841  24.234   3.368  1.00  0.00    -0.508 OA
ATOM     10  H   UNL     1      13.276  25.098   3.064  1.00  0.00     0.293 HD
ENDBRANCH   6   9
ENDBRANCH   1   3
BRANCH   2  11
ATOM     11  C   UNL     1      17.530  19.931   4.894  1.00  0.00     0.189 C 
ATOM     12  O   UNL     1      18.334  20.793   4.448  1.00  0.00    -0.289 OA
BRANCH  11  13
ATOM     13  C   UNL     1      17.256  19.890   6.346  1.00  0.00     0.064 A 
ATOM     14  C   UNL     1      17.990  20.684   7.260  1.00  0.00     0.130 A 
ATOM     15  C   UNL     1      16.217  19.075   6.830  1.00  0.00     0.020 A 
ATOM     16  C   UNL     1      17.660  20.662   8.621  1.00  0.00     0.093 A 
ATOM     17  C   UNL     1      15.905  19.053   8.191  1.00  0.00     0.047 A 
ATOM     18  C   UNL     1      16.621  19.847   9.089  1.00  0.00     0.119 A 
BRANCH  14  19
ATOM     19  O   UNL     1      19.063  21.484   6.859  1.00  0.00    -0.507 OA
ATOM     20  H   UNL     1      19.935  21.537   7.370  1.00  0.00     0.293 HD
ENDBRANCH  14  19
BRANCH  18  21
ATOM     21  O   UNL     1      16.295  19.819  10.443  1.00  0.00    -0.508 OA
ATOM     22  H   UNL     1      16.721  19.153  11.077  1.00  0.00     0.293 HD
ENDBRANCH  18  21
ENDBRANCH  11  13
ENDBRANCH   2  11
TORSDOF 6
ENDMDL
