MODEL 1
REMARK VINA RESULT:    -0.300      0.000      0.000
REMARK INTER + INTRA:          -0.361
REMARK INTER:                  -0.326
REMARK INTRA:                  -0.036
REMARK UNBOUND:                -0.036
REMARK SMILES O=C([O-])c1ccc(O)cc1
REMARK SMILES IDX 7 1 6 2 9 3 5 4 10 5 4 6 8 7 2 9 1 10 3 11
REMARK H PARENT 8 8
REMARK Flexibility Score: inf
ROOT
ATOM      1  C   UNL     1     -25.829 -11.379 -52.904  1.00  0.00     0.115 A 
ATOM      2  C   UNL     1     -24.826 -12.125 -53.536  1.00  0.00     0.047 A 
ATOM      3  C   UNL     1     -25.522 -10.631 -51.764  1.00  0.00     0.047 A 
ATOM      4  C   UNL     1     -23.523 -12.123 -53.029  1.00  0.00     0.014 A 
ATOM      5  C   UNL     1     -24.220 -10.626 -51.254  1.00  0.00     0.014 A 
ATOM      6  C   UNL     1     -23.206 -11.372 -51.882  1.00  0.00    -0.003 A 
ENDROOT
BRANCH   1   7
ATOM      7  O   UNL     1     -27.130 -11.374 -53.401  1.00  0.00    -0.508 OA
ATOM      8  H   UNL     1     -27.378 -11.881 -54.242  1.00  0.00     0.293 HD
ENDBRANCH   1   7
BRANCH   6   9
ATOM      9  C   UNL     1     -21.830 -11.366 -51.340  1.00  0.00     0.071 C 
ATOM     10  O   UNL     1     -20.875 -11.847 -52.008  1.00  0.00    -0.545 OA
ATOM     11  O   UNL     1     -21.568 -10.828 -50.085  1.00  0.00    -0.545 OA
ENDBRANCH   6   9
TORSDOF 2
ENDMDL
MODEL 2
REMARK VINA RESULT:    -0.231     21.729     22.864
REMARK INTER + INTRA:          -0.287
REMARK INTER:                  -0.257
REMARK INTRA:                  -0.029
REMARK UNBOUND:                -0.036
REMARK SMILES O=C([O-])c1ccc(O)cc1
REMARK SMILES IDX 7 1 6 2 9 3 5 4 10 5 4 6 8 7 2 9 1 10 3 11
REMARK H PARENT 8 8
REMARK Flexibility Score: inf
ROOT
ATOM      1  C   UNL     1     -39.762   6.186 -53.673  1.00  0.00     0.115 A 
ATOM      2  C   UNL     1     -38.912   6.327 -52.568  1.00  0.00     0.047 A 
ATOM      3  C   UNL     1     -39.250   6.345 -54.963  1.00  0.00     0.047 A 
ATOM      4  C   UNL     1     -37.559   6.625 -52.754  1.00  0.00     0.014 A 
ATOM      5  C   UNL     1     -37.898   6.642 -55.155  1.00  0.00     0.014 A 
ATOM      6  C   UNL     1     -37.037   6.786 -54.051  1.00  0.00    -0.003 A 
ENDROOT
BRANCH   1   7
ATOM      7  O   UNL     1     -41.111   5.890 -53.498  1.00  0.00    -0.508 OA
ATOM      8  H   UNL     1     -41.426   5.272 -52.760  1.00  0.00     0.293 HD
ENDBRANCH   1   7
BRANCH   6   9
ATOM      9  C   UNL     1     -35.606   7.101 -54.255  1.00  0.00     0.071 C 
ATOM     10  O   UNL     1     -35.261   8.125 -54.903  1.00  0.00    -0.545 OA
ATOM     11  O   UNL     1     -34.620   6.271 -53.732  1.00  0.00    -0.545 OA
ENDBRANCH   6   9
TORSDOF 2
ENDMDL
MODEL 3
REMARK VINA RESULT:     0.151     18.265     19.145
REMARK INTER + INTRA:           0.129
REMARK INTER:                   0.161
REMARK INTRA:                  -0.032
REMARK UNBOUND:                -0.036
REMARK SMILES O=C([O-])c1ccc(O)cc1
REMARK SMILES IDX 7 1 6 2 9 3 5 4 10 5 4 6 8 7 2 9 1 10 3 11
REMARK H PARENT 8 8
REMARK Flexibility Score: inf
ROOT
ATOM      1  C   UNL     1     -23.130   7.203 -49.338  1.00  0.00     0.115 A 
ATOM      2  C   UNL     1     -22.207   6.178 -49.094  1.00  0.00     0.047 A 
ATOM      3  C   UNL     1     -23.425   8.123 -48.328  1.00  0.00     0.047 A 
ATOM      4  C   UNL     1     -21.584   6.075 -47.847  1.00  0.00     0.014 A 
ATOM      5  C   UNL     1     -22.804   8.024 -47.080  1.00  0.00     0.014 A 
ATOM      6  C   UNL     1     -21.876   6.998 -46.826  1.00  0.00    -0.003 A 
ENDROOT
BRANCH   1   7
ATOM      7  O   UNL     1     -23.756   7.314 -50.577  1.00  0.00    -0.508 OA
ATOM      8  H   UNL     1     -24.713   7.639 -50.659  1.00  0.00     0.293 HD
ENDBRANCH   1   7
BRANCH   6   9
ATOM      9  C   UNL     1     -21.220   6.894 -45.504  1.00  0.00     0.071 C 
ATOM     10  O   UNL     1     -20.875   7.930 -44.876  1.00  0.00    -0.545 OA
ATOM     11  O   UNL     1     -20.976   5.649 -44.934  1.00  0.00    -0.545 OA
ENDBRANCH   6   9
TORSDOF 2
ENDMDL
MODEL 4
REMARK VINA RESULT:     0.495     21.029     22.742
REMARK INTER + INTRA:           0.502
REMARK INTER:                   0.530
REMARK INTRA:                  -0.028
REMARK UNBOUND:                -0.036
REMARK SMILES O=C([O-])c1ccc(O)cc1
REMARK SMILES IDX 7 1 6 2 9 3 5 4 10 5 4 6 8 7 2 9 1 10 3 11
REMARK H PARENT 8 8
REMARK Flexibility Score: inf
ROOT
ATOM      1  C   UNL     1     -34.543   7.186 -54.553  1.00  0.00     0.115 A 
ATOM      2  C   UNL     1     -35.573   7.949 -55.118  1.00  0.00     0.047 A 
ATOM      3  C   UNL     1     -34.833   6.287 -53.523  1.00  0.00     0.047 A 
ATOM      4  C   UNL     1     -36.885   7.813 -54.654  1.00  0.00     0.014 A 
ATOM      5  C   UNL     1     -36.143   6.147 -53.056  1.00  0.00     0.014 A 
ATOM      6  C   UNL     1     -37.184   6.909 -53.618  1.00  0.00    -0.003 A 
ENDROOT
BRANCH   1   7
ATOM      7  O   UNL     1     -33.233   7.315 -55.006  1.00  0.00    -0.508 OA
ATOM      8  H   UNL     1     -32.600   6.523 -55.030  1.00  0.00     0.293 HD
ENDBRANCH   1   7
BRANCH   6   9
ATOM      9  C   UNL     1     -38.570   6.760 -53.123  1.00  0.00     0.071 C 
ATOM     10  O   UNL     1     -38.902   7.217 -51.997  1.00  0.00    -0.545 OA
ATOM     11  O   UNL     1     -39.529   6.114 -53.896  1.00  0.00    -0.545 OA
ENDBRANCH   6   9
TORSDOF 2
ENDMDL
MODEL 5
REMARK VINA RESULT:     0.503      0.090      1.534
REMARK INTER + INTRA:           0.512
REMARK INTER:                   0.547
REMARK INTRA:                  -0.035
REMARK UNBOUND:                -0.036
REMARK SMILES O=C([O-])c1ccc(O)cc1
REMARK SMILES IDX 7 1 6 2 9 3 5 4 10 5 4 6 8 7 2 9 1 10 3 11
REMARK H PARENT 8 8
REMARK Flexibility Score: inf
ROOT
ATOM      1  C   UNL     1     -25.858 -11.378 -52.925  1.00  0.00     0.115 A 
ATOM      2  C   UNL     1     -25.537 -10.625 -51.788  1.00  0.00     0.047 A 
ATOM      3  C   UNL     1     -24.864 -12.125 -53.563  1.00  0.00     0.047 A 
ATOM      4  C   UNL     1     -24.228 -10.619 -51.295  1.00  0.00     0.014 A 
ATOM      5  C   UNL     1     -23.555 -12.122 -53.074  1.00  0.00     0.014 A 
ATOM      6  C   UNL     1     -23.223 -11.368 -51.933  1.00  0.00    -0.003 A 
ENDROOT
BRANCH   1   7
ATOM      7  O   UNL     1     -27.157 -11.392 -53.424  1.00  0.00    -0.508 OA
ATOM      8  H   UNL     1     -27.509 -12.174 -53.964  1.00  0.00     0.293 HD
ENDBRANCH   1   7
BRANCH   6   9
ATOM      9  C   UNL     1     -21.837 -11.366 -51.416  1.00  0.00     0.071 C 
ATOM     10  O   UNL     1     -20.876 -11.713 -52.154  1.00  0.00    -0.545 OA
ATOM     11  O   UNL     1     -21.573 -10.979 -50.106  1.00  0.00    -0.545 OA
ENDBRANCH   6   9
TORSDOF 2
ENDMDL
MODEL 6
REMARK VINA RESULT:     1.284     17.955     18.311
REMARK INTER + INTRA:           1.361
REMARK INTER:                   1.397
REMARK INTRA:                  -0.036
REMARK UNBOUND:                -0.036
REMARK SMILES O=C([O-])c1ccc(O)cc1
REMARK SMILES IDX 7 1 6 2 9 3 5 4 10 5 4 6 8 7 2 9 1 10 3 11
REMARK H PARENT 8 8
REMARK Flexibility Score: inf
ROOT
ATOM      1  C   UNL     1     -25.855   6.241 -56.900  1.00  0.00     0.115 A 
ATOM      2  C   UNL     1     -25.437   5.139 -57.657  1.00  0.00     0.047 A 
ATOM      3  C   UNL     1     -24.928   7.220 -56.532  1.00  0.00     0.047 A 
ATOM      4  C   UNL     1     -24.099   5.018 -58.043  1.00  0.00     0.014 A 
ATOM      5  C   UNL     1     -23.589   7.103 -56.916  1.00  0.00     0.014 A 
ATOM      6  C   UNL     1     -23.160   6.000 -57.677  1.00  0.00    -0.003 A 
ENDROOT
BRANCH   1   7
ATOM      7  O   UNL     1     -27.185   6.371 -56.510  1.00  0.00    -0.508 OA
ATOM      8  H   UNL     1     -27.929   6.477 -57.190  1.00  0.00     0.293 HD
ENDBRANCH   1   7
BRANCH   6   9
ATOM      9  C   UNL     1     -21.742   5.878 -58.082  1.00  0.00     0.071 C 
ATOM     10  O   UNL     1     -20.875   6.673 -57.631  1.00  0.00    -0.545 OA
ATOM     11  O   UNL     1     -21.346   4.882 -58.968  1.00  0.00    -0.545 OA
ENDBRANCH   6   9
TORSDOF 2
ENDMDL
