MODEL 1
REMARK VINA RESULT:    -4.776      0.000      0.000
REMARK INTER + INTRA:          -6.532
REMARK INTER:                  -6.731
REMARK INTRA:                   0.198
REMARK UNBOUND:                 0.198
REMARK SMILES CC1=CCC(=C(C)C)C(=O)CC(C)=CCC1
REMARK SMILES IDX 12 1 14 2 13 3 15 4 16 5 2 6 1 7 3 8 11 10 9 11 10 12 5 13
REMARK SMILES IDX 6 14 7 15 8 16 4 17
REMARK H PARENT
REMARK Flexibility Score: 60.00
ROOT
ATOM      1  C   UNL     1     101.820 135.020  50.409  1.00  0.00    -0.070 C 
ATOM      2  C   UNL     1     102.589 136.140  50.429  1.00  0.00    -0.027 C 
ATOM      3  C   UNL     1     100.440 135.141  49.810  1.00  0.00     0.039 C 
ENDROOT
BRANCH   2   4
ATOM      4  C   UNL     1     103.951 136.274  51.067  1.00  0.00     0.032 C 
BRANCH   4   5
ATOM      5  C   UNL     1     103.906 136.262  52.601  1.00  0.00     0.034 C 
BRANCH   5   6
ATOM      6  C   UNL     1     104.986 135.349  53.149  1.00  0.00    -0.077 C 
ATOM      7  C   UNL     1     106.425 135.688  52.857  1.00  0.00     0.039 C 
ATOM      8  C   UNL     1     104.729 134.288  53.951  1.00  0.00    -0.023 CG0
ATOM      9  G   UNL     1     103.359 133.788  54.338  1.00  0.00     0.000 G0
ENDBRANCH   5   6
ENDBRANCH   4   5
ENDBRANCH   2   4
BRANCH   1  10
ATOM     10  C   UNL     1     102.287 133.644  50.876  1.00  0.00     0.111 C 
BRANCH  10  11
ATOM     11  C   UNL     1     101.841 133.287  52.271  1.00  0.00     0.163 C 
ATOM     12  O   UNL     1     100.608 133.366  52.529  1.00  0.00    -0.294 OA
BRANCH  11  13
ATOM     13  C   UNL     1     102.789 132.792  53.325  1.00  0.00    -0.002 C 
ATOM     14  C   UNL     1     103.104 131.462  53.412  1.00  0.00    -0.069 C 
ATOM     15  C   UNL     1     103.980 130.923  54.522  1.00  0.00     0.039 C 
ATOM     16  C   UNL     1     102.638 130.462  52.376  1.00  0.00     0.039 C 
BRANCH  13  17
ATOM     17  C   UNL     1     103.351 133.791  54.334  1.00  0.00     0.066 CG0
ATOM     18  G   UNL     1     104.718 134.294  53.938  1.00  0.00     0.000 G0
ENDBRANCH  13  17
ENDBRANCH  11  13
ENDBRANCH  10  11
ENDBRANCH   1  10
TORSDOF 0
ENDMDL
MODEL 2
REMARK VINA RESULT:    -4.687      2.089      5.202
REMARK INTER + INTRA:          -6.406
REMARK INTER:                  -6.653
REMARK INTRA:                   0.247
REMARK UNBOUND:                 0.198
REMARK SMILES CC1=CCC(=C(C)C)C(=O)CC(C)=CCC1
REMARK SMILES IDX 12 1 14 2 13 3 15 4 16 5 2 6 1 7 3 8 11 10 9 11 10 12 5 13
REMARK SMILES IDX 6 14 7 15 8 16 4 17
REMARK H PARENT
REMARK Flexibility Score: 60.00
ROOT
ATOM      1  C   UNL     1     104.822 133.047  53.492  1.00  0.00    -0.070 C 
ATOM      2  C   UNL     1     104.162 132.002  54.056  1.00  0.00    -0.027 C 
ATOM      3  C   UNL     1     106.022 133.586  54.232  1.00  0.00     0.039 C 
ENDROOT
BRANCH   2   4
ATOM      4  C   UNL     1     102.886 131.374  53.547  1.00  0.00     0.032 C 
BRANCH   4   5
ATOM      5  C   UNL     1     101.633 132.201  53.867  1.00  0.00     0.034 C 
BRANCH   5   6
ATOM      6  C   UNL     1     100.855 132.486  52.596  1.00  0.00    -0.077 C 
ATOM      7  C   UNL     1     100.137 131.343  51.927  1.00  0.00     0.039 C 
ATOM      8  C   UNL     1     100.709 133.727  52.074  1.00  0.00    -0.023 CG0
ATOM      9  G   UNL     1     101.362 134.984  52.594  1.00  0.00     0.000 G0
ENDBRANCH   5   6
ENDBRANCH   4   5
ENDBRANCH   2   4
BRANCH   1  10
ATOM     10  C   UNL     1     104.479 133.652  52.133  1.00  0.00     0.111 C 
BRANCH  10  11
ATOM     11  C   UNL     1     103.938 135.057  52.208  1.00  0.00     0.163 C 
ATOM     12  O   UNL     1     104.709 135.958  52.640  1.00  0.00    -0.294 OA
BRANCH  11  13
ATOM     13  C   UNL     1     102.561 135.423  51.736  1.00  0.00    -0.002 C 
ATOM     14  C   UNL     1     102.386 136.162  50.596  1.00  0.00    -0.069 C 
ATOM     15  C   UNL     1     101.015 136.625  50.152  1.00  0.00     0.039 C 
ATOM     16  C   UNL     1     103.544 136.515  49.689  1.00  0.00     0.039 C 
BRANCH  13  17
ATOM     17  C   UNL     1     101.360 135.003  52.581  1.00  0.00     0.066 CG0
ATOM     18  G   UNL     1     100.716 133.737  52.070  1.00  0.00     0.000 G0
ENDBRANCH  13  17
ENDBRANCH  11  13
ENDBRANCH  10  11
ENDBRANCH   1  10
TORSDOF 0
ENDMDL
MODEL 3
REMARK VINA RESULT:    -4.632      1.873      3.664
REMARK INTER + INTRA:          -6.329
REMARK INTER:                  -6.469
REMARK INTRA:                   0.139
REMARK UNBOUND:                 0.198
REMARK SMILES CC1=CCC(=C(C)C)C(=O)CC(C)=CCC1
REMARK SMILES IDX 12 1 14 2 13 3 15 4 16 5 2 6 1 7 3 8 11 10 9 11 10 12 5 13
REMARK SMILES IDX 6 14 7 15 8 16 4 17
REMARK H PARENT
REMARK Flexibility Score: 60.00
ROOT
ATOM      1  C   UNL     1     101.584 135.353  50.132  1.00  0.00    -0.070 C 
ATOM      2  C   UNL     1     100.254 135.123  50.285  1.00  0.00    -0.027 C 
ATOM      3  C   UNL     1     101.987 136.585  49.358  1.00  0.00     0.039 C 
ENDROOT
BRANCH   2   4
ATOM      4  C   UNL     1      99.628 133.910  50.929  1.00  0.00     0.032 C 
BRANCH   4   5
ATOM      5  C   UNL     1      99.631 133.968  52.463  1.00  0.00     0.034 C 
BRANCH   5   6
ATOM      6  C   UNL     1     100.216 132.691  53.034  1.00  0.00    -0.077 C 
ATOM      7  C   UNL     1      99.532 131.386  52.716  1.00  0.00     0.039 C 
ATOM      8  C   UNL     1     101.364 132.653  53.752  1.00  0.00    -0.023 CG0
ATOM      9  G   UNL     1     102.176 133.852  54.180  1.00  0.00     0.000 G0
ENDBRANCH   5   6
ENDBRANCH   4   5
ENDBRANCH   2   4
BRANCH   1  10
ATOM     10  C   UNL     1     102.685 134.498  50.754  1.00  0.00     0.111 C 
BRANCH  10  11
ATOM     11  C   UNL     1     103.188 135.017  52.077  1.00  0.00     0.163 C 
ATOM     12  O   UNL     1     103.404 136.256  52.176  1.00  0.00    -0.294 OA
BRANCH  11  13
ATOM     13  C   UNL     1     103.380 134.132  53.275  1.00  0.00    -0.002 C 
ATOM     14  C   UNL     1     104.589 133.539  53.520  1.00  0.00    -0.069 C 
ATOM     15  C   UNL     1     104.781 132.568  54.665  1.00  0.00     0.039 C 
ATOM     16  C   UNL     1     105.816 133.858  52.694  1.00  0.00     0.039 C 
BRANCH  13  17
ATOM     17  C   UNL     1     102.183 133.860  54.185  1.00  0.00     0.066 CG0
ATOM     18  G   UNL     1     101.384 132.662  53.734  1.00  0.00     0.000 G0
ENDBRANCH  13  17
ENDBRANCH  11  13
ENDBRANCH  10  11
ENDBRANCH   1  10
TORSDOF 0
ENDMDL
MODEL 4
REMARK VINA RESULT:    -4.627      2.061      4.008
REMARK INTER + INTRA:          -6.322
REMARK INTER:                  -6.565
REMARK INTRA:                   0.243
REMARK UNBOUND:                 0.198
REMARK SMILES CC1=CCC(=C(C)C)C(=O)CC(C)=CCC1
REMARK SMILES IDX 12 1 14 2 13 3 15 4 16 5 2 6 1 7 3 8 11 10 9 11 10 12 5 13
REMARK SMILES IDX 6 14 7 15 8 16 4 17
REMARK H PARENT
REMARK Flexibility Score: 60.00
ROOT
ATOM      1  C   UNL     1     102.125 132.732  50.924  1.00  0.00    -0.070 C 
ATOM      2  C   UNL     1     101.015 132.002  51.210  1.00  0.00    -0.027 C 
ATOM      3  C   UNL     1     103.245 132.029  50.197  1.00  0.00     0.039 C 
ENDROOT
BRANCH   2   4
ATOM      4  C   UNL     1      99.825 132.468  52.013  1.00  0.00     0.032 C 
BRANCH   4   5
ATOM      5  C   UNL     1      99.776 131.871  53.427  1.00  0.00     0.034 C 
BRANCH   5   6
ATOM      6  C   UNL     1     100.113 132.933  54.455  1.00  0.00    -0.077 C 
ATOM      7  C   UNL     1      98.980 133.681  55.109  1.00  0.00     0.039 C 
ATOM      8  C   UNL     1     101.375 133.191  54.873  1.00  0.00    -0.023 CG0
ATOM      9  G   UNL     1     102.632 132.557  54.327  1.00  0.00     0.000 G0
ENDBRANCH   5   6
ENDBRANCH   4   5
ENDBRANCH   2   4
BRANCH   1  10
ATOM     10  C   UNL     1     102.277 134.222  51.217  1.00  0.00     0.111 C 
BRANCH  10  11
ATOM     11  C   UNL     1     102.724 134.527  52.624  1.00  0.00     0.163 C 
ATOM     12  O   UNL     1     102.417 135.652  53.104  1.00  0.00    -0.294 OA
BRANCH  11  13
ATOM     13  C   UNL     1     103.455 133.531  53.477  1.00  0.00    -0.002 C 
ATOM     14  C   UNL     1     104.823 133.463  53.456  1.00  0.00    -0.069 C 
ATOM     15  C   UNL     1     105.578 132.405  54.232  1.00  0.00     0.039 C 
ATOM     16  C   UNL     1     105.659 134.471  52.699  1.00  0.00     0.039 C 
BRANCH  13  17
ATOM     17  C   UNL     1     102.642 132.554  54.326  1.00  0.00     0.066 CG0
ATOM     18  G   UNL     1     101.392 133.189  54.885  1.00  0.00     0.000 G0
ENDBRANCH  13  17
ENDBRANCH  11  13
ENDBRANCH  10  11
ENDBRANCH   1  10
TORSDOF 0
ENDMDL
MODEL 5
REMARK VINA RESULT:    -4.578      1.881      3.671
REMARK INTER + INTRA:          -6.253
REMARK INTER:                  -7.146
REMARK INTRA:                   0.893
REMARK UNBOUND:                 0.198
REMARK SMILES CC1=CCC(=C(C)C)C(=O)CC(C)=CCC1
REMARK SMILES IDX 12 1 14 2 13 3 15 4 16 5 2 6 1 7 3 8 11 10 9 11 10 12 5 13
REMARK SMILES IDX 6 14 7 15 8 16 4 17
REMARK H PARENT
REMARK Flexibility Score: 60.00
ROOT
ATOM      1  C   UNL     1     101.175 131.504  52.497  1.00  0.00    -0.070 C 
ATOM      2  C   UNL     1     101.366 131.533  51.152  1.00  0.00    -0.027 C 
ATOM      3  C   UNL     1      99.771 131.740  52.999  1.00  0.00     0.039 C 
ENDROOT
BRANCH   2   4
ATOM      4  C   UNL     1     102.692 131.425  50.438  1.00  0.00     0.032 C 
BRANCH   4   5
ATOM      5  C   UNL     1     103.182 132.762  49.864  1.00  0.00     0.034 C 
BRANCH   5   6
ATOM      6  C   UNL     1     102.759 133.905  50.766  1.00  0.00    -0.077 C 
ATOM      7  C   UNL     1     101.524 134.686  50.399  1.00  0.00     0.039 C 
ATOM      8  C   UNL     1     103.390 134.212  51.925  1.00  0.00    -0.023 CG0
ATOM      9  G   UNL     1     104.644 133.555  52.447  1.00  0.00     0.000 G0
ENDBRANCH   5   6
ENDBRANCH   4   5
ENDBRANCH   2   4
BRANCH   1  10
ATOM     10  C   UNL     1     102.261 131.174  53.516  1.00  0.00     0.111 C 
BRANCH  10  11
ATOM     11  C   UNL     1     102.964 132.385  54.076  1.00  0.00     0.163 C 
ATOM     12  O   UNL     1     102.338 133.089  54.914  1.00  0.00    -0.294 OA
BRANCH  11  13
ATOM     13  C   UNL     1     104.380 132.737  53.721  1.00  0.00    -0.002 C 
ATOM     14  C   UNL     1     105.416 132.381  54.542  1.00  0.00    -0.069 C 
ATOM     15  C   UNL     1     106.840 132.807  54.257  1.00  0.00     0.039 C 
ATOM     16  C   UNL     1     105.206 131.498  55.753  1.00  0.00     0.039 C 
BRANCH  13  17
ATOM     17  C   UNL     1     104.638 133.552  52.454  1.00  0.00     0.066 CG0
ATOM     18  G   UNL     1     103.381 134.203  51.929  1.00  0.00     0.000 G0
ENDBRANCH  13  17
ENDBRANCH  11  13
ENDBRANCH  10  11
ENDBRANCH   1  10
TORSDOF 0
ENDMDL
MODEL 6
REMARK VINA RESULT:    -4.576      1.788      2.812
REMARK INTER + INTRA:          -6.250
REMARK INTER:                  -6.806
REMARK INTRA:                   0.556
REMARK UNBOUND:                 0.198
REMARK SMILES CC1=CCC(=C(C)C)C(=O)CC(C)=CCC1
REMARK SMILES IDX 12 1 14 2 13 3 15 4 16 5 2 6 1 7 3 8 11 10 9 11 10 12 5 13
REMARK SMILES IDX 6 14 7 15 8 16 4 17
REMARK H PARENT
REMARK Flexibility Score: 60.00
ROOT
ATOM      1  C   UNL     1     100.311 132.529  51.693  1.00  0.00    -0.070 C 
ATOM      2  C   UNL     1      99.847 133.784  51.462  1.00  0.00    -0.027 C 
ATOM      3  C   UNL     1      99.591 131.707  52.734  1.00  0.00     0.039 C 
ENDROOT
BRANCH   2   4
ATOM      4  C   UNL     1     100.470 134.811  50.546  1.00  0.00     0.032 C 
BRANCH   4   5
ATOM      5  C   UNL     1     101.258 135.894  51.296  1.00  0.00     0.034 C 
BRANCH   5   6
ATOM      6  C   UNL     1     102.736 135.781  50.976  1.00  0.00    -0.077 C 
ATOM      7  C   UNL     1     103.264 136.513  49.769  1.00  0.00     0.039 C 
ATOM      8  C   UNL     1     103.621 135.121  51.761  1.00  0.00    -0.023 CG0
ATOM      9  G   UNL     1     103.279 134.322  52.995  1.00  0.00     0.000 G0
ENDBRANCH   5   6
ENDBRANCH   4   5
ENDBRANCH   2   4
BRANCH   1  10
ATOM     10  C   UNL     1     101.452 131.875  50.919  1.00  0.00     0.111 C 
BRANCH  10  11
ATOM     11  C   UNL     1     102.819 132.393  51.289  1.00  0.00     0.163 C 
ATOM     12  O   UNL     1     103.667 132.518  50.363  1.00  0.00    -0.294 OA
BRANCH  11  13
ATOM     13  C   UNL     1     103.177 132.813  52.685  1.00  0.00    -0.002 C 
ATOM     14  C   UNL     1     103.339 131.882  53.676  1.00  0.00    -0.069 C 
ATOM     15  C   UNL     1     103.604 132.285  55.110  1.00  0.00     0.039 C 
ATOM     16  C   UNL     1     103.313 130.397  53.386  1.00  0.00     0.039 C 
BRANCH  13  17
ATOM     17  C   UNL     1     103.301 134.305  52.993  1.00  0.00     0.066 CG0
ATOM     18  G   UNL     1     103.626 135.116  51.762  1.00  0.00     0.000 G0
ENDBRANCH  13  17
ENDBRANCH  11  13
ENDBRANCH  10  11
ENDBRANCH   1  10
TORSDOF 0
ENDMDL
MODEL 7
REMARK VINA RESULT:    -4.535      1.688      3.267
REMARK INTER + INTRA:          -6.192
REMARK INTER:                  -6.467
REMARK INTRA:                   0.275
REMARK UNBOUND:                 0.198
REMARK SMILES CC1=CCC(=C(C)C)C(=O)CC(C)=CCC1
REMARK SMILES IDX 12 1 14 2 13 3 15 4 16 5 2 6 1 7 3 8 11 10 9 11 10 12 5 13
REMARK SMILES IDX 6 14 7 15 8 16 4 17
REMARK H PARENT
REMARK Flexibility Score: 60.00
ROOT
ATOM      1  C   UNL     1     103.556 134.658  51.383  1.00  0.00    -0.070 C 
ATOM      2  C   UNL     1     104.592 134.769  52.256  1.00  0.00    -0.027 C 
ATOM      3  C   UNL     1     102.914 135.938  50.909  1.00  0.00     0.039 C 
ENDROOT
BRANCH   2   4
ATOM      4  C   UNL     1     105.312 133.627  52.934  1.00  0.00     0.032 C 
BRANCH   4   5
ATOM      5  C   UNL     1     104.965 133.491  54.423  1.00  0.00     0.034 C 
BRANCH   5   6
ATOM      6  C   UNL     1     104.160 132.228  54.659  1.00  0.00    -0.077 C 
ATOM      7  C   UNL     1     104.896 130.975  55.060  1.00  0.00     0.039 C 
ATOM      8  C   UNL     1     102.807 132.185  54.604  1.00  0.00    -0.023 CG0
ATOM      9  G   UNL     1     101.904 133.328  54.208  1.00  0.00     0.000 G0
ENDBRANCH   5   6
ENDBRANCH   4   5
ENDBRANCH   2   4
BRANCH   1  10
ATOM     10  C   UNL     1     103.059 133.339  50.797  1.00  0.00     0.111 C 
BRANCH  10  11
ATOM     11  C   UNL     1     102.199 132.536  51.740  1.00  0.00     0.163 C 
ATOM     12  O   UNL     1     102.260 131.279  51.658  1.00  0.00    -0.294 OA
BRANCH  11  13
ATOM     13  C   UNL     1     101.336 133.171  52.792  1.00  0.00    -0.002 C 
ATOM     14  C   UNL     1     100.088 133.642  52.482  1.00  0.00    -0.069 C 
ATOM     15  C   UNL     1      99.239 134.371  53.500  1.00  0.00     0.039 C 
ATOM     16  C   UNL     1      99.466 133.415  51.122  1.00  0.00     0.039 C 
BRANCH  13  17
ATOM     17  C   UNL     1     101.900 133.334  54.203  1.00  0.00     0.066 CG0
ATOM     18  G   UNL     1     102.809 132.192  54.589  1.00  0.00     0.000 G0
ENDBRANCH  13  17
ENDBRANCH  11  13
ENDBRANCH  10  11
ENDBRANCH   1  10
TORSDOF 0
ENDMDL
MODEL 8
REMARK VINA RESULT:    -4.501      2.151      4.644
REMARK INTER + INTRA:          -6.145
REMARK INTER:                  -6.702
REMARK INTRA:                   0.557
REMARK UNBOUND:                 0.198
REMARK SMILES CC1=CCC(=C(C)C)C(=O)CC(C)=CCC1
REMARK SMILES IDX 12 1 14 2 13 3 15 4 16 5 2 6 1 7 3 8 11 10 9 11 10 12 5 13
REMARK SMILES IDX 6 14 7 15 8 16 4 17
REMARK H PARENT
REMARK Flexibility Score: 60.00
ROOT
ATOM      1  C   UNL     1     102.309 131.764  53.134  1.00  0.00    -0.070 C 
ATOM      2  C   UNL     1     100.953 131.722  53.070  1.00  0.00    -0.027 C 
ATOM      3  C   UNL     1     102.936 131.747  54.507  1.00  0.00     0.039 C 
ENDROOT
BRANCH   2   4
ATOM      4  C   UNL     1     100.116 131.831  51.818  1.00  0.00     0.032 C 
BRANCH   4   5
ATOM      5  C   UNL     1      99.500 133.223  51.619  1.00  0.00     0.034 C 
BRANCH   5   6
ATOM      6  C   UNL     1      99.874 134.131  52.775  1.00  0.00    -0.077 C 
ATOM      7  C   UNL     1      99.066 134.044  54.044  1.00  0.00     0.039 C 
ATOM      8  C   UNL     1     100.944 134.962  52.753  1.00  0.00    -0.023 CG0
ATOM      9  G   UNL     1     101.856 135.194  51.573  1.00  0.00     0.000 G0
ENDBRANCH   5   6
ENDBRANCH   4   5
ENDBRANCH   2   4
BRANCH   1  10
ATOM     10  C   UNL     1     103.232 131.745  51.919  1.00  0.00     0.111 C 
BRANCH  10  11
ATOM     11  C   UNL     1     103.144 132.985  51.065  1.00  0.00     0.163 C 
ATOM     12  O   UNL     1     103.009 132.829  49.820  1.00  0.00    -0.294 OA
BRANCH  11  13
ATOM     13  C   UNL     1     103.149 134.371  51.642  1.00  0.00    -0.002 C 
ATOM     14  C   UNL     1     104.263 134.863  52.268  1.00  0.00    -0.069 C 
ATOM     15  C   UNL     1     104.263 136.218  52.942  1.00  0.00     0.039 C 
ATOM     16  C   UNL     1     105.573 134.105  52.277  1.00  0.00     0.039 C 
BRANCH  13  17
ATOM     17  C   UNL     1     101.868 135.201  51.570  1.00  0.00     0.066 CG0
ATOM     18  G   UNL     1     100.959 134.950  52.748  1.00  0.00     0.000 G0
ENDBRANCH  13  17
ENDBRANCH  11  13
ENDBRANCH  10  11
ENDBRANCH   1  10
TORSDOF 0
ENDMDL
MODEL 9
REMARK VINA RESULT:    -4.471      1.547      3.714
REMARK INTER + INTRA:          -6.103
REMARK INTER:                  -6.636
REMARK INTRA:                   0.534
REMARK UNBOUND:                 0.198
REMARK SMILES CC1=CCC(=C(C)C)C(=O)CC(C)=CCC1
REMARK SMILES IDX 12 1 14 2 13 3 15 4 16 5 2 6 1 7 3 8 11 10 9 11 10 12 5 13
REMARK SMILES IDX 6 14 7 15 8 16 4 17
REMARK H PARENT
REMARK Flexibility Score: 60.00
ROOT
ATOM      1  C   UNL     1     102.411 135.251  50.494  1.00  0.00    -0.070 C 
ATOM      2  C   UNL     1     102.208 133.975  50.076  1.00  0.00    -0.027 C 
ATOM      3  C   UNL     1     101.365 136.274  50.122  1.00  0.00     0.039 C 
ENDROOT
BRANCH   2   4
ATOM      4  C   UNL     1     103.165 132.819  50.245  1.00  0.00     0.032 C 
BRANCH   4   5
ATOM      5  C   UNL     1     102.518 131.586  50.893  1.00  0.00     0.034 C 
BRANCH   5   6
ATOM      6  C   UNL     1     101.898 131.960  52.225  1.00  0.00    -0.077 C 
ATOM      7  C   UNL     1     100.436 131.662  52.442  1.00  0.00     0.039 C 
ATOM      8  C   UNL     1     102.605 132.477  53.258  1.00  0.00    -0.023 CG0
ATOM      9  G   UNL     1     104.066 132.854  53.224  1.00  0.00     0.000 G0
ENDBRANCH   5   6
ENDBRANCH   4   5
ENDBRANCH   2   4
BRANCH   1  10
ATOM     10  C   UNL     1     103.575 135.696  51.376  1.00  0.00     0.111 C 
BRANCH  10  11
ATOM     11  C   UNL     1     103.405 135.352  52.834  1.00  0.00     0.163 C 
ATOM     12  O   UNL     1     102.458 135.904  53.458  1.00  0.00    -0.294 OA
BRANCH  11  13
ATOM     13  C   UNL     1     104.272 134.347  53.536  1.00  0.00    -0.002 C 
ATOM     14  C   UNL     1     105.261 134.753  54.392  1.00  0.00    -0.069 C 
ATOM     15  C   UNL     1     106.209 133.766  55.036  1.00  0.00     0.039 C 
ATOM     16  C   UNL     1     105.431 136.205  54.781  1.00  0.00     0.039 C 
BRANCH  13  17
ATOM     17  C   UNL     1     104.067 132.863  53.235  1.00  0.00     0.066 CG0
ATOM     18  G   UNL     1     102.610 132.469  53.273  1.00  0.00     0.000 G0
ENDBRANCH  13  17
ENDBRANCH  11  13
ENDBRANCH  10  11
ENDBRANCH   1  10
TORSDOF 0
ENDMDL
