MODEL 1
REMARK VINA RESULT:    -4.800      0.000      0.000
REMARK INTER + INTRA:          -6.951
REMARK INTER:                  -6.484
REMARK INTRA:                  -0.467
REMARK UNBOUND:                -0.467
REMARK SMILES CCCCCCC=CC(=O)[O-]
REMARK SMILES IDX 5 1 6 2 7 3 8 4 9 5 10 6 11 7 4 8 3 9 2 10 1 11
REMARK H PARENT
REMARK Flexibility Score: inf
ROOT
ATOM      1  C   UNL     1      21.718  22.871   9.500  1.00  0.00     0.004 C 
ENDROOT
BRANCH   1   2
ATOM      2  C   UNL     1      20.638  23.513  10.380  1.00  0.00     0.027 C 
BRANCH   2   3
ATOM      3  C   UNL     1      19.550  24.125   9.546  1.00  0.00    -0.025 C 
ATOM      4  C   UNL     1      19.234  25.420   9.650  1.00  0.00     0.020 C 
BRANCH   4   5
ATOM      5  C   UNL     1      18.181  26.044   8.834  1.00  0.00     0.064 C 
ATOM      6  O   UNL     1      18.063  27.297   8.771  1.00  0.00    -0.545 OA
ATOM      7  O   UNL     1      17.304  25.239   8.119  1.00  0.00    -0.545 OA
ENDBRANCH   4   5
ENDBRANCH   2   3
ENDBRANCH   1   2
BRANCH   1   8
ATOM      8  C   UNL     1      21.429  23.109   8.013  1.00  0.00     0.000 C 
BRANCH   8   9
ATOM      9  C   UNL     1      21.202  21.783   7.276  1.00  0.00    -0.000 C 
BRANCH   9  10
ATOM     10  C   UNL     1      20.492  22.012   5.937  1.00  0.00    -0.003 C 
ATOM     11  C   UNL     1      19.175  22.756   6.133  1.00  0.00     0.004 C 
ENDBRANCH   9  10
ENDBRANCH   8   9
ENDBRANCH   1   8
TORSDOF 6
ENDMDL
MODEL 2
REMARK VINA RESULT:    -4.727      0.854      1.497
REMARK INTER + INTRA:          -6.852
REMARK INTER:                  -6.148
REMARK INTRA:                  -0.704
REMARK UNBOUND:                -0.467
REMARK SMILES CCCCCCC=CC(=O)[O-]
REMARK SMILES IDX 5 1 6 2 7 3 8 4 9 5 10 6 11 7 4 8 3 9 2 10 1 11
REMARK H PARENT
REMARK Flexibility Score: inf
ROOT
ATOM      1  C   UNL     1      21.467  23.091   8.378  1.00  0.00     0.004 C 
ENDROOT
BRANCH   1   2
ATOM      2  C   UNL     1      20.880  23.156   9.793  1.00  0.00     0.027 C 
BRANCH   2   3
ATOM      3  C   UNL     1      19.639  23.999   9.829  1.00  0.00    -0.025 C 
ATOM      4  C   UNL     1      19.542  25.133   9.126  1.00  0.00     0.020 C 
BRANCH   4   5
ATOM      5  C   UNL     1      18.331  25.968   9.135  1.00  0.00     0.064 C 
ATOM      6  O   UNL     1      17.216  25.493   9.480  1.00  0.00    -0.545 OA
ATOM      7  O   UNL     1      18.418  27.302   8.760  1.00  0.00    -0.545 OA
ENDBRANCH   4   5
ENDBRANCH   2   3
ENDBRANCH   1   2
BRANCH   1   8
ATOM      8  C   UNL     1      20.774  22.008   7.544  1.00  0.00     0.000 C 
BRANCH   8   9
ATOM      9  C   UNL     1      20.039  22.621   6.346  1.00  0.00    -0.000 C 
BRANCH   9  10
ATOM     10  C   UNL     1      18.548  22.260   6.372  1.00  0.00    -0.003 C 
ATOM     11  C   UNL     1      17.680  23.514   6.423  1.00  0.00     0.004 C 
ENDBRANCH   9  10
ENDBRANCH   8   9
ENDBRANCH   1   8
TORSDOF 6
ENDMDL
MODEL 3
REMARK VINA RESULT:    -4.712      2.840      4.938
REMARK INTER + INTRA:          -6.832
REMARK INTER:                  -6.234
REMARK INTRA:                  -0.597
REMARK UNBOUND:                -0.467
REMARK SMILES CCCCCCC=CC(=O)[O-]
REMARK SMILES IDX 5 1 6 2 7 3 8 4 9 5 10 6 11 7 4 8 3 9 2 10 1 11
REMARK H PARENT
REMARK Flexibility Score: inf
ROOT
ATOM      1  C   UNL     1      17.415  23.264   7.004  1.00  0.00     0.004 C 
ENDROOT
BRANCH   1   2
ATOM      2  C   UNL     1      18.749  23.108   6.265  1.00  0.00     0.027 C 
BRANCH   2   3
ATOM      3  C   UNL     1      19.755  22.378   7.107  1.00  0.00    -0.025 C 
ATOM      4  C   UNL     1      20.777  23.016   7.688  1.00  0.00     0.020 C 
BRANCH   4   5
ATOM      5  C   UNL     1      21.765  22.323   8.528  1.00  0.00     0.064 C 
ATOM      6  O   UNL     1      22.123  22.799   9.638  1.00  0.00    -0.545 OA
ATOM      7  O   UNL     1      22.312  21.124   8.091  1.00  0.00    -0.545 OA
ENDBRANCH   4   5
ENDBRANCH   2   3
ENDBRANCH   1   2
BRANCH   1   8
ATOM      8  C   UNL     1      17.292  24.659   7.629  1.00  0.00     0.000 C 
BRANCH   8   9
ATOM      9  C   UNL     1      17.587  24.617   9.133  1.00  0.00    -0.000 C 
BRANCH   9  10
ATOM     10  C   UNL     1      18.803  25.484   9.480  1.00  0.00    -0.003 C 
ATOM     11  C   UNL     1      18.744  26.828   8.762  1.00  0.00     0.004 C 
ENDBRANCH   9  10
ENDBRANCH   8   9
ENDBRANCH   1   8
TORSDOF 6
ENDMDL
MODEL 4
REMARK VINA RESULT:    -4.649      1.281      2.906
REMARK INTER + INTRA:          -6.747
REMARK INTER:                  -6.076
REMARK INTRA:                  -0.671
REMARK UNBOUND:                -0.467
REMARK SMILES CCCCCCC=CC(=O)[O-]
REMARK SMILES IDX 5 1 6 2 7 3 8 4 9 5 10 6 11 7 4 8 3 9 2 10 1 11
REMARK H PARENT
REMARK Flexibility Score: inf
ROOT
ATOM      1  C   UNL     1      19.238  21.953   6.530  1.00  0.00     0.004 C 
ENDROOT
BRANCH   1   2
ATOM      2  C   UNL     1      18.354  23.136   6.116  1.00  0.00     0.027 C 
BRANCH   2   3
ATOM      3  C   UNL     1      17.677  23.752   7.306  1.00  0.00    -0.025 C 
ATOM      4  C   UNL     1      18.241  24.751   7.994  1.00  0.00     0.020 C 
BRANCH   4   5
ATOM      5  C   UNL     1      17.589  25.378   9.154  1.00  0.00     0.064 C 
ATOM      6  O   UNL     1      17.185  26.571   9.107  1.00  0.00    -0.545 OA
ATOM      7  O   UNL     1      17.414  24.643  10.319  1.00  0.00    -0.545 OA
ENDBRANCH   4   5
ENDBRANCH   2   3
ENDBRANCH   1   2
BRANCH   1   8
ATOM      8  C   UNL     1      20.718  22.352   6.548  1.00  0.00     0.000 C 
BRANCH   8   9
ATOM      9  C   UNL     1      21.364  22.014   7.897  1.00  0.00    -0.000 C 
BRANCH   9  10
ATOM     10  C   UNL     1      21.497  23.266   8.772  1.00  0.00    -0.003 C 
ATOM     11  C   UNL     1      20.847  23.055  10.136  1.00  0.00     0.004 C 
ENDBRANCH   9  10
ENDBRANCH   8   9
ENDBRANCH   1   8
TORSDOF 6
ENDMDL
MODEL 5
REMARK VINA RESULT:    -4.585      1.091      1.416
REMARK INTER + INTRA:          -6.660
REMARK INTER:                  -5.890
REMARK INTRA:                  -0.770
REMARK UNBOUND:                -0.467
REMARK SMILES CCCCCCC=CC(=O)[O-]
REMARK SMILES IDX 5 1 6 2 7 3 8 4 9 5 10 6 11 7 4 8 3 9 2 10 1 11
REMARK H PARENT
REMARK Flexibility Score: inf
ROOT
ATOM      1  C   UNL     1      21.641  21.931   8.706  1.00  0.00     0.004 C 
ENDROOT
BRANCH   1   2
ATOM      2  C   UNL     1      21.425  23.146   9.616  1.00  0.00     0.027 C 
BRANCH   2   3
ATOM      3  C   UNL     1      19.966  23.469   9.756  1.00  0.00    -0.025 C 
ATOM      4  C   UNL     1      19.444  24.586   9.239  1.00  0.00     0.020 C 
BRANCH   4   5
ATOM      5  C   UNL     1      18.014  24.916   9.352  1.00  0.00     0.064 C 
ATOM      6  O   UNL     1      17.359  25.320   8.354  1.00  0.00    -0.545 OA
ATOM      7  O   UNL     1      17.376  24.777  10.577  1.00  0.00    -0.545 OA
ENDBRANCH   4   5
ENDBRANCH   2   3
ENDBRANCH   1   2
BRANCH   1   8
ATOM      8  C   UNL     1      21.750  22.356   7.237  1.00  0.00     0.000 C 
BRANCH   8   9
ATOM      9  C   UNL     1      20.650  21.705   6.391  1.00  0.00    -0.000 C 
BRANCH   9  10
ATOM     10  C   UNL     1      19.540  22.711   6.062  1.00  0.00    -0.003 C 
ATOM     11  C   UNL     1      18.185  22.219   6.562  1.00  0.00     0.004 C 
ENDBRANCH   9  10
ENDBRANCH   8   9
ENDBRANCH   1   8
TORSDOF 6
ENDMDL
MODEL 6
REMARK VINA RESULT:    -4.545      1.417      2.832
REMARK INTER + INTRA:          -6.606
REMARK INTER:                  -6.027
REMARK INTRA:                  -0.578
REMARK UNBOUND:                -0.467
REMARK SMILES CCCCCCC=CC(=O)[O-]
REMARK SMILES IDX 5 1 6 2 7 3 8 4 9 5 10 6 11 7 4 8 3 9 2 10 1 11
REMARK H PARENT
REMARK Flexibility Score: inf
ROOT
ATOM      1  C   UNL     1      18.430  22.981   5.990  1.00  0.00     0.004 C 
ENDROOT
BRANCH   1   2
ATOM      2  C   UNL     1      17.238  23.284   6.905  1.00  0.00     0.027 C 
BRANCH   2   3
ATOM      3  C   UNL     1      17.664  24.063   8.115  1.00  0.00    -0.025 C 
ATOM      4  C   UNL     1      18.408  25.170   8.008  1.00  0.00     0.020 C 
BRANCH   4   5
ATOM      5  C   UNL     1      18.825  25.957   9.179  1.00  0.00     0.064 C 
ATOM      6  O   UNL     1      18.765  27.216   9.172  1.00  0.00    -0.545 OA
ATOM      7  O   UNL     1      19.291  25.302  10.311  1.00  0.00    -0.545 OA
ENDBRANCH   4   5
ENDBRANCH   2   3
ENDBRANCH   1   2
BRANCH   1   8
ATOM      8  C   UNL     1      19.340  21.913   6.608  1.00  0.00     0.000 C 
BRANCH   8   9
ATOM      9  C   UNL     1      20.770  22.024   6.065  1.00  0.00    -0.000 C 
BRANCH   9  10
ATOM     10  C   UNL     1      21.791  22.062   7.208  1.00  0.00    -0.003 C 
ATOM     11  C   UNL     1      21.392  23.082   8.270  1.00  0.00     0.004 C 
ENDBRANCH   9  10
ENDBRANCH   8   9
ENDBRANCH   1   8
TORSDOF 6
ENDMDL
MODEL 7
REMARK VINA RESULT:    -4.500      2.944      5.129
REMARK INTER + INTRA:          -6.546
REMARK INTER:                  -5.952
REMARK INTRA:                  -0.593
REMARK UNBOUND:                -0.467
REMARK SMILES CCCCCCC=CC(=O)[O-]
REMARK SMILES IDX 5 1 6 2 7 3 8 4 9 5 10 6 11 7 4 8 3 9 2 10 1 11
REMARK H PARENT
REMARK Flexibility Score: inf
ROOT
ATOM      1  C   UNL     1      17.332  24.350   7.669  1.00  0.00     0.004 C 
ENDROOT
BRANCH   1   2
ATOM      2  C   UNL     1      17.895  23.520   6.510  1.00  0.00     0.027 C 
BRANCH   2   3
ATOM      3  C   UNL     1      19.331  23.153   6.751  1.00  0.00    -0.025 C 
ATOM      4  C   UNL     1      19.955  22.238   6.000  1.00  0.00     0.020 C 
BRANCH   4   5
ATOM      5  C   UNL     1      21.365  21.874   6.210  1.00  0.00     0.064 C 
ATOM      6  O   UNL     1      21.941  22.104   7.306  1.00  0.00    -0.545 OA
ATOM      7  O   UNL     1      22.072  21.263   5.182  1.00  0.00    -0.545 OA
ENDBRANCH   4   5
ENDBRANCH   2   3
ENDBRANCH   1   2
BRANCH   1   8
ATOM      8  C   UNL     1      18.438  25.163   8.352  1.00  0.00     0.000 C 
BRANCH   8   9
ATOM      9  C   UNL     1      18.382  25.000   9.876  1.00  0.00    -0.000 C 
BRANCH   9  10
ATOM     10  C   UNL     1      18.126  23.538  10.263  1.00  0.00    -0.003 C 
ATOM     11  C   UNL     1      19.437  22.780  10.447  1.00  0.00     0.004 C 
ENDBRANCH   9  10
ENDBRANCH   8   9
ENDBRANCH   1   8
TORSDOF 6
ENDMDL
MODEL 8
REMARK VINA RESULT:    -4.474      2.655      4.344
REMARK INTER + INTRA:          -6.510
REMARK INTER:                  -5.926
REMARK INTRA:                  -0.584
REMARK UNBOUND:                -0.467
REMARK SMILES CCCCCCC=CC(=O)[O-]
REMARK SMILES IDX 5 1 6 2 7 3 8 4 9 5 10 6 11 7 4 8 3 9 2 10 1 11
REMARK H PARENT
REMARK Flexibility Score: inf
ROOT
ATOM      1  C   UNL     1      19.841  23.337   9.938  1.00  0.00     0.004 C 
ENDROOT
BRANCH   1   2
ATOM      2  C   UNL     1      21.315  23.218   9.530  1.00  0.00     0.027 C 
BRANCH   2   3
ATOM      3  C   UNL     1      21.454  22.981   8.055  1.00  0.00    -0.025 C 
ATOM      4  C   UNL     1      20.597  22.201   7.387  1.00  0.00     0.020 C 
BRANCH   4   5
ATOM      5  C   UNL     1      20.706  21.966   5.939  1.00  0.00     0.064 C 
ATOM      6  O   UNL     1      19.746  22.225   5.164  1.00  0.00    -0.545 OA
ATOM      7  O   UNL     1      21.886  21.454   5.417  1.00  0.00    -0.545 OA
ENDBRANCH   4   5
ENDBRANCH   2   3
ENDBRANCH   1   2
BRANCH   1   8
ATOM      8  C   UNL     1      19.430  24.806  10.092  1.00  0.00     0.000 C 
BRANCH   8   9
ATOM      9  C   UNL     1      19.016  25.408   8.744  1.00  0.00    -0.000 C 
BRANCH   9  10
ATOM     10  C   UNL     1      17.542  25.114   8.439  1.00  0.00    -0.003 C 
ATOM     11  C   UNL     1      17.402  24.226   7.207  1.00  0.00     0.004 C 
ENDBRANCH   9  10
ENDBRANCH   8   9
ENDBRANCH   1   8
TORSDOF 6
ENDMDL
MODEL 9
REMARK VINA RESULT:    -4.328      1.716      2.870
REMARK INTER + INTRA:          -6.313
REMARK INTER:                  -5.674
REMARK INTRA:                  -0.639
REMARK UNBOUND:                -0.467
REMARK SMILES CCCCCCC=CC(=O)[O-]
REMARK SMILES IDX 5 1 6 2 7 3 8 4 9 5 10 6 11 7 4 8 3 9 2 10 1 11
REMARK H PARENT
REMARK Flexibility Score: inf
ROOT
ATOM      1  C   UNL     1      20.888  21.559   6.241  1.00  0.00     0.004 C 
ENDROOT
BRANCH   1   2
ATOM      2  C   UNL     1      21.617  22.433   7.269  1.00  0.00     0.027 C 
BRANCH   2   3
ATOM      3  C   UNL     1      20.728  22.760   8.433  1.00  0.00    -0.025 C 
ATOM      4  C   UNL     1      20.344  24.015   8.690  1.00  0.00     0.020 C 
BRANCH   4   5
ATOM      5  C   UNL     1      19.462  24.356   9.817  1.00  0.00     0.064 C 
ATOM      6  O   UNL     1      19.230  25.556  10.122  1.00  0.00    -0.545 OA
ATOM      7  O   UNL     1      18.874  23.338  10.556  1.00  0.00    -0.545 OA
ENDBRANCH   4   5
ENDBRANCH   2   3
ENDBRANCH   1   2
BRANCH   1   8
ATOM      8  C   UNL     1      19.715  22.316   5.608  1.00  0.00     0.000 C 
BRANCH   8   9
ATOM      9  C   UNL     1      18.411  21.520   5.734  1.00  0.00    -0.000 C 
BRANCH   9  10
ATOM     10  C   UNL     1      17.485  22.143   6.784  1.00  0.00    -0.003 C 
ATOM     11  C   UNL     1      17.436  23.661   6.644  1.00  0.00     0.004 C 
ENDBRANCH   9  10
ENDBRANCH   8   9
ENDBRANCH   1   8
TORSDOF 6
ENDMDL
