MODEL 1
REMARK VINA RESULT:    -5.788      0.000      0.000
REMARK INTER + INTRA:          -6.295
REMARK INTER:                  -6.295
REMARK INTRA:                   0.000
REMARK UNBOUND:                 0.000
REMARK SMILES Oc1cccc(O)c1O
REMARK SMILES IDX 4 1 5 2 6 3 8 4 2 5 3 6 7 7 1 9 9 11
REMARK H PARENT 7 8 1 10 9 12
REMARK Flexibility Score: inf
ROOT
ATOM      1  C   UNL     1      11.527 -46.148  37.655  1.00  0.00     0.008 A 
ATOM      2  C   UNL     1      12.616 -45.940  36.805  1.00  0.00     0.050 A 
ATOM      3  C   UNL     1      13.906 -46.315  37.208  1.00  0.00     0.161 A 
ATOM      4  C   UNL     1      14.101 -46.902  38.472  1.00  0.00     0.200 A 
ATOM      5  C   UNL     1      13.004 -47.110  39.320  1.00  0.00     0.161 A 
ATOM      6  C   UNL     1      11.718 -46.731  38.909  1.00  0.00     0.050 A 
ENDROOT
BRANCH   3   7
ATOM      7  O   UNL     1      14.992 -46.107  36.359  1.00  0.00    -0.504 OA
ATOM      8  H   UNL     1      14.875 -45.712  35.433  1.00  0.00     0.293 HD
ENDBRANCH   3   7
BRANCH   5   9
ATOM      9  O   UNL     1      13.200 -47.692  40.572  1.00  0.00    -0.504 OA
ATOM     10  H   UNL     1      14.126 -47.791  40.971  1.00  0.00     0.293 HD
ENDBRANCH   5   9
BRANCH   4  11
ATOM     11  O   UNL     1      15.373 -47.285  38.896  1.00  0.00    -0.502 OA
ATOM     12  H   UNL     1      15.524 -48.097  39.481  1.00  0.00     0.293 HD
ENDBRANCH   4  11
TORSDOF 3
ENDMDL
MODEL 2
REMARK VINA RESULT:    -5.776      0.027      2.799
REMARK INTER + INTRA:          -6.283
REMARK INTER:                  -6.283
REMARK INTRA:                   0.000
REMARK UNBOUND:                 0.000
REMARK SMILES Oc1cccc(O)c1O
REMARK SMILES IDX 4 1 5 2 6 3 8 4 2 5 3 6 7 7 1 9 9 11
REMARK H PARENT 7 8 1 10 9 12
REMARK Flexibility Score: inf
ROOT
ATOM      1  C   UNL     1      11.518 -46.159  37.674  1.00  0.00     0.008 A 
ATOM      2  C   UNL     1      11.711 -46.747  38.926  1.00  0.00     0.050 A 
ATOM      3  C   UNL     1      12.999 -47.119  39.339  1.00  0.00     0.161 A 
ATOM      4  C   UNL     1      14.097 -46.898  38.488  1.00  0.00     0.200 A 
ATOM      5  C   UNL     1      13.898 -46.306  37.232  1.00  0.00     0.161 A 
ATOM      6  C   UNL     1      12.607 -45.938  36.827  1.00  0.00     0.050 A 
ENDROOT
BRANCH   3   7
ATOM      7  O   UNL     1      13.190 -47.706  40.589  1.00  0.00    -0.504 OA
ATOM      8  H   UNL     1      14.097 -47.715  41.038  1.00  0.00     0.293 HD
ENDBRANCH   3   7
BRANCH   5   9
ATOM      9  O   UNL     1      14.988 -46.088  36.390  1.00  0.00    -0.504 OA
ATOM     10  H   UNL     1      14.893 -45.572  35.524  1.00  0.00     0.293 HD
ENDBRANCH   5   9
BRANCH   4  11
ATOM     11  O   UNL     1      15.388 -47.258  38.875  1.00  0.00    -0.502 OA
ATOM     12  H   UNL     1      16.120 -47.443  38.200  1.00  0.00     0.293 HD
ENDBRANCH   4  11
TORSDOF 3
ENDMDL
MODEL 3
REMARK VINA RESULT:    -5.648      0.969      2.779
REMARK INTER + INTRA:          -6.143
REMARK INTER:                  -6.143
REMARK INTRA:                   0.000
REMARK UNBOUND:                 0.000
REMARK SMILES Oc1cccc(O)c1O
REMARK SMILES IDX 4 1 5 2 6 3 8 4 2 5 3 6 7 7 1 9 9 11
REMARK H PARENT 7 8 1 10 9 12
REMARK Flexibility Score: inf
ROOT
ATOM      1  C   UNL     1      12.693 -45.920  36.714  1.00  0.00     0.008 A 
ATOM      2  C   UNL     1      11.571 -46.119  37.523  1.00  0.00     0.050 A 
ATOM      3  C   UNL     1      11.712 -46.699  38.792  1.00  0.00     0.161 A 
ATOM      4  C   UNL     1      12.986 -47.081  39.249  1.00  0.00     0.200 A 
ATOM      5  C   UNL     1      14.109 -46.879  38.433  1.00  0.00     0.161 A 
ATOM      6  C   UNL     1      13.960 -46.298  37.166  1.00  0.00     0.050 A 
ENDROOT
BRANCH   3   7
ATOM      7  O   UNL     1      10.592 -46.897  39.598  1.00  0.00    -0.504 OA
ATOM      8  H   UNL     1      10.145 -47.803  39.673  1.00  0.00     0.293 HD
ENDBRANCH   3   7
BRANCH   5   9
ATOM      9  O   UNL     1      15.371 -47.258  38.889  1.00  0.00    -0.504 OA
ATOM     10  H   UNL     1      15.713 -46.973  39.800  1.00  0.00     0.293 HD
ENDBRANCH   5   9
BRANCH   4  11
ATOM     11  O   UNL     1      13.153 -47.660  40.507  1.00  0.00    -0.502 OA
ATOM     12  H   UNL     1      12.366 -47.944  41.078  1.00  0.00     0.293 HD
ENDBRANCH   4  11
TORSDOF 3
ENDMDL
MODEL 4
REMARK VINA RESULT:    -5.642      0.954      1.999
REMARK INTER + INTRA:          -6.136
REMARK INTER:                  -6.136
REMARK INTRA:                   0.000
REMARK UNBOUND:                 0.000
REMARK SMILES Oc1cccc(O)c1O
REMARK SMILES IDX 4 1 5 2 6 3 8 4 2 5 3 6 7 7 1 9 9 11
REMARK H PARENT 7 8 1 10 9 12
REMARK Flexibility Score: inf
ROOT
ATOM      1  C   UNL     1      12.713 -45.909  36.718  1.00  0.00     0.008 A 
ATOM      2  C   UNL     1      13.984 -46.277  37.166  1.00  0.00     0.050 A 
ATOM      3  C   UNL     1      14.143 -46.870  38.427  1.00  0.00     0.161 A 
ATOM      4  C   UNL     1      13.018 -47.095  39.241  1.00  0.00     0.200 A 
ATOM      5  C   UNL     1      11.744 -46.725  38.786  1.00  0.00     0.161 A 
ATOM      6  C   UNL     1      11.594 -46.132  37.524  1.00  0.00     0.050 A 
ENDROOT
BRANCH   3   7
ATOM      7  O   UNL     1      15.413 -47.236  38.872  1.00  0.00    -0.504 OA
ATOM      8  H   UNL     1      16.174 -47.404  38.226  1.00  0.00     0.293 HD
ENDBRANCH   3   7
BRANCH   5   9
ATOM      9  O   UNL     1      10.630 -46.949  39.595  1.00  0.00    -0.504 OA
ATOM     10  H   UNL     1       9.974 -46.208  39.810  1.00  0.00     0.293 HD
ENDBRANCH   5   9
BRANCH   4  11
ATOM     11  O   UNL     1      13.149 -47.684  40.499  1.00  0.00    -0.502 OA
ATOM     12  H   UNL     1      12.431 -48.280  40.891  1.00  0.00     0.293 HD
ENDBRANCH   4  11
TORSDOF 3
ENDMDL
MODEL 5
REMARK VINA RESULT:    -5.298      7.608      8.568
REMARK INTER + INTRA:          -5.763
REMARK INTER:                  -5.763
REMARK INTRA:                   0.000
REMARK UNBOUND:                 0.000
REMARK SMILES Oc1cccc(O)c1O
REMARK SMILES IDX 4 1 5 2 6 3 8 4 2 5 3 6 7 7 1 9 9 11
REMARK H PARENT 7 8 1 10 9 12
REMARK Flexibility Score: inf
ROOT
ATOM      1  C   UNL     1       6.380 -43.938  31.788  1.00  0.00     0.008 A 
ATOM      2  C   UNL     1       6.488 -45.280  31.412  1.00  0.00     0.050 A 
ATOM      3  C   UNL     1       7.697 -45.967  31.596  1.00  0.00     0.161 A 
ATOM      4  C   UNL     1       8.801 -45.302  32.160  1.00  0.00     0.200 A 
ATOM      5  C   UNL     1       8.686 -43.956  32.537  1.00  0.00     0.161 A 
ATOM      6  C   UNL     1       7.474 -43.276  32.350  1.00  0.00     0.050 A 
ENDROOT
BRANCH   3   7
ATOM      7  O   UNL     1       7.805 -47.305  31.220  1.00  0.00    -0.504 OA
ATOM      8  H   UNL     1       7.811 -47.584  30.246  1.00  0.00     0.293 HD
ENDBRANCH   3   7
BRANCH   5   9
ATOM      9  O   UNL     1       9.781 -43.299  33.097  1.00  0.00    -0.504 OA
ATOM     10  H   UNL     1       9.788 -42.294  33.224  1.00  0.00     0.293 HD
ENDBRANCH   5   9
BRANCH   4  11
ATOM     11  O   UNL     1      10.014 -45.963  32.354  1.00  0.00    -0.502 OA
ATOM     12  H   UNL     1      10.574 -45.827  33.187  1.00  0.00     0.293 HD
ENDBRANCH   4  11
TORSDOF 3
ENDMDL
MODEL 6
REMARK VINA RESULT:    -5.288      7.569      8.511
REMARK INTER + INTRA:          -5.752
REMARK INTER:                  -5.752
REMARK INTRA:                   0.000
REMARK UNBOUND:                 0.000
REMARK SMILES Oc1cccc(O)c1O
REMARK SMILES IDX 4 1 5 2 6 3 8 4 2 5 3 6 7 7 1 9 9 11
REMARK H PARENT 7 8 1 10 9 12
REMARK Flexibility Score: inf
ROOT
ATOM      1  C   UNL     1       6.414 -43.878  31.785  1.00  0.00     0.008 A 
ATOM      2  C   UNL     1       7.495 -43.239  32.398  1.00  0.00     0.050 A 
ATOM      3  C   UNL     1       8.694 -43.934  32.615  1.00  0.00     0.161 A 
ATOM      4  C   UNL     1       8.806 -45.277  32.213  1.00  0.00     0.200 A 
ATOM      5  C   UNL     1       7.718 -45.913  31.596  1.00  0.00     0.161 A 
ATOM      6  C   UNL     1       6.524 -45.211  31.384  1.00  0.00     0.050 A 
ENDROOT
BRANCH   3   7
ATOM      7  O   UNL     1       9.771 -43.295  33.228  1.00  0.00    -0.504 OA
ATOM      8  H   UNL     1      10.707 -43.680  33.192  1.00  0.00     0.293 HD
ENDBRANCH   3   7
BRANCH   5   9
ATOM      9  O   UNL     1       7.833 -47.245  31.198  1.00  0.00    -0.504 OA
ATOM     10  H   UNL     1       8.735 -47.667  31.013  1.00  0.00     0.293 HD
ENDBRANCH   5   9
BRANCH   4  11
ATOM     11  O   UNL     1       9.987 -45.990  32.417  1.00  0.00    -0.502 OA
ATOM     12  H   UNL     1      10.287 -46.283  33.339  1.00  0.00     0.293 HD
ENDBRANCH   4  11
TORSDOF 3
ENDMDL
MODEL 7
REMARK VINA RESULT:    -5.196      1.186      2.212
REMARK INTER + INTRA:          -5.652
REMARK INTER:                  -5.652
REMARK INTRA:                   0.000
REMARK UNBOUND:                 0.000
REMARK SMILES Oc1cccc(O)c1O
REMARK SMILES IDX 4 1 5 2 6 3 8 4 2 5 3 6 7 7 1 9 9 11
REMARK H PARENT 7 8 1 10 9 12
REMARK Flexibility Score: inf
ROOT
ATOM      1  C   UNL     1      11.668 -47.088  39.323  1.00  0.00     0.008 A 
ATOM      2  C   UNL     1      11.237 -46.530  38.117  1.00  0.00     0.050 A 
ATOM      3  C   UNL     1      12.170 -46.179  37.130  1.00  0.00     0.161 A 
ATOM      4  C   UNL     1      13.542 -46.391  37.358  1.00  0.00     0.200 A 
ATOM      5  C   UNL     1      13.969 -46.953  38.571  1.00  0.00     0.161 A 
ATOM      6  C   UNL     1      13.029 -47.300  39.552  1.00  0.00     0.050 A 
ENDROOT
BRANCH   3   7
ATOM      7  O   UNL     1      11.740 -45.621  35.927  1.00  0.00    -0.504 OA
ATOM      8  H   UNL     1      10.755 -45.517  35.713  1.00  0.00     0.293 HD
ENDBRANCH   3   7
BRANCH   5   9
ATOM      9  O   UNL     1      15.329 -47.163  38.794  1.00  0.00    -0.504 OA
ATOM     10  H   UNL     1      15.893 -46.489  39.299  1.00  0.00     0.293 HD
ENDBRANCH   5   9
BRANCH   4  11
ATOM     11  O   UNL     1      14.491 -46.052  36.393  1.00  0.00    -0.502 OA
ATOM     12  H   UNL     1      14.331 -46.205  35.405  1.00  0.00     0.293 HD
ENDBRANCH   4  11
TORSDOF 3
ENDMDL
MODEL 8
REMARK VINA RESULT:    -5.194      1.173      2.751
REMARK INTER + INTRA:          -5.650
REMARK INTER:                  -5.650
REMARK INTRA:                   0.000
REMARK UNBOUND:                 0.000
REMARK SMILES Oc1cccc(O)c1O
REMARK SMILES IDX 4 1 5 2 6 3 8 4 2 5 3 6 7 7 1 9 9 11
REMARK H PARENT 7 8 1 10 9 12
REMARK Flexibility Score: inf
ROOT
ATOM      1  C   UNL     1      11.736 -47.016  39.377  1.00  0.00     0.008 A 
ATOM      2  C   UNL     1      13.095 -47.264  39.585  1.00  0.00     0.050 A 
ATOM      3  C   UNL     1      14.021 -47.018  38.560  1.00  0.00     0.161 A 
ATOM      4  C   UNL     1      13.577 -46.519  37.322  1.00  0.00     0.200 A 
ATOM      5  C   UNL     1      12.212 -46.271  37.119  1.00  0.00     0.161 A 
ATOM      6  C   UNL     1      11.293 -46.520  38.148  1.00  0.00     0.050 A 
ENDROOT
BRANCH   3   7
ATOM      7  O   UNL     1      15.377 -47.266  38.769  1.00  0.00    -0.504 OA
ATOM      8  H   UNL     1      15.754 -48.206  38.744  1.00  0.00     0.293 HD
ENDBRANCH   3   7
BRANCH   5   9
ATOM      9  O   UNL     1      11.775 -45.777  35.890  1.00  0.00    -0.504 OA
ATOM     10  H   UNL     1      10.799 -45.819  35.619  1.00  0.00     0.293 HD
ENDBRANCH   5   9
BRANCH   4  11
ATOM     11  O   UNL     1      14.478 -46.266  36.287  1.00  0.00    -0.502 OA
ATOM     12  H   UNL     1      14.978 -45.388  36.211  1.00  0.00     0.293 HD
ENDBRANCH   4  11
TORSDOF 3
ENDMDL
MODEL 9
REMARK VINA RESULT:    -5.030      7.518      8.455
REMARK INTER + INTRA:          -5.471
REMARK INTER:                  -5.471
REMARK INTRA:                   0.000
REMARK UNBOUND:                 0.000
REMARK SMILES Oc1cccc(O)c1O
REMARK SMILES IDX 4 1 5 2 6 3 8 4 2 5 3 6 7 7 1 9 9 11
REMARK H PARENT 7 8 1 10 9 12
REMARK Flexibility Score: inf
ROOT
ATOM      1  C   UNL     1      12.715 -48.015  47.664  1.00  0.00     0.008 A 
ATOM      2  C   UNL     1      13.720 -48.290  46.733  1.00  0.00     0.050 A 
ATOM      3  C   UNL     1      14.111 -47.311  45.808  1.00  0.00     0.161 A 
ATOM      4  C   UNL     1      13.489 -46.049  45.820  1.00  0.00     0.200 A 
ATOM      5  C   UNL     1      12.481 -45.778  46.758  1.00  0.00     0.161 A 
ATOM      6  C   UNL     1      12.097 -46.763  47.679  1.00  0.00     0.050 A 
ENDROOT
BRANCH   3   7
ATOM      7  O   UNL     1      15.114 -47.587  44.880  1.00  0.00    -0.504 OA
ATOM      8  H   UNL     1      16.071 -47.755  45.165  1.00  0.00     0.293 HD
ENDBRANCH   3   7
BRANCH   5   9
ATOM      9  O   UNL     1      11.866 -44.527  46.768  1.00  0.00    -0.504 OA
ATOM     10  H   UNL     1      12.074 -43.840  47.484  1.00  0.00     0.293 HD
ENDBRANCH   5   9
BRANCH   4  11
ATOM     11  O   UNL     1      13.860 -45.058  44.912  1.00  0.00    -0.502 OA
ATOM     12  H   UNL     1      13.200 -44.374  44.563  1.00  0.00     0.293 HD
ENDBRANCH   4  11
TORSDOF 3
ENDMDL
