MODEL 1
REMARK VINA RESULT:     3.517      0.000      0.000
REMARK INTER + INTRA:           3.867
REMARK INTER:                   3.723
REMARK INTRA:                   0.145
REMARK UNBOUND:                 0.145
REMARK SMILES C=C(C)[C@@H]1CC[C@@]2(C)CCCC(=C)[C@H]2C1
REMARK SMILES IDX 4 1 5 2 6 3 7 4 9 5 10 6 11 7 12 8 13 9 14 10 15 11 8 12
REMARK SMILES IDX 2 13 3 14 1 15
REMARK H PARENT
REMARK Flexibility Score: inf
ROOT
ATOM      1  C   UNL     1       3.992   7.474  12.373  1.00  0.00     0.015 C 
ATOM      2  C   UNL     1       3.908   5.951  12.116  1.00  0.00     0.008 C 
ATOM      3  C   UNL     1       4.733   5.123  13.120  1.00  0.00     0.008 C 
ATOM      4  C   UNL     1       6.217   5.574  13.256  1.00  0.00    -0.026 C 
ATOM      5  C   UNL     1       7.031   5.123  12.004  1.00  0.00     0.008 C 
ATOM      6  C   UNL     1       8.494   5.599  12.031  1.00  0.00     0.005 C 
ATOM      7  C   UNL     1       8.609   7.115  12.227  1.00  0.00     0.031 C 
ATOM      8  C   UNL     1       7.747   7.586  13.376  1.00  0.00    -0.074 C 
ATOM      9  C   UNL     1       8.207   8.504  14.239  1.00  0.00     0.008 C 
ATOM     10  C   UNL     1       6.300   7.122  13.443  1.00  0.00     0.021 C 
ATOM     11  C   UNL     1       5.476   7.893  12.389  1.00  0.00     0.016 C 
ATOM     12  C   UNL     1       6.789   4.875  14.519  1.00  0.00     0.012 C 
ENDROOT
BRANCH   1  13
ATOM     13  C   UNL     1       3.222   8.011  13.591  1.00  0.00    -0.077 C 
ATOM     14  C   UNL     1       3.969   8.255  14.881  1.00  0.00     0.039 C 
ATOM     15  C   UNL     1       1.931   8.396  13.550  1.00  0.00     0.008 C 
ENDBRANCH   1  13
TORSDOF 1
ENDMDL
MODEL 2
REMARK VINA RESULT:     3.993      1.244      4.358
REMARK INTER + INTRA:           4.372
REMARK INTER:                   4.450
REMARK INTRA:                  -0.078
REMARK UNBOUND:                 0.145
REMARK SMILES C=C(C)[C@@H]1CC[C@@]2(C)CCCC(=C)[C@H]2C1
REMARK SMILES IDX 4 1 5 2 6 3 7 4 9 5 10 6 11 7 12 8 13 9 14 10 15 11 8 12
REMARK SMILES IDX 2 13 3 14 1 15
REMARK H PARENT
REMARK Flexibility Score: inf
ROOT
ATOM      1  C   UNL     1       7.863   6.896  13.845  1.00  0.00     0.015 C 
ATOM      2  C   UNL     1       8.001   6.347  12.407  1.00  0.00     0.008 C 
ATOM      3  C   UNL     1       7.090   7.069  11.395  1.00  0.00     0.008 C 
ATOM      4  C   UNL     1       5.592   7.134  11.814  1.00  0.00    -0.026 C 
ATOM      5  C   UNL     1       4.923   5.737  11.630  1.00  0.00     0.008 C 
ATOM      6  C   UNL     1       3.457   5.704  12.096  1.00  0.00     0.005 C 
ATOM      7  C   UNL     1       3.294   6.190  13.541  1.00  0.00     0.031 C 
ATOM      8  C   UNL     1       4.022   7.496  13.765  1.00  0.00    -0.074 C 
ATOM      9  C   UNL     1       3.457   8.473  14.491  1.00  0.00     0.008 C 
ATOM     10  C   UNL     1       5.462   7.621  13.292  1.00  0.00     0.021 C 
ATOM     11  C   UNL     1       6.378   6.838  14.259  1.00  0.00     0.016 C 
ATOM     12  C   UNL     1       4.903   8.161  10.875  1.00  0.00     0.012 C 
ENDROOT
BRANCH   1  13
ATOM     13  C   UNL     1       8.491   8.273  14.121  1.00  0.00    -0.077 C 
ATOM     14  C   UNL     1       9.949   8.492  13.792  1.00  0.00     0.039 C 
ATOM     15  C   UNL     1       7.791   9.347  14.534  1.00  0.00     0.008 C 
ENDBRANCH   1  13
TORSDOF 1
ENDMDL
MODEL 3
REMARK VINA RESULT:     6.367      1.271      3.165
REMARK INTER + INTRA:           6.884
REMARK INTER:                   6.736
REMARK INTRA:                   0.147
REMARK UNBOUND:                 0.145
REMARK SMILES C=C(C)[C@@H]1CC[C@@]2(C)CCCC(=C)[C@H]2C1
REMARK SMILES IDX 4 1 5 2 6 3 7 4 9 5 10 6 11 7 12 8 13 9 14 10 15 11 8 12
REMARK SMILES IDX 2 13 3 14 1 15
REMARK H PARENT
REMARK Flexibility Score: inf
ROOT
ATOM      1  C   UNL     1       4.042   6.269  13.852  1.00  0.00     0.015 C 
ATOM      2  C   UNL     1       3.804   7.792  13.725  1.00  0.00     0.008 C 
ATOM      3  C   UNL     1       4.465   8.403  12.474  1.00  0.00     0.008 C 
ATOM      4  C   UNL     1       5.979   8.071  12.321  1.00  0.00    -0.026 C 
ATOM      5  C   UNL     1       6.815   8.904  13.342  1.00  0.00     0.008 C 
ATOM      6  C   UNL     1       8.318   8.573  13.301  1.00  0.00     0.005 C 
ATOM      7  C   UNL     1       8.589   7.076  13.484  1.00  0.00     0.031 C 
ATOM      8  C   UNL     1       7.713   6.245  12.573  1.00  0.00    -0.074 C 
ATOM      9  C   UNL     1       8.217   5.181  11.930  1.00  0.00     0.008 C 
ATOM     10  C   UNL     1       6.222   6.541  12.523  1.00  0.00     0.021 C 
ATOM     11  C   UNL     1       5.559   5.998  13.808  1.00  0.00     0.016 C 
ATOM     12  C   UNL     1       6.386   8.467  10.877  1.00  0.00     0.012 C 
ENDROOT
BRANCH   1  13
ATOM     13  C   UNL     1       3.259   5.366  12.884  1.00  0.00    -0.077 C 
ATOM     14  C   UNL     1       3.941   4.875  11.628  1.00  0.00     0.039 C 
ATOM     15  C   UNL     1       2.030   4.879  13.141  1.00  0.00     0.008 C 
ENDBRANCH   1  13
TORSDOF 1
ENDMDL
