MODEL 1
REMARK VINA RESULT:    -4.733      0.000      0.000
REMARK INTER + INTRA:          -9.390
REMARK INTER:                  -8.606
REMARK INTRA:                  -0.784
REMARK UNBOUND:                -0.784
REMARK SMILES CCCCCCCCCCCCCCCC(=O)[O-]
REMARK SMILES IDX 9 1 10 2 11 3 12 4 13 5 14 6 15 7 16 8 17 9 18 10 8 11 7 12
REMARK SMILES IDX 6 13 5 14 4 15 3 16 2 17 1 18
REMARK H PARENT
REMARK Flexibility Score: inf
ROOT
ATOM      1  C   UNL     1       7.525   6.171   0.627  1.00  0.00     0.000 C 
ENDROOT
BRANCH   1   2
ATOM      2  C   UNL     1       7.657   4.863   1.429  1.00  0.00     0.000 C 
BRANCH   2   3
ATOM      3  C   UNL     1       8.093   3.671   0.566  1.00  0.00     0.000 C 
BRANCH   3   4
ATOM      4  C   UNL     1       6.952   3.210  -0.354  1.00  0.00     0.000 C 
BRANCH   4   5
ATOM      5  C   UNL     1       6.155   2.026   0.223  1.00  0.00     0.000 C 
BRANCH   5   6
ATOM      6  C   UNL     1       6.250   0.722  -0.591  1.00  0.00     0.006 C 
BRANCH   6   7
ATOM      7  C   UNL     1       7.370   0.750  -1.638  1.00  0.00     0.053 C 
BRANCH   7   8
ATOM      8  C   UNL     1       6.798   0.665  -3.018  1.00  0.00     0.041 C 
ATOM      9  O   UNL     1       6.002   1.549  -3.429  1.00  0.00    -0.550 OA
ATOM     10  O   UNL     1       7.182  -0.365  -3.867  1.00  0.00    -0.550 OA
ENDBRANCH   7   8
ENDBRANCH   6   7
ENDBRANCH   5   6
ENDBRANCH   4   5
ENDBRANCH   3   4
ENDBRANCH   2   3
ENDBRANCH   1   2
BRANCH   1  11
ATOM     11  C   UNL     1       7.813   7.457   1.422  1.00  0.00     0.000 C 
BRANCH  11  12
ATOM     12  C   UNL     1       8.632   8.486   0.624  1.00  0.00    -0.000 C 
BRANCH  12  13
ATOM     13  C   UNL     1       8.719   9.847   1.332  1.00  0.00    -0.000 C 
BRANCH  13  14
ATOM     14  C   UNL     1       8.002   9.855   2.695  1.00  0.00    -0.000 C 
BRANCH  14  15
ATOM     15  C   UNL     1       7.152  11.118   2.909  1.00  0.00    -0.000 C 
BRANCH  15  16
ATOM     16  C   UNL     1       6.042  10.912   3.954  1.00  0.00    -0.000 C 
BRANCH  16  17
ATOM     17  C   UNL     1       6.235   9.624   4.770  1.00  0.00    -0.003 C 
ATOM     18  C   UNL     1       5.921   9.810   6.254  1.00  0.00     0.004 C 
ENDBRANCH  16  17
ENDBRANCH  15  16
ENDBRANCH  14  15
ENDBRANCH  13  14
ENDBRANCH  12  13
ENDBRANCH  11  12
ENDBRANCH   1  11
TORSDOF 14
ENDMDL
MODEL 2
REMARK VINA RESULT:    -4.628      3.925      9.133
REMARK INTER + INTRA:          -9.200
REMARK INTER:                  -8.367
REMARK INTRA:                  -0.833
REMARK UNBOUND:                -0.784
REMARK SMILES CCCCCCCCCCCCCCCC(=O)[O-]
REMARK SMILES IDX 9 1 10 2 11 3 12 4 13 5 14 6 15 7 16 8 17 9 18 10 8 11 7 12
REMARK SMILES IDX 6 13 5 14 4 15 3 16 2 17 1 18
REMARK H PARENT
REMARK Flexibility Score: inf
ROOT
ATOM      1  C   UNL     1       7.239   6.492   0.397  1.00  0.00     0.000 C 
ENDROOT
BRANCH   1   2
ATOM      2  C   UNL     1       8.257   7.626   0.182  1.00  0.00     0.000 C 
BRANCH   2   3
ATOM      3  C   UNL     1       8.620   8.361   1.480  1.00  0.00     0.000 C 
BRANCH   3   4
ATOM      4  C   UNL     1       8.740   9.874   1.242  1.00  0.00     0.000 C 
BRANCH   4   5
ATOM      5  C   UNL     1       8.722  10.692   2.546  1.00  0.00     0.000 C 
BRANCH   5   6
ATOM      6  C   UNL     1       7.331  10.871   3.181  1.00  0.00     0.006 C 
BRANCH   6   7
ATOM      7  C   UNL     1       7.226  10.247   4.578  1.00  0.00     0.053 C 
BRANCH   7   8
ATOM      8  C   UNL     1       5.901   9.574   4.750  1.00  0.00     0.041 C 
ATOM      9  O   UNL     1       5.224   9.241   3.742  1.00  0.00    -0.550 OA
ATOM     10  O   UNL     1       5.435   9.271   6.023  1.00  0.00    -0.550 OA
ENDBRANCH   7   8
ENDBRANCH   6   7
ENDBRANCH   5   6
ENDBRANCH   4   5
ENDBRANCH   3   4
ENDBRANCH   2   3
ENDBRANCH   1   2
BRANCH   1  11
ATOM     11  C   UNL     1       7.694   5.378   1.356  1.00  0.00     0.000 C 
BRANCH  11  12
ATOM     12  C   UNL     1       8.777   4.469   0.751  1.00  0.00    -0.000 C 
BRANCH  12  13
ATOM     13  C   UNL     1       8.185   3.257   0.014  1.00  0.00    -0.000 C 
BRANCH  13  14
ATOM     14  C   UNL     1       6.739   2.949   0.444  1.00  0.00    -0.000 C 
BRANCH  14  15
ATOM     15  C   UNL     1       6.046   1.941  -0.489  1.00  0.00    -0.000 C 
BRANCH  15  16
ATOM     16  C   UNL     1       6.901   0.688  -0.742  1.00  0.00    -0.000 C 
BRANCH  16  17
ATOM     17  C   UNL     1       7.276   0.521  -2.223  1.00  0.00    -0.003 C 
ATOM     18  C   UNL     1       6.356   1.303  -3.160  1.00  0.00     0.004 C 
ENDBRANCH  16  17
ENDBRANCH  15  16
ENDBRANCH  14  15
ENDBRANCH  13  14
ENDBRANCH  12  13
ENDBRANCH  11  12
ENDBRANCH   1  11
TORSDOF 14
ENDMDL
MODEL 3
REMARK VINA RESULT:    -4.597      1.132      1.665
REMARK INTER + INTRA:          -9.144
REMARK INTER:                  -8.060
REMARK INTRA:                  -1.084
REMARK UNBOUND:                -0.784
REMARK SMILES CCCCCCCCCCCCCCCC(=O)[O-]
REMARK SMILES IDX 9 1 10 2 11 3 12 4 13 5 14 6 15 7 16 8 17 9 18 10 8 11 7 12
REMARK SMILES IDX 6 13 5 14 4 15 3 16 2 17 1 18
REMARK H PARENT
REMARK Flexibility Score: inf
ROOT
ATOM      1  C   UNL     1       7.594   4.841   1.473  1.00  0.00     0.000 C 
ENDROOT
BRANCH   1   2
ATOM      2  C   UNL     1       8.642   3.993   0.728  1.00  0.00     0.000 C 
BRANCH   2   3
ATOM      3  C   UNL     1       8.026   3.087  -0.348  1.00  0.00     0.000 C 
BRANCH   3   4
ATOM      4  C   UNL     1       6.535   2.842  -0.074  1.00  0.00     0.000 C 
BRANCH   4   5
ATOM      5  C   UNL     1       6.137   1.359  -0.191  1.00  0.00     0.000 C 
BRANCH   5   6
ATOM      6  C   UNL     1       7.035   0.518  -1.117  1.00  0.00     0.006 C 
BRANCH   6   7
ATOM      7  C   UNL     1       6.686   0.683  -2.601  1.00  0.00     0.053 C 
BRANCH   7   8
ATOM      8  C   UNL     1       7.770   0.112  -3.459  1.00  0.00     0.041 C 
ATOM      9  O   UNL     1       8.972   0.426  -3.253  1.00  0.00    -0.550 OA
ATOM     10  O   UNL     1       7.459  -0.806  -4.454  1.00  0.00    -0.550 OA
ENDBRANCH   7   8
ENDBRANCH   6   7
ENDBRANCH   5   6
ENDBRANCH   4   5
ENDBRANCH   3   4
ENDBRANCH   2   3
ENDBRANCH   1   2
BRANCH   1  11
ATOM     11  C   UNL     1       7.944   6.333   1.618  1.00  0.00     0.000 C 
BRANCH  11  12
ATOM     12  C   UNL     1       7.611   7.154   0.360  1.00  0.00    -0.000 C 
BRANCH  12  13
ATOM     13  C   UNL     1       8.586   8.323   0.145  1.00  0.00    -0.000 C 
BRANCH  13  14
ATOM     14  C   UNL     1       9.125   8.898   1.467  1.00  0.00    -0.000 C 
BRANCH  14  15
ATOM     15  C   UNL     1       8.829  10.398   1.624  1.00  0.00    -0.000 C 
BRANCH  15  16
ATOM     16  C   UNL     1       7.715  10.676   2.648  1.00  0.00    -0.000 C 
BRANCH  16  17
ATOM     17  C   UNL     1       7.443   9.470   3.562  1.00  0.00    -0.003 C 
ATOM     18  C   UNL     1       6.051   9.505   4.192  1.00  0.00     0.004 C 
ENDBRANCH  16  17
ENDBRANCH  15  16
ENDBRANCH  14  15
ENDBRANCH  13  14
ENDBRANCH  12  13
ENDBRANCH  11  12
ENDBRANCH   1  11
TORSDOF 14
ENDMDL
MODEL 4
REMARK VINA RESULT:    -4.505     10.074     12.885
REMARK INTER + INTRA:          -8.976
REMARK INTER:                  -6.699
REMARK INTRA:                  -2.277
REMARK UNBOUND:                -0.784
REMARK SMILES CCCCCCCCCCCCCCCC(=O)[O-]
REMARK SMILES IDX 9 1 10 2 11 3 12 4 13 5 14 6 15 7 16 8 17 9 18 10 8 11 7 12
REMARK SMILES IDX 6 13 5 14 4 15 3 16 2 17 1 18
REMARK H PARENT
REMARK Flexibility Score: inf
ROOT
ATOM      1  C   UNL     1       1.833   5.639  10.053  1.00  0.00     0.000 C 
ENDROOT
BRANCH   1   2
ATOM      2  C   UNL     1       1.594   6.036  11.521  1.00  0.00     0.000 C 
BRANCH   2   3
ATOM      3  C   UNL     1       1.558   7.556  11.734  1.00  0.00     0.000 C 
BRANCH   3   4
ATOM      4  C   UNL     1       0.158   8.120  11.443  1.00  0.00     0.000 C 
BRANCH   4   5
ATOM      5  C   UNL     1       0.180   9.308  10.464  1.00  0.00     0.000 C 
BRANCH   5   6
ATOM      6  C   UNL     1       0.664   8.969   9.043  1.00  0.00     0.006 C 
BRANCH   6   7
ATOM      7  C   UNL     1       1.941   9.722   8.650  1.00  0.00     0.053 C 
BRANCH   7   8
ATOM      8  C   UNL     1       3.080   8.767   8.485  1.00  0.00     0.041 C 
ATOM      9  O   UNL     1       3.164   8.053   7.450  1.00  0.00    -0.550 OA
ATOM     10  O   UNL     1       4.076   8.698   9.450  1.00  0.00    -0.550 OA
ENDBRANCH   7   8
ENDBRANCH   6   7
ENDBRANCH   5   6
ENDBRANCH   4   5
ENDBRANCH   3   4
ENDBRANCH   2   3
ENDBRANCH   1   2
BRANCH   1  11
ATOM     11  C   UNL     1       3.280   5.241   9.711  1.00  0.00     0.000 C 
BRANCH  11  12
ATOM     12  C   UNL     1       4.236   5.362  10.910  1.00  0.00    -0.000 C 
BRANCH  12  13
ATOM     13  C   UNL     1       4.853   4.013  11.311  1.00  0.00    -0.000 C 
BRANCH  13  14
ATOM     14  C   UNL     1       4.349   3.512  12.677  1.00  0.00    -0.000 C 
BRANCH  14  15
ATOM     15  C   UNL     1       3.010   2.763  12.575  1.00  0.00    -0.000 C 
BRANCH  15  16
ATOM     16  C   UNL     1       3.013   1.698  11.465  1.00  0.00    -0.000 C 
BRANCH  16  17
ATOM     17  C   UNL     1       1.817   1.838  10.511  1.00  0.00    -0.003 C 
ATOM     18  C   UNL     1       0.553   2.335  11.213  1.00  0.00     0.004 C 
ENDBRANCH  16  17
ENDBRANCH  15  16
ENDBRANCH  14  15
ENDBRANCH  13  14
ENDBRANCH  12  13
ENDBRANCH  11  12
ENDBRANCH   1  11
TORSDOF 14
ENDMDL
MODEL 5
REMARK VINA RESULT:    -4.362      1.519      3.033
REMARK INTER + INTRA:          -8.716
REMARK INTER:                  -8.175
REMARK INTRA:                  -0.541
REMARK UNBOUND:                -0.784
REMARK SMILES CCCCCCCCCCCCCCCC(=O)[O-]
REMARK SMILES IDX 9 1 10 2 11 3 12 4 13 5 14 6 15 7 16 8 17 9 18 10 8 11 7 12
REMARK SMILES IDX 6 13 5 14 4 15 3 16 2 17 1 18
REMARK H PARENT
REMARK Flexibility Score: inf
ROOT
ATOM      1  C   UNL     1       7.580   3.403   0.102  1.00  0.00     0.000 C 
ENDROOT
BRANCH   1   2
ATOM      2  C   UNL     1       6.107   2.988   0.266  1.00  0.00     0.000 C 
BRANCH   2   3
ATOM      3  C   UNL     1       5.923   1.471   0.417  1.00  0.00     0.000 C 
BRANCH   3   4
ATOM      4  C   UNL     1       6.623   0.716  -0.723  1.00  0.00     0.000 C 
BRANCH   4   5
ATOM      5  C   UNL     1       6.367   1.343  -2.105  1.00  0.00     0.000 C 
BRANCH   5   6
ATOM      6  C   UNL     1       6.651   0.416  -3.301  1.00  0.00     0.006 C 
BRANCH   6   7
ATOM      7  C   UNL     1       8.149   0.175  -3.529  1.00  0.00     0.053 C 
BRANCH   7   8
ATOM      8  C   UNL     1       8.367  -1.128  -4.230  1.00  0.00     0.041 C 
ATOM      9  O   UNL     1       8.896  -2.094  -3.619  1.00  0.00    -0.550 OA
ATOM     10  O   UNL     1       7.942  -1.293  -5.542  1.00  0.00    -0.550 OA
ENDBRANCH   7   8
ENDBRANCH   6   7
ENDBRANCH   5   6
ENDBRANCH   4   5
ENDBRANCH   3   4
ENDBRANCH   2   3
ENDBRANCH   1   2
BRANCH   1  11
ATOM     11  C   UNL     1       8.143   4.279   1.235  1.00  0.00     0.000 C 
BRANCH  11  12
ATOM     12  C   UNL     1       8.724   5.612   0.732  1.00  0.00    -0.000 C 
BRANCH  12  13
ATOM     13  C   UNL     1       7.709   6.764   0.811  1.00  0.00    -0.000 C 
BRANCH  13  14
ATOM     14  C   UNL     1       8.069   7.937  -0.119  1.00  0.00    -0.000 C 
BRANCH  14  15
ATOM     15  C   UNL     1       8.903   9.018   0.588  1.00  0.00    -0.000 C 
BRANCH  15  16
ATOM     16  C   UNL     1       8.806   8.930   2.120  1.00  0.00    -0.000 C 
BRANCH  16  17
ATOM     17  C   UNL     1       7.839   9.969   2.710  1.00  0.00    -0.003 C 
ATOM     18  C   UNL     1       6.844   9.361   3.699  1.00  0.00     0.004 C 
ENDBRANCH  16  17
ENDBRANCH  15  16
ENDBRANCH  14  15
ENDBRANCH  13  14
ENDBRANCH  12  13
ENDBRANCH  11  12
ENDBRANCH   1  11
TORSDOF 14
ENDMDL
MODEL 6
REMARK VINA RESULT:    -4.314     10.026     12.871
REMARK INTER + INTRA:          -8.629
REMARK INTER:                  -6.834
REMARK INTRA:                  -1.795
REMARK UNBOUND:                -0.784
REMARK SMILES CCCCCCCCCCCCCCCC(=O)[O-]
REMARK SMILES IDX 9 1 10 2 11 3 12 4 13 5 14 6 15 7 16 8 17 9 18 10 8 11 7 12
REMARK SMILES IDX 6 13 5 14 4 15 3 16 2 17 1 18
REMARK H PARENT
REMARK Flexibility Score: inf
ROOT
ATOM      1  C   UNL     1       1.508   4.654  10.455  1.00  0.00     0.000 C 
ENDROOT
BRANCH   1   2
ATOM      2  C   UNL     1       1.703   5.531  11.705  1.00  0.00     0.000 C 
BRANCH   2   3
ATOM      3  C   UNL     1       1.821   7.027  11.377  1.00  0.00     0.000 C 
BRANCH   3   4
ATOM      4  C   UNL     1       0.440   7.701  11.380  1.00  0.00     0.000 C 
BRANCH   4   5
ATOM      5  C   UNL     1       0.405   9.002  10.557  1.00  0.00     0.000 C 
BRANCH   5   6
ATOM      6  C   UNL     1       0.723   8.833   9.061  1.00  0.00     0.006 C 
BRANCH   6   7
ATOM      7  C   UNL     1       1.995   9.574   8.631  1.00  0.00     0.053 C 
BRANCH   7   8
ATOM      8  C   UNL     1       2.994   8.613   8.068  1.00  0.00     0.041 C 
ATOM      9  O   UNL     1       2.791   7.372   8.143  1.00  0.00    -0.550 OA
ATOM     10  O   UNL     1       4.125   9.087   7.417  1.00  0.00    -0.550 OA
ENDBRANCH   7   8
ENDBRANCH   6   7
ENDBRANCH   5   6
ENDBRANCH   4   5
ENDBRANCH   3   4
ENDBRANCH   2   3
ENDBRANCH   1   2
BRANCH   1  11
ATOM     11  C   UNL     1       1.164   3.181  10.737  1.00  0.00     0.000 C 
BRANCH  11  12
ATOM     12  C   UNL     1       2.265   2.208  10.281  1.00  0.00    -0.000 C 
BRANCH  12  13
ATOM     13  C   UNL     1       2.671   1.219  11.385  1.00  0.00    -0.000 C 
BRANCH  13  14
ATOM     14  C   UNL     1       3.079   1.922  12.692  1.00  0.00    -0.000 C 
BRANCH  14  15
ATOM     15  C   UNL     1       4.568   2.307  12.717  1.00  0.00    -0.000 C 
BRANCH  15  16
ATOM     16  C   UNL     1       4.787   3.821  12.552  1.00  0.00    -0.000 C 
BRANCH  16  17
ATOM     17  C   UNL     1       5.794   4.151  11.438  1.00  0.00    -0.003 C 
ATOM     18  C   UNL     1       5.206   5.055  10.355  1.00  0.00     0.004 C 
ENDBRANCH  16  17
ENDBRANCH  15  16
ENDBRANCH  14  15
ENDBRANCH  13  14
ENDBRANCH  12  13
ENDBRANCH  11  12
ENDBRANCH   1  11
TORSDOF 14
ENDMDL
MODEL 7
REMARK VINA RESULT:    -4.268     11.279     13.455
REMARK INTER + INTRA:          -8.545
REMARK INTER:                  -6.409
REMARK INTRA:                  -2.135
REMARK UNBOUND:                -0.784
REMARK SMILES CCCCCCCCCCCCCCCC(=O)[O-]
REMARK SMILES IDX 9 1 10 2 11 3 12 4 13 5 14 6 15 7 16 8 17 9 18 10 8 11 7 12
REMARK SMILES IDX 6 13 5 14 4 15 3 16 2 17 1 18
REMARK H PARENT
REMARK Flexibility Score: inf
ROOT
ATOM      1  C   UNL     1       2.715   6.596  11.818  1.00  0.00     0.000 C 
ENDROOT
BRANCH   1   2
ATOM      2  C   UNL     1       1.578   5.708  11.281  1.00  0.00     0.000 C 
BRANCH   2   3
ATOM      3  C   UNL     1       1.429   5.783   9.754  1.00  0.00     0.000 C 
BRANCH   3   4
ATOM      4  C   UNL     1       2.341   6.869   9.164  1.00  0.00     0.000 C 
BRANCH   4   5
ATOM      5  C   UNL     1       1.589   7.859   8.257  1.00  0.00     0.000 C 
BRANCH   5   6
ATOM      6  C   UNL     1       1.667   9.332   8.698  1.00  0.00     0.006 C 
BRANCH   6   7
ATOM      7  C   UNL     1       1.507   9.513  10.213  1.00  0.00     0.053 C 
BRANCH   7   8
ATOM      8  C   UNL     1       0.063   9.453  10.596  1.00  0.00     0.041 C 
ATOM      9  O   UNL     1      -0.333   8.613  11.446  1.00  0.00    -0.550 OA
ATOM     10  O   UNL     1      -0.839  10.358  10.051  1.00  0.00    -0.550 OA
ENDBRANCH   7   8
ENDBRANCH   6   7
ENDBRANCH   5   6
ENDBRANCH   4   5
ENDBRANCH   3   4
ENDBRANCH   2   3
ENDBRANCH   1   2
BRANCH   1  11
ATOM     11  C   UNL     1       3.862   5.839  12.513  1.00  0.00     0.000 C 
BRANCH  11  12
ATOM     12  C   UNL     1       4.765   5.080  11.526  1.00  0.00    -0.000 C 
BRANCH  12  13
ATOM     13  C   UNL     1       4.904   3.591  11.879  1.00  0.00    -0.000 C 
BRANCH  13  14
ATOM     14  C   UNL     1       3.689   3.049  12.654  1.00  0.00    -0.000 C 
BRANCH  14  15
ATOM     15  C   UNL     1       3.027   1.851  11.952  1.00  0.00    -0.000 C 
BRANCH  15  16
ATOM     16  C   UNL     1       2.500   2.205  10.552  1.00  0.00    -0.000 C 
BRANCH  16  17
ATOM     17  C   UNL     1       0.977   2.032  10.435  1.00  0.00    -0.003 C 
ATOM     18  C   UNL     1       0.269   2.083  11.789  1.00  0.00     0.004 C 
ENDBRANCH  16  17
ENDBRANCH  15  16
ENDBRANCH  14  15
ENDBRANCH  13  14
ENDBRANCH  12  13
ENDBRANCH  11  12
ENDBRANCH   1  11
TORSDOF 14
ENDMDL
MODEL 8
REMARK VINA RESULT:    -4.197      9.622     12.942
REMARK INTER + INTRA:          -8.416
REMARK INTER:                  -6.715
REMARK INTRA:                  -1.701
REMARK UNBOUND:                -0.784
REMARK SMILES CCCCCCCCCCCCCCCC(=O)[O-]
REMARK SMILES IDX 9 1 10 2 11 3 12 4 13 5 14 6 15 7 16 8 17 9 18 10 8 11 7 12
REMARK SMILES IDX 6 13 5 14 4 15 3 16 2 17 1 18
REMARK H PARENT
REMARK Flexibility Score: inf
ROOT
ATOM      1  C   UNL     1       1.263   7.118  11.244  1.00  0.00     0.000 C 
ENDROOT
BRANCH   1   2
ATOM      2  C   UNL     1       0.126   8.146  11.391  1.00  0.00     0.000 C 
BRANCH   2   3
ATOM      3  C   UNL     1       0.623   9.530  11.835  1.00  0.00     0.000 C 
BRANCH   3   4
ATOM      4  C   UNL     1       1.923   9.906  11.109  1.00  0.00     0.000 C 
BRANCH   4   5
ATOM      5  C   UNL     1       1.685  10.441   9.686  1.00  0.00     0.000 C 
BRANCH   5   6
ATOM      6  C   UNL     1       2.273   9.572   8.559  1.00  0.00     0.006 C 
BRANCH   6   7
ATOM      7  C   UNL     1       3.668   9.026   8.890  1.00  0.00     0.053 C 
BRANCH   7   8
ATOM      8  C   UNL     1       4.705   9.702   8.050  1.00  0.00     0.041 C 
ATOM      9  O   UNL     1       5.411  10.624   8.537  1.00  0.00    -0.550 OA
ATOM     10  O   UNL     1       4.926   9.281   6.745  1.00  0.00    -0.550 OA
ENDBRANCH   7   8
ENDBRANCH   6   7
ENDBRANCH   5   6
ENDBRANCH   4   5
ENDBRANCH   3   4
ENDBRANCH   2   3
ENDBRANCH   1   2
BRANCH   1  11
ATOM     11  C   UNL     1       1.205   6.258   9.969  1.00  0.00     0.000 C 
BRANCH  11  12
ATOM     12  C   UNL     1       2.552   5.597   9.628  1.00  0.00    -0.000 C 
BRANCH  12  13
ATOM     13  C   UNL     1       3.380   5.267  10.880  1.00  0.00    -0.000 C 
BRANCH  13  14
ATOM     14  C   UNL     1       3.128   3.840  11.400  1.00  0.00    -0.000 C 
BRANCH  14  15
ATOM     15  C   UNL     1       2.746   2.861  10.278  1.00  0.00    -0.000 C 
BRANCH  15  16
ATOM     16  C   UNL     1       1.854   1.712  10.777  1.00  0.00    -0.000 C 
BRANCH  16  17
ATOM     17  C   UNL     1       0.462   2.195  11.214  1.00  0.00    -0.003 C 
ATOM     18  C   UNL     1       0.115   1.788  12.646  1.00  0.00     0.004 C 
ENDBRANCH  16  17
ENDBRANCH  15  16
ENDBRANCH  14  15
ENDBRANCH  13  14
ENDBRANCH  12  13
ENDBRANCH  11  12
ENDBRANCH   1  11
TORSDOF 14
ENDMDL
MODEL 9
REMARK VINA RESULT:    -4.184     10.906     11.985
REMARK INTER + INTRA:          -8.392
REMARK INTER:                  -6.157
REMARK INTRA:                  -2.235
REMARK UNBOUND:                -0.784
REMARK SMILES CCCCCCCCCCCCCCCC(=O)[O-]
REMARK SMILES IDX 9 1 10 2 11 3 12 4 13 5 14 6 15 7 16 8 17 9 18 10 8 11 7 12
REMARK SMILES IDX 6 13 5 14 4 15 3 16 2 17 1 18
REMARK H PARENT
REMARK Flexibility Score: inf
ROOT
ATOM      1  C   UNL     1       2.110   7.861   8.252  1.00  0.00     0.000 C 
ENDROOT
BRANCH   1   2
ATOM      2  C   UNL     1       2.484   6.586   9.030  1.00  0.00     0.000 C 
BRANCH   2   3
ATOM      3  C   UNL     1       1.302   5.988   9.808  1.00  0.00     0.000 C 
BRANCH   3   4
ATOM      4  C   UNL     1       1.791   4.999  10.877  1.00  0.00     0.000 C 
BRANCH   4   5
ATOM      5  C   UNL     1       2.802   3.974  10.331  1.00  0.00     0.000 C 
BRANCH   5   6
ATOM      6  C   UNL     1       2.375   2.502  10.472  1.00  0.00     0.006 C 
BRANCH   6   7
ATOM      7  C   UNL     1       0.861   2.332  10.647  1.00  0.00     0.053 C 
BRANCH   7   8
ATOM      8  C   UNL     1       0.543   1.899  12.043  1.00  0.00     0.041 C 
ATOM      9  O   UNL     1      -0.654   1.842  12.431  1.00  0.00    -0.550 OA
ATOM     10  O   UNL     1       1.564   1.510  12.900  1.00  0.00    -0.550 OA
ENDBRANCH   7   8
ENDBRANCH   6   7
ENDBRANCH   5   6
ENDBRANCH   4   5
ENDBRANCH   3   4
ENDBRANCH   2   3
ENDBRANCH   1   2
BRANCH   1  11
ATOM     11  C   UNL     1       0.850   8.588   8.756  1.00  0.00     0.000 C 
BRANCH  11  12
ATOM     12  C   UNL     1       1.168   9.734   9.732  1.00  0.00    -0.000 C 
BRANCH  12  13
ATOM     13  C   UNL     1       0.865   9.365  11.193  1.00  0.00    -0.000 C 
BRANCH  13  14
ATOM     14  C   UNL     1       2.140   9.125  12.022  1.00  0.00    -0.000 C 
BRANCH  14  15
ATOM     15  C   UNL     1       3.402   9.676  11.337  1.00  0.00    -0.000 C 
BRANCH  15  16
ATOM     16  C   UNL     1       4.541   8.643  11.282  1.00  0.00    -0.000 C 
BRANCH  16  17
ATOM     17  C   UNL     1       4.269   7.420  12.173  1.00  0.00    -0.003 C 
ATOM     18  C   UNL     1       5.254   6.277  11.927  1.00  0.00     0.004 C 
ENDBRANCH  16  17
ENDBRANCH  15  16
ENDBRANCH  14  15
ENDBRANCH  13  14
ENDBRANCH  12  13
ENDBRANCH  11  12
ENDBRANCH   1  11
TORSDOF 14
ENDMDL
