MODEL 1
REMARK VINA RESULT:    -4.778      0.000      0.000
REMARK INTER + INTRA:          -6.585
REMARK INTER:                  -6.734
REMARK INTRA:                   0.148
REMARK UNBOUND:                 0.148
REMARK SMILES CC1=CCC(=C(C)C)C(=O)CC(C)=CCC1
REMARK SMILES IDX 12 1 14 2 13 3 15 4 16 5 2 6 1 7 3 8 11 10 9 11 10 12 5 13
REMARK SMILES IDX 6 14 7 15 8 16 4 17
REMARK H PARENT
REMARK Flexibility Score: 60.00
ROOT
ATOM      1  C   UNL     1      34.385  19.352  24.503  1.00  0.00    -0.070 C 
ATOM      2  C   UNL     1      34.433  20.150  23.398  1.00  0.00    -0.027 C 
ATOM      3  C   UNL     1      35.590  18.478  24.760  1.00  0.00     0.039 C 
ENDROOT
BRANCH   2   4
ATOM      4  C   UNL     1      33.407  21.103  22.796  1.00  0.00     0.032 C 
BRANCH   4   5
ATOM      5  C   UNL     1      32.783  20.708  21.452  1.00  0.00     0.034 C 
BRANCH   5   6
ATOM      6  C   UNL     1      31.460  19.929  21.465  1.00  0.00    -0.077 C 
ATOM      7  C   UNL     1      31.091  19.256  20.161  1.00  0.00     0.039 C 
ATOM      8  C   UNL     1      30.532  19.827  22.462  1.00  0.00    -0.023 CG0
ATOM      9  G   UNL     1      30.514  20.404  23.865  1.00  0.00     0.000 G0
ENDBRANCH   5   6
ENDBRANCH   4   5
ENDBRANCH   2   4
BRANCH   1  10
ATOM     10  C   UNL     1      33.250  19.255  25.510  1.00  0.00     0.111 C 
BRANCH  10  11
ATOM     11  C   UNL     1      32.027  18.630  24.912  1.00  0.00     0.163 C 
ATOM     12  O   UNL     1      32.127  17.508  24.346  1.00  0.00    -0.294 OA
BRANCH  11  13
ATOM     13  C   UNL     1      30.719  19.336  24.942  1.00  0.00    -0.002 C 
ATOM     14  C   UNL     1      29.764  19.030  25.867  1.00  0.00    -0.069 C 
ATOM     15  C   UNL     1      28.395  19.670  25.835  1.00  0.00     0.039 C 
ATOM     16  C   UNL     1      30.041  18.043  26.979  1.00  0.00     0.039 C 
BRANCH  13  17
ATOM     17  C   UNL     1      30.511  20.395  23.880  1.00  0.00     0.066 CG0
ATOM     18  G   UNL     1      30.521  19.808  22.481  1.00  0.00     0.000 G0
ENDBRANCH  13  17
ENDBRANCH  11  13
ENDBRANCH  10  11
ENDBRANCH   1  10
TORSDOF 0
ENDMDL
MODEL 2
REMARK VINA RESULT:    -4.732      1.417      4.162
REMARK INTER + INTRA:          -6.521
REMARK INTER:                  -6.940
REMARK INTRA:                   0.419
REMARK UNBOUND:                 0.148
REMARK SMILES CC1=CCC(=C(C)C)C(=O)CC(C)=CCC1
REMARK SMILES IDX 12 1 14 2 13 3 15 4 16 5 2 6 1 7 3 8 11 10 9 11 10 12 5 13
REMARK SMILES IDX 6 14 7 15 8 16 4 17
REMARK H PARENT
REMARK Flexibility Score: 60.00
ROOT
ATOM      1  C   UNL     1      34.301  19.998  24.847  1.00  0.00    -0.070 C 
ATOM      2  C   UNL     1      33.533  19.152  25.592  1.00  0.00    -0.027 C 
ATOM      3  C   UNL     1      35.342  20.800  25.593  1.00  0.00     0.039 C 
ENDROOT
BRANCH   2   4
ATOM      4  C   UNL     1      32.370  18.245  25.208  1.00  0.00     0.032 C 
BRANCH   4   5
ATOM      5  C   UNL     1      30.975  18.637  25.712  1.00  0.00     0.034 C 
BRANCH   5   6
ATOM      6  C   UNL     1      30.094  19.511  24.808  1.00  0.00    -0.077 C 
ATOM      7  C   UNL     1      28.952  20.219  25.506  1.00  0.00     0.039 C 
ATOM      8  C   UNL     1      30.146  19.674  23.453  1.00  0.00    -0.023 CG0
ATOM      9  G   UNL     1      31.089  19.089  22.419  1.00  0.00     0.000 G0
ENDBRANCH   5   6
ENDBRANCH   4   5
ENDBRANCH   2   4
BRANCH   1  10
ATOM     10  C   UNL     1      34.228  20.214  23.344  1.00  0.00     0.111 C 
BRANCH  10  11
ATOM     11  C   UNL     1      32.906  20.782  22.926  1.00  0.00     0.163 C 
ATOM     12  O   UNL     1      32.487  21.831  23.486  1.00  0.00    -0.294 OA
BRANCH  11  13
ATOM     13  C   UNL     1      32.075  20.100  21.899  1.00  0.00    -0.002 C 
ATOM     14  C   UNL     1      32.199  20.393  20.573  1.00  0.00    -0.069 C 
ATOM     15  C   UNL     1      31.283  19.781  19.537  1.00  0.00     0.039 C 
ATOM     16  C   UNL     1      33.272  21.336  20.077  1.00  0.00     0.039 C 
BRANCH  13  17
ATOM     17  C   UNL     1      31.082  19.082  22.418  1.00  0.00     0.066 CG0
ATOM     18  G   UNL     1      30.145  19.676  23.453  1.00  0.00     0.000 G0
ENDBRANCH  13  17
ENDBRANCH  11  13
ENDBRANCH  10  11
ENDBRANCH   1  10
TORSDOF 0
ENDMDL
MODEL 3
REMARK VINA RESULT:    -4.398      1.684      4.549
REMARK INTER + INTRA:          -6.050
REMARK INTER:                  -6.357
REMARK INTRA:                   0.306
REMARK UNBOUND:                 0.148
REMARK SMILES CC1=CCC(=C(C)C)C(=O)CC(C)=CCC1
REMARK SMILES IDX 12 1 14 2 13 3 15 4 16 5 2 6 1 7 3 8 11 10 9 11 10 12 5 13
REMARK SMILES IDX 6 14 7 15 8 16 4 17
REMARK H PARENT
REMARK Flexibility Score: 60.00
ROOT
ATOM      1  C   UNL     1      31.403  19.800  20.870  1.00  0.00    -0.070 C 
ATOM      2  C   UNL     1      30.135  19.555  21.310  1.00  0.00    -0.027 C 
ATOM      3  C   UNL     1      31.536  20.387  19.484  1.00  0.00     0.039 C 
ENDROOT
BRANCH   2   4
ATOM      4  C   UNL     1      29.619  18.930  22.601  1.00  0.00     0.032 C 
BRANCH   4   5
ATOM      5  C   UNL     1      29.259  19.882  23.749  1.00  0.00     0.034 C 
BRANCH   5   6
ATOM      6  C   UNL     1      29.806  19.572  25.150  1.00  0.00    -0.077 C 
ATOM      7  C   UNL     1      28.976  20.099  26.301  1.00  0.00     0.039 C 
ATOM      8  C   UNL     1      30.976  18.960  25.501  1.00  0.00    -0.023 CG0
ATOM      9  G   UNL     1      32.080  18.366  24.648  1.00  0.00     0.000 G0
ENDBRANCH   5   6
ENDBRANCH   4   5
ENDBRANCH   2   4
BRANCH   1  10
ATOM     10  C   UNL     1      32.697  19.553  21.629  1.00  0.00     0.111 C 
BRANCH  10  11
ATOM     11  C   UNL     1      32.681  20.197  22.982  1.00  0.00     0.163 C 
ATOM     12  O   UNL     1      32.366  21.414  23.075  1.00  0.00    -0.294 OA
BRANCH  11  13
ATOM     13  C   UNL     1      33.071  19.432  24.195  1.00  0.00    -0.002 C 
ATOM     14  C   UNL     1      34.249  19.670  24.841  1.00  0.00    -0.069 C 
ATOM     15  C   UNL     1      34.698  18.823  26.009  1.00  0.00     0.039 C 
ATOM     16  C   UNL     1      35.153  20.808  24.423  1.00  0.00     0.039 C 
BRANCH  13  17
ATOM     17  C   UNL     1      32.094  18.369  24.652  1.00  0.00     0.066 CG0
ATOM     18  G   UNL     1      30.985  18.947  25.511  1.00  0.00     0.000 G0
ENDBRANCH  13  17
ENDBRANCH  11  13
ENDBRANCH  10  11
ENDBRANCH   1  10
TORSDOF 0
ENDMDL
MODEL 4
REMARK VINA RESULT:    -4.367      1.789      4.951
REMARK INTER + INTRA:          -6.006
REMARK INTER:                  -6.496
REMARK INTRA:                   0.490
REMARK UNBOUND:                 0.148
REMARK SMILES CC1=CCC(=C(C)C)C(=O)CC(C)=CCC1
REMARK SMILES IDX 12 1 14 2 13 3 15 4 16 5 2 6 1 7 3 8 11 10 9 11 10 12 5 13
REMARK SMILES IDX 6 14 7 15 8 16 4 17
REMARK H PARENT
REMARK Flexibility Score: 60.00
ROOT
ATOM      1  C   UNL     1      30.592  19.188  24.540  1.00  0.00    -0.070 C 
ATOM      2  C   UNL     1      31.334  19.148  25.684  1.00  0.00    -0.027 C 
ATOM      3  C   UNL     1      29.161  19.653  24.677  1.00  0.00     0.039 C 
ENDROOT
BRANCH   2   4
ATOM      4  C   UNL     1      32.765  18.690  25.943  1.00  0.00     0.032 C 
BRANCH   4   5
ATOM      5  C   UNL     1      33.887  19.698  25.669  1.00  0.00     0.034 C 
BRANCH   5   6
ATOM      6  C   UNL     1      34.587  19.655  24.302  1.00  0.00    -0.077 C 
ATOM      7  C   UNL     1      35.868  18.851  24.255  1.00  0.00     0.039 C 
ATOM      8  C   UNL     1      34.258  20.305  23.147  1.00  0.00    -0.023 CG0
ATOM      9  G   UNL     1      33.104  21.236  22.825  1.00  0.00     0.000 G0
ENDBRANCH   5   6
ENDBRANCH   4   5
ENDBRANCH   2   4
BRANCH   1  10
ATOM     10  C   UNL     1      31.055  18.821  23.139  1.00  0.00     0.111 C 
BRANCH  10  11
ATOM     11  C   UNL     1      30.973  19.988  22.202  1.00  0.00     0.163 C 
ATOM     12  O   UNL     1      29.843  20.360  21.786  1.00  0.00    -0.294 OA
BRANCH  11  13
ATOM     13  C   UNL     1      32.205  20.674  21.732  1.00  0.00    -0.002 C 
ATOM     14  C   UNL     1      32.505  20.772  20.405  1.00  0.00    -0.069 C 
ATOM     15  C   UNL     1      33.807  21.374  19.928  1.00  0.00     0.039 C 
ATOM     16  C   UNL     1      31.535  20.294  19.347  1.00  0.00     0.039 C 
BRANCH  13  17
ATOM     17  C   UNL     1      33.105  21.237  22.812  1.00  0.00     0.066 CG0
ATOM     18  G   UNL     1      34.250  20.299  23.145  1.00  0.00     0.000 G0
ENDBRANCH  13  17
ENDBRANCH  11  13
ENDBRANCH  10  11
ENDBRANCH   1  10
TORSDOF 0
ENDMDL
MODEL 5
REMARK VINA RESULT:    -4.357      4.720      7.969
REMARK INTER + INTRA:          -5.992
REMARK INTER:                  -6.170
REMARK INTRA:                   0.178
REMARK UNBOUND:                 0.148
REMARK SMILES CC1=CCC(=C(C)C)C(=O)CC(C)=CCC1
REMARK SMILES IDX 12 1 14 2 13 3 15 4 16 5 2 6 1 7 3 8 11 10 9 11 10 12 5 13
REMARK SMILES IDX 6 14 7 15 8 16 4 17
REMARK H PARENT
REMARK Flexibility Score: 60.00
ROOT
ATOM      1  C   UNL     1      35.160  20.753  25.499  1.00  0.00    -0.070 C 
ATOM      2  C   UNL     1      35.571  21.669  26.421  1.00  0.00    -0.027 C 
ATOM      3  C   UNL     1      33.668  20.582  25.333  1.00  0.00     0.039 C 
ENDROOT
BRANCH   2   4
ATOM      4  C   UNL     1      36.964  22.067  26.896  1.00  0.00     0.032 C 
BRANCH   4   5
ATOM      5  C   UNL     1      37.366  21.657  28.318  1.00  0.00     0.034 C 
BRANCH   5   6
ATOM      6  C   UNL     1      38.330  20.475  28.490  1.00  0.00    -0.077 C 
ATOM      7  C   UNL     1      38.648  20.100  29.921  1.00  0.00     0.039 C 
ATOM      8  C   UNL     1      39.004  19.769  27.534  1.00  0.00    -0.023 CG0
ATOM      9  G   UNL     1      38.998  19.889  26.022  1.00  0.00     0.000 G0
ENDBRANCH   5   6
ENDBRANCH   4   5
ENDBRANCH   2   4
BRANCH   1  10
ATOM     10  C   UNL     1      36.044  19.890  24.611  1.00  0.00     0.111 C 
BRANCH  10  11
ATOM     11  C   UNL     1      36.774  18.847  25.399  1.00  0.00     0.163 C 
ATOM     12  O   UNL     1      36.116  18.067  26.139  1.00  0.00    -0.294 OA
BRANCH  11  13
ATOM     13  C   UNL     1      38.257  18.753  25.348  1.00  0.00    -0.002 C 
ATOM     14  C   UNL     1      38.886  17.700  24.751  1.00  0.00    -0.069 C 
ATOM     15  C   UNL     1      40.389  17.548  24.790  1.00  0.00     0.039 C 
ATOM     16  C   UNL     1      38.102  16.642  24.007  1.00  0.00     0.039 C 
BRANCH  13  17
ATOM     17  C   UNL     1      39.017  19.884  26.010  1.00  0.00     0.066 CG0
ATOM     18  G   UNL     1      39.004  19.768  27.523  1.00  0.00     0.000 G0
ENDBRANCH  13  17
ENDBRANCH  11  13
ENDBRANCH  10  11
ENDBRANCH   1  10
TORSDOF 0
ENDMDL
MODEL 6
REMARK VINA RESULT:    -4.284      4.095      6.548
REMARK INTER + INTRA:          -5.888
REMARK INTER:                  -6.554
REMARK INTRA:                   0.665
REMARK UNBOUND:                 0.148
REMARK SMILES CC1=CCC(=C(C)C)C(=O)CC(C)=CCC1
REMARK SMILES IDX 12 1 14 2 13 3 15 4 16 5 2 6 1 7 3 8 11 10 9 11 10 12 5 13
REMARK SMILES IDX 6 14 7 15 8 16 4 17
REMARK H PARENT
REMARK Flexibility Score: 60.00
ROOT
ATOM      1  C   UNL     1      33.978  21.278  16.440  1.00  0.00    -0.070 C 
ATOM      2  C   UNL     1      33.434  20.646  15.361  1.00  0.00    -0.027 C 
ATOM      3  C   UNL     1      35.486  21.371  16.480  1.00  0.00     0.039 C 
ENDROOT
BRANCH   2   4
ATOM      4  C   UNL     1      31.988  20.317  15.008  1.00  0.00     0.032 C 
BRANCH   4   5
ATOM      5  C   UNL     1      31.460  18.937  15.423  1.00  0.00     0.034 C 
BRANCH   5   6
ATOM      6  C   UNL     1      32.141  18.221  16.598  1.00  0.00    -0.077 C 
ATOM      7  C   UNL     1      32.868  16.942  16.244  1.00  0.00     0.039 C 
ATOM      8  C   UNL     1      32.113  18.533  17.928  1.00  0.00    -0.023 CG0
ATOM      9  G   UNL     1      31.447  19.679  18.665  1.00  0.00     0.000 G0
ENDBRANCH   5   6
ENDBRANCH   4   5
ENDBRANCH   2   4
BRANCH   1  10
ATOM     10  C   UNL     1      33.229  21.906  17.604  1.00  0.00     0.111 C 
BRANCH  10  11
ATOM     11  C   UNL     1      33.496  21.188  18.892  1.00  0.00     0.163 C 
ATOM     12  O   UNL     1      34.660  21.211  19.374  1.00  0.00    -0.294 OA
BRANCH  11  13
ATOM     13  C   UNL     1      32.420  20.420  19.573  1.00  0.00    -0.002 C 
ATOM     14  C   UNL     1      32.325  20.379  20.933  1.00  0.00    -0.069 C 
ATOM     15  C   UNL     1      31.299  19.515  21.630  1.00  0.00     0.039 C 
ATOM     16  C   UNL     1      33.237  21.212  21.806  1.00  0.00     0.039 C 
BRANCH  13  17
ATOM     17  C   UNL     1      31.457  19.681  18.668  1.00  0.00     0.066 CG0
ATOM     18  G   UNL     1      32.129  18.536  17.935  1.00  0.00     0.000 G0
ENDBRANCH  13  17
ENDBRANCH  11  13
ENDBRANCH  10  11
ENDBRANCH   1  10
TORSDOF 0
ENDMDL
MODEL 7
REMARK VINA RESULT:    -4.260      1.306      3.711
REMARK INTER + INTRA:          -5.854
REMARK INTER:                  -6.462
REMARK INTRA:                   0.608
REMARK UNBOUND:                 0.148
REMARK SMILES CC1=CCC(=C(C)C)C(=O)CC(C)=CCC1
REMARK SMILES IDX 12 1 14 2 13 3 15 4 16 5 2 6 1 7 3 8 11 10 9 11 10 12 5 13
REMARK SMILES IDX 6 14 7 15 8 16 4 17
REMARK H PARENT
REMARK Flexibility Score: 60.00
ROOT
ATOM      1  C   UNL     1      29.799  19.553  25.283  1.00  0.00    -0.070 C 
ATOM      2  C   UNL     1      29.331  19.622  24.004  1.00  0.00    -0.027 C 
ATOM      3  C   UNL     1      29.028  20.325  26.328  1.00  0.00     0.039 C 
ENDROOT
BRANCH   2   4
ATOM      4  C   UNL     1      29.864  19.036  22.701  1.00  0.00     0.032 C 
BRANCH   4   5
ATOM      5  C   UNL     1      30.244  20.022  21.590  1.00  0.00     0.034 C 
BRANCH   5   6
ATOM      6  C   UNL     1      31.731  20.335  21.371  1.00  0.00    -0.077 C 
ATOM      7  C   UNL     1      32.251  20.067  19.976  1.00  0.00     0.039 C 
ATOM      8  C   UNL     1      32.666  20.742  22.279  1.00  0.00    -0.023 CG0
ATOM      9  G   UNL     1      32.546  21.048  23.760  1.00  0.00     0.000 G0
ENDBRANCH   5   6
ENDBRANCH   4   5
ENDBRANCH   2   4
BRANCH   1  10
ATOM     10  C   UNL     1      31.009  18.772  25.772  1.00  0.00     0.111 C 
BRANCH  10  11
ATOM     11  C   UNL     1      32.109  18.757  24.755  1.00  0.00     0.163 C 
ATOM     12  O   UNL     1      32.258  17.735  24.031  1.00  0.00    -0.294 OA
BRANCH  11  13
ATOM     13  C   UNL     1      33.042  19.907  24.624  1.00  0.00    -0.002 C 
ATOM     14  C   UNL     1      34.250  19.921  25.257  1.00  0.00    -0.069 C 
ATOM     15  C   UNL     1      35.154  21.132  25.213  1.00  0.00     0.039 C 
ATOM     16  C   UNL     1      34.747  18.713  26.020  1.00  0.00     0.039 C 
BRANCH  13  17
ATOM     17  C   UNL     1      32.561  21.058  23.765  1.00  0.00     0.066 CG0
ATOM     18  G   UNL     1      32.657  20.742  22.285  1.00  0.00     0.000 G0
ENDBRANCH  13  17
ENDBRANCH  11  13
ENDBRANCH  10  11
ENDBRANCH   1  10
TORSDOF 0
ENDMDL
MODEL 8
REMARK VINA RESULT:    -4.126      5.339      8.187
REMARK INTER + INTRA:          -5.666
REMARK INTER:                  -5.851
REMARK INTRA:                   0.184
REMARK UNBOUND:                 0.148
REMARK SMILES CC1=CCC(=C(C)C)C(=O)CC(C)=CCC1
REMARK SMILES IDX 12 1 14 2 13 3 15 4 16 5 2 6 1 7 3 8 11 10 9 11 10 12 5 13
REMARK SMILES IDX 6 14 7 15 8 16 4 17
REMARK H PARENT
REMARK Flexibility Score: 60.00
ROOT
ATOM      1  C   UNL     1      35.929  19.479  25.219  1.00  0.00    -0.070 C 
ATOM      2  C   UNL     1      36.482  18.367  24.656  1.00  0.00    -0.027 C 
ATOM      3  C   UNL     1      34.963  20.263  24.361  1.00  0.00     0.039 C 
ENDROOT
BRANCH   2   4
ATOM      4  C   UNL     1      37.517  17.379  25.182  1.00  0.00     0.032 C 
BRANCH   4   5
ATOM      5  C   UNL     1      38.887  17.362  24.492  1.00  0.00     0.034 C 
BRANCH   5   6
ATOM      6  C   UNL     1      39.949  18.368  24.958  1.00  0.00    -0.077 C 
ATOM      7  C   UNL     1      41.093  18.596  23.993  1.00  0.00     0.039 C 
ATOM      8  C   UNL     1      40.049  19.022  26.153  1.00  0.00    -0.023 CG0
ATOM      9  G   UNL     1      39.149  19.001  27.374  1.00  0.00     0.000 G0
ENDBRANCH   5   6
ENDBRANCH   4   5
ENDBRANCH   2   4
BRANCH   1  10
ATOM     10  C   UNL     1      36.173  20.010  26.623  1.00  0.00     0.111 C 
BRANCH  10  11
ATOM     11  C   UNL     1      37.455  20.779  26.713  1.00  0.00     0.163 C 
ATOM     12  O   UNL     1      37.628  21.770  25.952  1.00  0.00    -0.294 OA
BRANCH  11  13
ATOM     13  C   UNL     1      38.530  20.361  27.651  1.00  0.00    -0.002 C 
ATOM     14  C   UNL     1      38.933  21.165  28.677  1.00  0.00    -0.069 C 
ATOM     15  C   UNL     1      40.096  20.790  29.567  1.00  0.00     0.039 C 
ATOM     16  C   UNL     1      38.219  22.463  28.980  1.00  0.00     0.039 C 
BRANCH  13  17
ATOM     17  C   UNL     1      39.153  19.007  27.386  1.00  0.00     0.066 CG0
ATOM     18  G   UNL     1      40.057  19.026  26.167  1.00  0.00     0.000 G0
ENDBRANCH  13  17
ENDBRANCH  11  13
ENDBRANCH  10  11
ENDBRANCH   1  10
TORSDOF 0
ENDMDL
MODEL 9
REMARK VINA RESULT:    -4.036      4.681      7.287
REMARK INTER + INTRA:          -5.539
REMARK INTER:                  -5.522
REMARK INTRA:                  -0.017
REMARK UNBOUND:                 0.148
REMARK SMILES CC1=CCC(=C(C)C)C(=O)CC(C)=CCC1
REMARK SMILES IDX 12 1 14 2 13 3 15 4 16 5 2 6 1 7 3 8 11 10 9 11 10 12 5 13
REMARK SMILES IDX 6 14 7 15 8 16 4 17
REMARK H PARENT
REMARK Flexibility Score: 60.00
ROOT
ATOM      1  C   UNL     1      37.790  21.864  27.726  1.00  0.00    -0.070 C 
ATOM      2  C   UNL     1      36.486  22.215  27.535  1.00  0.00    -0.027 C 
ATOM      3  C   UNL     1      38.478  22.451  28.937  1.00  0.00     0.039 C 
ENDROOT
BRANCH   2   4
ATOM      4  C   UNL     1      35.503  21.875  26.421  1.00  0.00     0.032 C 
BRANCH   4   5
ATOM      5  C   UNL     1      35.158  20.395  26.214  1.00  0.00     0.034 C 
BRANCH   5   6
ATOM      6  C   UNL     1      35.635  19.710  24.924  1.00  0.00    -0.077 C 
ATOM      7  C   UNL     1      35.032  20.248  23.644  1.00  0.00     0.039 C 
ATOM      8  C   UNL     1      36.461  18.633  24.777  1.00  0.00    -0.023 CG0
ATOM      9  G   UNL     1      37.194  17.796  25.808  1.00  0.00     0.000 G0
ENDBRANCH   5   6
ENDBRANCH   4   5
ENDBRANCH   2   4
BRANCH   1  10
ATOM     10  C   UNL     1      38.624  20.938  26.855  1.00  0.00     0.111 C 
BRANCH  10  11
ATOM     11  C   UNL     1      38.444  19.501  27.238  1.00  0.00     0.163 C 
ATOM     12  O   UNL     1      38.264  19.210  28.452  1.00  0.00    -0.294 OA
BRANCH  11  13
ATOM     13  C   UNL     1      38.520  18.425  26.216  1.00  0.00    -0.002 C 
ATOM     14  C   UNL     1      39.710  18.038  25.674  1.00  0.00    -0.069 C 
ATOM     15  C   UNL     1      39.780  17.020  24.558  1.00  0.00     0.039 C 
ATOM     16  C   UNL     1      41.019  18.603  26.178  1.00  0.00     0.039 C 
BRANCH  13  17
ATOM     17  C   UNL     1      37.201  17.804  25.807  1.00  0.00     0.066 CG0
ATOM     18  G   UNL     1      36.473  18.642  24.773  1.00  0.00     0.000 G0
ENDBRANCH  13  17
ENDBRANCH  11  13
ENDBRANCH  10  11
ENDBRANCH   1  10
TORSDOF 0
ENDMDL
