MODEL 1
REMARK VINA RESULT:    -2.900      0.000      0.000
REMARK INTER + INTRA:          -4.044
REMARK INTER:                  -3.748
REMARK INTRA:                  -0.297
REMARK UNBOUND:                -0.297
REMARK SMILES CCCCCCC(=O)[O-]
REMARK SMILES IDX 5 1 6 2 7 3 8 4 9 5 4 6 3 7 2 8 1 9
REMARK H PARENT
REMARK Flexibility Score: inf
ROOT
ATOM      1  C   UNL     1     -47.299 -47.038  70.424  1.00  0.00     0.006 C 
ENDROOT
BRANCH   1   2
ATOM      2  C   UNL     1     -48.385 -47.885  71.100  1.00  0.00     0.053 C 
BRANCH   2   3
ATOM      3  C   UNL     1     -48.635 -49.162  70.360  1.00  0.00     0.041 C 
ATOM      4  O   UNL     1     -49.026 -49.134  69.162  1.00  0.00    -0.550 OA
ATOM      5  O   UNL     1     -48.407 -50.384  70.979  1.00  0.00    -0.550 OA
ENDBRANCH   2   3
ENDBRANCH   1   2
BRANCH   1   6
ATOM      6  C   UNL     1     -45.959 -47.106  71.171  1.00  0.00     0.000 C 
BRANCH   6   7
ATOM      7  C   UNL     1     -44.806 -47.404  70.205  1.00  0.00    -0.000 C 
BRANCH   7   8
ATOM      8  C   UNL     1     -44.084 -48.699  70.593  1.00  0.00    -0.003 C 
ATOM      9  C   UNL     1     -44.965 -49.919  70.340  1.00  0.00     0.004 C 
ENDBRANCH   7   8
ENDBRANCH   6   7
ENDBRANCH   1   6
TORSDOF 5
ENDMDL
MODEL 2
REMARK VINA RESULT:    -2.855      1.970      2.747
REMARK INTER + INTRA:          -3.987
REMARK INTER:                  -3.727
REMARK INTRA:                  -0.260
REMARK UNBOUND:                -0.297
REMARK SMILES CCCCCCC(=O)[O-]
REMARK SMILES IDX 5 1 6 2 7 3 8 4 9 5 4 6 3 7 2 8 1 9
REMARK H PARENT
REMARK Flexibility Score: inf
ROOT
ATOM      1  C   UNL     1     -45.602 -48.513  70.705  1.00  0.00     0.006 C 
ENDROOT
BRANCH   1   2
ATOM      2  C   UNL     1     -46.466 -47.318  71.125  1.00  0.00     0.053 C 
BRANCH   2   3
ATOM      3  C   UNL     1     -47.856 -47.416  70.575  1.00  0.00     0.041 C 
ATOM      4  O   UNL     1     -48.090 -47.088  69.382  1.00  0.00    -0.550 OA
ATOM      5  O   UNL     1     -48.888 -47.901  71.369  1.00  0.00    -0.550 OA
ENDBRANCH   2   3
ENDBRANCH   1   2
BRANCH   1   6
ATOM      6  C   UNL     1     -44.107 -48.163  70.661  1.00  0.00     0.000 C 
BRANCH   6   7
ATOM      7  C   UNL     1     -43.896 -46.646  70.743  1.00  0.00    -0.000 C 
BRANCH   7   8
ATOM      8  C   UNL     1     -42.958 -46.283  71.900  1.00  0.00    -0.003 C 
ATOM      9  C   UNL     1     -43.697 -45.503  72.984  1.00  0.00     0.004 C 
ENDBRANCH   7   8
ENDBRANCH   6   7
ENDBRANCH   1   6
TORSDOF 5
ENDMDL
MODEL 3
REMARK VINA RESULT:    -2.842      1.812      2.283
REMARK INTER + INTRA:          -3.969
REMARK INTER:                  -3.618
REMARK INTRA:                  -0.351
REMARK UNBOUND:                -0.297
REMARK SMILES CCCCCCC(=O)[O-]
REMARK SMILES IDX 5 1 6 2 7 3 8 4 9 5 4 6 3 7 2 8 1 9
REMARK H PARENT
REMARK Flexibility Score: inf
ROOT
ATOM      1  C   UNL     1     -47.833 -48.833  70.580  1.00  0.00     0.006 C 
ENDROOT
BRANCH   1   2
ATOM      2  C   UNL     1     -48.806 -48.833  69.394  1.00  0.00     0.053 C 
BRANCH   2   3
ATOM      3  C   UNL     1     -48.265 -48.063  68.230  1.00  0.00     0.041 C 
ATOM      4  O   UNL     1     -48.886 -47.058  67.791  1.00  0.00    -0.550 OA
ATOM      5  O   UNL     1     -47.058 -48.432  67.649  1.00  0.00    -0.550 OA
ENDBRANCH   2   3
ENDBRANCH   1   2
BRANCH   1   6
ATOM      6  C   UNL     1     -47.499 -47.411  71.057  1.00  0.00     0.000 C 
BRANCH   6   7
ATOM      7  C   UNL     1     -45.984 -47.172  71.053  1.00  0.00    -0.000 C 
BRANCH   7   8
ATOM      8  C   UNL     1     -45.226 -48.449  70.670  1.00  0.00    -0.003 C 
ATOM      9  C   UNL     1     -43.722 -48.201  70.612  1.00  0.00     0.004 C 
ENDBRANCH   7   8
ENDBRANCH   6   7
ENDBRANCH   1   6
TORSDOF 5
ENDMDL
MODEL 4
REMARK VINA RESULT:    -2.821      4.328      5.435
REMARK INTER + INTRA:          -3.943
REMARK INTER:                  -3.766
REMARK INTRA:                  -0.177
REMARK UNBOUND:                -0.297
REMARK SMILES CCCCCCC(=O)[O-]
REMARK SMILES IDX 5 1 6 2 7 3 8 4 9 5 4 6 3 7 2 8 1 9
REMARK H PARENT
REMARK Flexibility Score: inf
ROOT
ATOM      1  C   UNL     1     -44.031 -46.076  71.567  1.00  0.00     0.006 C 
ENDROOT
BRANCH   1   2
ATOM      2  C   UNL     1     -43.138 -45.904  72.802  1.00  0.00     0.053 C 
BRANCH   2   3
ATOM      3  C   UNL     1     -43.681 -44.871  73.741  1.00  0.00     0.041 C 
ATOM      4  O   UNL     1     -43.377 -43.658  73.593  1.00  0.00    -0.550 OA
ATOM      5  O   UNL     1     -44.549 -45.243  74.760  1.00  0.00    -0.550 OA
ENDBRANCH   2   3
ENDBRANCH   1   2
BRANCH   1   6
ATOM      6  C   UNL     1     -43.947 -47.494  70.982  1.00  0.00     0.000 C 
BRANCH   6   7
ATOM      7  C   UNL     1     -45.342 -48.031  70.638  1.00  0.00    -0.000 C 
BRANCH   7   8
ATOM      8  C   UNL     1     -46.437 -47.117  71.201  1.00  0.00    -0.003 C 
ATOM      9  C   UNL     1     -47.826 -47.682  70.917  1.00  0.00     0.004 C 
ENDBRANCH   7   8
ENDBRANCH   6   7
ENDBRANCH   1   6
TORSDOF 5
ENDMDL
MODEL 5
REMARK VINA RESULT:    -2.811      3.686      4.981
REMARK INTER + INTRA:          -3.930
REMARK INTER:                  -3.710
REMARK INTRA:                  -0.219
REMARK UNBOUND:                -0.297
REMARK SMILES CCCCCCC(=O)[O-]
REMARK SMILES IDX 5 1 6 2 7 3 8 4 9 5 4 6 3 7 2 8 1 9
REMARK H PARENT
REMARK Flexibility Score: inf
ROOT
ATOM      1  C   UNL     1     -44.122 -47.847  70.740  1.00  0.00     0.006 C 
ENDROOT
BRANCH   1   2
ATOM      2  C   UNL     1     -43.991 -46.436  71.329  1.00  0.00     0.053 C 
BRANCH   2   3
ATOM      3  C   UNL     1     -43.268 -45.511  70.399  1.00  0.00     0.041 C 
ATOM      4  O   UNL     1     -42.957 -44.349  70.776  1.00  0.00    -0.550 OA
ATOM      5  O   UNL     1     -42.906 -45.941  69.129  1.00  0.00    -0.550 OA
ENDBRANCH   2   3
ENDBRANCH   1   2
BRANCH   1   6
ATOM      6  C   UNL     1     -45.581 -48.328  70.702  1.00  0.00     0.000 C 
BRANCH   6   7
ATOM      7  C   UNL     1     -46.537 -47.216  71.150  1.00  0.00    -0.000 C 
BRANCH   7   8
ATOM      8  C   UNL     1     -47.998 -47.622  70.923  1.00  0.00    -0.003 C 
ATOM      9  C   UNL     1     -48.125 -49.128  70.709  1.00  0.00     0.004 C 
ENDBRANCH   7   8
ENDBRANCH   6   7
ENDBRANCH   1   6
TORSDOF 5
ENDMDL
MODEL 6
REMARK VINA RESULT:    -2.804      1.285      1.913
REMARK INTER + INTRA:          -3.920
REMARK INTER:                  -3.686
REMARK INTRA:                  -0.234
REMARK UNBOUND:                -0.297
REMARK SMILES CCCCCCC(=O)[O-]
REMARK SMILES IDX 5 1 6 2 7 3 8 4 9 5 4 6 3 7 2 8 1 9
REMARK H PARENT
REMARK Flexibility Score: inf
ROOT
ATOM      1  C   UNL     1     -46.640 -47.156  70.625  1.00  0.00     0.006 C 
ENDROOT
BRANCH   1   2
ATOM      2  C   UNL     1     -48.032 -47.613  71.079  1.00  0.00     0.053 C 
BRANCH   2   3
ATOM      3  C   UNL     1     -48.480 -48.840  70.347  1.00  0.00     0.041 C 
ATOM      4  O   UNL     1     -48.775 -48.777  69.124  1.00  0.00    -0.550 OA
ATOM      5  O   UNL     1     -48.540 -50.062  71.006  1.00  0.00    -0.550 OA
ENDBRANCH   2   3
ENDBRANCH   1   2
BRANCH   1   6
ATOM      6  C   UNL     1     -45.599 -48.282  70.718  1.00  0.00     0.000 C 
BRANCH   6   7
ATOM      7  C   UNL     1     -44.178 -47.712  70.799  1.00  0.00    -0.000 C 
BRANCH   7   8
ATOM      8  C   UNL     1     -44.205 -46.199  71.040  1.00  0.00    -0.003 C 
ATOM      9  C   UNL     1     -43.539 -45.839  72.365  1.00  0.00     0.004 C 
ENDBRANCH   7   8
ENDBRANCH   6   7
ENDBRANCH   1   6
TORSDOF 5
ENDMDL
MODEL 7
REMARK VINA RESULT:    -2.747      1.394      1.874
REMARK INTER + INTRA:          -3.847
REMARK INTER:                  -3.599
REMARK INTRA:                  -0.248
REMARK UNBOUND:                -0.297
REMARK SMILES CCCCCCC(=O)[O-]
REMARK SMILES IDX 5 1 6 2 7 3 8 4 9 5 4 6 3 7 2 8 1 9
REMARK H PARENT
REMARK Flexibility Score: inf
ROOT
ATOM      1  C   UNL     1     -47.870 -47.458  71.065  1.00  0.00     0.006 C 
ENDROOT
BRANCH   1   2
ATOM      2  C   UNL     1     -48.264 -48.751  70.340  1.00  0.00     0.053 C 
BRANCH   2   3
ATOM      3  C   UNL     1     -48.932 -48.472  69.029  1.00  0.00     0.041 C 
ATOM      4  O   UNL     1     -48.344 -47.785  68.151  1.00  0.00    -0.550 OA
ATOM      5  O   UNL     1     -50.190 -48.997  68.761  1.00  0.00    -0.550 OA
ENDBRANCH   2   3
ENDBRANCH   1   2
BRANCH   1   6
ATOM      6  C   UNL     1     -46.349 -47.247  71.093  1.00  0.00     0.000 C 
BRANCH   6   7
ATOM      7  C   UNL     1     -45.609 -48.521  70.668  1.00  0.00    -0.000 C 
BRANCH   7   8
ATOM      8  C   UNL     1     -44.096 -48.285  70.607  1.00  0.00    -0.003 C 
ATOM      9  C   UNL     1     -43.728 -46.919  71.178  1.00  0.00     0.004 C 
ENDBRANCH   7   8
ENDBRANCH   6   7
ENDBRANCH   1   6
TORSDOF 5
ENDMDL
MODEL 8
REMARK VINA RESULT:    -2.694      1.331      3.037
REMARK INTER + INTRA:          -3.778
REMARK INTER:                  -3.311
REMARK INTRA:                  -0.467
REMARK UNBOUND:                -0.297
REMARK SMILES CCCCCCC(=O)[O-]
REMARK SMILES IDX 5 1 6 2 7 3 8 4 9 5 4 6 3 7 2 8 1 9
REMARK H PARENT
REMARK Flexibility Score: inf
ROOT
ATOM      1  C   UNL     1     -44.776 -49.209  70.650  1.00  0.00     0.006 C 
ENDROOT
BRANCH   1   2
ATOM      2  C   UNL     1     -45.085 -50.452  69.805  1.00  0.00     0.053 C 
BRANCH   2   3
ATOM      3  C   UNL     1     -46.558 -50.697  69.695  1.00  0.00     0.041 C 
ATOM      4  O   UNL     1     -47.111 -50.735  68.563  1.00  0.00    -0.550 OA
ATOM      5  O   UNL     1     -47.316 -50.917  70.838  1.00  0.00    -0.550 OA
ENDBRANCH   2   3
ENDBRANCH   1   2
BRANCH   1   6
ATOM      6  C   UNL     1     -45.436 -47.942  70.084  1.00  0.00     0.000 C 
BRANCH   6   7
ATOM      7  C   UNL     1     -46.254 -47.221  71.162  1.00  0.00    -0.000 C 
BRANCH   7   8
ATOM      8  C   UNL     1     -47.757 -47.389  70.916  1.00  0.00    -0.003 C 
ATOM      9  C   UNL     1     -48.078 -47.371  69.424  1.00  0.00     0.004 C 
ENDBRANCH   7   8
ENDBRANCH   6   7
ENDBRANCH   1   6
TORSDOF 5
ENDMDL
MODEL 9
REMARK VINA RESULT:    -2.682      2.580      4.009
REMARK INTER + INTRA:          -3.763
REMARK INTER:                  -3.345
REMARK INTRA:                  -0.418
REMARK UNBOUND:                -0.297
REMARK SMILES CCCCCCC(=O)[O-]
REMARK SMILES IDX 5 1 6 2 7 3 8 4 9 5 4 6 3 7 2 8 1 9
REMARK H PARENT
REMARK Flexibility Score: inf
ROOT
ATOM      1  C   UNL     1     -46.022 -47.205  71.195  1.00  0.00     0.006 C 
ENDROOT
BRANCH   1   2
ATOM      2  C   UNL     1     -45.242 -48.396  70.626  1.00  0.00     0.053 C 
BRANCH   2   3
ATOM      3  C   UNL     1     -44.609 -48.069  69.308  1.00  0.00     0.041 C 
ATOM      4  O   UNL     1     -43.612 -47.300  69.258  1.00  0.00    -0.550 OA
ATOM      5  O   UNL     1     -45.097 -48.639  68.139  1.00  0.00    -0.550 OA
ENDBRANCH   2   3
ENDBRANCH   1   2
BRANCH   1   6
ATOM      6  C   UNL     1     -47.509 -47.248  70.814  1.00  0.00     0.000 C 
BRANCH   6   7
ATOM      7  C   UNL     1     -48.004 -48.694  70.694  1.00  0.00    -0.000 C 
BRANCH   7   8
ATOM      8  C   UNL     1     -48.727 -48.919  69.361  1.00  0.00    -0.003 C 
ATOM      9  C   UNL     1     -48.507 -47.747  68.409  1.00  0.00     0.004 C 
ENDBRANCH   7   8
ENDBRANCH   6   7
ENDBRANCH   1   6
TORSDOF 5
ENDMDL
