MODEL 1
REMARK VINA RESULT:    -4.049      0.000      0.000
REMARK INTER + INTRA:          -4.008
REMARK INTER:                  -4.996
REMARK INTRA:                   0.988
REMARK UNBOUND:                 0.988
REMARK SMILES C=C1[C@H]2CC[C@@H]3[C@H]2C(C)(C)CCC[C@]13C
REMARK SMILES IDX 14 1 6 2 7 3 3 4 2 5 1 6 4 7 5 8 15 9 8 10 9 11 10 12 11 13
REMARK SMILES IDX 13 15 12 16
REMARK H PARENT
REMARK Flexibility Score: 80.00
ROOT
ATOM      1  C   UNL     1     140.411 142.408 131.659  1.00  0.00    -0.008 C 
ATOM      2  C   UNL     1     138.838 142.429 131.776  1.00  0.00     0.003 C 
ATOM      3  C   UNL     1     138.557 143.067 133.154  1.00  0.00     0.006 C 
ATOM      4  C   UNL     1     139.431 144.286 132.888  1.00  0.00     0.019 C 
ATOM      5  C   UNL     1     140.725 143.651 132.463  1.00  0.00    -0.068 C 
ATOM      6  C   UNL     1     141.937 144.174 132.680  1.00  0.00     0.009 C 
ATOM      7  C   UNL     1     138.768 144.844 131.607  1.00  0.00     0.008 C 
ATOM      8  C   UNL     1     138.268 143.567 130.886  1.00  0.00     0.005 C 
ATOM      9  C   UNL     1     140.942 142.570 130.209  1.00  0.00     0.016 C 
ENDROOT
BRANCH   3  10
ATOM     10  C   UNL     1     138.782 142.248 134.481  1.00  0.00    -0.032 C 
ATOM     11  C   UNL     1     137.588 141.271 134.660  1.00  0.00     0.011 C 
ATOM     12  C   UNL     1     138.740 143.222 135.685  1.00  0.00     0.011 C 
BRANCH  10  13
ATOM     13  C   UNL     1     140.122 141.467 134.573  1.00  0.00     0.007 CG0
ATOM     14  G   UNL     1     140.360 140.481 133.429  1.00  0.00     0.000 G0
ENDBRANCH  10  13
ENDBRANCH   3  10
BRANCH   1  15
ATOM     15  C   UNL     1     141.068 141.124 132.245  1.00  0.00     0.011 C 
BRANCH  15  16
ATOM     16  C   UNL     1     140.376 140.473 133.441  1.00  0.00     0.001 CG0
ATOM     17  G   UNL     1     140.109 141.454 134.584  1.00  0.00     0.000 G0
ENDBRANCH  15  16
ENDBRANCH   1  15
TORSDOF 0
ENDMDL
MODEL 2
REMARK VINA RESULT:    -3.987      2.663      4.361
REMARK INTER + INTRA:          -3.931
REMARK INTER:                  -4.935
REMARK INTRA:                   1.004
REMARK UNBOUND:                 0.988
REMARK SMILES C=C1[C@H]2CC[C@@H]3[C@H]2C(C)(C)CCC[C@]13C
REMARK SMILES IDX 14 1 6 2 7 3 3 4 2 5 1 6 4 7 5 8 15 9 8 10 9 11 10 12 11 13
REMARK SMILES IDX 13 15 12 16
REMARK H PARENT
REMARK Flexibility Score: 80.00
ROOT
ATOM      1  C   UNL     1     139.997 143.490 134.707  1.00  0.00    -0.008 C 
ATOM      2  C   UNL     1     140.974 144.720 134.850  1.00  0.00     0.003 C 
ATOM      3  C   UNL     1     142.266 144.125 135.452  1.00  0.00     0.006 C 
ATOM      4  C   UNL     1     142.383 143.033 134.396  1.00  0.00     0.019 C 
ATOM      5  C   UNL     1     141.019 142.405 134.451  1.00  0.00    -0.068 C 
ATOM      6  C   UNL     1     140.764 141.114 134.204  1.00  0.00     0.009 C 
ATOM      7  C   UNL     1     142.428 143.883 133.104  1.00  0.00     0.008 C 
ATOM      8  C   UNL     1     141.537 145.101 133.453  1.00  0.00     0.005 C 
ATOM      9  C   UNL     1     139.022 143.592 133.503  1.00  0.00     0.016 C 
ENDROOT
BRANCH   3  10
ATOM     10  C   UNL     1     142.333 143.719 136.973  1.00  0.00    -0.032 C 
ATOM     11  C   UNL     1     142.489 145.013 137.817  1.00  0.00     0.011 C 
ATOM     12  C   UNL     1     143.612 142.878 137.212  1.00  0.00     0.011 C 
BRANCH  10  13
ATOM     13  C   UNL     1     141.133 142.885 137.502  1.00  0.00     0.007 CG0
ATOM     14  G   UNL     1     139.769 143.554 137.325  1.00  0.00     0.000 G0
ENDBRANCH  10  13
ENDBRANCH   3  10
BRANCH   1  15
ATOM     15  C   UNL     1     139.132 143.224 135.973  1.00  0.00     0.011 C 
BRANCH  15  16
ATOM     16  C   UNL     1     139.768 143.531 137.327  1.00  0.00     0.001 CG0
ATOM     17  G   UNL     1     141.145 142.888 137.500  1.00  0.00     0.000 G0
ENDBRANCH  15  16
ENDBRANCH   1  15
TORSDOF 0
ENDMDL
MODEL 3
REMARK VINA RESULT:    -3.963      2.166      3.865
REMARK INTER + INTRA:          -3.902
REMARK INTER:                  -4.924
REMARK INTRA:                   1.023
REMARK UNBOUND:                 0.988
REMARK SMILES C=C1[C@H]2CC[C@@H]3[C@H]2C(C)(C)CCC[C@]13C
REMARK SMILES IDX 14 1 6 2 7 3 3 4 2 5 1 6 4 7 5 8 15 9 8 10 9 11 10 12 11 13
REMARK SMILES IDX 13 15 12 16
REMARK H PARENT
REMARK Flexibility Score: 80.00
ROOT
ATOM      1  C   UNL     1     139.118 141.073 131.938  1.00  0.00    -0.008 C 
ATOM      2  C   UNL     1     139.619 139.654 131.463  1.00  0.00     0.003 C 
ATOM      3  C   UNL     1     139.437 138.742 132.696  1.00  0.00     0.006 C 
ATOM      4  C   UNL     1     137.979 139.131 132.904  1.00  0.00     0.019 C 
ATOM      5  C   UNL     1     138.061 140.632 132.927  1.00  0.00    -0.068 C 
ATOM      6  C   UNL     1     137.250 141.428 133.633  1.00  0.00     0.009 C 
ATOM      7  C   UNL     1     137.377 138.741 131.534  1.00  0.00     0.008 C 
ATOM      8  C   UNL     1     138.543 139.005 130.549  1.00  0.00     0.005 C 
ATOM      9  C   UNL     1     138.468 141.925 130.815  1.00  0.00     0.016 C 
ENDROOT
BRANCH   3  10
ATOM     10  C   UNL     1     140.428 138.834 133.918  1.00  0.00    -0.032 C 
ATOM     11  C   UNL     1     141.754 138.127 133.525  1.00  0.00     0.011 C 
ATOM     12  C   UNL     1     139.836 138.035 135.105  1.00  0.00     0.011 C 
BRANCH  10  13
ATOM     13  C   UNL     1     140.728 140.267 134.437  1.00  0.00     0.007 CG0
ATOM     14  G   UNL     1     141.322 141.210 133.388  1.00  0.00     0.000 G0
ENDBRANCH  10  13
ENDBRANCH   3  10
BRANCH   1  15
ATOM     15  C   UNL     1     140.231 141.946 132.588  1.00  0.00     0.011 C 
BRANCH  15  16
ATOM     16  C   UNL     1     141.307 141.218 133.390  1.00  0.00     0.001 CG0
ATOM     17  G   UNL     1     140.729 140.260 134.433  1.00  0.00     0.000 G0
ENDBRANCH  15  16
ENDBRANCH   1  15
TORSDOF 0
ENDMDL
MODEL 4
REMARK VINA RESULT:    -3.955      3.605      5.183
REMARK INTER + INTRA:          -3.891
REMARK INTER:                  -4.914
REMARK INTRA:                   1.023
REMARK UNBOUND:                 0.988
REMARK SMILES C=C1[C@H]2CC[C@@H]3[C@H]2C(C)(C)CCC[C@]13C
REMARK SMILES IDX 14 1 6 2 7 3 3 4 2 5 1 6 4 7 5 8 15 9 8 10 9 11 10 12 11 13
REMARK SMILES IDX 13 15 12 16
REMARK H PARENT
REMARK Flexibility Score: 80.00
ROOT
ATOM      1  C   UNL     1     142.231 138.760 134.598  1.00  0.00    -0.008 C 
ATOM      2  C   UNL     1     141.291 137.500 134.732  1.00  0.00     0.003 C 
ATOM      3  C   UNL     1     140.028 138.030 135.447  1.00  0.00     0.006 C 
ATOM      4  C   UNL     1     139.821 139.175 134.464  1.00  0.00     0.019 C 
ATOM      5  C   UNL     1     141.172 139.833 134.468  1.00  0.00    -0.068 C 
ATOM      6  C   UNL     1     141.384 141.141 134.280  1.00  0.00     0.009 C 
ATOM      7  C   UNL     1     139.711 138.398 133.132  1.00  0.00     0.008 C 
ATOM      8  C   UNL     1     140.648 137.184 133.354  1.00  0.00     0.005 C 
ATOM      9  C   UNL     1     143.128 138.749 133.331  1.00  0.00     0.016 C 
ENDROOT
BRANCH   3  10
ATOM     10  C   UNL     1     140.051 138.349 136.989  1.00  0.00    -0.032 C 
ATOM     11  C   UNL     1     139.992 137.007 137.767  1.00  0.00     0.011 C 
ATOM     12  C   UNL     1     138.764 139.130 137.359  1.00  0.00     0.011 C 
BRANCH  10  13
ATOM     13  C   UNL     1     141.255 139.195 137.486  1.00  0.00     0.007 CG0
ATOM     14  G   UNL     1     142.625 138.577 137.200  1.00  0.00     0.000 G0
ENDBRANCH  10  13
ENDBRANCH   3  10
BRANCH   1  15
ATOM     15  C   UNL     1     143.170 138.977 135.820  1.00  0.00     0.011 C 
BRANCH  15  16
ATOM     16  C   UNL     1     142.628 138.581 137.192  1.00  0.00     0.001 CG0
ATOM     17  G   UNL     1     141.260 139.197 137.494  1.00  0.00     0.000 G0
ENDBRANCH  15  16
ENDBRANCH   1  15
TORSDOF 0
ENDMDL
MODEL 5
REMARK VINA RESULT:    -3.942      2.954      5.373
REMARK INTER + INTRA:          -3.875
REMARK INTER:                  -4.897
REMARK INTRA:                   1.022
REMARK UNBOUND:                 0.988
REMARK SMILES C=C1[C@H]2CC[C@@H]3[C@H]2C(C)(C)CCC[C@]13C
REMARK SMILES IDX 14 1 6 2 7 3 3 4 2 5 1 6 4 7 5 8 15 9 8 10 9 11 10 12 11 13
REMARK SMILES IDX 13 15 12 16
REMARK H PARENT
REMARK Flexibility Score: 80.00
ROOT
ATOM      1  C   UNL     1     141.361 139.151 131.452  1.00  0.00    -0.008 C 
ATOM      2  C   UNL     1     142.817 139.534 130.980  1.00  0.00     0.003 C 
ATOM      3  C   UNL     1     143.668 139.499 132.270  1.00  0.00     0.006 C 
ATOM      4  C   UNL     1     143.214 138.098 132.660  1.00  0.00     0.019 C 
ATOM      5  C   UNL     1     141.718 138.230 132.598  1.00  0.00    -0.068 C 
ATOM      6  C   UNL     1     140.861 137.552 133.371  1.00  0.00     0.009 C 
ATOM      7  C   UNL     1     143.640 137.296 131.408  1.00  0.00     0.008 C 
ATOM      8  C   UNL     1     143.464 138.320 130.258  1.00  0.00     0.005 C 
ATOM      9  C   UNL     1     140.535 138.376 130.391  1.00  0.00     0.016 C 
ENDROOT
BRANCH   3  10
ATOM     10  C   UNL     1     143.560 140.655 133.335  1.00  0.00    -0.032 C 
ATOM     11  C   UNL     1     144.330 141.890 132.794  1.00  0.00     0.011 C 
ATOM     12  C   UNL     1     144.289 140.213 134.629  1.00  0.00     0.011 C 
BRANCH  10  13
ATOM     13  C   UNL     1     142.119 141.067 133.742  1.00  0.00     0.007 CG0
ATOM     14  G   UNL     1     141.237 141.521 132.577  1.00  0.00     0.000 G0
ENDBRANCH  10  13
ENDBRANCH   3  10
BRANCH   1  15
ATOM     15  C   UNL     1     140.504 140.372 131.897  1.00  0.00     0.011 C 
BRANCH  15  16
ATOM     16  C   UNL     1     141.236 141.521 132.587  1.00  0.00     0.001 CG0
ATOM     17  G   UNL     1     142.110 141.058 133.754  1.00  0.00     0.000 G0
ENDBRANCH  15  16
ENDBRANCH   1  15
TORSDOF 0
ENDMDL
MODEL 6
REMARK VINA RESULT:    -3.885      2.185      3.793
REMARK INTER + INTRA:          -3.806
REMARK INTER:                  -4.828
REMARK INTRA:                   1.022
REMARK UNBOUND:                 0.988
REMARK SMILES C=C1[C@H]2CC[C@@H]3[C@H]2C(C)(C)CCC[C@]13C
REMARK SMILES IDX 14 1 6 2 7 3 3 4 2 5 1 6 4 7 5 8 15 9 8 10 9 11 10 12 11 13
REMARK SMILES IDX 13 15 12 16
REMARK H PARENT
REMARK Flexibility Score: 80.00
ROOT
ATOM      1  C   UNL     1     143.011 141.023 132.322  1.00  0.00    -0.008 C 
ATOM      2  C   UNL     1     142.693 142.073 131.188  1.00  0.00     0.003 C 
ATOM      3  C   UNL     1     142.582 143.425 131.927  1.00  0.00     0.006 C 
ATOM      4  C   UNL     1     143.926 143.275 132.629  1.00  0.00     0.019 C 
ATOM      5  C   UNL     1     143.794 141.917 133.259  1.00  0.00    -0.068 C 
ATOM      6  C   UNL     1     144.373 141.551 134.409  1.00  0.00     0.009 C 
ATOM      7  C   UNL     1     144.870 143.110 131.415  1.00  0.00     0.008 C 
ATOM      8  C   UNL     1     143.986 142.370 130.380  1.00  0.00     0.005 C 
ATOM      9  C   UNL     1     143.900 139.838 131.858  1.00  0.00     0.016 C 
ENDROOT
BRANCH   3  10
ATOM     10  C   UNL     1     141.310 143.767 132.791  1.00  0.00    -0.032 C 
ATOM     11  C   UNL     1     140.150 144.136 131.827  1.00  0.00     0.011 C 
ATOM     12  C   UNL     1     141.603 145.033 133.635  1.00  0.00     0.011 C 
BRANCH  10  13
ATOM     13  C   UNL     1     140.845 142.660 133.777  1.00  0.00     0.007 CG0
ATOM     14  G   UNL     1     140.522 141.319 133.117  1.00  0.00     0.000 G0
ENDBRANCH  10  13
ENDBRANCH   3  10
BRANCH   1  15
ATOM     15  C   UNL     1     141.743 140.411 132.985  1.00  0.00     0.011 C 
BRANCH  15  16
ATOM     16  C   UNL     1     140.523 141.320 133.123  1.00  0.00     0.001 CG0
ATOM     17  G   UNL     1     140.851 142.665 133.774  1.00  0.00     0.000 G0
ENDBRANCH  15  16
ENDBRANCH   1  15
TORSDOF 0
ENDMDL
MODEL 7
REMARK VINA RESULT:    -3.874      2.288      3.366
REMARK INTER + INTRA:          -3.792
REMARK INTER:                  -4.814
REMARK INTRA:                   1.022
REMARK UNBOUND:                 0.988
REMARK SMILES C=C1[C@H]2CC[C@@H]3[C@H]2C(C)(C)CCC[C@]13C
REMARK SMILES IDX 14 1 6 2 7 3 3 4 2 5 1 6 4 7 5 8 15 9 8 10 9 11 10 12 11 13
REMARK SMILES IDX 13 15 12 16
REMARK H PARENT
REMARK Flexibility Score: 80.00
ROOT
ATOM      1  C   UNL     1     138.836 139.936 134.378  1.00  0.00    -0.008 C 
ATOM      2  C   UNL     1     137.577 140.876 134.522  1.00  0.00     0.003 C 
ATOM      3  C   UNL     1     138.112 142.139 135.233  1.00  0.00     0.006 C 
ATOM      4  C   UNL     1     139.251 142.347 134.243  1.00  0.00     0.019 C 
ATOM      5  C   UNL     1     139.908 140.995 134.243  1.00  0.00    -0.068 C 
ATOM      6  C   UNL     1     141.215 140.784 134.046  1.00  0.00     0.009 C 
ATOM      7  C   UNL     1     138.465 142.458 132.916  1.00  0.00     0.008 C 
ATOM      8  C   UNL     1     137.253 141.521 133.146  1.00  0.00     0.005 C 
ATOM      9  C   UNL     1     138.817 139.040 133.111  1.00  0.00     0.016 C 
ENDROOT
BRANCH   3  10
ATOM     10  C   UNL     1     138.441 142.116 136.774  1.00  0.00    -0.032 C 
ATOM     11  C   UNL     1     137.103 142.178 137.560  1.00  0.00     0.011 C 
ATOM     12  C   UNL     1     139.228 143.400 137.138  1.00  0.00     0.011 C 
BRANCH  10  13
ATOM     13  C   UNL     1     139.287 140.908 137.265  1.00  0.00     0.007 CG0
ATOM     14  G   UNL     1     138.668 139.540 136.973  1.00  0.00     0.000 G0
ENDBRANCH  10  13
ENDBRANCH   3  10
BRANCH   1  15
ATOM     15  C   UNL     1     139.061 138.997 135.599  1.00  0.00     0.011 C 
BRANCH  15  16
ATOM     16  C   UNL     1     138.674 139.539 136.974  1.00  0.00     0.001 CG0
ATOM     17  G   UNL     1     139.268 140.919 137.261  1.00  0.00     0.000 G0
ENDBRANCH  15  16
ENDBRANCH   1  15
TORSDOF 0
ENDMDL
MODEL 8
REMARK VINA RESULT:    -3.873      3.840      5.624
REMARK INTER + INTRA:          -3.790
REMARK INTER:                  -4.812
REMARK INTRA:                   1.022
REMARK UNBOUND:                 0.988
REMARK SMILES C=C1[C@H]2CC[C@@H]3[C@H]2C(C)(C)CCC[C@]13C
REMARK SMILES IDX 14 1 6 2 7 3 3 4 2 5 1 6 4 7 5 8 15 9 8 10 9 11 10 12 11 13
REMARK SMILES IDX 13 15 12 16
REMARK H PARENT
REMARK Flexibility Score: 80.00
ROOT
ATOM      1  C   UNL     1     143.582 142.235 134.581  1.00  0.00    -0.008 C 
ATOM      2  C   UNL     1     144.689 141.125 134.755  1.00  0.00     0.003 C 
ATOM      3  C   UNL     1     143.945 139.924 135.381  1.00  0.00     0.006 C 
ATOM      4  C   UNL     1     142.851 139.911 134.321  1.00  0.00     0.019 C 
ATOM      5  C   UNL     1     142.386 141.340 134.341  1.00  0.00    -0.068 C 
ATOM      6  C   UNL     1     141.135 141.738 134.080  1.00  0.00     0.009 C 
ATOM      7  C   UNL     1     143.694 139.737 133.037  1.00  0.00     0.008 C 
ATOM      8  C   UNL     1     145.007 140.489 133.373  1.00  0.00     0.005 C 
ATOM      9  C   UNL     1     143.801 143.162 133.356  1.00  0.00     0.016 C 
ENDROOT
BRANCH   3  10
ATOM     10  C   UNL     1     143.528 139.941 136.901  1.00  0.00    -0.032 C 
ATOM     11  C   UNL     1     144.795 139.669 137.757  1.00  0.00     0.011 C 
ATOM     12  C   UNL     1     142.555 138.766 137.166  1.00  0.00     0.011 C 
BRANCH  10  13
ATOM     13  C   UNL     1     142.825 141.236 137.394  1.00  0.00     0.007 CG0
ATOM     14  G   UNL     1     143.638 142.516 137.189  1.00  0.00     0.000 G0
ENDBRANCH  10  13
ENDBRANCH   3  10
BRANCH   1  15
ATOM     15  C   UNL     1     143.414 143.154 135.826  1.00  0.00     0.011 C 
BRANCH  15  16
ATOM     16  C   UNL     1     143.636 142.517 137.196  1.00  0.00     0.001 CG0
ATOM     17  G   UNL     1     142.825 141.236 137.398  1.00  0.00     0.000 G0
ENDBRANCH  15  16
ENDBRANCH   1  15
TORSDOF 0
ENDMDL
MODEL 9
REMARK VINA RESULT:    -3.833      1.885      4.006
REMARK INTER + INTRA:          -3.741
REMARK INTER:                  -4.752
REMARK INTRA:                   1.010
REMARK UNBOUND:                 0.988
REMARK SMILES C=C1[C@H]2CC[C@@H]3[C@H]2C(C)(C)CCC[C@]13C
REMARK SMILES IDX 14 1 6 2 7 3 3 4 2 5 1 6 4 7 5 8 15 9 8 10 9 11 10 12 11 13
REMARK SMILES IDX 13 15 12 16
REMARK H PARENT
REMARK Flexibility Score: 80.00
ROOT
ATOM      1  C   UNL     1     140.143 142.798 133.431  1.00  0.00    -0.008 C 
ATOM      2  C   UNL     1     141.463 142.745 134.293  1.00  0.00     0.003 C 
ATOM      3  C   UNL     1     142.517 143.485 133.439  1.00  0.00     0.006 C 
ATOM      4  C   UNL     1     141.649 144.721 133.243  1.00  0.00     0.019 C 
ATOM      5  C   UNL     1     140.370 144.120 132.732  1.00  0.00    -0.068 C 
ATOM      6  C   UNL     1     139.532 144.724 131.880  1.00  0.00     0.009 C 
ATOM      7  C   UNL     1     141.391 145.129 134.713  1.00  0.00     0.008 C 
ATOM      8  C   UNL     1     141.365 143.770 135.456  1.00  0.00     0.005 C 
ATOM      9  C   UNL     1     138.840 142.862 134.272  1.00  0.00     0.016 C 
ENDROOT
BRANCH   3  10
ATOM     10  C   UNL     1     143.153 142.796 132.172  1.00  0.00    -0.032 C 
ATOM     11  C   UNL     1     144.204 141.760 132.655  1.00  0.00     0.011 C 
ATOM     12  C   UNL     1     143.926 143.863 131.357  1.00  0.00     0.011 C 
BRANCH  10  13
ATOM     13  C   UNL     1     142.151 142.117 131.199  1.00  0.00     0.007 CG0
ATOM     14  G   UNL     1     141.279 141.035 131.839  1.00  0.00     0.000 G0
ENDBRANCH  10  13
ENDBRANCH   3  10
BRANCH   1  15
ATOM     15  C   UNL     1     139.991 141.606 132.442  1.00  0.00     0.011 C 
BRANCH  15  16
ATOM     16  C   UNL     1     141.271 141.042 131.829  1.00  0.00     0.001 CG0
ATOM     17  G   UNL     1     142.150 142.117 131.186  1.00  0.00     0.000 G0
ENDBRANCH  15  16
ENDBRANCH   1  15
TORSDOF 0
ENDMDL
