MODEL 1
REMARK VINA RESULT:    -4.777      0.000      0.000
REMARK INTER + INTRA:          -7.379
REMARK INTER:                  -6.732
REMARK INTRA:                  -0.647
REMARK UNBOUND:                -0.647
REMARK SMILES CCCCCCCCC(=O)[O-]
REMARK SMILES IDX 6 1 7 2 8 3 9 4 10 5 11 6 5 7 4 8 3 9 2 10 1 11
REMARK H PARENT
REMARK Flexibility Score: inf
ROOT
ATOM      1  C   UNL     1       9.893 -13.182  38.109  1.00  0.00     0.000 C 
ENDROOT
BRANCH   1   2
ATOM      2  C   UNL     1      10.224 -14.673  37.919  1.00  0.00     0.006 C 
BRANCH   2   3
ATOM      3  C   UNL     1      10.992 -14.934  36.617  1.00  0.00     0.053 C 
BRANCH   3   4
ATOM      4  C   UNL     1      12.215 -14.075  36.516  1.00  0.00     0.041 C 
ATOM      5  O   UNL     1      12.319 -13.226  35.591  1.00  0.00    -0.550 OA
ATOM      6  O   UNL     1      13.252 -14.232  37.426  1.00  0.00    -0.550 OA
ENDBRANCH   3   4
ENDBRANCH   2   3
ENDBRANCH   1   2
BRANCH   1   7
ATOM      7  C   UNL     1       8.397 -12.950  38.410  1.00  0.00     0.000 C 
BRANCH   7   8
ATOM      8  C   UNL     1       7.450 -13.638  37.409  1.00  0.00    -0.000 C 
BRANCH   8   9
ATOM      9  C   UNL     1       7.230 -12.872  36.094  1.00  0.00    -0.000 C 
BRANCH   9  10
ATOM     10  C   UNL     1       8.000 -13.484  34.914  1.00  0.00    -0.003 C 
ATOM     11  C   UNL     1       8.503 -12.399  33.967  1.00  0.00     0.004 C 
ENDBRANCH   9  10
ENDBRANCH   8   9
ENDBRANCH   7   8
ENDBRANCH   1   7
TORSDOF 7
ENDMDL
MODEL 2
REMARK VINA RESULT:    -4.713      3.121      4.992
REMARK INTER + INTRA:          -7.288
REMARK INTER:                  -6.597
REMARK INTRA:                  -0.692
REMARK UNBOUND:                -0.647
REMARK SMILES CCCCCCCCC(=O)[O-]
REMARK SMILES IDX 6 1 7 2 8 3 9 4 10 5 11 6 5 7 4 8 3 9 2 10 1 11
REMARK H PARENT
REMARK Flexibility Score: inf
ROOT
ATOM      1  C   UNL     1      12.492 -12.186  35.382  1.00  0.00     0.000 C 
ENDROOT
BRANCH   1   2
ATOM      2  C   UNL     1      13.307 -13.394  35.879  1.00  0.00     0.006 C 
BRANCH   2   3
ATOM      3  C   UNL     1      12.848 -13.872  37.263  1.00  0.00     0.053 C 
BRANCH   3   4
ATOM      4  C   UNL     1      11.404 -14.270  37.257  1.00  0.00     0.041 C 
ATOM      5  O   UNL     1      10.571 -13.650  37.971  1.00  0.00    -0.550 OA
ATOM      6  O   UNL     1      10.983 -15.346  36.486  1.00  0.00    -0.550 OA
ENDBRANCH   3   4
ENDBRANCH   2   3
ENDBRANCH   1   2
BRANCH   1   7
ATOM      7  C   UNL     1      13.338 -10.897  35.320  1.00  0.00     0.000 C 
BRANCH   7   8
ATOM      8  C   UNL     1      13.556 -10.233  36.693  1.00  0.00    -0.000 C 
BRANCH   8   9
ATOM      9  C   UNL     1      12.288  -9.644  37.335  1.00  0.00    -0.000 C 
BRANCH   9  10
ATOM     10  C   UNL     1      11.912 -10.340  38.652  1.00  0.00    -0.003 C 
ATOM     11  C   UNL     1      13.102 -10.385  39.606  1.00  0.00     0.004 C 
ENDBRANCH   9  10
ENDBRANCH   8   9
ENDBRANCH   7   8
ENDBRANCH   1   7
TORSDOF 7
ENDMDL
MODEL 3
REMARK VINA RESULT:    -4.686      1.035      1.521
REMARK INTER + INTRA:          -7.251
REMARK INTER:                  -6.710
REMARK INTRA:                  -0.541
REMARK UNBOUND:                -0.647
REMARK SMILES CCCCCCCCC(=O)[O-]
REMARK SMILES IDX 6 1 7 2 8 3 9 4 10 5 11 6 5 7 4 8 3 9 2 10 1 11
REMARK H PARENT
REMARK Flexibility Score: inf
ROOT
ATOM      1  C   UNL     1      10.240 -14.878  38.046  1.00  0.00     0.000 C 
ENDROOT
BRANCH   1   2
ATOM      2  C   UNL     1      11.227 -15.019  36.874  1.00  0.00     0.006 C 
BRANCH   2   3
ATOM      3  C   UNL     1      12.399 -14.035  36.982  1.00  0.00     0.053 C 
BRANCH   3   4
ATOM      4  C   UNL     1      12.544 -13.211  35.739  1.00  0.00     0.041 C 
ATOM      5  O   UNL     1      13.620 -13.233  35.085  1.00  0.00    -0.550 OA
ATOM      6  O   UNL     1      11.501 -12.396  35.320  1.00  0.00    -0.550 OA
ENDBRANCH   3   4
ENDBRANCH   2   3
ENDBRANCH   1   2
BRANCH   1   7
ATOM      7  C   UNL     1       9.389 -13.594  37.942  1.00  0.00     0.000 C 
BRANCH   7   8
ATOM      8  C   UNL     1       7.876 -13.861  37.831  1.00  0.00    -0.000 C 
BRANCH   8   9
ATOM      9  C   UNL     1       7.239 -13.424  36.502  1.00  0.00    -0.000 C 
BRANCH   9  10
ATOM     10  C   UNL     1       8.153 -13.681  35.293  1.00  0.00    -0.003 C 
ATOM     11  C   UNL     1       8.034 -12.557  34.269  1.00  0.00     0.004 C 
ENDBRANCH   9  10
ENDBRANCH   8   9
ENDBRANCH   7   8
ENDBRANCH   1   7
TORSDOF 7
ENDMDL
MODEL 4
REMARK VINA RESULT:    -4.624      2.765      4.580
REMARK INTER + INTRA:          -7.164
REMARK INTER:                  -6.519
REMARK INTRA:                  -0.645
REMARK UNBOUND:                -0.647
REMARK SMILES CCCCCCCCC(=O)[O-]
REMARK SMILES IDX 6 1 7 2 8 3 9 4 10 5 11 6 5 7 4 8 3 9 2 10 1 11
REMARK H PARENT
REMARK Flexibility Score: inf
ROOT
ATOM      1  C   UNL     1      11.684 -14.017  36.251  1.00  0.00     0.000 C 
ENDROOT
BRANCH   1   2
ATOM      2  C   UNL     1      10.758 -15.091  36.850  1.00  0.00     0.006 C 
BRANCH   2   3
ATOM      3  C   UNL     1      10.068 -14.610  38.133  1.00  0.00     0.053 C 
BRANCH   3   4
ATOM      4  C   UNL     1       9.187 -13.426  37.874  1.00  0.00     0.041 C 
ATOM      5  O   UNL     1       9.431 -12.320  38.428  1.00  0.00    -0.550 OA
ATOM      6  O   UNL     1       8.079 -13.550  37.046  1.00  0.00    -0.550 OA
ENDBRANCH   3   4
ENDBRANCH   2   3
ENDBRANCH   1   2
BRANCH   1   7
ATOM      7  C   UNL     1      12.879 -13.696  37.174  1.00  0.00     0.000 C 
BRANCH   7   8
ATOM      8  C   UNL     1      12.952 -12.217  37.600  1.00  0.00    -0.000 C 
BRANCH   8   9
ATOM      9  C   UNL     1      12.552 -11.210  36.510  1.00  0.00    -0.000 C 
BRANCH   9  10
ATOM     10  C   UNL     1      13.766 -10.529  35.858  1.00  0.00    -0.003 C 
ATOM     11  C   UNL     1      14.173 -11.248  34.575  1.00  0.00     0.004 C 
ENDBRANCH   9  10
ENDBRANCH   8   9
ENDBRANCH   7   8
ENDBRANCH   1   7
TORSDOF 7
ENDMDL
MODEL 5
REMARK VINA RESULT:    -4.589      3.382      5.078
REMARK INTER + INTRA:          -7.114
REMARK INTER:                  -6.477
REMARK INTRA:                  -0.637
REMARK UNBOUND:                -0.647
REMARK SMILES CCCCCCCCC(=O)[O-]
REMARK SMILES IDX 6 1 7 2 8 3 9 4 10 5 11 6 5 7 4 8 3 9 2 10 1 11
REMARK H PARENT
REMARK Flexibility Score: inf
ROOT
ATOM      1  C   UNL     1      12.261 -10.756  35.342  1.00  0.00     0.000 C 
ENDROOT
BRANCH   1   2
ATOM      2  C   UNL     1      12.115  -9.846  36.575  1.00  0.00     0.006 C 
BRANCH   2   3
ATOM      3  C   UNL     1      13.187 -10.132  37.636  1.00  0.00     0.053 C 
BRANCH   3   4
ATOM      4  C   UNL     1      12.576 -10.428  38.971  1.00  0.00     0.041 C 
ATOM      5  O   UNL     1      11.357 -10.737  39.057  1.00  0.00    -0.550 OA
ATOM      6  O   UNL     1      13.345 -10.335  40.124  1.00  0.00    -0.550 OA
ENDBRANCH   3   4
ENDBRANCH   2   3
ENDBRANCH   1   2
BRANCH   1   7
ATOM      7  C   UNL     1      13.510 -11.658  35.426  1.00  0.00     0.000 C 
BRANCH   7   8
ATOM      8  C   UNL     1      13.186 -13.163  35.478  1.00  0.00    -0.000 C 
BRANCH   8   9
ATOM      9  C   UNL     1      12.912 -13.717  36.886  1.00  0.00    -0.000 C 
BRANCH   9  10
ATOM     10  C   UNL     1      11.415 -13.937  37.156  1.00  0.00    -0.003 C 
ATOM     11  C   UNL     1      10.965 -15.307  36.659  1.00  0.00     0.004 C 
ENDBRANCH   9  10
ENDBRANCH   8   9
ENDBRANCH   7   8
ENDBRANCH   1   7
TORSDOF 7
ENDMDL
MODEL 6
REMARK VINA RESULT:    -4.554      3.025      4.898
REMARK INTER + INTRA:          -7.065
REMARK INTER:                  -6.404
REMARK INTRA:                  -0.661
REMARK UNBOUND:                -0.647
REMARK SMILES CCCCCCCCC(=O)[O-]
REMARK SMILES IDX 6 1 7 2 8 3 9 4 10 5 11 6 5 7 4 8 3 9 2 10 1 11
REMARK H PARENT
REMARK Flexibility Score: inf
ROOT
ATOM      1  C   UNL     1      13.246 -13.435  36.094  1.00  0.00     0.000 C 
ENDROOT
BRANCH   1   2
ATOM      2  C   UNL     1      12.608 -14.099  37.329  1.00  0.00     0.006 C 
BRANCH   2   3
ATOM      3  C   UNL     1      11.207 -14.648  37.032  1.00  0.00     0.053 C 
BRANCH   3   4
ATOM      4  C   UNL     1      10.200 -14.156  38.025  1.00  0.00     0.041 C 
ATOM      5  O   UNL     1      10.087 -12.923  38.257  1.00  0.00    -0.550 OA
ATOM      6  O   UNL     1       9.405 -15.061  38.716  1.00  0.00    -0.550 OA
ENDBRANCH   3   4
ENDBRANCH   2   3
ENDBRANCH   1   2
BRANCH   1   7
ATOM      7  C   UNL     1      12.444 -12.209  35.611  1.00  0.00     0.000 C 
BRANCH   7   8
ATOM      8  C   UNL     1      13.315 -10.969  35.332  1.00  0.00    -0.000 C 
BRANCH   8   9
ATOM      9  C   UNL     1      13.640 -10.116  36.570  1.00  0.00    -0.000 C 
BRANCH   9  10
ATOM     10  C   UNL     1      12.462 -10.023  37.552  1.00  0.00    -0.003 C 
ATOM     11  C   UNL     1      12.884 -10.456  38.953  1.00  0.00     0.004 C 
ENDBRANCH   9  10
ENDBRANCH   8   9
ENDBRANCH   7   8
ENDBRANCH   1   7
TORSDOF 7
ENDMDL
MODEL 7
REMARK VINA RESULT:    -4.522      2.664      4.628
REMARK INTER + INTRA:          -7.020
REMARK INTER:                  -6.535
REMARK INTRA:                  -0.485
REMARK UNBOUND:                -0.647
REMARK SMILES CCCCCCCCC(=O)[O-]
REMARK SMILES IDX 6 1 7 2 8 3 9 4 10 5 11 6 5 7 4 8 3 9 2 10 1 11
REMARK H PARENT
REMARK Flexibility Score: inf
ROOT
ATOM      1  C   UNL     1      11.052 -15.186  36.632  1.00  0.00     0.000 C 
ENDROOT
BRANCH   1   2
ATOM      2  C   UNL     1       9.816 -14.284  36.466  1.00  0.00     0.006 C 
BRANCH   2   3
ATOM      3  C   UNL     1       9.222 -13.861  37.816  1.00  0.00     0.053 C 
BRANCH   3   4
ATOM      4  C   UNL     1       9.158 -12.370  37.947  1.00  0.00     0.041 C 
ATOM      5  O   UNL     1      10.050 -11.749  38.585  1.00  0.00    -0.550 OA
ATOM      6  O   UNL     1       8.097 -11.668  37.390  1.00  0.00    -0.550 OA
ENDBRANCH   3   4
ENDBRANCH   2   3
ENDBRANCH   1   2
BRANCH   1   7
ATOM      7  C   UNL     1      12.309 -14.386  37.036  1.00  0.00     0.000 C 
BRANCH   7   8
ATOM      8  C   UNL     1      12.574 -13.157  36.146  1.00  0.00    -0.000 C 
BRANCH   8   9
ATOM      9  C   UNL     1      13.050 -11.904  36.900  1.00  0.00    -0.000 C 
BRANCH   9  10
ATOM     10  C   UNL     1      13.554 -10.801  35.957  1.00  0.00    -0.003 C 
ATOM     11  C   UNL     1      14.218 -11.399  34.721  1.00  0.00     0.004 C 
ENDBRANCH   9  10
ENDBRANCH   8   9
ENDBRANCH   7   8
ENDBRANCH   1   7
TORSDOF 7
ENDMDL
MODEL 8
REMARK VINA RESULT:    -4.497      3.072      5.046
REMARK INTER + INTRA:          -6.984
REMARK INTER:                  -6.480
REMARK INTRA:                  -0.504
REMARK UNBOUND:                -0.647
REMARK SMILES CCCCCCCCC(=O)[O-]
REMARK SMILES IDX 6 1 7 2 8 3 9 4 10 5 11 6 5 7 4 8 3 9 2 10 1 11
REMARK H PARENT
REMARK Flexibility Score: inf
ROOT
ATOM      1  C   UNL     1      11.199 -14.707  36.820  1.00  0.00     0.000 C 
ENDROOT
BRANCH   1   2
ATOM      2  C   UNL     1      10.263 -14.661  38.041  1.00  0.00     0.006 C 
BRANCH   2   3
ATOM      3  C   UNL     1       9.366 -13.416  38.037  1.00  0.00     0.053 C 
BRANCH   3   4
ATOM      4  C   UNL     1       7.918 -13.780  37.914  1.00  0.00     0.041 C 
ATOM      5  O   UNL     1       7.323 -14.347  38.869  1.00  0.00    -0.550 OA
ATOM      6  O   UNL     1       7.234 -13.520  36.734  1.00  0.00    -0.550 OA
ENDBRANCH   3   4
ENDBRANCH   2   3
ENDBRANCH   1   2
BRANCH   1   7
ATOM      7  C   UNL     1      12.533 -13.975  37.078  1.00  0.00     0.000 C 
BRANCH   7   8
ATOM      8  C   UNL     1      12.719 -12.707  36.222  1.00  0.00    -0.000 C 
BRANCH   8   9
ATOM      9  C   UNL     1      13.214 -11.474  36.995  1.00  0.00    -0.000 C 
BRANCH   9  10
ATOM     10  C   UNL     1      12.176 -10.944  37.996  1.00  0.00    -0.003 C 
ATOM     11  C   UNL     1      12.852 -10.420  39.259  1.00  0.00     0.004 C 
ENDBRANCH   9  10
ENDBRANCH   8   9
ENDBRANCH   7   8
ENDBRANCH   1   7
TORSDOF 7
ENDMDL
MODEL 9
REMARK VINA RESULT:    -4.490      2.153      3.531
REMARK INTER + INTRA:          -6.975
REMARK INTER:                  -6.609
REMARK INTRA:                  -0.366
REMARK UNBOUND:                -0.647
REMARK SMILES CCCCCCCCC(=O)[O-]
REMARK SMILES IDX 6 1 7 2 8 3 9 4 10 5 11 6 5 7 4 8 3 9 2 10 1 11
REMARK H PARENT
REMARK Flexibility Score: inf
ROOT
ATOM      1  C   UNL     1      12.728 -14.130  37.280  1.00  0.00     0.000 C 
ENDROOT
BRANCH   1   2
ATOM      2  C   UNL     1      12.579 -12.608  37.102  1.00  0.00     0.006 C 
BRANCH   2   3
ATOM      3  C   UNL     1      12.701 -12.182  35.633  1.00  0.00     0.053 C 
BRANCH   3   4
ATOM      4  C   UNL     1      13.599 -10.994  35.476  1.00  0.00     0.041 C 
ATOM      5  O   UNL     1      13.577 -10.064  36.325  1.00  0.00    -0.550 OA
ATOM      6  O   UNL     1      14.440 -10.900  34.374  1.00  0.00    -0.550 OA
ENDBRANCH   3   4
ENDBRANCH   2   3
ENDBRANCH   1   2
BRANCH   1   7
ATOM      7  C   UNL     1      11.413 -14.883  36.987  1.00  0.00     0.000 C 
BRANCH   7   8
ATOM      8  C   UNL     1      10.170 -14.229  37.617  1.00  0.00    -0.000 C 
BRANCH   8   9
ATOM      9  C   UNL     1       9.079 -13.815  36.616  1.00  0.00    -0.000 C 
BRANCH   9  10
ATOM     10  C   UNL     1       7.700 -13.651  37.274  1.00  0.00    -0.003 C 
ATOM     11  C   UNL     1       7.696 -14.227  38.686  1.00  0.00     0.004 C 
ENDBRANCH   9  10
ENDBRANCH   8   9
ENDBRANCH   7   8
ENDBRANCH   1   7
TORSDOF 7
ENDMDL
