MODEL 1
REMARK VINA RESULT:    -5.949      0.000      0.000
REMARK INTER + INTRA:          -6.471
REMARK INTER:                  -6.471
REMARK INTRA:                   0.000
REMARK UNBOUND:                 0.000
REMARK SMILES Cc1cc(O)c2c(c1)C(=O)c1cc(O)cc(O)c1C2=O
REMARK SMILES IDX 1 1 2 2 8 3 7 4 6 5 4 6 3 7 19 8 20 9 18 10 11 11 9 12 10 13
REMARK SMILES IDX 12 14 13 15 15 16 16 17 5 18 17 20 14 22
REMARK H PARENT 5 19 17 21 14 23
REMARK Flexibility Score: inf
ROOT
ATOM      1  C   UNL     1      35.407 -61.622  -9.582  1.00  0.00     0.044 C 
ATOM      2  C   UNL     1      34.417 -62.364  -8.731  1.00  0.00    -0.047 A 
ATOM      3  C   UNL     1      34.666 -63.688  -8.353  1.00  0.00     0.016 A 
ATOM      4  C   UNL     1      33.730 -64.404  -7.585  1.00  0.00     0.038 A 
ATOM      5  C   UNL     1      32.518 -63.789  -7.201  1.00  0.00     0.076 A 
ATOM      6  C   UNL     1      32.263 -62.457  -7.605  1.00  0.00     0.127 A 
ATOM      7  C   UNL     1      33.210 -61.761  -8.369  1.00  0.00     0.050 A 
ATOM      8  C   UNL     1      31.535 -64.559  -6.387  1.00  0.00     0.201 C 
ATOM      9  O   UNL     1      30.454 -64.014  -6.034  1.00  0.00    -0.288 OA
ATOM     10  C   UNL     1      31.820 -65.965  -5.984  1.00  0.00     0.076 A 
ATOM     11  C   UNL     1      33.036 -66.565  -6.378  1.00  0.00     0.041 A 
ATOM     12  C   UNL     1      34.016 -65.801  -7.185  1.00  0.00     0.194 C 
ATOM     13  O   UNL     1      35.101 -66.344  -7.532  1.00  0.00    -0.289 OA
ATOM     14  C   UNL     1      33.316 -67.891  -6.004  1.00  0.00     0.059 A 
ATOM     15  C   UNL     1      32.404 -68.623  -5.245  1.00  0.00     0.120 A 
ATOM     16  C   UNL     1      31.199 -68.037  -4.851  1.00  0.00     0.093 A 
ATOM     17  C   UNL     1      30.899 -66.717  -5.213  1.00  0.00     0.131 A 
ENDROOT
BRANCH   6  18
ATOM     18  O   UNL     1      31.073 -61.818  -7.256  1.00  0.00    -0.507 OA
ATOM     19  H   UNL     1      31.067 -60.935  -6.757  1.00  0.00     0.293 HD
ENDBRANCH   6  18
BRANCH  17  20
ATOM     20  O   UNL     1      29.687 -66.161  -4.803  1.00  0.00    -0.507 OA
ATOM     21  H   UNL     1      29.307 -65.328  -5.238  1.00  0.00     0.293 HD
ENDBRANCH  17  20
BRANCH  15  22
ATOM     22  O   UNL     1      32.705 -69.935  -4.887  1.00  0.00    -0.508 OA
ATOM     23  H   UNL     1      32.627 -70.254  -3.928  1.00  0.00     0.293 HD
ENDBRANCH  15  22
TORSDOF 3
ENDMDL
MODEL 2
REMARK VINA RESULT:    -5.937     10.393     13.153
REMARK INTER + INTRA:          -6.457
REMARK INTER:                  -6.457
REMARK INTRA:                   0.000
REMARK UNBOUND:                 0.000
REMARK SMILES Cc1cc(O)c2c(c1)C(=O)c1cc(O)cc(O)c1C2=O
REMARK SMILES IDX 1 1 2 2 8 3 7 4 6 5 4 6 3 7 19 8 20 9 18 10 11 11 9 12 10 13
REMARK SMILES IDX 12 14 13 15 15 16 16 17 5 18 17 20 14 22
REMARK H PARENT 5 19 17 21 14 23
REMARK Flexibility Score: inf
ROOT
ATOM      1  C   UNL     1      31.201 -58.924 -13.757  1.00  0.00     0.044 C 
ATOM      2  C   UNL     1      31.073 -57.554 -13.156  1.00  0.00    -0.047 A 
ATOM      3  C   UNL     1      29.839 -57.114 -12.662  1.00  0.00     0.016 A 
ATOM      4  C   UNL     1      29.699 -55.820 -12.129  1.00  0.00     0.038 A 
ATOM      5  C   UNL     1      30.808 -54.946 -12.103  1.00  0.00     0.076 A 
ATOM      6  C   UNL     1      32.047 -55.390 -12.624  1.00  0.00     0.127 A 
ATOM      7  C   UNL     1      32.166 -56.683 -13.149  1.00  0.00     0.050 A 
ATOM      8  C   UNL     1      30.646 -53.578 -11.534  1.00  0.00     0.201 C 
ATOM      9  O   UNL     1      31.634 -52.795 -11.500  1.00  0.00    -0.288 OA
ATOM     10  C   UNL     1      29.329 -53.129 -11.003  1.00  0.00     0.076 A 
ATOM     11  C   UNL     1      28.229 -54.015 -11.039  1.00  0.00     0.041 A 
ATOM     12  C   UNL     1      28.389 -55.376 -11.601  1.00  0.00     0.194 C 
ATOM     13  O   UNL     1      27.402 -56.162 -11.628  1.00  0.00    -0.289 OA
ATOM     14  C   UNL     1      26.981 -53.602 -10.541  1.00  0.00     0.059 A 
ATOM     15  C   UNL     1      26.815 -52.324 -10.009  1.00  0.00     0.120 A 
ATOM     16  C   UNL     1      27.897 -51.442  -9.970  1.00  0.00     0.093 A 
ATOM     17  C   UNL     1      29.151 -51.831 -10.461  1.00  0.00     0.131 A 
ENDROOT
BRANCH   6  18
ATOM     18  O   UNL     1      33.164 -54.553 -12.626  1.00  0.00    -0.507 OA
ATOM     19  H   UNL     1      33.949 -54.711 -13.248  1.00  0.00     0.293 HD
ENDBRANCH   6  18
BRANCH  17  20
ATOM     20  O   UNL     1      30.210 -50.926 -10.407  1.00  0.00    -0.507 OA
ATOM     21  H   UNL     1      30.720 -50.649 -11.238  1.00  0.00     0.293 HD
ENDBRANCH  17  20
BRANCH  15  22
ATOM     22  O   UNL     1      25.568 -51.939  -9.522  1.00  0.00    -0.508 OA
ATOM     23  H   UNL     1      25.433 -51.691  -8.549  1.00  0.00     0.293 HD
ENDBRANCH  15  22
TORSDOF 3
ENDMDL
MODEL 3
REMARK VINA RESULT:    -5.929      1.162      5.482
REMARK INTER + INTRA:          -6.449
REMARK INTER:                  -6.449
REMARK INTRA:                   0.000
REMARK UNBOUND:                 0.000
REMARK SMILES Cc1cc(O)c2c(c1)C(=O)c1cc(O)cc(O)c1C2=O
REMARK SMILES IDX 1 1 2 2 8 3 7 4 6 5 4 6 3 7 19 8 20 9 18 10 11 11 9 12 10 13
REMARK SMILES IDX 12 14 13 15 15 16 16 17 5 18 17 20 14 22
REMARK H PARENT 5 19 17 21 14 23
REMARK Flexibility Score: inf
ROOT
ATOM      1  C   UNL     1      32.600 -70.069  -4.940  1.00  0.00     0.044 C 
ATOM      2  C   UNL     1      32.312 -68.656  -5.357  1.00  0.00    -0.047 A 
ATOM      3  C   UNL     1      33.250 -67.938  -6.108  1.00  0.00     0.016 A 
ATOM      4  C   UNL     1      33.006 -66.602  -6.475  1.00  0.00     0.038 A 
ATOM      5  C   UNL     1      31.808 -65.970  -6.072  1.00  0.00     0.076 A 
ATOM      6  C   UNL     1      30.874 -66.696  -5.295  1.00  0.00     0.127 A 
ATOM      7  C   UNL     1      31.136 -68.026  -4.940  1.00  0.00     0.050 A 
ATOM      8  C   UNL     1      31.562 -64.555  -6.469  1.00  0.00     0.201 C 
ATOM      9  O   UNL     1      30.492 -63.986  -6.119  1.00  0.00    -0.288 OA
ATOM     10  C   UNL     1      32.566 -63.808  -7.277  1.00  0.00     0.076 A 
ATOM     11  C   UNL     1      33.758 -64.455  -7.669  1.00  0.00     0.041 A 
ATOM     12  C   UNL     1      34.005 -65.862  -7.279  1.00  0.00     0.194 C 
ATOM     13  O   UNL     1      35.072 -66.433  -7.635  1.00  0.00    -0.289 OA
ATOM     14  C   UNL     1      34.714 -63.759  -8.432  1.00  0.00     0.059 A 
ATOM     15  C   UNL     1      34.496 -62.434  -8.806  1.00  0.00     0.120 A 
ATOM     16  C   UNL     1      33.320 -61.788  -8.422  1.00  0.00     0.093 A 
ATOM     17  C   UNL     1      32.354 -62.460  -7.662  1.00  0.00     0.131 A 
ENDROOT
BRANCH   6  18
ATOM     18  O   UNL     1      29.685 -66.103  -4.868  1.00  0.00    -0.507 OA
ATOM     19  H   UNL     1      28.978 -65.792  -5.523  1.00  0.00     0.293 HD
ENDBRANCH   6  18
BRANCH  17  20
ATOM     20  O   UNL     1      31.190 -61.785  -7.295  1.00  0.00    -0.507 OA
ATOM     21  H   UNL     1      31.087 -60.785  -7.427  1.00  0.00     0.293 HD
ENDBRANCH  17  20
BRANCH  15  22
ATOM     22  O   UNL     1      35.458 -61.767  -9.562  1.00  0.00    -0.508 OA
ATOM     23  H   UNL     1      36.190 -62.270 -10.049  1.00  0.00     0.293 HD
ENDBRANCH  15  22
TORSDOF 3
ENDMDL
MODEL 4
REMARK VINA RESULT:    -5.779     14.667     15.795
REMARK INTER + INTRA:          -6.286
REMARK INTER:                  -6.286
REMARK INTRA:                   0.000
REMARK UNBOUND:                 0.000
REMARK SMILES Cc1cc(O)c2c(c1)C(=O)c1cc(O)cc(O)c1C2=O
REMARK SMILES IDX 1 1 2 2 8 3 7 4 6 5 4 6 3 7 19 8 20 9 18 10 11 11 9 12 10 13
REMARK SMILES IDX 12 14 13 15 15 16 16 17 5 18 17 20 14 22
REMARK H PARENT 5 19 17 21 14 23
REMARK Flexibility Score: inf
ROOT
ATOM      1  C   UNL     1      28.047 -51.064  -6.116  1.00  0.00     0.044 C 
ATOM      2  C   UNL     1      28.317 -51.067  -7.593  1.00  0.00    -0.047 A 
ATOM      3  C   UNL     1      29.632 -51.073  -8.069  1.00  0.00     0.016 A 
ATOM      4  C   UNL     1      29.898 -51.041  -9.450  1.00  0.00     0.038 A 
ATOM      5  C   UNL     1      28.827 -50.986 -10.370  1.00  0.00     0.076 A 
ATOM      6  C   UNL     1      27.499 -50.958  -9.880  1.00  0.00     0.127 A 
ATOM      7  C   UNL     1      27.257 -50.993  -8.501  1.00  0.00     0.050 A 
ATOM      8  C   UNL     1      29.121 -50.953 -11.831  1.00  0.00     0.201 C 
ATOM      9  O   UNL     1      28.171 -50.912 -12.658  1.00  0.00    -0.288 OA
ATOM     10  C   UNL     1      30.528 -50.971 -12.321  1.00  0.00     0.076 A 
ATOM     11  C   UNL     1      31.586 -51.023 -11.387  1.00  0.00     0.041 A 
ATOM     12  C   UNL     1      31.296 -51.059  -9.935  1.00  0.00     0.194 C 
ATOM     13  O   UNL     1      32.247 -51.107  -9.107  1.00  0.00    -0.289 OA
ATOM     14  C   UNL     1      32.918 -51.039 -11.839  1.00  0.00     0.059 A 
ATOM     15  C   UNL     1      33.206 -51.006 -13.202  1.00  0.00     0.120 A 
ATOM     16  C   UNL     1      32.166 -50.954 -14.131  1.00  0.00     0.093 A 
ATOM     17  C   UNL     1      30.831 -50.936 -13.705  1.00  0.00     0.131 A 
ENDROOT
BRANCH   6  18
ATOM     18  O   UNL     1      26.415 -50.894 -10.756  1.00  0.00    -0.507 OA
ATOM     19  H   UNL     1      25.478 -51.154 -10.468  1.00  0.00     0.293 HD
ENDBRANCH   6  18
BRANCH  17  20
ATOM     20  O   UNL     1      29.816 -50.885 -14.660  1.00  0.00    -0.507 OA
ATOM     21  H   UNL     1      28.836 -50.909 -14.400  1.00  0.00     0.293 HD
ENDBRANCH  17  20
BRANCH  15  22
ATOM     22  O   UNL     1      34.534 -51.024 -13.624  1.00  0.00    -0.508 OA
ATOM     23  H   UNL     1      35.023 -50.171 -13.871  1.00  0.00     0.293 HD
ENDBRANCH  15  22
TORSDOF 3
ENDMDL
MODEL 5
REMARK VINA RESULT:    -5.748     11.779     13.676
REMARK INTER + INTRA:          -6.252
REMARK INTER:                  -6.252
REMARK INTRA:                   0.000
REMARK UNBOUND:                 0.000
REMARK SMILES Cc1cc(O)c2c(c1)C(=O)c1cc(O)cc(O)c1C2=O
REMARK SMILES IDX 1 1 2 2 8 3 7 4 6 5 4 6 3 7 19 8 20 9 18 10 11 11 9 12 10 13
REMARK SMILES IDX 12 14 13 15 15 16 16 17 5 18 17 20 14 22
REMARK H PARENT 5 19 17 21 14 23
REMARK Flexibility Score: inf
ROOT
ATOM      1  C   UNL     1      25.852 -51.369  -9.513  1.00  0.00     0.044 C 
ATOM      2  C   UNL     1      26.949 -52.238 -10.056  1.00  0.00    -0.047 A 
ATOM      3  C   UNL     1      28.266 -51.767 -10.096  1.00  0.00     0.016 A 
ATOM      4  C   UNL     1      29.297 -52.558 -10.634  1.00  0.00     0.038 A 
ATOM      5  C   UNL     1      29.002 -53.838 -11.155  1.00  0.00     0.076 A 
ATOM      6  C   UNL     1      27.664 -54.299 -11.131  1.00  0.00     0.127 A 
ATOM      7  C   UNL     1      26.653 -53.495 -10.589  1.00  0.00     0.050 A 
ATOM      8  C   UNL     1      30.103 -54.667 -11.722  1.00  0.00     0.201 C 
ATOM      9  O   UNL     1      29.849 -55.813 -12.182  1.00  0.00    -0.288 OA
ATOM     10  C   UNL     1      31.502 -54.154 -11.748  1.00  0.00     0.076 A 
ATOM     11  C   UNL     1      31.778 -52.871 -11.225  1.00  0.00     0.041 A 
ATOM     12  C   UNL     1      30.687 -52.047 -10.658  1.00  0.00     0.194 C 
ATOM     13  O   UNL     1      30.943 -50.903 -10.192  1.00  0.00    -0.289 OA
ATOM     14  C   UNL     1      33.095 -52.377 -11.244  1.00  0.00     0.059 A 
ATOM     15  C   UNL     1      34.133 -53.141 -11.775  1.00  0.00     0.120 A 
ATOM     16  C   UNL     1      33.868 -54.410 -12.293  1.00  0.00     0.093 A 
ATOM     17  C   UNL     1      32.564 -54.923 -12.285  1.00  0.00     0.131 A 
ENDROOT
BRANCH   6  18
ATOM     18  O   UNL     1      27.330 -55.553 -11.645  1.00  0.00    -0.507 OA
ATOM     19  H   UNL     1      27.514 -55.801 -12.611  1.00  0.00     0.293 HD
ENDBRANCH   6  18
BRANCH  17  20
ATOM     20  O   UNL     1      32.333 -56.194 -12.811  1.00  0.00    -0.507 OA
ATOM     21  H   UNL     1      31.969 -56.327 -13.748  1.00  0.00     0.293 HD
ENDBRANCH  17  20
BRANCH  15  22
ATOM     22  O   UNL     1      35.429 -52.629 -11.782  1.00  0.00    -0.508 OA
ATOM     23  H   UNL     1      35.979 -52.567 -10.933  1.00  0.00     0.293 HD
ENDBRANCH  15  22
TORSDOF 3
ENDMDL
MODEL 6
REMARK VINA RESULT:    -5.643      1.289      2.252
REMARK INTER + INTRA:          -6.137
REMARK INTER:                  -6.137
REMARK INTRA:                   0.000
REMARK UNBOUND:                 0.000
REMARK SMILES Cc1cc(O)c2c(c1)C(=O)c1cc(O)cc(O)c1C2=O
REMARK SMILES IDX 1 1 2 2 8 3 7 4 6 5 4 6 3 7 19 8 20 9 18 10 11 11 9 12 10 13
REMARK SMILES IDX 12 14 13 15 15 16 16 17 5 18 17 20 14 22
REMARK H PARENT 5 19 17 21 14 23
REMARK Flexibility Score: inf
ROOT
ATOM      1  C   UNL     1      33.200 -61.790  -8.772  1.00  0.00     0.044 C 
ATOM      2  C   UNL     1      32.873 -63.010  -7.962  1.00  0.00    -0.047 A 
ATOM      3  C   UNL     1      33.704 -64.135  -8.016  1.00  0.00     0.016 A 
ATOM      4  C   UNL     1      33.389 -65.297  -7.288  1.00  0.00     0.038 A 
ATOM      5  C   UNL     1      32.215 -65.339  -6.504  1.00  0.00     0.076 A 
ATOM      6  C   UNL     1      31.368 -64.205  -6.470  1.00  0.00     0.127 A 
ATOM      7  C   UNL     1      31.701 -63.057  -7.202  1.00  0.00     0.050 A 
ATOM      8  C   UNL     1      31.894 -66.576  -5.737  1.00  0.00     0.201 C 
ATOM      9  O   UNL     1      30.851 -66.617  -5.028  1.00  0.00    -0.288 OA
ATOM     10  C   UNL     1      32.794 -67.761  -5.797  1.00  0.00     0.076 A 
ATOM     11  C   UNL     1      33.962 -67.702  -6.589  1.00  0.00     0.041 A 
ATOM     12  C   UNL     1      34.286 -66.473  -7.350  1.00  0.00     0.194 C 
ATOM     13  O   UNL     1      35.333 -66.429  -8.053  1.00  0.00    -0.289 OA
ATOM     14  C   UNL     1      34.820 -68.816  -6.654  1.00  0.00     0.059 A 
ATOM     15  C   UNL     1      34.529 -69.979  -5.944  1.00  0.00     0.120 A 
ATOM     16  C   UNL     1      33.376 -70.045  -5.160  1.00  0.00     0.093 A 
ATOM     17  C   UNL     1      32.506 -68.948  -5.079  1.00  0.00     0.131 A 
ENDROOT
BRANCH   6  18
ATOM     18  O   UNL     1      30.194 -64.210  -5.716  1.00  0.00    -0.507 OA
ATOM     19  H   UNL     1      29.341 -64.637  -6.059  1.00  0.00     0.293 HD
ENDBRANCH   6  18
BRANCH  17  20
ATOM     20  O   UNL     1      31.363 -69.047  -4.287  1.00  0.00    -0.507 OA
ATOM     21  H   UNL     1      30.909 -69.936  -4.112  1.00  0.00     0.293 HD
ENDBRANCH  17  20
BRANCH  15  22
ATOM     22  O   UNL     1      35.395 -71.068  -6.025  1.00  0.00    -0.508 OA
ATOM     23  H   UNL     1      35.596 -71.519  -6.910  1.00  0.00     0.293 HD
ENDBRANCH  15  22
TORSDOF 3
ENDMDL
MODEL 7
REMARK VINA RESULT:    -5.536      1.648      5.684
REMARK INTER + INTRA:          -6.021
REMARK INTER:                  -6.021
REMARK INTRA:                   0.000
REMARK UNBOUND:                 0.000
REMARK SMILES Cc1cc(O)c2c(c1)C(=O)c1cc(O)cc(O)c1C2=O
REMARK SMILES IDX 1 1 2 2 8 3 7 4 6 5 4 6 3 7 19 8 20 9 18 10 11 11 9 12 10 13
REMARK SMILES IDX 12 14 13 15 15 16 16 17 5 18 17 20 14 22
REMARK H PARENT 5 19 17 21 14 23
REMARK Flexibility Score: inf
ROOT
ATOM      1  C   UNL     1      31.019 -71.038  -3.816  1.00  0.00     0.044 C 
ATOM      2  C   UNL     1      31.263 -69.688  -4.425  1.00  0.00    -0.047 A 
ATOM      3  C   UNL     1      32.440 -69.440  -5.140  1.00  0.00     0.016 A 
ATOM      4  C   UNL     1      32.696 -68.169  -5.686  1.00  0.00     0.038 A 
ATOM      5  C   UNL     1      31.763 -67.124  -5.501  1.00  0.00     0.076 A 
ATOM      6  C   UNL     1      30.585 -67.376  -4.758  1.00  0.00     0.127 A 
ATOM      7  C   UNL     1      30.349 -68.650  -4.224  1.00  0.00     0.050 A 
ATOM      8  C   UNL     1      32.046 -65.782  -6.085  1.00  0.00     0.201 C 
ATOM      9  O   UNL     1      31.215 -64.847  -5.930  1.00  0.00    -0.288 OA
ATOM     10  C   UNL     1      33.299 -65.538  -6.852  1.00  0.00     0.076 A 
ATOM     11  C   UNL     1      34.221 -66.593  -7.025  1.00  0.00     0.041 A 
ATOM     12  C   UNL     1      33.942 -67.929  -6.449  1.00  0.00     0.194 C 
ATOM     13  O   UNL     1      34.770 -68.867  -6.610  1.00  0.00    -0.289 OA
ATOM     14  C   UNL     1      35.408 -66.374  -7.748  1.00  0.00     0.059 A 
ATOM     15  C   UNL     1      35.685 -65.123  -8.296  1.00  0.00     0.120 A 
ATOM     16  C   UNL     1      34.779 -64.075  -8.129  1.00  0.00     0.093 A 
ATOM     17  C   UNL     1      33.590 -64.269  -7.413  1.00  0.00     0.131 A 
ENDROOT
BRANCH   6  18
ATOM     18  O   UNL     1      29.644 -66.368  -4.544  1.00  0.00    -0.507 OA
ATOM     19  H   UNL     1      28.839 -66.506  -3.943  1.00  0.00     0.293 HD
ENDBRANCH   6  18
BRANCH  17  20
ATOM     20  O   UNL     1      32.706 -63.201  -7.264  1.00  0.00    -0.507 OA
ATOM     21  H   UNL     1      32.006 -62.984  -7.965  1.00  0.00     0.293 HD
ENDBRANCH  17  20
BRANCH  15  22
ATOM     22  O   UNL     1      36.868 -64.932  -9.008  1.00  0.00    -0.508 OA
ATOM     23  H   UNL     1      37.253 -65.659  -9.599  1.00  0.00     0.293 HD
ENDBRANCH  15  22
TORSDOF 3
ENDMDL
MODEL 8
REMARK VINA RESULT:    -5.519      1.248      6.407
REMARK INTER + INTRA:          -6.003
REMARK INTER:                  -6.003
REMARK INTRA:                   0.000
REMARK UNBOUND:                 0.000
REMARK SMILES Cc1cc(O)c2c(c1)C(=O)c1cc(O)cc(O)c1C2=O
REMARK SMILES IDX 1 1 2 2 8 3 7 4 6 5 4 6 3 7 19 8 20 9 18 10 11 11 9 12 10 13
REMARK SMILES IDX 12 14 13 15 15 16 16 17 5 18 17 20 14 22
REMARK H PARENT 5 19 17 21 14 23
REMARK Flexibility Score: inf
ROOT
ATOM      1  C   UNL     1      30.741 -70.008  -3.746  1.00  0.00     0.044 C 
ATOM      2  C   UNL     1      31.643 -69.101  -4.532  1.00  0.00    -0.047 A 
ATOM      3  C   UNL     1      31.193 -67.840  -4.939  1.00  0.00     0.016 A 
ATOM      4  C   UNL     1      32.016 -66.996  -5.706  1.00  0.00     0.038 A 
ATOM      5  C   UNL     1      33.307 -67.427  -6.084  1.00  0.00     0.076 A 
ATOM      6  C   UNL     1      33.748 -68.713  -5.687  1.00  0.00     0.127 A 
ATOM      7  C   UNL     1      32.912 -69.537  -4.922  1.00  0.00     0.050 A 
ATOM      8  C   UNL     1      34.170 -66.522  -6.895  1.00  0.00     0.201 C 
ATOM      9  O   UNL     1      35.327 -66.897  -7.230  1.00  0.00    -0.288 OA
ATOM     10  C   UNL     1      33.680 -65.179  -7.312  1.00  0.00     0.076 A 
ATOM     11  C   UNL     1      32.385 -64.765  -6.927  1.00  0.00     0.041 A 
ATOM     12  C   UNL     1      31.527 -65.661  -6.118  1.00  0.00     0.194 C 
ATOM     13  O   UNL     1      30.373 -65.282  -5.777  1.00  0.00    -0.289 OA
ATOM     14  C   UNL     1      31.911 -63.499  -7.315  1.00  0.00     0.059 A 
ATOM     15  C   UNL     1      32.708 -62.645  -8.077  1.00  0.00     0.120 A 
ATOM     16  C   UNL     1      33.988 -63.047  -8.461  1.00  0.00     0.093 A 
ATOM     17  C   UNL     1      34.482 -64.304  -8.086  1.00  0.00     0.131 A 
ENDROOT
BRANCH   6  18
ATOM     18  O   UNL     1      35.012 -69.179  -6.049  1.00  0.00    -0.507 OA
ATOM     19  H   UNL     1      35.535 -69.818  -5.460  1.00  0.00     0.293 HD
ENDBRANCH   6  18
BRANCH  17  20
ATOM     20  O   UNL     1      35.765 -64.675  -8.487  1.00  0.00    -0.507 OA
ATOM     21  H   UNL     1      36.078 -64.568  -9.445  1.00  0.00     0.293 HD
ENDBRANCH  17  20
BRANCH  15  22
ATOM     22  O   UNL     1      32.215 -61.395  -8.448  1.00  0.00    -0.508 OA
ATOM     23  H   UNL     1      31.464 -61.301  -9.121  1.00  0.00     0.293 HD
ENDBRANCH  15  22
TORSDOF 3
ENDMDL
MODEL 9
REMARK VINA RESULT:    -5.444     10.528     12.947
REMARK INTER + INTRA:          -5.921
REMARK INTER:                  -5.921
REMARK INTRA:                   0.000
REMARK UNBOUND:                 0.000
REMARK SMILES Cc1cc(O)c2c(c1)C(=O)c1cc(O)cc(O)c1C2=O
REMARK SMILES IDX 1 1 2 2 8 3 7 4 6 5 4 6 3 7 19 8 20 9 18 10 11 11 9 12 10 13
REMARK SMILES IDX 12 14 13 15 15 16 16 17 5 18 17 20 14 22
REMARK H PARENT 5 19 17 21 14 23
REMARK Flexibility Score: inf
ROOT
ATOM      1  C   UNL     1      26.180 -51.240  -8.963  1.00  0.00     0.044 C 
ATOM      2  C   UNL     1      27.408 -51.806  -9.616  1.00  0.00    -0.047 A 
ATOM      3  C   UNL     1      27.377 -53.083 -10.186  1.00  0.00     0.016 A 
ATOM      4  C   UNL     1      28.530 -53.638 -10.770  1.00  0.00     0.038 A 
ATOM      5  C   UNL     1      29.739 -52.907 -10.771  1.00  0.00     0.076 A 
ATOM      6  C   UNL     1      29.768 -51.624 -10.172  1.00  0.00     0.127 A 
ATOM      7  C   UNL     1      28.608 -51.090  -9.597  1.00  0.00     0.050 A 
ATOM      8  C   UNL     1      30.954 -53.506 -11.393  1.00  0.00     0.201 C 
ATOM      9  O   UNL     1      32.035 -52.856 -11.404  1.00  0.00    -0.288 OA
ATOM     10  C   UNL     1      30.901 -54.863 -12.005  1.00  0.00     0.076 A 
ATOM     11  C   UNL     1      29.685 -55.580 -11.994  1.00  0.00     0.041 A 
ATOM     12  C   UNL     1      28.476 -54.986 -11.379  1.00  0.00     0.194 C 
ATOM     13  O   UNL     1      27.393 -55.634 -11.375  1.00  0.00    -0.289 OA
ATOM     14  C   UNL     1      29.624 -56.863 -12.569  1.00  0.00     0.059 A 
ATOM     15  C   UNL     1      30.754 -57.435 -13.152  1.00  0.00     0.120 A 
ATOM     16  C   UNL     1      31.959 -56.732 -13.166  1.00  0.00     0.093 A 
ATOM     17  C   UNL     1      32.045 -55.453 -12.600  1.00  0.00     0.131 A 
ENDROOT
BRANCH   6  18
ATOM     18  O   UNL     1      30.945 -50.875 -10.142  1.00  0.00    -0.507 OA
ATOM     19  H   UNL     1      30.969 -49.905 -10.434  1.00  0.00     0.293 HD
ENDBRANCH   6  18
BRANCH  17  20
ATOM     20  O   UNL     1      33.265 -54.778 -12.631  1.00  0.00    -0.507 OA
ATOM     21  H   UNL     1      33.606 -54.254 -11.833  1.00  0.00     0.293 HD
ENDBRANCH  17  20
BRANCH  15  22
ATOM     22  O   UNL     1      30.666 -58.706 -13.715  1.00  0.00    -0.508 OA
ATOM     23  H   UNL     1      31.366 -59.047 -14.364  1.00  0.00     0.293 HD
ENDBRANCH  15  22
TORSDOF 3
ENDMDL
