MODEL 1
REMARK VINA RESULT:    -5.415      0.000      0.000
REMARK INTER + INTRA:         -13.999
REMARK INTER:                 -11.747
REMARK INTRA:                  -2.252
REMARK UNBOUND:                -2.252
REMARK SMILES CCCCCCCCCCCCCCCCCCCCCC(=O)[O-]
REMARK SMILES IDX 12 1 11 2 10 3 9 4 8 5 7 6 6 7 5 8 4 9 3 10 2 11 1 12 13 13
REMARK SMILES IDX 14 14 15 15 16 16 17 17 18 18 19 19 20 20 21 21 22 22 23 23
REMARK SMILES IDX 24 24
REMARK H PARENT
REMARK Flexibility Score: inf
ROOT
ATOM      1  C   UNL     1     -10.512  -4.018  -7.754  1.00  0.00     0.000 C 
ENDROOT
BRANCH   1   2
ATOM      2  C   UNL     1     -10.141  -5.484  -8.040  1.00  0.00     0.000 C 
BRANCH   2   3
ATOM      3  C   UNL     1     -10.908  -6.101  -9.230  1.00  0.00     0.000 C 
BRANCH   3   4
ATOM      4  C   UNL     1     -11.620  -7.412  -8.847  1.00  0.00    -0.000 C 
BRANCH   4   5
ATOM      5  C   UNL     1     -13.125  -7.398  -9.169  1.00  0.00    -0.000 C 
BRANCH   5   6
ATOM      6  C   UNL     1     -13.846  -6.069  -8.875  1.00  0.00    -0.000 C 
BRANCH   6   7
ATOM      7  C   UNL     1     -15.068  -6.237  -7.957  1.00  0.00    -0.000 C 
BRANCH   7   8
ATOM      8  C   UNL     1     -15.113  -7.620  -7.285  1.00  0.00    -0.000 C 
BRANCH   8   9
ATOM      9  C   UNL     1     -14.818  -7.557  -5.776  1.00  0.00    -0.000 C 
BRANCH   9  10
ATOM     10  C   UNL     1     -13.305  -7.601  -5.478  1.00  0.00    -0.000 C 
BRANCH  10  11
ATOM     11  C   UNL     1     -12.648  -6.212  -5.416  1.00  0.00    -0.003 C 
ATOM     12  C   UNL     1     -11.275  -6.227  -4.746  1.00  0.00     0.004 C 
ENDBRANCH  10  11
ENDBRANCH   9  10
ENDBRANCH   8   9
ENDBRANCH   7   8
ENDBRANCH   6   7
ENDBRANCH   5   6
ENDBRANCH   4   5
ENDBRANCH   3   4
ENDBRANCH   2   3
ENDBRANCH   1   2
BRANCH   1  13
ATOM     13  C   UNL     1     -11.005  -3.271  -9.000  1.00  0.00     0.000 C 
BRANCH  13  14
ATOM     14  C   UNL     1     -10.650  -1.779  -8.929  1.00  0.00     0.000 C 
BRANCH  14  15
ATOM     15  C   UNL     1     -10.995  -1.024 -10.224  1.00  0.00     0.000 C 
BRANCH  15  16
ATOM     16  C   UNL     1     -12.234  -0.111 -10.130  1.00  0.00     0.000 C 
BRANCH  16  17
ATOM     17  C   UNL     1     -13.569  -0.844 -10.386  1.00  0.00     0.000 C 
BRANCH  17  18
ATOM     18  C   UNL     1     -14.754   0.129 -10.511  1.00  0.00     0.000 C 
BRANCH  18  19
ATOM     19  C   UNL     1     -14.908   1.038  -9.283  1.00  0.00     0.000 C 
BRANCH  19  20
ATOM     20  C   UNL     1     -14.702   2.527  -9.617  1.00  0.00     0.006 C 
BRANCH  20  21
ATOM     21  C   UNL     1     -14.011   3.285  -8.476  1.00  0.00     0.053 C 
BRANCH  21  22
ATOM     22  C   UNL     1     -12.592   3.626  -8.815  1.00  0.00     0.041 C 
ATOM     23  O   UNL     1     -12.265   3.857 -10.009  1.00  0.00    -0.550 OA
ATOM     24  O   UNL     1     -11.623   3.638  -7.820  1.00  0.00    -0.550 OA
ENDBRANCH  21  22
ENDBRANCH  20  21
ENDBRANCH  19  20
ENDBRANCH  18  19
ENDBRANCH  17  18
ENDBRANCH  16  17
ENDBRANCH  15  16
ENDBRANCH  14  15
ENDBRANCH  13  14
ENDBRANCH   1  13
TORSDOF 20
ENDMDL
MODEL 2
REMARK VINA RESULT:    -5.155      3.212      8.304
REMARK INTER + INTRA:         -13.435
REMARK INTER:                 -11.769
REMARK INTRA:                  -1.666
REMARK UNBOUND:                -2.252
REMARK SMILES CCCCCCCCCCCCCCCCCCCCCC(=O)[O-]
REMARK SMILES IDX 12 1 11 2 10 3 9 4 8 5 7 6 6 7 5 8 4 9 3 10 2 11 1 12 13 13
REMARK SMILES IDX 14 14 15 15 16 16 17 17 18 18 19 19 20 20 21 21 22 22 23 23
REMARK SMILES IDX 24 24
REMARK H PARENT
REMARK Flexibility Score: inf
ROOT
ATOM      1  C   UNL     1     -10.067  -3.906  -7.787  1.00  0.00     0.000 C 
ENDROOT
BRANCH   1   2
ATOM      2  C   UNL     1     -10.412  -2.521  -8.362  1.00  0.00     0.000 C 
BRANCH   2   3
ATOM      3  C   UNL     1     -10.309  -2.443  -9.901  1.00  0.00     0.000 C 
BRANCH   3   4
ATOM      4  C   UNL     1     -10.781  -1.083 -10.448  1.00  0.00    -0.000 C 
BRANCH   4   5
ATOM      5  C   UNL     1     -12.076  -0.581  -9.785  1.00  0.00    -0.000 C 
BRANCH   5   6
ATOM      6  C   UNL     1     -13.341  -0.683 -10.657  1.00  0.00    -0.000 C 
BRANCH   6   7
ATOM      7  C   UNL     1     -14.606  -0.177  -9.943  1.00  0.00    -0.000 C 
BRANCH   7   8
ATOM      8  C   UNL     1     -14.807   1.339 -10.105  1.00  0.00    -0.000 C 
BRANCH   8   9
ATOM      9  C   UNL     1     -14.174   2.146  -8.958  1.00  0.00    -0.000 C 
BRANCH   9  10
ATOM     10  C   UNL     1     -12.873   2.854  -9.394  1.00  0.00    -0.000 C 
BRANCH  10  11
ATOM     11  C   UNL     1     -12.484   4.038  -8.493  1.00  0.00    -0.003 C 
ATOM     12  C   UNL     1     -13.514   4.324  -7.402  1.00  0.00     0.004 C 
ENDBRANCH  10  11
ENDBRANCH   9  10
ENDBRANCH   8   9
ENDBRANCH   7   8
ENDBRANCH   6   7
ENDBRANCH   5   6
ENDBRANCH   4   5
ENDBRANCH   3   4
ENDBRANCH   2   3
ENDBRANCH   1   2
BRANCH   1  13
ATOM     13  C   UNL     1     -10.220  -5.036  -8.812  1.00  0.00     0.000 C 
BRANCH  13  14
ATOM     14  C   UNL     1     -11.625  -5.653  -8.753  1.00  0.00     0.000 C 
BRANCH  14  15
ATOM     15  C   UNL     1     -11.641  -7.134  -9.165  1.00  0.00     0.000 C 
BRANCH  15  16
ATOM     16  C   UNL     1     -12.989  -7.852  -8.951  1.00  0.00     0.000 C 
BRANCH  16  17
ATOM     17  C   UNL     1     -14.219  -6.967  -9.250  1.00  0.00     0.000 C 
BRANCH  17  18
ATOM     18  C   UNL     1     -14.929  -6.502  -7.967  1.00  0.00     0.000 C 
BRANCH  18  19
ATOM     19  C   UNL     1     -14.833  -7.531  -6.830  1.00  0.00     0.000 C 
BRANCH  19  20
ATOM     20  C   UNL     1     -14.163  -6.959  -5.567  1.00  0.00     0.006 C 
BRANCH  20  21
ATOM     21  C   UNL     1     -12.966  -7.806  -5.115  1.00  0.00     0.053 C 
BRANCH  21  22
ATOM     22  C   UNL     1     -11.662  -7.151  -5.456  1.00  0.00     0.041 C 
ATOM     23  O   UNL     1     -10.785  -7.785  -6.100  1.00  0.00    -0.550 OA
ATOM     24  O   UNL     1     -11.398  -5.859  -5.018  1.00  0.00    -0.550 OA
ENDBRANCH  21  22
ENDBRANCH  20  21
ENDBRANCH  19  20
ENDBRANCH  18  19
ENDBRANCH  17  18
ENDBRANCH  16  17
ENDBRANCH  15  16
ENDBRANCH  14  15
ENDBRANCH  13  14
ENDBRANCH   1  13
TORSDOF 20
ENDMDL
MODEL 3
REMARK VINA RESULT:    -4.948      3.537      8.472
REMARK INTER + INTRA:         -12.985
REMARK INTER:                 -11.284
REMARK INTRA:                  -1.701
REMARK UNBOUND:                -2.252
REMARK SMILES CCCCCCCCCCCCCCCCCCCCCC(=O)[O-]
REMARK SMILES IDX 12 1 11 2 10 3 9 4 8 5 7 6 6 7 5 8 4 9 3 10 2 11 1 12 13 13
REMARK SMILES IDX 14 14 15 15 16 16 17 17 18 18 19 19 20 20 21 21 22 22 23 23
REMARK SMILES IDX 24 24
REMARK H PARENT
REMARK Flexibility Score: inf
ROOT
ATOM      1  C   UNL     1      -9.874  -2.537  -8.233  1.00  0.00     0.000 C 
ENDROOT
BRANCH   1   2
ATOM      2  C   UNL     1     -10.577  -2.004  -9.494  1.00  0.00     0.000 C 
BRANCH   2   3
ATOM      3  C   UNL     1     -11.592  -0.875  -9.212  1.00  0.00     0.000 C 
BRANCH   3   4
ATOM      4  C   UNL     1     -12.506  -0.597 -10.420  1.00  0.00    -0.000 C 
BRANCH   4   5
ATOM      5  C   UNL     1     -13.839  -1.363 -10.357  1.00  0.00    -0.000 C 
BRANCH   5   6
ATOM      6  C   UNL     1     -15.096  -0.483 -10.225  1.00  0.00    -0.000 C 
BRANCH   6   7
ATOM      7  C   UNL     1     -14.922   0.667  -9.218  1.00  0.00    -0.000 C 
BRANCH   7   8
ATOM      8  C   UNL     1     -14.905   2.046  -9.897  1.00  0.00    -0.000 C 
BRANCH   8   9
ATOM      9  C   UNL     1     -13.687   2.893  -9.489  1.00  0.00    -0.000 C 
BRANCH   9  10
ATOM     10  C   UNL     1     -14.034   3.919  -8.389  1.00  0.00    -0.000 C 
BRANCH  10  11
ATOM     11  C   UNL     1     -12.905   4.131  -7.367  1.00  0.00    -0.003 C 
ATOM     12  C   UNL     1     -11.526   3.765  -7.913  1.00  0.00     0.004 C 
ENDBRANCH  10  11
ENDBRANCH   9  10
ENDBRANCH   8   9
ENDBRANCH   7   8
ENDBRANCH   6   7
ENDBRANCH   5   6
ENDBRANCH   4   5
ENDBRANCH   3   4
ENDBRANCH   2   3
ENDBRANCH   1   2
BRANCH   1  13
ATOM     13  C   UNL     1      -9.060  -3.810  -8.494  1.00  0.00     0.000 C 
BRANCH  13  14
ATOM     14  C   UNL     1      -9.865  -4.824  -9.320  1.00  0.00     0.000 C 
BRANCH  14  15
ATOM     15  C   UNL     1     -10.993  -5.487  -8.511  1.00  0.00     0.000 C 
BRANCH  15  16
ATOM     16  C   UNL     1     -10.601  -5.911  -7.081  1.00  0.00     0.000 C 
BRANCH  16  17
ATOM     17  C   UNL     1     -11.705  -5.657  -6.032  1.00  0.00     0.000 C 
BRANCH  17  18
ATOM     18  C   UNL     1     -12.057  -6.927  -5.237  1.00  0.00     0.000 C 
BRANCH  18  19
ATOM     19  C   UNL     1     -13.490  -7.415  -5.504  1.00  0.00     0.000 C 
BRANCH  19  20
ATOM     20  C   UNL     1     -14.194  -6.611  -6.612  1.00  0.00     0.006 C 
BRANCH  20  21
ATOM     21  C   UNL     1     -14.984  -7.515  -7.568  1.00  0.00     0.053 C 
BRANCH  21  22
ATOM     22  C   UNL     1     -14.290  -7.668  -8.887  1.00  0.00     0.041 C 
ATOM     23  O   UNL     1     -14.909  -7.433  -9.958  1.00  0.00    -0.550 OA
ATOM     24  O   UNL     1     -12.977  -8.119  -8.933  1.00  0.00    -0.550 OA
ENDBRANCH  21  22
ENDBRANCH  20  21
ENDBRANCH  19  20
ENDBRANCH  18  19
ENDBRANCH  17  18
ENDBRANCH  16  17
ENDBRANCH  15  16
ENDBRANCH  14  15
ENDBRANCH  13  14
ENDBRANCH   1  13
TORSDOF 20
ENDMDL
MODEL 4
REMARK VINA RESULT:    -4.721     16.490     19.919
REMARK INTER + INTRA:         -12.493
REMARK INTER:                  -9.660
REMARK INTRA:                  -2.833
REMARK UNBOUND:                -2.252
REMARK SMILES CCCCCCCCCCCCCCCCCCCCCC(=O)[O-]
REMARK SMILES IDX 12 1 11 2 10 3 9 4 8 5 7 6 6 7 5 8 4 9 3 10 2 11 1 12 13 13
REMARK SMILES IDX 14 14 15 15 16 16 17 17 18 18 19 19 20 20 21 21 22 22 23 23
REMARK SMILES IDX 24 24
REMARK H PARENT
REMARK Flexibility Score: inf
ROOT
ATOM      1  C   UNL     1      -9.502   5.372   6.522  1.00  0.00     0.000 C 
ENDROOT
BRANCH   1   2
ATOM      2  C   UNL     1      -9.556   6.682   5.715  1.00  0.00     0.000 C 
BRANCH   2   3
ATOM      3  C   UNL     1      -8.795   7.852   6.375  1.00  0.00     0.000 C 
BRANCH   3   4
ATOM      4  C   UNL     1      -8.710   9.084   5.456  1.00  0.00    -0.000 C 
BRANCH   4   5
ATOM      5  C   UNL     1     -10.013   9.903   5.421  1.00  0.00    -0.000 C 
BRANCH   5   6
ATOM      6  C   UNL     1     -10.092  11.054   6.442  1.00  0.00    -0.000 C 
BRANCH   6   7
ATOM      7  C   UNL     1      -8.784  11.856   6.545  1.00  0.00    -0.000 C 
BRANCH   7   8
ATOM      8  C   UNL     1      -8.231  11.896   7.979  1.00  0.00    -0.000 C 
BRANCH   8   9
ATOM      9  C   UNL     1      -7.128  10.849   8.219  1.00  0.00    -0.000 C 
BRANCH   9  10
ATOM     10  C   UNL     1      -5.803  11.233   7.527  1.00  0.00    -0.000 C 
BRANCH  10  11
ATOM     11  C   UNL     1      -5.351  10.222   6.459  1.00  0.00    -0.003 C 
ATOM     12  C   UNL     1      -4.279  10.778   5.524  1.00  0.00     0.004 C 
ENDBRANCH  10  11
ENDBRANCH   9  10
ENDBRANCH   8   9
ENDBRANCH   7   8
ENDBRANCH   6   7
ENDBRANCH   5   6
ENDBRANCH   4   5
ENDBRANCH   3   4
ENDBRANCH   2   3
ENDBRANCH   1   2
BRANCH   1  13
ATOM     13  C   UNL     1      -9.877   5.562   7.997  1.00  0.00     0.000 C 
BRANCH  13  14
ATOM     14  C   UNL     1     -10.626   4.337   8.541  1.00  0.00     0.000 C 
BRANCH  14  15
ATOM     15  C   UNL     1     -12.012   4.154   7.899  1.00  0.00     0.000 C 
BRANCH  15  16
ATOM     16  C   UNL     1     -13.180   4.772   8.694  1.00  0.00     0.000 C 
BRANCH  16  17
ATOM     17  C   UNL     1     -12.936   6.234   9.125  1.00  0.00     0.000 C 
BRANCH  17  18
ATOM     18  C   UNL     1     -13.636   7.241   8.195  1.00  0.00     0.000 C 
BRANCH  18  19
ATOM     19  C   UNL     1     -12.708   7.776   7.094  1.00  0.00     0.000 C 
BRANCH  19  20
ATOM     20  C   UNL     1     -13.328   7.665   5.689  1.00  0.00     0.006 C 
BRANCH  20  21
ATOM     21  C   UNL     1     -14.071   6.337   5.489  1.00  0.00     0.053 C 
BRANCH  21  22
ATOM     22  C   UNL     1     -13.479   5.534   4.371  1.00  0.00     0.041 C 
ATOM     23  O   UNL     1     -13.984   5.585   3.219  1.00  0.00    -0.550 OA
ATOM     24  O   UNL     1     -12.403   4.690   4.616  1.00  0.00    -0.550 OA
ENDBRANCH  21  22
ENDBRANCH  20  21
ENDBRANCH  19  20
ENDBRANCH  18  19
ENDBRANCH  17  18
ENDBRANCH  16  17
ENDBRANCH  15  16
ENDBRANCH  14  15
ENDBRANCH  13  14
ENDBRANCH   1  13
TORSDOF 20
ENDMDL
MODEL 5
REMARK VINA RESULT:    -4.610     16.091     18.761
REMARK INTER + INTRA:         -12.252
REMARK INTER:                  -9.363
REMARK INTRA:                  -2.890
REMARK UNBOUND:                -2.252
REMARK SMILES CCCCCCCCCCCCCCCCCCCCCC(=O)[O-]
REMARK SMILES IDX 12 1 11 2 10 3 9 4 8 5 7 6 6 7 5 8 4 9 3 10 2 11 1 12 13 13
REMARK SMILES IDX 14 14 15 15 16 16 17 17 18 18 19 19 20 20 21 21 22 22 23 23
REMARK SMILES IDX 24 24
REMARK H PARENT
REMARK Flexibility Score: inf
ROOT
ATOM      1  C   UNL     1     -12.873   4.248   6.378  1.00  0.00     0.000 C 
ENDROOT
BRANCH   1   2
ATOM      2  C   UNL     1     -11.519   3.782   6.943  1.00  0.00     0.000 C 
BRANCH   2   3
ATOM      3  C   UNL     1     -11.082   4.540   8.216  1.00  0.00     0.000 C 
BRANCH   3   4
ATOM      4  C   UNL     1      -9.907   5.500   7.948  1.00  0.00    -0.000 C 
BRANCH   4   5
ATOM      5  C   UNL     1      -9.423   5.468   6.487  1.00  0.00    -0.000 C 
BRANCH   5   6
ATOM      6  C   UNL     1      -9.474   6.819   5.750  1.00  0.00    -0.000 C 
BRANCH   6   7
ATOM      7  C   UNL     1      -8.776   7.952   6.521  1.00  0.00    -0.000 C 
BRANCH   7   8
ATOM      8  C   UNL     1      -8.126   8.986   5.586  1.00  0.00    -0.000 C 
BRANCH   8   9
ATOM      9  C   UNL     1      -7.954  10.363   6.252  1.00  0.00    -0.000 C 
BRANCH   9  10
ATOM     10  C   UNL     1      -6.667  11.076   5.788  1.00  0.00    -0.000 C 
BRANCH  10  11
ATOM     11  C   UNL     1      -5.403  10.207   5.911  1.00  0.00    -0.003 C 
ATOM     12  C   UNL     1      -4.132  10.934   5.477  1.00  0.00     0.004 C 
ENDBRANCH  10  11
ENDBRANCH   9  10
ENDBRANCH   8   9
ENDBRANCH   7   8
ENDBRANCH   6   7
ENDBRANCH   5   6
ENDBRANCH   4   5
ENDBRANCH   3   4
ENDBRANCH   2   3
ENDBRANCH   1   2
BRANCH   1  13
ATOM     13  C   UNL     1     -12.731   5.117   5.123  1.00  0.00     0.000 C 
BRANCH  13  14
ATOM     14  C   UNL     1     -13.476   6.450   5.283  1.00  0.00     0.000 C 
BRANCH  14  15
ATOM     15  C   UNL     1     -13.536   6.925   6.744  1.00  0.00     0.000 C 
BRANCH  15  16
ATOM     16  C   UNL     1     -12.660   8.153   7.062  1.00  0.00     0.000 C 
BRANCH  16  17
ATOM     17  C   UNL     1     -12.502   9.129   5.877  1.00  0.00     0.000 C 
BRANCH  17  18
ATOM     18  C   UNL     1     -11.724  10.398   6.265  1.00  0.00     0.000 C 
BRANCH  18  19
ATOM     19  C   UNL     1     -11.231  11.189   5.044  1.00  0.00     0.000 C 
BRANCH  19  20
ATOM     20  C   UNL     1     -12.361  11.510   4.049  1.00  0.00     0.006 C 
BRANCH  20  21
ATOM     21  C   UNL     1     -11.820  11.904   2.668  1.00  0.00     0.053 C 
BRANCH  21  22
ATOM     22  C   UNL     1     -12.356  11.015   1.588  1.00  0.00     0.041 C 
ATOM     23  O   UNL     1     -11.759  10.932   0.482  1.00  0.00    -0.550 OA
ATOM     24  O   UNL     1     -13.542  10.319   1.785  1.00  0.00    -0.550 OA
ENDBRANCH  21  22
ENDBRANCH  20  21
ENDBRANCH  19  20
ENDBRANCH  18  19
ENDBRANCH  17  18
ENDBRANCH  16  17
ENDBRANCH  15  16
ENDBRANCH  14  15
ENDBRANCH  13  14
ENDBRANCH   1  13
TORSDOF 20
ENDMDL
MODEL 6
REMARK VINA RESULT:    -4.467     15.912     19.097
REMARK INTER + INTRA:         -11.942
REMARK INTER:                  -9.526
REMARK INTRA:                  -2.416
REMARK UNBOUND:                -2.252
REMARK SMILES CCCCCCCCCCCCCCCCCCCCCC(=O)[O-]
REMARK SMILES IDX 12 1 11 2 10 3 9 4 8 5 7 6 6 7 5 8 4 9 3 10 2 11 1 12 13 13
REMARK SMILES IDX 14 14 15 15 16 16 17 17 18 18 19 19 20 20 21 21 22 22 23 23
REMARK SMILES IDX 24 24
REMARK H PARENT
REMARK Flexibility Score: inf
ROOT
ATOM      1  C   UNL     1     -10.226   5.034   5.353  1.00  0.00     0.000 C 
ENDROOT
BRANCH   1   2
ATOM      2  C   UNL     1      -9.642   5.434   6.719  1.00  0.00     0.000 C 
BRANCH   2   3
ATOM      3  C   UNL     1      -9.053   6.861   6.751  1.00  0.00     0.000 C 
BRANCH   3   4
ATOM      4  C   UNL     1      -9.106   7.545   5.372  1.00  0.00    -0.000 C 
BRANCH   4   5
ATOM      5  C   UNL     1      -8.437   8.931   5.359  1.00  0.00    -0.000 C 
BRANCH   5   6
ATOM      6  C   UNL     1      -9.341  10.100   5.792  1.00  0.00    -0.000 C 
BRANCH   6   7
ATOM      7  C   UNL     1      -8.591  11.440   5.880  1.00  0.00    -0.000 C 
BRANCH   7   8
ATOM      8  C   UNL     1      -8.386  11.904   7.332  1.00  0.00    -0.000 C 
BRANCH   8   9
ATOM      9  C   UNL     1      -7.342  11.059   8.083  1.00  0.00    -0.000 C 
BRANCH   9  10
ATOM     10  C   UNL     1      -5.905  11.345   7.599  1.00  0.00    -0.000 C 
BRANCH  10  11
ATOM     11  C   UNL     1      -5.282  10.187   6.801  1.00  0.00    -0.003 C 
ATOM     12  C   UNL     1      -4.578  10.648   5.526  1.00  0.00     0.004 C 
ENDBRANCH  10  11
ENDBRANCH   9  10
ENDBRANCH   8   9
ENDBRANCH   7   8
ENDBRANCH   6   7
ENDBRANCH   5   6
ENDBRANCH   4   5
ENDBRANCH   3   4
ENDBRANCH   2   3
ENDBRANCH   1   2
BRANCH   1  13
ATOM     13  C   UNL     1     -11.528   4.232   5.470  1.00  0.00     0.000 C 
BRANCH  13  14
ATOM     14  C   UNL     1     -12.740   5.074   5.045  1.00  0.00     0.000 C 
BRANCH  14  15
ATOM     15  C   UNL     1     -13.202   6.047   6.143  1.00  0.00     0.000 C 
BRANCH  15  16
ATOM     16  C   UNL     1     -13.623   7.441   5.637  1.00  0.00     0.000 C 
BRANCH  16  17
ATOM     17  C   UNL     1     -12.669   8.575   6.073  1.00  0.00     0.000 C 
BRANCH  17  18
ATOM     18  C   UNL     1     -13.081   9.939   5.492  1.00  0.00     0.000 C 
BRANCH  18  19
ATOM     19  C   UNL     1     -14.094   9.813   4.343  1.00  0.00     0.000 C 
BRANCH  19  20
ATOM     20  C   UNL     1     -14.075  11.029   3.400  1.00  0.00     0.006 C 
BRANCH  20  21
ATOM     21  C   UNL     1     -13.641  10.650   1.978  1.00  0.00     0.053 C 
BRANCH  21  22
ATOM     22  C   UNL     1     -12.279  11.183   1.652  1.00  0.00     0.041 C 
ATOM     23  O   UNL     1     -11.740  10.910   0.547  1.00  0.00    -0.550 OA
ATOM     24  O   UNL     1     -11.585  11.937   2.591  1.00  0.00    -0.550 OA
ENDBRANCH  21  22
ENDBRANCH  20  21
ENDBRANCH  19  20
ENDBRANCH  18  19
ENDBRANCH  17  18
ENDBRANCH  16  17
ENDBRANCH  15  16
ENDBRANCH  14  15
ENDBRANCH  13  14
ENDBRANCH   1  13
TORSDOF 20
ENDMDL
MODEL 7
REMARK VINA RESULT:    -4.429     16.059     19.268
REMARK INTER + INTRA:         -11.859
REMARK INTER:                  -8.687
REMARK INTRA:                  -3.172
REMARK UNBOUND:                -2.252
REMARK SMILES CCCCCCCCCCCCCCCCCCCCCC(=O)[O-]
REMARK SMILES IDX 12 1 11 2 10 3 9 4 8 5 7 6 6 7 5 8 4 9 3 10 2 11 1 12 13 13
REMARK SMILES IDX 14 14 15 15 16 16 17 17 18 18 19 19 20 20 21 21 22 22 23 23
REMARK SMILES IDX 24 24
REMARK H PARENT
REMARK Flexibility Score: inf
ROOT
ATOM      1  C   UNL     1     -12.364   5.082   5.002  1.00  0.00     0.000 C 
ENDROOT
BRANCH   1   2
ATOM      2  C   UNL     1     -13.532   5.394   4.051  1.00  0.00     0.000 C 
BRANCH   2   3
ATOM      3  C   UNL     1     -14.689   6.170   4.718  1.00  0.00     0.000 C 
BRANCH   3   4
ATOM      4  C   UNL     1     -14.264   7.581   5.164  1.00  0.00    -0.000 C 
BRANCH   4   5
ATOM      5  C   UNL     1     -14.377   7.794   6.685  1.00  0.00    -0.000 C 
BRANCH   5   6
ATOM      6  C   UNL     1     -13.130   8.398   7.357  1.00  0.00    -0.000 C 
BRANCH   6   7
ATOM      7  C   UNL     1     -12.051   8.826   6.348  1.00  0.00    -0.000 C 
BRANCH   7   8
ATOM      8  C   UNL     1     -11.915  10.355   6.246  1.00  0.00    -0.000 C 
BRANCH   8   9
ATOM      9  C   UNL     1     -11.051  10.795   5.051  1.00  0.00    -0.000 C 
BRANCH   9  10
ATOM     10  C   UNL     1     -11.836  11.687   4.065  1.00  0.00    -0.000 C 
BRANCH  10  11
ATOM     11  C   UNL     1     -13.355  11.452   4.098  1.00  0.00    -0.003 C 
ATOM     12  C   UNL     1     -13.839  10.507   3.000  1.00  0.00     0.004 C 
ENDBRANCH  10  11
ENDBRANCH   9  10
ENDBRANCH   8   9
ENDBRANCH   7   8
ENDBRANCH   6   7
ENDBRANCH   5   6
ENDBRANCH   4   5
ENDBRANCH   3   4
ENDBRANCH   2   3
ENDBRANCH   1   2
BRANCH   1  13
ATOM     13  C   UNL     1     -12.775   4.199   6.187  1.00  0.00     0.000 C 
BRANCH  13  14
ATOM     14  C   UNL     1     -12.367   4.837   7.523  1.00  0.00     0.000 C 
BRANCH  14  15
ATOM     15  C   UNL     1     -10.970   4.397   7.988  1.00  0.00     0.000 C 
BRANCH  15  16
ATOM     16  C   UNL     1      -9.924   5.528   8.056  1.00  0.00     0.000 C 
BRANCH  16  17
ATOM     17  C   UNL     1      -9.322   5.902   6.685  1.00  0.00     0.000 C 
BRANCH  17  18
ATOM     18  C   UNL     1      -8.705   7.312   6.683  1.00  0.00     0.000 C 
BRANCH  18  19
ATOM     19  C   UNL     1      -8.685   7.949   5.285  1.00  0.00     0.000 C 
BRANCH  19  20
ATOM     20  C   UNL     1      -7.846   9.239   5.233  1.00  0.00     0.006 C 
BRANCH  20  21
ATOM     21  C   UNL     1      -7.520   9.773   6.634  1.00  0.00     0.053 C 
BRANCH  21  22
ATOM     22  C   UNL     1      -6.215  10.508   6.658  1.00  0.00     0.041 C 
ATOM     23  O   UNL     1      -5.131   9.871   6.731  1.00  0.00    -0.550 OA
ATOM     24  O   UNL     1      -6.200  11.897   6.650  1.00  0.00    -0.550 OA
ENDBRANCH  21  22
ENDBRANCH  20  21
ENDBRANCH  19  20
ENDBRANCH  18  19
ENDBRANCH  17  18
ENDBRANCH  16  17
ENDBRANCH  15  16
ENDBRANCH  14  15
ENDBRANCH  13  14
ENDBRANCH   1  13
TORSDOF 20
ENDMDL
MODEL 8
REMARK VINA RESULT:    -4.363     16.742     19.382
REMARK INTER + INTRA:         -11.716
REMARK INTER:                  -8.992
REMARK INTRA:                  -2.724
REMARK UNBOUND:                -2.252
REMARK SMILES CCCCCCCCCCCCCCCCCCCCCC(=O)[O-]
REMARK SMILES IDX 12 1 11 2 10 3 9 4 8 5 7 6 6 7 5 8 4 9 3 10 2 11 1 12 13 13
REMARK SMILES IDX 14 14 15 15 16 16 17 17 18 18 19 19 20 20 21 21 22 22 23 23
REMARK SMILES IDX 24 24
REMARK H PARENT
REMARK Flexibility Score: inf
ROOT
ATOM      1  C   UNL     1     -11.393   4.790   5.359  1.00  0.00     0.000 C 
ENDROOT
BRANCH   1   2
ATOM      2  C   UNL     1     -11.961   3.891   6.471  1.00  0.00     0.000 C 
BRANCH   2   3
ATOM      3  C   UNL     1     -10.957   3.592   7.605  1.00  0.00     0.000 C 
BRANCH   3   4
ATOM      4  C   UNL     1     -11.336   4.296   8.921  1.00  0.00    -0.000 C 
BRANCH   4   5
ATOM      5  C   UNL     1     -12.767   4.863   8.912  1.00  0.00    -0.000 C 
BRANCH   5   6
ATOM      6  C   UNL     1     -12.867   6.385   8.696  1.00  0.00    -0.000 C 
BRANCH   6   7
ATOM      7  C   UNL     1     -14.293   6.928   8.892  1.00  0.00    -0.000 C 
BRANCH   7   8
ATOM      8  C   UNL     1     -14.909   7.450   7.583  1.00  0.00    -0.000 C 
BRANCH   8   9
ATOM      9  C   UNL     1     -14.145   6.971   6.336  1.00  0.00    -0.000 C 
BRANCH   9  10
ATOM     10  C   UNL     1     -13.817   8.132   5.374  1.00  0.00    -0.000 C 
BRANCH  10  11
ATOM     11  C   UNL     1     -13.228   9.367   6.077  1.00  0.00    -0.003 C 
ATOM     12  C   UNL     1     -13.226  10.614   5.196  1.00  0.00     0.004 C 
ENDBRANCH  10  11
ENDBRANCH   9  10
ENDBRANCH   8   9
ENDBRANCH   7   8
ENDBRANCH   6   7
ENDBRANCH   5   6
ENDBRANCH   4   5
ENDBRANCH   3   4
ENDBRANCH   2   3
ENDBRANCH   1   2
BRANCH   1  13
ATOM     13  C   UNL     1     -10.041   5.415   5.727  1.00  0.00     0.000 C 
BRANCH  13  14
ATOM     14  C   UNL     1     -10.204   6.885   6.140  1.00  0.00     0.000 C 
BRANCH  14  15
ATOM     15  C   UNL     1      -8.858   7.617   6.270  1.00  0.00     0.000 C 
BRANCH  15  16
ATOM     16  C   UNL     1      -8.688   8.832   5.334  1.00  0.00     0.000 C 
BRANCH  16  17
ATOM     17  C   UNL     1      -9.642  10.003   5.656  1.00  0.00     0.000 C 
BRANCH  17  18
ATOM     18  C   UNL     1      -8.915  11.359   5.669  1.00  0.00     0.000 C 
BRANCH  18  19
ATOM     19  C   UNL     1      -8.703  11.905   7.089  1.00  0.00     0.000 C 
BRANCH  19  20
ATOM     20  C   UNL     1      -7.403  11.392   7.734  1.00  0.00     0.006 C 
BRANCH  20  21
ATOM     21  C   UNL     1      -6.155  11.883   6.988  1.00  0.00     0.053 C 
BRANCH  21  22
ATOM     22  C   UNL     1      -5.376  10.746   6.402  1.00  0.00     0.041 C 
ATOM     23  O   UNL     1      -5.642   9.560   6.730  1.00  0.00    -0.550 OA
ATOM     24  O   UNL     1      -4.322  11.001   5.532  1.00  0.00    -0.550 OA
ENDBRANCH  21  22
ENDBRANCH  20  21
ENDBRANCH  19  20
ENDBRANCH  18  19
ENDBRANCH  17  18
ENDBRANCH  16  17
ENDBRANCH  15  16
ENDBRANCH  14  15
ENDBRANCH  13  14
ENDBRANCH   1  13
TORSDOF 20
ENDMDL
MODEL 9
REMARK VINA RESULT:    -4.302     16.485     18.985
REMARK INTER + INTRA:         -11.585
REMARK INTER:                  -8.557
REMARK INTRA:                  -3.027
REMARK UNBOUND:                -2.252
REMARK SMILES CCCCCCCCCCCCCCCCCCCCCC(=O)[O-]
REMARK SMILES IDX 12 1 11 2 10 3 9 4 8 5 7 6 6 7 5 8 4 9 3 10 2 11 1 12 13 13
REMARK SMILES IDX 14 14 15 15 16 16 17 17 18 18 19 19 20 20 21 21 22 22 23 23
REMARK SMILES IDX 24 24
REMARK H PARENT
REMARK Flexibility Score: inf
ROOT
ATOM      1  C   UNL     1     -12.818   8.262   6.133  1.00  0.00     0.000 C 
ENDROOT
BRANCH   1   2
ATOM      2  C   UNL     1     -12.842   8.036   7.655  1.00  0.00     0.000 C 
BRANCH   2   3
ATOM      3  C   UNL     1     -13.995   7.127   8.132  1.00  0.00     0.000 C 
BRANCH   3   4
ATOM      4  C   UNL     1     -13.500   5.984   9.037  1.00  0.00    -0.000 C 
BRANCH   4   5
ATOM      5  C   UNL     1     -12.061   5.539   8.715  1.00  0.00    -0.000 C 
BRANCH   5   6
ATOM      6  C   UNL     1     -11.851   4.016   8.623  1.00  0.00    -0.000 C 
BRANCH   6   7
ATOM      7  C   UNL     1     -11.641   3.524   7.181  1.00  0.00    -0.000 C 
BRANCH   7   8
ATOM      8  C   UNL     1     -12.507   4.289   6.167  1.00  0.00    -0.000 C 
BRANCH   8   9
ATOM      9  C   UNL     1     -11.684   4.872   5.005  1.00  0.00    -0.000 C 
BRANCH   9  10
ATOM     10  C   UNL     1     -10.198   5.054   5.379  1.00  0.00    -0.000 C 
BRANCH  10  11
ATOM     11  C   UNL     1      -9.836   6.495   5.778  1.00  0.00    -0.003 C 
ATOM     12  C   UNL     1      -8.983   6.569   7.043  1.00  0.00     0.004 C 
ENDBRANCH  10  11
ENDBRANCH   9  10
ENDBRANCH   8   9
ENDBRANCH   7   8
ENDBRANCH   6   7
ENDBRANCH   5   6
ENDBRANCH   4   5
ENDBRANCH   3   4
ENDBRANCH   2   3
ENDBRANCH   1   2
BRANCH   1  13
ATOM     13  C   UNL     1     -14.221   8.337   5.517  1.00  0.00     0.000 C 
BRANCH  13  14
ATOM     14  C   UNL     1     -14.388   9.606   4.669  1.00  0.00     0.000 C 
BRANCH  14  15
ATOM     15  C   UNL     1     -13.395  10.715   5.057  1.00  0.00     0.000 C 
BRANCH  15  16
ATOM     16  C   UNL     1     -12.558  11.272   3.888  1.00  0.00     0.000 C 
BRANCH  16  17
ATOM     17  C   UNL     1     -11.155  11.765   4.307  1.00  0.00     0.000 C 
BRANCH  17  18
ATOM     18  C   UNL     1     -10.533  10.886   5.407  1.00  0.00     0.000 C 
BRANCH  18  19
ATOM     19  C   UNL     1      -9.064  11.238   5.687  1.00  0.00     0.000 C 
BRANCH  19  20
ATOM     20  C   UNL     1      -8.236  10.020   6.134  1.00  0.00     0.006 C 
BRANCH  20  21
ATOM     21  C   UNL     1      -6.900   9.924   5.387  1.00  0.00     0.053 C 
BRANCH  21  22
ATOM     22  C   UNL     1      -5.755  10.390   6.234  1.00  0.00     0.041 C 
ATOM     23  O   UNL     1      -4.588  10.416   5.763  1.00  0.00    -0.550 OA
ATOM     24  O   UNL     1      -5.973  10.748   7.559  1.00  0.00    -0.550 OA
ENDBRANCH  21  22
ENDBRANCH  20  21
ENDBRANCH  19  20
ENDBRANCH  18  19
ENDBRANCH  17  18
ENDBRANCH  16  17
ENDBRANCH  15  16
ENDBRANCH  14  15
ENDBRANCH  13  14
ENDBRANCH   1  13
TORSDOF 20
ENDMDL
