MODEL 1
REMARK VINA RESULT:     4.431      0.000      0.000
REMARK INTER + INTRA:           4.673
REMARK INTER:                   4.690
REMARK INTRA:                  -0.016
REMARK UNBOUND:                -0.016
REMARK SMILES O=C([O-])c1cccnc1
REMARK SMILES IDX 4 1 5 2 9 3 6 4 8 5 7 6 2 7 1 8 3 9
REMARK H PARENT
REMARK Flexibility Score: inf
ROOT
ATOM      1  C   UNL     1     -37.191  16.292  18.082  1.00  0.00     0.016 A 
ATOM      2  C   UNL     1     -36.654  17.524  18.490  1.00  0.00     0.013 A 
ATOM      3  C   UNL     1     -36.386  15.435  17.309  1.00  0.00     0.120 A 
ATOM      4  C   UNL     1     -35.352  17.875  18.129  1.00  0.00     0.021 A 
ATOM      5  N   UNL     1     -35.121  15.802  16.972  1.00  0.00    -0.264 NA
ATOM      6  C   UNL     1     -34.592  16.991  17.362  1.00  0.00     0.111 A 
ENDROOT
BRANCH   1   7
ATOM      7  C   UNL     1     -38.569  15.909  18.457  1.00  0.00     0.073 C 
ATOM      8  O   UNL     1     -38.772  15.059  19.364  1.00  0.00    -0.545 OA
ATOM      9  O   UNL     1     -39.659  16.484  17.815  1.00  0.00    -0.545 OA
ENDBRANCH   1   7
TORSDOF 1
ENDMDL
