MODEL 1
REMARK VINA RESULT:    -6.916      0.000      0.000
REMARK INTER + INTRA:          -8.568
REMARK INTER:                  -8.331
REMARK INTRA:                  -0.237
REMARK UNBOUND:                -0.237
REMARK SMILES Oc1cc(O)c2c(c1)O[C@@H](c1ccc(O)c(O)c1)[C@@H](O)C2
REMARK SMILES IDX 21 1 19 2 10 3 9 4 7 5 8 6 2 7 3 8 4 9 6 10 20 11 11 13
REMARK SMILES IDX 18 14 12 15 16 16 13 17 14 18 17 19 15 21 5 23 1 25
REMARK H PARENT 20 12 17 20 15 22 5 24 1 26
REMARK Flexibility Score: inf
ROOT
ATOM      1  C   UNL     1      61.481   1.992   1.855  1.00  0.00     0.079 C 
ATOM      2  C   UNL     1      61.942   2.663   3.166  1.00  0.00     0.164 C 
ATOM      3  C   UNL     1      61.461   1.849   4.383  1.00  0.00     0.232 C 
ATOM      4  O   UNL     1      61.904   0.496   4.279  1.00  0.00    -0.482 OA
ATOM      5  C   UNL     1      61.914  -0.192   3.062  1.00  0.00     0.131 A 
ATOM      6  C   UNL     1      62.152  -1.569   3.065  1.00  0.00     0.093 A 
ATOM      7  C   UNL     1      62.155  -2.287   1.868  1.00  0.00     0.122 A 
ATOM      8  C   UNL     1      61.910  -1.626   0.659  1.00  0.00     0.092 A 
ATOM      9  C   UNL     1      61.670  -0.247   0.637  1.00  0.00     0.126 A 
ATOM     10  C   UNL     1      61.707   0.493   1.843  1.00  0.00     0.039 A 
ENDROOT
BRANCH   2  11
ATOM     11  O   UNL     1      63.340   2.838   3.175  1.00  0.00    -0.389 OA
ATOM     12  H   UNL     1      63.761   1.947   3.291  1.00  0.00     0.211 HD
ENDBRANCH   2  11
BRANCH   3  13
ATOM     13  C   UNL     1      61.926   2.464   5.682  1.00  0.00    -0.001 A 
ATOM     14  C   UNL     1      63.129   2.057   6.286  1.00  0.00     0.057 A 
ATOM     15  C   UNL     1      61.184   3.502   6.269  1.00  0.00     0.012 A 
ATOM     16  C   UNL     1      63.570   2.658   7.471  1.00  0.00     0.157 A 
ATOM     17  C   UNL     1      61.621   4.103   7.452  1.00  0.00     0.050 A 
ATOM     18  C   UNL     1      62.812   3.684   8.060  1.00  0.00     0.157 A 
BRANCH  16  19
ATOM     19  O   UNL     1      64.764   2.223   8.047  1.00  0.00    -0.504 OA
ATOM     20  H   UNL     1      65.575   2.825   8.123  1.00  0.00     0.293 HD
ENDBRANCH  16  19
BRANCH  18  21
ATOM     21  O   UNL     1      63.246   4.284   9.241  1.00  0.00    -0.504 OA
ATOM     22  H   UNL     1      62.953   5.220   9.499  1.00  0.00     0.293 HD
ENDBRANCH  18  21
ENDBRANCH   3  13
BRANCH   9  23
ATOM     23  O   UNL     1      61.390   0.350  -0.594  1.00  0.00    -0.507 OA
ATOM     24  H   UNL     1      60.707   1.087  -0.712  1.00  0.00     0.293 HD
ENDBRANCH   9  23
BRANCH   7  25
ATOM     25  O   UNL     1      62.395  -3.659   1.891  1.00  0.00    -0.508 OA
ATOM     26  H   UNL     1      63.325  -4.032   2.049  1.00  0.00     0.293 HD
ENDBRANCH   7  25
TORSDOF 6
ENDMDL
MODEL 2
REMARK VINA RESULT:    -6.438      4.353      5.736
REMARK INTER + INTRA:          -7.991
REMARK INTER:                  -8.119
REMARK INTRA:                   0.127
REMARK UNBOUND:                -0.237
REMARK SMILES Oc1cc(O)c2c(c1)O[C@@H](c1ccc(O)c(O)c1)[C@@H](O)C2
REMARK SMILES IDX 21 1 19 2 10 3 9 4 7 5 8 6 2 7 3 8 4 9 6 10 20 11 11 13
REMARK SMILES IDX 18 14 12 15 16 16 13 17 14 18 17 19 15 21 5 23 1 25
REMARK H PARENT 20 12 17 20 15 22 5 24 1 26
REMARK Flexibility Score: inf
ROOT
ATOM      1  C   UNL     1      62.726  -0.962   2.606  1.00  0.00     0.079 C 
ATOM      2  C   UNL     1      61.584  -1.271   3.597  1.00  0.00     0.164 C 
ATOM      3  C   UNL     1      60.344  -1.788   2.841  1.00  0.00     0.232 C 
ATOM      4  O   UNL     1      60.688  -2.917   2.039  1.00  0.00    -0.482 OA
ATOM      5  C   UNL     1      61.894  -2.989   1.334  1.00  0.00     0.131 A 
ATOM      6  C   UNL     1      62.075  -4.015   0.403  1.00  0.00     0.093 A 
ATOM      7  C   UNL     1      63.261  -4.107  -0.325  1.00  0.00     0.122 A 
ATOM      8  C   UNL     1      64.273  -3.160  -0.130  1.00  0.00     0.092 A 
ATOM      9  C   UNL     1      64.111  -2.124   0.799  1.00  0.00     0.126 A 
ATOM     10  C   UNL     1      62.926  -2.051   1.570  1.00  0.00     0.039 A 
ENDROOT
BRANCH   2  11
ATOM     11  O   UNL     1      62.009  -2.182   4.584  1.00  0.00    -0.389 OA
ATOM     12  H   UNL     1      61.229  -2.735   4.850  1.00  0.00     0.211 HD
ENDBRANCH   2  11
BRANCH   3  13
ATOM     13  C   UNL     1      59.218  -2.131   3.788  1.00  0.00    -0.001 A 
ATOM     14  C   UNL     1      59.244  -1.701   5.128  1.00  0.00     0.057 A 
ATOM     15  C   UNL     1      58.097  -2.833   3.318  1.00  0.00     0.012 A 
ATOM     16  C   UNL     1      58.179  -1.992   5.990  1.00  0.00     0.157 A 
ATOM     17  C   UNL     1      57.034  -3.126   4.176  1.00  0.00     0.050 A 
ATOM     18  C   UNL     1      57.070  -2.711   5.514  1.00  0.00     0.157 A 
BRANCH  16  19
ATOM     19  O   UNL     1      58.243  -1.558   7.314  1.00  0.00    -0.504 OA
ATOM     20  H   UNL     1      58.055  -0.597   7.574  1.00  0.00     0.293 HD
ENDBRANCH  16  19
BRANCH  18  21
ATOM     21  O   UNL     1      56.009  -3.005   6.368  1.00  0.00    -0.504 OA
ATOM     22  H   UNL     1      55.721  -3.960   6.548  1.00  0.00     0.293 HD
ENDBRANCH  18  21
ENDBRANCH   3  13
BRANCH   9  23
ATOM     23  O   UNL     1      65.137  -1.185   0.920  1.00  0.00    -0.507 OA
ATOM     24  H   UNL     1      65.135  -0.447   1.612  1.00  0.00     0.293 HD
ENDBRANCH   9  23
BRANCH   7  25
ATOM     25  O   UNL     1      63.423  -5.138  -1.248  1.00  0.00    -0.508 OA
ATOM     26  H   UNL     1      62.887  -5.996  -1.184  1.00  0.00     0.293 HD
ENDBRANCH   7  25
TORSDOF 6
ENDMDL
MODEL 3
REMARK VINA RESULT:    -6.289      4.005      7.041
REMARK INTER + INTRA:          -7.812
REMARK INTER:                  -7.602
REMARK INTRA:                  -0.210
REMARK UNBOUND:                -0.237
REMARK SMILES Oc1cc(O)c2c(c1)O[C@@H](c1ccc(O)c(O)c1)[C@@H](O)C2
REMARK SMILES IDX 21 1 19 2 10 3 9 4 7 5 8 6 2 7 3 8 4 9 6 10 20 11 11 13
REMARK SMILES IDX 18 14 12 15 16 16 13 17 14 18 17 19 15 21 5 23 1 25
REMARK H PARENT 20 12 17 20 15 22 5 24 1 26
REMARK Flexibility Score: inf
ROOT
ATOM      1  C   UNL     1      60.637  -1.168   4.876  1.00  0.00     0.079 C 
ATOM      2  C   UNL     1      61.573  -0.872   3.685  1.00  0.00     0.164 C 
ATOM      3  C   UNL     1      61.633  -2.087   2.737  1.00  0.00     0.232 C 
ATOM      4  O   UNL     1      60.318  -2.453   2.318  1.00  0.00    -0.482 OA
ATOM      5  C   UNL     1      59.225  -2.425   3.190  1.00  0.00     0.131 A 
ATOM      6  C   UNL     1      58.018  -2.997   2.781  1.00  0.00     0.093 A 
ATOM      7  C   UNL     1      56.913  -2.997   3.632  1.00  0.00     0.122 A 
ATOM      8  C   UNL     1      57.016  -2.430   4.907  1.00  0.00     0.092 A 
ATOM      9  C   UNL     1      58.217  -1.851   5.335  1.00  0.00     0.126 A 
ATOM     10  C   UNL     1      59.329  -1.811   4.459  1.00  0.00     0.039 A 
ENDROOT
BRANCH   2  11
ATOM     11  O   UNL     1      61.171   0.297   3.010  1.00  0.00    -0.389 OA
ATOM     12  H   UNL     1      61.895   0.970   3.103  1.00  0.00     0.211 HD
ENDBRANCH   2  11
BRANCH   3  13
ATOM     13  C   UNL     1      62.517  -1.816   1.542  1.00  0.00    -0.001 A 
ATOM     14  C   UNL     1      62.147  -2.246   0.255  1.00  0.00     0.057 A 
ATOM     15  C   UNL     1      63.696  -1.069   1.700  1.00  0.00     0.012 A 
ATOM     16  C   UNL     1      62.954  -1.958  -0.852  1.00  0.00     0.157 A 
ATOM     17  C   UNL     1      64.504  -0.782   0.597  1.00  0.00     0.050 A 
ATOM     18  C   UNL     1      64.141  -1.226  -0.681  1.00  0.00     0.157 A 
BRANCH  16  19
ATOM     19  O   UNL     1      62.560  -2.408  -2.112  1.00  0.00    -0.504 OA
ATOM     20  H   UNL     1      61.617  -2.728  -2.298  1.00  0.00     0.293 HD
ENDBRANCH  16  19
BRANCH  18  21
ATOM     21  O   UNL     1      64.949  -0.939  -1.779  1.00  0.00    -0.504 OA
ATOM     22  H   UNL     1      65.860  -1.369  -1.895  1.00  0.00     0.293 HD
ENDBRANCH  18  21
ENDBRANCH   3  13
BRANCH   9  23
ATOM     23  O   UNL     1      58.272  -1.338   6.632  1.00  0.00    -0.507 OA
ATOM     24  H   UNL     1      58.328  -1.920   7.458  1.00  0.00     0.293 HD
ENDBRANCH   9  23
BRANCH   7  25
ATOM     25  O   UNL     1      55.717  -3.571   3.206  1.00  0.00    -0.508 OA
ATOM     26  H   UNL     1      54.970  -3.786   3.856  1.00  0.00     0.293 HD
ENDBRANCH   7  25
TORSDOF 6
ENDMDL
MODEL 4
REMARK VINA RESULT:    -6.282      3.551      4.922
REMARK INTER + INTRA:          -7.804
REMARK INTER:                  -7.423
REMARK INTRA:                  -0.381
REMARK UNBOUND:                -0.237
REMARK SMILES Oc1cc(O)c2c(c1)O[C@@H](c1ccc(O)c(O)c1)[C@@H](O)C2
REMARK SMILES IDX 21 1 19 2 10 3 9 4 7 5 8 6 2 7 3 8 4 9 6 10 20 11 11 13
REMARK SMILES IDX 18 14 12 15 16 16 13 17 14 18 17 19 15 21 5 23 1 25
REMARK H PARENT 20 12 17 20 15 22 5 24 1 26
REMARK Flexibility Score: inf
ROOT
ATOM      1  C   UNL     1      59.971  -2.090   2.461  1.00  0.00     0.079 C 
ATOM      2  C   UNL     1      61.421  -1.618   2.701  1.00  0.00     0.164 C 
ATOM      3  C   UNL     1      61.452  -0.504   3.766  1.00  0.00     0.232 C 
ATOM      4  O   UNL     1      60.818  -0.948   4.964  1.00  0.00    -0.482 OA
ATOM      5  C   UNL     1      59.659  -1.730   4.948  1.00  0.00     0.131 A 
ATOM      6  C   UNL     1      58.971  -1.948   6.145  1.00  0.00     0.093 A 
ATOM      7  C   UNL     1      57.804  -2.712   6.159  1.00  0.00     0.122 A 
ATOM      8  C   UNL     1      57.314  -3.257   4.967  1.00  0.00     0.092 A 
ATOM      9  C   UNL     1      57.990  -3.050   3.758  1.00  0.00     0.126 A 
ATOM     10  C   UNL     1      59.196  -2.310   3.744  1.00  0.00     0.039 A 
ENDROOT
BRANCH   2  11
ATOM     11  O   UNL     1      62.248  -2.702   3.056  1.00  0.00    -0.389 OA
ATOM     12  H   UNL     1      62.679  -3.044   2.230  1.00  0.00     0.211 HD
ENDBRANCH   2  11
BRANCH   3  13
ATOM     13  C   UNL     1      62.863  -0.044   4.047  1.00  0.00    -0.001 A 
ATOM     14  C   UNL     1      63.471  -0.294   5.290  1.00  0.00     0.057 A 
ATOM     15  C   UNL     1      63.607   0.588   3.037  1.00  0.00     0.012 A 
ATOM     16  C   UNL     1      64.792   0.104   5.530  1.00  0.00     0.157 A 
ATOM     17  C   UNL     1      64.925   0.987   3.274  1.00  0.00     0.050 A 
ATOM     18  C   UNL     1      65.522   0.751   4.519  1.00  0.00     0.157 A 
BRANCH  16  19
ATOM     19  O   UNL     1      65.360  -0.153   6.778  1.00  0.00    -0.504 OA
ATOM     20  H   UNL     1      65.314  -1.067   7.212  1.00  0.00     0.293 HD
ENDBRANCH  16  19
BRANCH  18  21
ATOM     21  O   UNL     1      66.837   1.150   4.753  1.00  0.00    -0.504 OA
ATOM     22  H   UNL     1      67.511   1.224   4.000  1.00  0.00     0.293 HD
ENDBRANCH  18  21
ENDBRANCH   3  13
BRANCH   9  23
ATOM     23  O   UNL     1      57.431  -3.583   2.595  1.00  0.00    -0.507 OA
ATOM     24  H   UNL     1      57.587  -4.535   2.288  1.00  0.00     0.293 HD
ENDBRANCH   9  23
BRANCH   7  25
ATOM     25  O   UNL     1      57.133  -2.919   7.362  1.00  0.00    -0.508 OA
ATOM     26  H   UNL     1      57.458  -2.505   8.229  1.00  0.00     0.293 HD
ENDBRANCH   7  25
TORSDOF 6
ENDMDL
MODEL 5
REMARK VINA RESULT:    -6.219      5.329      6.937
REMARK INTER + INTRA:          -7.728
REMARK INTER:                  -7.361
REMARK INTRA:                  -0.367
REMARK UNBOUND:                -0.237
REMARK SMILES Oc1cc(O)c2c(c1)O[C@@H](c1ccc(O)c(O)c1)[C@@H](O)C2
REMARK SMILES IDX 21 1 19 2 10 3 9 4 7 5 8 6 2 7 3 8 4 9 6 10 20 11 11 13
REMARK SMILES IDX 18 14 12 15 16 16 13 17 14 18 17 19 15 21 5 23 1 25
REMARK H PARENT 20 12 17 20 15 22 5 24 1 26
REMARK Flexibility Score: inf
ROOT
ATOM      1  C   UNL     1      65.027  -3.196  -1.600  1.00  0.00     0.079 C 
ATOM      2  C   UNL     1      65.056  -1.657  -1.484  1.00  0.00     0.164 C 
ATOM      3  C   UNL     1      63.633  -1.083  -1.632  1.00  0.00     0.232 C 
ATOM      4  O   UNL     1      62.756  -1.683  -0.680  1.00  0.00    -0.482 OA
ATOM      5  C   UNL     1      62.823  -3.043  -0.360  1.00  0.00     0.131 A 
ATOM      6  C   UNL     1      61.805  -3.609   0.411  1.00  0.00     0.093 A 
ATOM      7  C   UNL     1      61.837  -4.965   0.736  1.00  0.00     0.122 A 
ATOM      8  C   UNL     1      62.890  -5.766   0.280  1.00  0.00     0.092 A 
ATOM      9  C   UNL     1      63.920  -5.217  -0.493  1.00  0.00     0.126 A 
ATOM     10  C   UNL     1      63.914  -3.833  -0.791  1.00  0.00     0.039 A 
ENDROOT
BRANCH   2  11
ATOM     11  O   UNL     1      65.658  -1.256  -0.275  1.00  0.00    -0.389 OA
ATOM     12  H   UNL     1      66.500  -1.769  -0.166  1.00  0.00     0.211 HD
ENDBRANCH   2  11
BRANCH   3  13
ATOM     13  C   UNL     1      63.625   0.422  -1.491  1.00  0.00    -0.001 A 
ATOM     14  C   UNL     1      62.868   1.050  -0.486  1.00  0.00     0.057 A 
ATOM     15  C   UNL     1      64.430   1.207  -2.331  1.00  0.00     0.012 A 
ATOM     16  C   UNL     1      62.894   2.442  -0.339  1.00  0.00     0.157 A 
ATOM     17  C   UNL     1      64.458   2.597  -2.188  1.00  0.00     0.050 A 
ATOM     18  C   UNL     1      63.690   3.220  -1.196  1.00  0.00     0.157 A 
BRANCH  16  19
ATOM     19  O   UNL     1      62.124   3.031   0.664  1.00  0.00    -0.504 OA
ATOM     20  H   UNL     1      61.968   2.581   1.558  1.00  0.00     0.293 HD
ENDBRANCH  16  19
BRANCH  18  21
ATOM     21  O   UNL     1      63.718   4.607  -1.055  1.00  0.00    -0.504 OA
ATOM     22  H   UNL     1      64.136   5.204  -1.760  1.00  0.00     0.293 HD
ENDBRANCH  18  21
ENDBRANCH   3  13
BRANCH   9  23
ATOM     23  O   UNL     1      64.922  -6.073  -0.954  1.00  0.00    -0.507 OA
ATOM     24  H   UNL     1      65.849  -6.112  -0.551  1.00  0.00     0.293 HD
ENDBRANCH   9  23
BRANCH   7  25
ATOM     25  O   UNL     1      60.813  -5.511   1.507  1.00  0.00    -0.508 OA
ATOM     26  H   UNL     1      60.619  -5.177   2.444  1.00  0.00     0.293 HD
ENDBRANCH   7  25
TORSDOF 6
ENDMDL
MODEL 6
REMARK VINA RESULT:    -6.190      5.074      6.762
REMARK INTER + INTRA:          -7.693
REMARK INTER:                  -7.436
REMARK INTRA:                  -0.258
REMARK UNBOUND:                -0.237
REMARK SMILES Oc1cc(O)c2c(c1)O[C@@H](c1ccc(O)c(O)c1)[C@@H](O)C2
REMARK SMILES IDX 21 1 19 2 10 3 9 4 7 5 8 6 2 7 3 8 4 9 6 10 20 11 11 13
REMARK SMILES IDX 18 14 12 15 16 16 13 17 14 18 17 19 15 21 5 23 1 25
REMARK H PARENT 20 12 17 20 15 22 5 24 1 26
REMARK Flexibility Score: inf
ROOT
ATOM      1  C   UNL     1      57.933  -2.778   6.469  1.00  0.00     0.079 C 
ATOM      2  C   UNL     1      59.172  -2.015   5.954  1.00  0.00     0.164 C 
ATOM      3  C   UNL     1      59.539  -2.489   4.533  1.00  0.00     0.232 C 
ATOM      4  O   UNL     1      58.417  -2.356   3.662  1.00  0.00    -0.482 OA
ATOM      5  C   UNL     1      57.114  -2.653   4.076  1.00  0.00     0.131 A 
ATOM      6  C   UNL     1      56.096  -2.709   3.121  1.00  0.00     0.093 A 
ATOM      7  C   UNL     1      54.789  -3.015   3.500  1.00  0.00     0.122 A 
ATOM      8  C   UNL     1      54.497  -3.277   4.843  1.00  0.00     0.092 A 
ATOM      9  C   UNL     1      55.504  -3.224   5.815  1.00  0.00     0.126 A 
ATOM     10  C   UNL     1      56.823  -2.873   5.442  1.00  0.00     0.039 A 
ENDROOT
BRANCH   2  11
ATOM     11  O   UNL     1      58.961  -0.623   6.001  1.00  0.00    -0.389 OA
ATOM     12  H   UNL     1      58.004  -0.465   6.214  1.00  0.00     0.211 HD
ENDBRANCH   2  11
BRANCH   3  13
ATOM     13  C   UNL     1      60.731  -1.737   3.988  1.00  0.00    -0.001 A 
ATOM     14  C   UNL     1      61.847  -1.463   4.798  1.00  0.00     0.057 A 
ATOM     15  C   UNL     1      60.759  -1.358   2.636  1.00  0.00     0.012 A 
ATOM     16  C   UNL     1      62.962  -0.798   4.275  1.00  0.00     0.157 A 
ATOM     17  C   UNL     1      61.869  -0.692   2.110  1.00  0.00     0.050 A 
ATOM     18  C   UNL     1      62.972  -0.406   2.925  1.00  0.00     0.157 A 
BRANCH  16  19
ATOM     19  O   UNL     1      64.048  -0.535   5.110  1.00  0.00    -0.504 OA
ATOM     20  H   UNL     1      65.004  -0.593   4.783  1.00  0.00     0.293 HD
ENDBRANCH  16  19
BRANCH  18  21
ATOM     21  O   UNL     1      64.079   0.258   2.399  1.00  0.00    -0.504 OA
ATOM     22  H   UNL     1      63.996   1.178   1.981  1.00  0.00     0.293 HD
ENDBRANCH  18  21
ENDBRANCH   3  13
BRANCH   9  23
ATOM     23  O   UNL     1      55.160  -3.535   7.132  1.00  0.00    -0.507 OA
ATOM     24  H   UNL     1      54.559  -4.310   7.382  1.00  0.00     0.293 HD
ENDBRANCH   9  23
BRANCH   7  25
ATOM     25  O   UNL     1      53.787  -3.066   2.533  1.00  0.00    -0.508 OA
ATOM     26  H   UNL     1      54.005  -3.178   1.549  1.00  0.00     0.293 HD
ENDBRANCH   7  25
TORSDOF 6
ENDMDL
MODEL 7
REMARK VINA RESULT:    -6.181      3.715      6.521
REMARK INTER + INTRA:          -7.683
REMARK INTER:                  -8.094
REMARK INTRA:                   0.412
REMARK UNBOUND:                -0.237
REMARK SMILES Oc1cc(O)c2c(c1)O[C@@H](c1ccc(O)c(O)c1)[C@@H](O)C2
REMARK SMILES IDX 21 1 19 2 10 3 9 4 7 5 8 6 2 7 3 8 4 9 6 10 20 11 11 13
REMARK SMILES IDX 18 14 12 15 16 16 13 17 14 18 17 19 15 21 5 23 1 25
REMARK H PARENT 20 12 17 20 15 22 5 24 1 26
REMARK Flexibility Score: inf
ROOT
ATOM      1  C   UNL     1      62.685  -1.238   3.346  1.00  0.00     0.079 C 
ATOM      2  C   UNL     1      61.247  -1.794   3.425  1.00  0.00     0.164 C 
ATOM      3  C   UNL     1      60.585  -1.378   4.753  1.00  0.00     0.232 C 
ATOM      4  O   UNL     1      60.629   0.040   4.905  1.00  0.00    -0.482 OA
ATOM      5  C   UNL     1      61.745   0.794   4.529  1.00  0.00     0.131 A 
ATOM      6  C   UNL     1      61.810   2.140   4.900  1.00  0.00     0.093 A 
ATOM      7  C   UNL     1      62.916   2.916   4.551  1.00  0.00     0.122 A 
ATOM      8  C   UNL     1      63.971   2.341   3.833  1.00  0.00     0.092 A 
ATOM      9  C   UNL     1      63.923   0.995   3.452  1.00  0.00     0.126 A 
ATOM     10  C   UNL     1      62.785   0.214   3.767  1.00  0.00     0.039 A 
ENDROOT
BRANCH   2  11
ATOM     11  O   UNL     1      60.488  -1.382   2.312  1.00  0.00    -0.389 OA
ATOM     12  H   UNL     1      61.048  -1.492   1.500  1.00  0.00     0.211 HD
ENDBRANCH   2  11
BRANCH   3  13
ATOM     13  C   UNL     1      59.163  -1.880   4.846  1.00  0.00    -0.001 A 
ATOM     14  C   UNL     1      58.544  -2.507   3.750  1.00  0.00     0.057 A 
ATOM     15  C   UNL     1      58.464  -1.781   6.060  1.00  0.00     0.012 A 
ATOM     16  C   UNL     1      57.239  -3.003   3.856  1.00  0.00     0.157 A 
ATOM     17  C   UNL     1      57.161  -2.273   6.169  1.00  0.00     0.050 A 
ATOM     18  C   UNL     1      56.542  -2.882   5.070  1.00  0.00     0.157 A 
BRANCH  16  19
ATOM     19  O   UNL     1      56.653  -3.611   2.745  1.00  0.00    -0.504 OA
ATOM     20  H   UNL     1      56.585  -3.143   1.850  1.00  0.00     0.293 HD
ENDBRANCH  16  19
BRANCH  18  21
ATOM     21  O   UNL     1      55.241  -3.372   5.180  1.00  0.00    -0.504 OA
ATOM     22  H   UNL     1      54.887  -4.083   4.550  1.00  0.00     0.293 HD
ENDBRANCH  18  21
ENDBRANCH   3  13
BRANCH   9  23
ATOM     23  O   UNL     1      65.024   0.466   2.773  1.00  0.00    -0.507 OA
ATOM     24  H   UNL     1      65.618  -0.257   3.156  1.00  0.00     0.293 HD
ENDBRANCH   9  23
BRANCH   7  25
ATOM     25  O   UNL     1      62.962   4.256   4.930  1.00  0.00    -0.508 OA
ATOM     26  H   UNL     1      62.531   4.579   5.789  1.00  0.00     0.293 HD
ENDBRANCH   7  25
TORSDOF 6
ENDMDL
MODEL 8
REMARK VINA RESULT:    -6.066      4.052      5.554
REMARK INTER + INTRA:          -7.543
REMARK INTER:                  -7.302
REMARK INTRA:                  -0.241
REMARK UNBOUND:                -0.237
REMARK SMILES Oc1cc(O)c2c(c1)O[C@@H](c1ccc(O)c(O)c1)[C@@H](O)C2
REMARK SMILES IDX 21 1 19 2 10 3 9 4 7 5 8 6 2 7 3 8 4 9 6 10 20 11 11 13
REMARK SMILES IDX 18 14 12 15 16 16 13 17 14 18 17 19 15 21 5 23 1 25
REMARK H PARENT 20 12 17 20 15 22 5 24 1 26
REMARK Flexibility Score: inf
ROOT
ATOM      1  C   UNL     1      63.788   3.121  -0.203  1.00  0.00     0.079 C 
ATOM      2  C   UNL     1      62.966   3.135   1.103  1.00  0.00     0.164 C 
ATOM      3  C   UNL     1      63.901   3.054   2.326  1.00  0.00     0.232 C 
ATOM      4  O   UNL     1      64.867   4.103   2.280  1.00  0.00    -0.482 OA
ATOM      5  C   UNL     1      65.474   4.505   1.085  1.00  0.00     0.131 A 
ATOM      6  C   UNL     1      66.560   5.382   1.139  1.00  0.00     0.093 A 
ATOM      7  C   UNL     1      67.195   5.791  -0.034  1.00  0.00     0.122 A 
ATOM      8  C   UNL     1      66.748   5.312  -1.271  1.00  0.00     0.092 A 
ATOM      9  C   UNL     1      65.661   4.433  -1.345  1.00  0.00     0.126 A 
ATOM     10  C   UNL     1      64.987   4.048  -0.161  1.00  0.00     0.039 A 
ENDROOT
BRANCH   2  11
ATOM     11  O   UNL     1      62.132   4.269   1.158  1.00  0.00    -0.389 OA
ATOM     12  H   UNL     1      62.390   4.802   1.955  1.00  0.00     0.211 HD
ENDBRANCH   2  11
BRANCH   3  13
ATOM     13  C   UNL     1      63.126   3.098   3.622  1.00  0.00    -0.001 A 
ATOM     14  C   UNL     1      63.566   3.885   4.702  1.00  0.00     0.057 A 
ATOM     15  C   UNL     1      61.915   2.398   3.737  1.00  0.00     0.012 A 
ATOM     16  C   UNL     1      62.823   3.949   5.886  1.00  0.00     0.157 A 
ATOM     17  C   UNL     1      61.171   2.458   4.918  1.00  0.00     0.050 A 
ATOM     18  C   UNL     1      61.621   3.230   5.997  1.00  0.00     0.157 A 
BRANCH  16  19
ATOM     19  O   UNL     1      63.294   4.733   6.940  1.00  0.00    -0.504 OA
ATOM     20  H   UNL     1      63.950   4.376   7.624  1.00  0.00     0.293 HD
ENDBRANCH  16  19
BRANCH  18  21
ATOM     21  O   UNL     1      60.878   3.289   7.175  1.00  0.00    -0.504 OA
ATOM     22  H   UNL     1      60.034   2.740   7.299  1.00  0.00     0.293 HD
ENDBRANCH  18  21
ENDBRANCH   3  13
BRANCH   9  23
ATOM     23  O   UNL     1      65.287   3.956  -2.603  1.00  0.00    -0.507 OA
ATOM     24  H   UNL     1      64.478   3.368  -2.756  1.00  0.00     0.293 HD
ENDBRANCH   9  23
BRANCH   7  25
ATOM     25  O   UNL     1      68.275   6.667   0.039  1.00  0.00    -0.508 OA
ATOM     26  H   UNL     1      69.150   6.396   0.474  1.00  0.00     0.293 HD
ENDBRANCH   7  25
TORSDOF 6
ENDMDL
MODEL 9
REMARK VINA RESULT:    -6.041      1.531      7.170
REMARK INTER + INTRA:          -7.514
REMARK INTER:                  -7.162
REMARK INTRA:                  -0.352
REMARK UNBOUND:                -0.237
REMARK SMILES Oc1cc(O)c2c(c1)O[C@@H](c1ccc(O)c(O)c1)[C@@H](O)C2
REMARK SMILES IDX 21 1 19 2 10 3 9 4 7 5 8 6 2 7 3 8 4 9 6 10 20 11 11 13
REMARK SMILES IDX 18 14 12 15 16 16 13 17 14 18 17 19 15 21 5 23 1 25
REMARK H PARENT 20 12 17 20 15 22 5 24 1 26
REMARK Flexibility Score: inf
ROOT
ATOM      1  C   UNL     1      64.403   0.375   5.743  1.00  0.00     0.079 C 
ATOM      2  C   UNL     1      64.222  -0.210   4.326  1.00  0.00     0.164 C 
ATOM      3  C   UNL     1      62.729  -0.460   4.037  1.00  0.00     0.232 C 
ATOM      4  O   UNL     1      61.980   0.739   4.230  1.00  0.00    -0.482 OA
ATOM      5  C   UNL     1      62.248   1.622   5.281  1.00  0.00     0.131 A 
ATOM      6  C   UNL     1      61.347   2.659   5.541  1.00  0.00     0.093 A 
ATOM      7  C   UNL     1      61.580   3.549   6.590  1.00  0.00     0.122 A 
ATOM      8  C   UNL     1      62.716   3.398   7.392  1.00  0.00     0.092 A 
ATOM      9  C   UNL     1      63.631   2.366   7.146  1.00  0.00     0.126 A 
ATOM     10  C   UNL     1      63.421   1.486   6.058  1.00  0.00     0.039 A 
ENDROOT
BRANCH   2  11
ATOM     11  O   UNL     1      64.807   0.630   3.358  1.00  0.00    -0.389 OA
ATOM     12  H   UNL     1      64.130   1.303   3.085  1.00  0.00     0.211 HD
ENDBRANCH   2  11
BRANCH   3  13
ATOM     13  C   UNL     1      62.516  -1.003   2.643  1.00  0.00    -0.001 A 
ATOM     14  C   UNL     1      61.992  -0.190   1.622  1.00  0.00     0.057 A 
ATOM     15  C   UNL     1      62.904  -2.318   2.338  1.00  0.00     0.012 A 
ATOM     16  C   UNL     1      61.832  -0.690   0.324  1.00  0.00     0.157 A 
ATOM     17  C   UNL     1      62.745  -2.820   1.044  1.00  0.00     0.050 A 
ATOM     18  C   UNL     1      62.207  -2.013   0.034  1.00  0.00     0.157 A 
BRANCH  16  19
ATOM     19  O   UNL     1      61.300   0.142  -0.661  1.00  0.00    -0.504 OA
ATOM     20  H   UNL     1      61.583   0.075  -1.631  1.00  0.00     0.293 HD
ENDBRANCH  16  19
BRANCH  18  21
ATOM     21  O   UNL     1      62.048  -2.516  -1.257  1.00  0.00    -0.504 OA
ATOM     22  H   UNL     1      62.509  -3.369  -1.554  1.00  0.00     0.293 HD
ENDBRANCH  18  21
ENDBRANCH   3  13
BRANCH   9  23
ATOM     23  O   UNL     1      64.724   2.240   8.006  1.00  0.00    -0.507 OA
ATOM     24  H   UNL     1      64.634   2.144   9.009  1.00  0.00     0.293 HD
ENDBRANCH   9  23
BRANCH   7  25
ATOM     25  O   UNL     1      60.671   4.576   6.833  1.00  0.00    -0.508 OA
ATOM     26  H   UNL     1      60.839   5.275   7.548  1.00  0.00     0.293 HD
ENDBRANCH   7  25
TORSDOF 6
ENDMDL
