MODEL 1
REMARK VINA RESULT:    -4.720      0.000      0.000
REMARK INTER + INTRA:         -10.800
REMARK INTER:                  -8.583
REMARK INTRA:                  -2.217
REMARK UNBOUND:                -2.217
REMARK SMILES CCCCCCCCCCCCCCCC(=O)[O-]
REMARK SMILES IDX 9 1 10 2 11 3 12 4 13 5 14 6 15 7 16 8 17 9 18 10 8 11 7 12
REMARK SMILES IDX 6 13 5 14 4 15 3 16 2 17 1 18
REMARK H PARENT
REMARK Flexibility Score: inf
ROOT
ATOM      1  C   UNL     1      22.220  15.793   1.383  1.00  0.00     0.000 C 
ENDROOT
BRANCH   1   2
ATOM      2  C   UNL     1      21.449  16.663   0.374  1.00  0.00     0.000 C 
BRANCH   2   3
ATOM      3  C   UNL     1      21.548  16.205  -1.096  1.00  0.00     0.000 C 
BRANCH   3   4
ATOM      4  C   UNL     1      22.765  15.321  -1.424  1.00  0.00     0.000 C 
BRANCH   4   5
ATOM      5  C   UNL     1      22.425  13.876  -1.833  1.00  0.00     0.000 C 
BRANCH   5   6
ATOM      6  C   UNL     1      22.919  12.813  -0.828  1.00  0.00     0.006 C 
BRANCH   6   7
ATOM      7  C   UNL     1      23.512  11.578  -1.520  1.00  0.00     0.053 C 
BRANCH   7   8
ATOM      8  C   UNL     1      22.434  10.596  -1.850  1.00  0.00     0.041 C 
ATOM      9  O   UNL     1      21.617  10.230  -0.965  1.00  0.00    -0.550 OA
ATOM     10  O   UNL     1      22.363  10.043  -3.123  1.00  0.00    -0.550 OA
ENDBRANCH   7   8
ENDBRANCH   6   7
ENDBRANCH   5   6
ENDBRANCH   4   5
ENDBRANCH   3   4
ENDBRANCH   2   3
ENDBRANCH   1   2
BRANCH   1  11
ATOM     11  C   UNL     1      23.245  16.591   2.202  1.00  0.00     0.000 C 
BRANCH  11  12
ATOM     12  C   UNL     1      23.562  17.932   1.527  1.00  0.00    -0.000 C 
BRANCH  12  13
ATOM     13  C   UNL     1      25.071  18.081   1.282  1.00  0.00    -0.000 C 
BRANCH  13  14
ATOM     14  C   UNL     1      25.505  17.525  -0.084  1.00  0.00    -0.000 C 
BRANCH  14  15
ATOM     15  C   UNL     1      26.962  17.030  -0.085  1.00  0.00    -0.000 C 
BRANCH  15  16
ATOM     16  C   UNL     1      27.124  15.654   0.586  1.00  0.00    -0.000 C 
BRANCH  16  17
ATOM     17  C   UNL     1      26.032  14.630   0.227  1.00  0.00    -0.003 C 
ATOM     18  C   UNL     1      25.607  13.768   1.416  1.00  0.00     0.004 C 
ENDBRANCH  16  17
ENDBRANCH  15  16
ENDBRANCH  14  15
ENDBRANCH  13  14
ENDBRANCH  12  13
ENDBRANCH  11  12
ENDBRANCH   1  11
TORSDOF 14
ENDMDL
MODEL 2
REMARK VINA RESULT:    -4.689      3.393      5.261
REMARK INTER + INTRA:         -10.743
REMARK INTER:                  -8.273
REMARK INTRA:                  -2.470
REMARK UNBOUND:                -2.217
REMARK SMILES CCCCCCCCCCCCCCCC(=O)[O-]
REMARK SMILES IDX 9 1 10 2 11 3 12 4 13 5 14 6 15 7 16 8 17 9 18 10 8 11 7 12
REMARK SMILES IDX 6 13 5 14 4 15 3 16 2 17 1 18
REMARK H PARENT
REMARK Flexibility Score: inf
ROOT
ATOM      1  C   UNL     1      21.737  14.640  -1.991  1.00  0.00     0.000 C 
ENDROOT
BRANCH   1   2
ATOM      2  C   UNL     1      22.571  13.392  -1.648  1.00  0.00     0.000 C 
BRANCH   2   3
ATOM      3  C   UNL     1      23.395  13.493  -0.347  1.00  0.00     0.000 C 
BRANCH   3   4
ATOM      4  C   UNL     1      24.870  13.073  -0.474  1.00  0.00     0.000 C 
BRANCH   4   5
ATOM      5  C   UNL     1      25.856  13.901   0.372  1.00  0.00     0.000 C 
BRANCH   5   6
ATOM      6  C   UNL     1      25.690  15.427   0.203  1.00  0.00     0.006 C 
BRANCH   6   7
ATOM      7  C   UNL     1      26.494  16.224   1.239  1.00  0.00     0.053 C 
BRANCH   7   8
ATOM      8  C   UNL     1      27.961  16.068   0.996  1.00  0.00     0.041 C 
ATOM      9  O   UNL     1      28.470  16.469  -0.084  1.00  0.00    -0.550 OA
ATOM     10  O   UNL     1      28.758  15.432   1.939  1.00  0.00    -0.550 OA
ENDBRANCH   7   8
ENDBRANCH   6   7
ENDBRANCH   5   6
ENDBRANCH   4   5
ENDBRANCH   3   4
ENDBRANCH   2   3
ENDBRANCH   1   2
BRANCH   1  11
ATOM     11  C   UNL     1      22.464  15.953  -1.670  1.00  0.00     0.000 C 
BRANCH  11  12
ATOM     12  C   UNL     1      21.556  16.904  -0.880  1.00  0.00    -0.000 C 
BRANCH  12  13
ATOM     13  C   UNL     1      21.572  16.563   0.617  1.00  0.00    -0.000 C 
BRANCH  13  14
ATOM     14  C   UNL     1      22.798  17.143   1.341  1.00  0.00    -0.000 C 
BRANCH  14  15
ATOM     15  C   UNL     1      23.058  16.465   2.699  1.00  0.00    -0.000 C 
BRANCH  15  16
ATOM     16  C   UNL     1      22.591  14.999   2.733  1.00  0.00    -0.000 C 
BRANCH  16  17
ATOM     17  C   UNL     1      23.577  14.024   3.401  1.00  0.00    -0.003 C 
ATOM     18  C   UNL     1      24.666  14.733   4.205  1.00  0.00     0.004 C 
ENDBRANCH  16  17
ENDBRANCH  15  16
ENDBRANCH  14  15
ENDBRANCH  13  14
ENDBRANCH  12  13
ENDBRANCH  11  12
ENDBRANCH   1  11
TORSDOF 14
ENDMDL
MODEL 3
REMARK VINA RESULT:    -4.653      2.475      5.538
REMARK INTER + INTRA:         -10.678
REMARK INTER:                  -8.096
REMARK INTRA:                  -2.582
REMARK UNBOUND:                -2.217
REMARK SMILES CCCCCCCCCCCCCCCC(=O)[O-]
REMARK SMILES IDX 9 1 10 2 11 3 12 4 13 5 14 6 15 7 16 8 17 9 18 10 8 11 7 12
REMARK SMILES IDX 6 13 5 14 4 15 3 16 2 17 1 18
REMARK H PARENT
REMARK Flexibility Score: inf
ROOT
ATOM      1  C   UNL     1      27.231  15.056  -0.036  1.00  0.00     0.000 C 
ENDROOT
BRANCH   1   2
ATOM      2  C   UNL     1      27.602  16.549  -0.012  1.00  0.00     0.000 C 
BRANCH   2   3
ATOM      3  C   UNL     1      26.460  17.501   0.405  1.00  0.00     0.000 C 
BRANCH   3   4
ATOM      4  C   UNL     1      25.129  17.289  -0.339  1.00  0.00     0.000 C 
BRANCH   4   5
ATOM      5  C   UNL     1      23.870  17.399   0.540  1.00  0.00     0.000 C 
BRANCH   5   6
ATOM      6  C   UNL     1      24.008  16.707   1.913  1.00  0.00     0.006 C 
BRANCH   6   7
ATOM      7  C   UNL     1      22.758  15.904   2.297  1.00  0.00     0.053 C 
BRANCH   7   8
ATOM      8  C   UNL     1      23.109  14.821   3.267  1.00  0.00     0.041 C 
ATOM      9  O   UNL     1      22.512  13.714   3.223  1.00  0.00    -0.550 OA
ATOM     10  O   UNL     1      24.060  15.052   4.253  1.00  0.00    -0.550 OA
ENDBRANCH   7   8
ENDBRANCH   6   7
ENDBRANCH   5   6
ENDBRANCH   4   5
ENDBRANCH   3   4
ENDBRANCH   2   3
ENDBRANCH   1   2
BRANCH   1  11
ATOM     11  C   UNL     1      27.045  14.462   1.368  1.00  0.00     0.000 C 
BRANCH  11  12
ATOM     12  C   UNL     1      25.884  13.461   1.391  1.00  0.00    -0.000 C 
BRANCH  12  13
ATOM     13  C   UNL     1      25.043  13.564   0.110  1.00  0.00    -0.000 C 
BRANCH  13  14
ATOM     14  C   UNL     1      23.943  12.492   0.038  1.00  0.00    -0.000 C 
BRANCH  14  15
ATOM     15  C   UNL     1      22.770  12.909  -0.867  1.00  0.00    -0.000 C 
BRANCH  15  16
ATOM     16  C   UNL     1      22.929  14.332  -1.431  1.00  0.00    -0.000 C 
BRANCH  16  17
ATOM     17  C   UNL     1      21.673  15.215  -1.315  1.00  0.00    -0.003 C 
ATOM     18  C   UNL     1      21.538  16.216  -2.462  1.00  0.00     0.004 C 
ENDBRANCH  16  17
ENDBRANCH  15  16
ENDBRANCH  14  15
ENDBRANCH  13  14
ENDBRANCH  12  13
ENDBRANCH  11  12
ENDBRANCH   1  11
TORSDOF 14
ENDMDL
MODEL 4
REMARK VINA RESULT:    -4.618      3.203      5.127
REMARK INTER + INTRA:         -10.615
REMARK INTER:                  -8.145
REMARK INTRA:                  -2.470
REMARK UNBOUND:                -2.217
REMARK SMILES CCCCCCCCCCCCCCCC(=O)[O-]
REMARK SMILES IDX 9 1 10 2 11 3 12 4 13 5 14 6 15 7 16 8 17 9 18 10 8 11 7 12
REMARK SMILES IDX 6 13 5 14 4 15 3 16 2 17 1 18
REMARK H PARENT
REMARK Flexibility Score: inf
ROOT
ATOM      1  C   UNL     1      21.920  14.553  -2.607  1.00  0.00     0.000 C 
ENDROOT
BRANCH   1   2
ATOM      2  C   UNL     1      22.681  13.232  -2.391  1.00  0.00     0.000 C 
BRANCH   2   3
ATOM      3  C   UNL     1      22.441  12.554  -1.026  1.00  0.00     0.000 C 
BRANCH   3   4
ATOM      4  C   UNL     1      23.484  12.882   0.058  1.00  0.00     0.000 C 
BRANCH   4   5
ATOM      5  C   UNL     1      24.835  13.392  -0.476  1.00  0.00     0.000 C 
BRANCH   5   6
ATOM      6  C   UNL     1      25.310  14.704   0.188  1.00  0.00     0.006 C 
BRANCH   6   7
ATOM      7  C   UNL     1      26.820  14.929   0.034  1.00  0.00     0.053 C 
BRANCH   7   8
ATOM      8  C   UNL     1      27.123  16.390  -0.068  1.00  0.00     0.041 C 
ATOM      9  O   UNL     1      28.287  16.777  -0.349  1.00  0.00    -0.550 OA
ATOM     10  O   UNL     1      26.131  17.326   0.198  1.00  0.00    -0.550 OA
ENDBRANCH   7   8
ENDBRANCH   6   7
ENDBRANCH   5   6
ENDBRANCH   4   5
ENDBRANCH   3   4
ENDBRANCH   2   3
ENDBRANCH   1   2
BRANCH   1  11
ATOM     11  C   UNL     1      22.849  15.773  -2.685  1.00  0.00     0.000 C 
BRANCH  11  12
ATOM     12  C   UNL     1      22.690  16.664  -1.446  1.00  0.00    -0.000 C 
BRANCH  12  13
ATOM     13  C   UNL     1      21.340  16.414  -0.759  1.00  0.00    -0.000 C 
BRANCH  13  14
ATOM     14  C   UNL     1      21.439  16.468   0.774  1.00  0.00    -0.000 C 
BRANCH  14  15
ATOM     15  C   UNL     1      22.746  17.119   1.260  1.00  0.00    -0.000 C 
BRANCH  15  16
ATOM     16  C   UNL     1      23.232  16.549   2.605  1.00  0.00    -0.000 C 
BRANCH  16  17
ATOM     17  C   UNL     1      22.552  15.235   3.031  1.00  0.00    -0.003 C 
ATOM     18  C   UNL     1      23.537  14.201   3.575  1.00  0.00     0.004 C 
ENDBRANCH  16  17
ENDBRANCH  15  16
ENDBRANCH  14  15
ENDBRANCH  13  14
ENDBRANCH  12  13
ENDBRANCH  11  12
ENDBRANCH   1  11
TORSDOF 14
ENDMDL
MODEL 5
REMARK VINA RESULT:    -4.610      2.362      4.272
REMARK INTER + INTRA:         -10.601
REMARK INTER:                  -8.151
REMARK INTRA:                  -2.450
REMARK UNBOUND:                -2.217
REMARK SMILES CCCCCCCCCCCCCCCC(=O)[O-]
REMARK SMILES IDX 9 1 10 2 11 3 12 4 13 5 14 6 15 7 16 8 17 9 18 10 8 11 7 12
REMARK SMILES IDX 6 13 5 14 4 15 3 16 2 17 1 18
REMARK H PARENT
REMARK Flexibility Score: inf
ROOT
ATOM      1  C   UNL     1      27.439  15.547   0.269  1.00  0.00     0.000 C 
ENDROOT
BRANCH   1   2
ATOM      2  C   UNL     1      26.747  14.906   1.485  1.00  0.00     0.000 C 
BRANCH   2   3
ATOM      3  C   UNL     1      25.772  13.757   1.153  1.00  0.00     0.000 C 
BRANCH   3   4
ATOM      4  C   UNL     1      25.070  13.869  -0.213  1.00  0.00     0.000 C 
BRANCH   4   5
ATOM      5  C   UNL     1      23.674  13.224  -0.281  1.00  0.00     0.000 C 
BRANCH   5   6
ATOM      6  C   UNL     1      22.804  13.747  -1.444  1.00  0.00     0.006 C 
BRANCH   6   7
ATOM      7  C   UNL     1      22.208  15.132  -1.159  1.00  0.00     0.053 C 
BRANCH   7   8
ATOM      8  C   UNL     1      21.919  15.851  -2.437  1.00  0.00     0.041 C 
ATOM      9  O   UNL     1      21.078  16.787  -2.462  1.00  0.00    -0.550 OA
ATOM     10  O   UNL     1      22.541  15.454  -3.615  1.00  0.00    -0.550 OA
ENDBRANCH   7   8
ENDBRANCH   6   7
ENDBRANCH   5   6
ENDBRANCH   4   5
ENDBRANCH   3   4
ENDBRANCH   2   3
ENDBRANCH   1   2
BRANCH   1  11
ATOM     11  C   UNL     1      27.219  17.064   0.185  1.00  0.00     0.000 C 
BRANCH  11  12
ATOM     12  C   UNL     1      26.021  17.493   1.041  1.00  0.00    -0.000 C 
BRANCH  12  13
ATOM     13  C   UNL     1      24.740  17.566   0.197  1.00  0.00    -0.000 C 
BRANCH  13  14
ATOM     14  C   UNL     1      23.467  17.614   1.058  1.00  0.00    -0.000 C 
BRANCH  14  15
ATOM     15  C   UNL     1      23.598  16.793   2.354  1.00  0.00    -0.000 C 
BRANCH  15  16
ATOM     16  C   UNL     1      22.497  15.727   2.498  1.00  0.00    -0.000 C 
BRANCH  16  17
ATOM     17  C   UNL     1      22.908  14.481   3.302  1.00  0.00    -0.003 C 
ATOM     18  C   UNL     1      24.092  14.735   4.235  1.00  0.00     0.004 C 
ENDBRANCH  16  17
ENDBRANCH  15  16
ENDBRANCH  14  15
ENDBRANCH  13  14
ENDBRANCH  12  13
ENDBRANCH  11  12
ENDBRANCH   1  11
TORSDOF 14
ENDMDL
MODEL 6
REMARK VINA RESULT:    -4.603      2.617      4.629
REMARK INTER + INTRA:         -10.588
REMARK INTER:                  -8.008
REMARK INTRA:                  -2.580
REMARK UNBOUND:                -2.217
REMARK SMILES CCCCCCCCCCCCCCCC(=O)[O-]
REMARK SMILES IDX 9 1 10 2 11 3 12 4 13 5 14 6 15 7 16 8 17 9 18 10 8 11 7 12
REMARK SMILES IDX 6 13 5 14 4 15 3 16 2 17 1 18
REMARK H PARENT
REMARK Flexibility Score: inf
ROOT
ATOM      1  C   UNL     1      22.581  15.795  -1.913  1.00  0.00     0.000 C 
ENDROOT
BRANCH   1   2
ATOM      2  C   UNL     1      21.832  16.887  -1.128  1.00  0.00     0.000 C 
BRANCH   2   3
ATOM      3  C   UNL     1      21.362  16.473   0.282  1.00  0.00     0.000 C 
BRANCH   3   4
ATOM      4  C   UNL     1      22.436  16.559   1.381  1.00  0.00     0.000 C 
BRANCH   4   5
ATOM      5  C   UNL     1      22.769  15.223   2.070  1.00  0.00     0.000 C 
BRANCH   5   6
ATOM      6  C   UNL     1      23.298  15.382   3.512  1.00  0.00     0.006 C 
BRANCH   6   7
ATOM      7  C   UNL     1      24.669  14.722   3.713  1.00  0.00     0.053 C 
BRANCH   7   8
ATOM      8  C   UNL     1      24.513  13.252   3.938  1.00  0.00     0.041 C 
ATOM      9  O   UNL     1      23.564  12.815   4.641  1.00  0.00    -0.550 OA
ATOM     10  O   UNL     1      25.446  12.365   3.414  1.00  0.00    -0.550 OA
ENDBRANCH   7   8
ENDBRANCH   6   7
ENDBRANCH   5   6
ENDBRANCH   4   5
ENDBRANCH   3   4
ENDBRANCH   2   3
ENDBRANCH   1   2
BRANCH   1  11
ATOM     11  C   UNL     1      21.800  14.476  -1.998  1.00  0.00     0.000 C 
BRANCH  11  12
ATOM     12  C   UNL     1      22.533  13.355  -1.250  1.00  0.00    -0.000 C 
BRANCH  12  13
ATOM     13  C   UNL     1      24.055  13.538  -1.341  1.00  0.00    -0.000 C 
BRANCH  13  14
ATOM     14  C   UNL     1      24.765  13.252  -0.007  1.00  0.00    -0.000 C 
BRANCH  14  15
ATOM     15  C   UNL     1      26.024  14.115   0.190  1.00  0.00    -0.000 C 
BRANCH  15  16
ATOM     16  C   UNL     1      25.757  15.616  -0.023  1.00  0.00    -0.000 C 
BRANCH  16  17
ATOM     17  C   UNL     1      26.361  16.537   1.052  1.00  0.00    -0.003 C 
ATOM     18  C   UNL     1      25.774  17.948   1.030  1.00  0.00     0.004 C 
ENDBRANCH  16  17
ENDBRANCH  15  16
ENDBRANCH  14  15
ENDBRANCH  13  14
ENDBRANCH  12  13
ENDBRANCH  11  12
ENDBRANCH   1  11
TORSDOF 14
ENDMDL
MODEL 7
REMARK VINA RESULT:    -4.594      3.412      5.447
REMARK INTER + INTRA:         -10.572
REMARK INTER:                  -7.862
REMARK INTRA:                  -2.710
REMARK UNBOUND:                -2.217
REMARK SMILES CCCCCCCCCCCCCCCC(=O)[O-]
REMARK SMILES IDX 9 1 10 2 11 3 12 4 13 5 14 6 15 7 16 8 17 9 18 10 8 11 7 12
REMARK SMILES IDX 6 13 5 14 4 15 3 16 2 17 1 18
REMARK H PARENT
REMARK Flexibility Score: inf
ROOT
ATOM      1  C   UNL     1      22.911  15.759   2.632  1.00  0.00     0.000 C 
ENDROOT
BRANCH   1   2
ATOM      2  C   UNL     1      23.021  14.241   2.857  1.00  0.00     0.000 C 
BRANCH   2   3
ATOM      3  C   UNL     1      23.512  13.432   1.638  1.00  0.00     0.000 C 
BRANCH   3   4
ATOM      4  C   UNL     1      25.004  13.601   1.300  1.00  0.00     0.000 C 
BRANCH   4   5
ATOM      5  C   UNL     1      25.291  14.276  -0.054  1.00  0.00     0.000 C 
BRANCH   5   6
ATOM      6  C   UNL     1      26.055  15.613   0.067  1.00  0.00     0.006 C 
BRANCH   6   7
ATOM      7  C   UNL     1      26.444  15.939   1.515  1.00  0.00     0.053 C 
BRANCH   7   8
ATOM      8  C   UNL     1      27.919  16.160   1.623  1.00  0.00     0.041 C 
ATOM      9  O   UNL     1      28.666  15.947   0.633  1.00  0.00    -0.550 OA
ATOM     10  O   UNL     1      28.476  16.553   2.834  1.00  0.00    -0.550 OA
ENDBRANCH   7   8
ENDBRANCH   6   7
ENDBRANCH   5   6
ENDBRANCH   4   5
ENDBRANCH   3   4
ENDBRANCH   2   3
ENDBRANCH   1   2
BRANCH   1  11
ATOM     11  C   UNL     1      22.050  16.123   1.413  1.00  0.00     0.000 C 
BRANCH  11  12
ATOM     12  C   UNL     1      22.734  17.200   0.561  1.00  0.00    -0.000 C 
BRANCH  12  13
ATOM     13  C   UNL     1      22.592  16.889  -0.937  1.00  0.00    -0.000 C 
BRANCH  13  14
ATOM     14  C   UNL     1      21.707  15.660  -1.203  1.00  0.00    -0.000 C 
BRANCH  14  15
ATOM     15  C   UNL     1      22.345  14.678  -2.202  1.00  0.00    -0.000 C 
BRANCH  15  16
ATOM     16  C   UNL     1      22.182  13.208  -1.779  1.00  0.00    -0.000 C 
BRANCH  16  17
ATOM     17  C   UNL     1      23.176  12.234  -2.437  1.00  0.00    -0.003 C 
ATOM     18  C   UNL     1      23.715  11.183  -1.467  1.00  0.00     0.004 C 
ENDBRANCH  16  17
ENDBRANCH  15  16
ENDBRANCH  14  15
ENDBRANCH  13  14
ENDBRANCH  12  13
ENDBRANCH  11  12
ENDBRANCH   1  11
TORSDOF 14
ENDMDL
MODEL 8
REMARK VINA RESULT:    -4.578      1.855      3.246
REMARK INTER + INTRA:         -10.541
REMARK INTER:                  -8.083
REMARK INTRA:                  -2.458
REMARK UNBOUND:                -2.217
REMARK SMILES CCCCCCCCCCCCCCCC(=O)[O-]
REMARK SMILES IDX 9 1 10 2 11 3 12 4 13 5 14 6 15 7 16 8 17 9 18 10 8 11 7 12
REMARK SMILES IDX 6 13 5 14 4 15 3 16 2 17 1 18
REMARK H PARENT
REMARK Flexibility Score: inf
ROOT
ATOM      1  C   UNL     1      22.755  16.142   2.687  1.00  0.00     0.000 C 
ENDROOT
BRANCH   1   2
ATOM      2  C   UNL     1      23.637  17.114   1.883  1.00  0.00     0.000 C 
BRANCH   2   3
ATOM      3  C   UNL     1      23.225  17.304   0.408  1.00  0.00     0.000 C 
BRANCH   3   4
ATOM      4  C   UNL     1      21.951  16.552  -0.017  1.00  0.00     0.000 C 
BRANCH   4   5
ATOM      5  C   UNL     1      21.412  16.924  -1.410  1.00  0.00     0.000 C 
BRANCH   5   6
ATOM      6  C   UNL     1      21.705  15.864  -2.494  1.00  0.00     0.006 C 
BRANCH   6   7
ATOM      7  C   UNL     1      21.934  14.466  -1.903  1.00  0.00     0.053 C 
BRANCH   7   8
ATOM      8  C   UNL     1      22.650  13.594  -2.884  1.00  0.00     0.041 C 
ATOM      9  O   UNL     1      22.685  13.908  -4.103  1.00  0.00    -0.550 OA
ATOM     10  O   UNL     1      23.236  12.407  -2.462  1.00  0.00    -0.550 OA
ENDBRANCH   7   8
ENDBRANCH   6   7
ENDBRANCH   5   6
ENDBRANCH   4   5
ENDBRANCH   3   4
ENDBRANCH   2   3
ENDBRANCH   1   2
BRANCH   1  11
ATOM     11  C   UNL     1      23.548  14.979   3.300  1.00  0.00     0.000 C 
BRANCH  11  12
ATOM     12  C   UNL     1      22.968  13.628   2.860  1.00  0.00    -0.000 C 
BRANCH  12  13
ATOM     13  C   UNL     1      23.236  13.373   1.370  1.00  0.00    -0.000 C 
BRANCH  13  14
ATOM     14  C   UNL     1      24.736  13.261   1.051  1.00  0.00    -0.000 C 
BRANCH  14  15
ATOM     15  C   UNL     1      25.168  14.194  -0.095  1.00  0.00    -0.000 C 
BRANCH  15  16
ATOM     16  C   UNL     1      26.603  14.725   0.078  1.00  0.00    -0.000 C 
BRANCH  16  17
ATOM     17  C   UNL     1      27.160  14.623   1.509  1.00  0.00    -0.003 C 
ATOM     18  C   UNL     1      27.101  15.947   2.270  1.00  0.00     0.004 C 
ENDBRANCH  16  17
ENDBRANCH  15  16
ENDBRANCH  14  15
ENDBRANCH  13  14
ENDBRANCH  12  13
ENDBRANCH  11  12
ENDBRANCH   1  11
TORSDOF 14
ENDMDL
MODEL 9
REMARK VINA RESULT:    -4.569      1.106      2.451
REMARK INTER + INTRA:         -10.526
REMARK INTER:                  -8.298
REMARK INTRA:                  -2.228
REMARK UNBOUND:                -2.217
REMARK SMILES CCCCCCCCCCCCCCCC(=O)[O-]
REMARK SMILES IDX 9 1 10 2 11 3 12 4 13 5 14 6 15 7 16 8 17 9 18 10 8 11 7 12
REMARK SMILES IDX 6 13 5 14 4 15 3 16 2 17 1 18
REMARK H PARENT
REMARK Flexibility Score: inf
ROOT
ATOM      1  C   UNL     1      22.889  17.569   1.042  1.00  0.00     0.000 C 
ENDROOT
BRANCH   1   2
ATOM      2  C   UNL     1      22.978  16.889  -0.336  1.00  0.00     0.000 C 
BRANCH   2   3
ATOM      3  C   UNL     1      21.659  16.277  -0.851  1.00  0.00     0.000 C 
BRANCH   3   4
ATOM      4  C   UNL     1      21.798  15.371  -2.088  1.00  0.00     0.000 C 
BRANCH   4   5
ATOM      5  C   UNL     1      21.903  13.866  -1.781  1.00  0.00     0.000 C 
BRANCH   5   6
ATOM      6  C   UNL     1      22.836  13.099  -2.744  1.00  0.00     0.006 C 
BRANCH   6   7
ATOM      7  C   UNL     1      23.472  11.865  -2.091  1.00  0.00     0.053 C 
BRANCH   7   8
ATOM      8  C   UNL     1      22.534  10.703  -2.145  1.00  0.00     0.041 C 
ATOM      9  O   UNL     1      22.435  10.016  -3.195  1.00  0.00    -0.550 OA
ATOM     10  O   UNL     1      21.728  10.408  -1.051  1.00  0.00    -0.550 OA
ENDBRANCH   7   8
ENDBRANCH   6   7
ENDBRANCH   5   6
ENDBRANCH   4   5
ENDBRANCH   3   4
ENDBRANCH   2   3
ENDBRANCH   1   2
BRANCH   1  11
ATOM     11  C   UNL     1      23.517  16.732   2.165  1.00  0.00     0.000 C 
BRANCH  11  12
ATOM     12  C   UNL     1      22.497  15.748   2.751  1.00  0.00    -0.000 C 
BRANCH  12  13
ATOM     13  C   UNL     1      23.086  14.332   2.842  1.00  0.00    -0.000 C 
BRANCH  13  14
ATOM     14  C   UNL     1      23.350  13.714   1.459  1.00  0.00    -0.000 C 
BRANCH  14  15
ATOM     15  C   UNL     1      24.837  13.384   1.233  1.00  0.00    -0.000 C 
BRANCH  15  16
ATOM     16  C   UNL     1      25.424  14.098   0.002  1.00  0.00    -0.000 C 
BRANCH  16  17
ATOM     17  C   UNL     1      26.739  14.855   0.263  1.00  0.00    -0.003 C 
ATOM     18  C   UNL     1      26.628  16.355  -0.010  1.00  0.00     0.004 C 
ENDBRANCH  16  17
ENDBRANCH  15  16
ENDBRANCH  14  15
ENDBRANCH  13  14
ENDBRANCH  12  13
ENDBRANCH  11  12
ENDBRANCH   1  11
TORSDOF 14
ENDMDL
