MODEL 1
REMARK VINA RESULT:    -2.620      0.000      0.000
REMARK INTER + INTRA:          -2.620
REMARK INTER:                  -2.620
REMARK INTRA:                   0.000
REMARK UNBOUND:                 0.000
REMARK SMILES CC1=CC[C@@]2(C)CCCC(C)(C)[C@]23C[C@H]13
REMARK SMILES IDX 1 1 2 2 3 3 4 4 5 5 7 6 8 7 9 8 10 9 13 10 15 11 14 12 11 13
REMARK SMILES IDX 12 14 6 15
REMARK H PARENT
REMARK Flexibility Score: inf
ROOT
ATOM      1  C   UNL     1       4.780   8.035  11.930  1.00  0.00     0.039 C 
ATOM      2  C   UNL     1       4.247   9.402  11.606  1.00  0.00    -0.074 C 
ATOM      3  C   UNL     1       5.095  10.402  11.350  1.00  0.00    -0.027 C 
ATOM      4  C   UNL     1       4.583  11.732  10.904  1.00  0.00     0.034 C 
ATOM      5  C   UNL     1       3.364  12.268  11.726  1.00  0.00    -0.022 C 
ATOM      6  C   UNL     1       2.813  13.462  10.876  1.00  0.00     0.008 C 
ATOM      7  C   UNL     1       1.381  13.844  11.194  1.00  0.00     0.001 C 
ATOM      8  C   UNL     1       0.477  12.659  10.877  1.00  0.00     0.007 C 
ATOM      9  C   UNL     1       0.707  11.476  11.847  1.00  0.00    -0.029 C 
ATOM     10  C   UNL     1       2.263  11.129  11.969  1.00  0.00    -0.012 C 
ATOM     11  C   UNL     1       2.769   9.673  11.732  1.00  0.00     0.022 C 
ATOM     12  C   UNL     1       2.502  10.145  13.143  1.00  0.00     0.017 C 
ATOM     13  C   UNL     1       0.109  11.865  13.231  1.00  0.00     0.012 C 
ATOM     14  C   UNL     1      -0.125  10.291  11.295  1.00  0.00     0.012 C 
ATOM     15  C   UNL     1       3.880  12.841  13.072  1.00  0.00     0.012 C 
ENDROOT
TORSDOF 0
ENDMDL
MODEL 2
REMARK VINA RESULT:    -0.740      3.060      6.999
REMARK INTER + INTRA:          -0.740
REMARK INTER:                  -0.740
REMARK INTRA:                   0.000
REMARK UNBOUND:                 0.000
REMARK SMILES CC1=CC[C@@]2(C)CCCC(C)(C)[C@]23C[C@H]13
REMARK SMILES IDX 1 1 2 2 3 3 4 4 5 5 7 6 8 7 9 8 10 9 13 10 15 11 14 12 11 13
REMARK SMILES IDX 12 14 6 15
REMARK H PARENT
REMARK Flexibility Score: inf
ROOT
ATOM      1  C   UNL     1       4.202  10.413  10.875  1.00  0.00     0.039 C 
ATOM      2  C   UNL     1       4.548   9.082  11.481  1.00  0.00    -0.074 C 
ATOM      3  C   UNL     1       3.634   8.419  12.194  1.00  0.00    -0.027 C 
ATOM      4  C   UNL     1       3.920   7.041  12.696  1.00  0.00     0.034 C 
ATOM      5  C   UNL     1       5.331   6.868  13.350  1.00  0.00    -0.022 C 
ATOM      6  C   UNL     1       5.517   5.318  13.472  1.00  0.00     0.008 C 
ATOM      7  C   UNL     1       6.959   4.875  13.626  1.00  0.00     0.001 C 
ATOM      8  C   UNL     1       7.734   5.288  12.382  1.00  0.00     0.007 C 
ATOM      9  C   UNL     1       7.889   6.824  12.275  1.00  0.00    -0.029 C 
ATOM     10  C   UNL     1       6.482   7.557  12.474  1.00  0.00    -0.012 C 
ATOM     11  C   UNL     1       5.970   8.583  11.416  1.00  0.00     0.022 C 
ATOM     12  C   UNL     1       6.693   9.083  12.647  1.00  0.00     0.017 C 
ATOM     13  C   UNL     1       8.916   7.280  13.353  1.00  0.00     0.012 C 
ATOM     14  C   UNL     1       8.515   7.104  10.886  1.00  0.00     0.012 C 
ATOM     15  C   UNL     1       5.294   7.457  14.784  1.00  0.00     0.012 C 
ENDROOT
TORSDOF 0
ENDMDL
MODEL 3
REMARK VINA RESULT:    -0.272      1.866      3.940
REMARK INTER + INTRA:          -0.272
REMARK INTER:                  -0.272
REMARK INTRA:                   0.000
REMARK UNBOUND:                 0.000
REMARK SMILES CC1=CC[C@@]2(C)CCCC(C)(C)[C@]23C[C@H]13
REMARK SMILES IDX 1 1 2 2 3 3 4 4 5 5 7 6 8 7 9 8 10 9 13 10 15 11 14 12 11 13
REMARK SMILES IDX 12 14 6 15
REMARK H PARENT
REMARK Flexibility Score: inf
ROOT
ATOM      1  C   UNL     1       4.532  15.996  11.235  1.00  0.00     0.039 C 
ATOM      2  C   UNL     1       3.789  15.011  12.092  1.00  0.00    -0.074 C 
ATOM      3  C   UNL     1       4.271  14.679  13.293  1.00  0.00    -0.027 C 
ATOM      4  C   UNL     1       3.483  13.799  14.206  1.00  0.00     0.034 C 
ATOM      5  C   UNL     1       2.860  12.540  13.519  1.00  0.00    -0.022 C 
ATOM      6  C   UNL     1       1.832  11.991  14.565  1.00  0.00     0.008 C 
ATOM      7  C   UNL     1       0.772  11.080  13.977  1.00  0.00     0.001 C 
ATOM      8  C   UNL     1      -0.049  11.873  12.969  1.00  0.00     0.007 C 
ATOM      9  C   UNL     1       0.773  12.245  11.712  1.00  0.00    -0.029 C 
ATOM     10  C   UNL     1       2.172  12.905  12.118  1.00  0.00    -0.012 C 
ATOM     11  C   UNL     1       2.597  14.283  11.524  1.00  0.00     0.022 C 
ATOM     12  C   UNL     1       3.095  13.010  10.876  1.00  0.00     0.017 C 
ATOM     13  C   UNL     1       0.987  10.949  10.875  1.00  0.00     0.012 C 
ATOM     14  C   UNL     1      -0.115  13.200  10.876  1.00  0.00     0.012 C 
ATOM     15  C   UNL     1       3.968  11.470  13.333  1.00  0.00     0.012 C 
ENDROOT
TORSDOF 0
ENDMDL
MODEL 4
REMARK VINA RESULT:     0.112      1.225      4.019
REMARK INTER + INTRA:           0.112
REMARK INTER:                   0.112
REMARK INTRA:                   0.000
REMARK UNBOUND:                 0.000
REMARK SMILES CC1=CC[C@@]2(C)CCCC(C)(C)[C@]23C[C@H]13
REMARK SMILES IDX 1 1 2 2 3 3 4 4 5 5 7 6 8 7 9 8 10 9 13 10 15 11 14 12 11 13
REMARK SMILES IDX 12 14 6 15
REMARK H PARENT
REMARK Flexibility Score: inf
ROOT
ATOM      1  C   UNL     1       4.721  15.598  11.275  1.00  0.00     0.039 C 
ATOM      2  C   UNL     1       3.643  14.556  11.168  1.00  0.00    -0.074 C 
ATOM      3  C   UNL     1       2.362  14.930  11.108  1.00  0.00    -0.027 C 
ATOM      4  C   UNL     1       1.290  13.917  10.876  1.00  0.00     0.034 C 
ATOM      5  C   UNL     1       1.423  12.619  11.738  1.00  0.00    -0.022 C 
ATOM      6  C   UNL     1       0.423  11.609  11.083  1.00  0.00     0.008 C 
ATOM      7  C   UNL     1       0.697  10.155  11.416  1.00  0.00     0.001 C 
ATOM      8  C   UNL     1       2.072   9.781  10.879  1.00  0.00     0.007 C 
ATOM      9  C   UNL     1       3.211  10.497  11.644  1.00  0.00    -0.029 C 
ATOM     10  C   UNL     1       2.928  12.067  11.754  1.00  0.00    -0.012 C 
ATOM     11  C   UNL     1       4.005  13.098  11.292  1.00  0.00     0.022 C 
ATOM     12  C   UNL     1       3.917  12.720  12.754  1.00  0.00     0.017 C 
ATOM     13  C   UNL     1       3.325   9.848  13.055  1.00  0.00     0.012 C 
ATOM     14  C   UNL     1       4.519  10.180  10.877  1.00  0.00     0.012 C 
ATOM     15  C   UNL     1       0.925  12.918  13.176  1.00  0.00     0.012 C 
ENDROOT
TORSDOF 0
ENDMDL
