MODEL 1
REMARK VINA RESULT:    -4.704      0.000      0.000
REMARK INTER + INTRA:          -9.145
REMARK INTER:                  -8.003
REMARK INTRA:                  -1.142
REMARK UNBOUND:                -1.142
REMARK SMILES CCCCCCCCCCCCCC(=O)[O-]
REMARK SMILES IDX 8 1 9 2 10 3 11 4 12 5 13 6 14 7 15 8 16 9 7 10 6 11 5 12
REMARK SMILES IDX 4 13 3 14 2 15 1 16
REMARK H PARENT
REMARK Flexibility Score: inf
ROOT
ATOM      1  C   UNL     1      19.295  27.743  30.965  1.00  0.00     0.000 C 
ENDROOT
BRANCH   1   2
ATOM      2  C   UNL     1      19.192  27.621  32.497  1.00  0.00     0.000 C 
BRANCH   2   3
ATOM      3  C   UNL     1      18.949  28.947  33.241  1.00  0.00     0.000 C 
BRANCH   3   4
ATOM      4  C   UNL     1      18.370  28.744  34.648  1.00  0.00     0.000 C 
BRANCH   4   5
ATOM      5  C   UNL     1      17.036  29.484  34.805  1.00  0.00     0.006 C 
BRANCH   5   6
ATOM      6  C   UNL     1      16.757  30.379  33.594  1.00  0.00     0.053 C 
BRANCH   6   7
ATOM      7  C   UNL     1      16.732  31.818  34.001  1.00  0.00     0.041 C 
ATOM      8  O   UNL     1      17.087  32.713  33.189  1.00  0.00    -0.550 OA
ATOM      9  O   UNL     1      16.269  32.176  35.260  1.00  0.00    -0.550 OA
ENDBRANCH   6   7
ENDBRANCH   5   6
ENDBRANCH   4   5
ENDBRANCH   3   4
ENDBRANCH   2   3
ENDBRANCH   1   2
BRANCH   1  10
ATOM     10  C   UNL     1      18.065  28.367  30.273  1.00  0.00     0.000 C 
BRANCH  10  11
ATOM     11  C   UNL     1      18.383  29.504  29.287  1.00  0.00    -0.000 C 
BRANCH  11  12
ATOM     12  C   UNL     1      18.673  28.997  27.866  1.00  0.00    -0.000 C 
BRANCH  12  13
ATOM     13  C   UNL     1      17.570  28.040  27.390  1.00  0.00    -0.000 C 
BRANCH  13  14
ATOM     14  C   UNL     1      18.123  26.713  26.841  1.00  0.00    -0.000 C 
BRANCH  14  15
ATOM     15  C   UNL     1      19.250  26.086  27.682  1.00  0.00    -0.003 C 
ATOM     16  C   UNL     1      18.836  24.778  28.355  1.00  0.00     0.004 C 
ENDBRANCH  14  15
ENDBRANCH  13  14
ENDBRANCH  12  13
ENDBRANCH  11  12
ENDBRANCH  10  11
ENDBRANCH   1  10
TORSDOF 12
ENDMDL
MODEL 2
REMARK VINA RESULT:    -4.634      1.383      2.416
REMARK INTER + INTRA:          -9.027
REMARK INTER:                  -7.771
REMARK INTRA:                  -1.256
REMARK UNBOUND:                -1.142
REMARK SMILES CCCCCCCCCCCCCC(=O)[O-]
REMARK SMILES IDX 8 1 9 2 10 3 11 4 12 5 13 6 14 7 15 8 16 9 7 10 6 11 5 12
REMARK SMILES IDX 4 13 3 14 2 15 1 16
REMARK H PARENT
REMARK Flexibility Score: inf
ROOT
ATOM      1  C   UNL     1      19.413  27.390  33.617  1.00  0.00     0.000 C 
ENDROOT
BRANCH   1   2
ATOM      2  C   UNL     1      19.328  28.111  34.976  1.00  0.00     0.000 C 
BRANCH   2   3
ATOM      3  C   UNL     1      18.660  29.497  34.937  1.00  0.00     0.000 C 
BRANCH   3   4
ATOM      4  C   UNL     1      17.133  29.419  34.800  1.00  0.00     0.000 C 
BRANCH   4   5
ATOM      5  C   UNL     1      16.646  30.245  33.603  1.00  0.00     0.006 C 
BRANCH   5   6
ATOM      6  C   UNL     1      17.273  31.643  33.607  1.00  0.00     0.053 C 
BRANCH   6   7
ATOM      7  C   UNL     1      16.338  32.634  34.223  1.00  0.00     0.041 C 
ATOM      8  O   UNL     1      15.716  33.454  33.497  1.00  0.00    -0.550 OA
ATOM      9  O   UNL     1      16.114  32.621  35.594  1.00  0.00    -0.550 OA
ENDBRANCH   6   7
ENDBRANCH   5   6
ENDBRANCH   4   5
ENDBRANCH   3   4
ENDBRANCH   2   3
ENDBRANCH   1   2
BRANCH   1  10
ATOM     10  C   UNL     1      19.701  28.303  32.408  1.00  0.00     0.000 C 
BRANCH  10  11
ATOM     11  C   UNL     1      19.163  27.786  31.062  1.00  0.00    -0.000 C 
BRANCH  11  12
ATOM     12  C   UNL     1      18.011  28.641  30.513  1.00  0.00    -0.000 C 
BRANCH  12  13
ATOM     13  C   UNL     1      18.543  29.931  29.870  1.00  0.00    -0.000 C 
BRANCH  13  14
ATOM     14  C   UNL     1      18.346  29.965  28.344  1.00  0.00    -0.000 C 
BRANCH  14  15
ATOM     15  C   UNL     1      18.049  28.599  27.700  1.00  0.00    -0.003 C 
ATOM     16  C   UNL     1      19.150  28.136  26.746  1.00  0.00     0.004 C 
ENDBRANCH  14  15
ENDBRANCH  13  14
ENDBRANCH  12  13
ENDBRANCH  11  12
ENDBRANCH  10  11
ENDBRANCH   1  10
TORSDOF 12
ENDMDL
MODEL 3
REMARK VINA RESULT:    -4.579      3.189      6.284
REMARK INTER + INTRA:          -8.933
REMARK INTER:                  -7.328
REMARK INTRA:                  -1.604
REMARK UNBOUND:                -1.142
REMARK SMILES CCCCCCCCCCCCCC(=O)[O-]
REMARK SMILES IDX 8 1 9 2 10 3 11 4 12 5 13 6 14 7 15 8 16 9 7 10 6 11 5 12
REMARK SMILES IDX 4 13 3 14 2 15 1 16
REMARK H PARENT
REMARK Flexibility Score: inf
ROOT
ATOM      1  C   UNL     1      19.490  27.262  34.693  1.00  0.00     0.000 C 
ENDROOT
BRANCH   1   2
ATOM      2  C   UNL     1      20.453  26.970  33.527  1.00  0.00     0.000 C 
BRANCH   2   3
ATOM      3  C   UNL     1      19.837  27.113  32.123  1.00  0.00     0.000 C 
BRANCH   3   4
ATOM      4  C   UNL     1      19.319  28.530  31.841  1.00  0.00     0.000 C 
BRANCH   4   5
ATOM      5  C   UNL     1      18.057  28.490  30.971  1.00  0.00     0.006 C 
BRANCH   5   6
ATOM      6  C   UNL     1      18.364  28.934  29.537  1.00  0.00     0.053 C 
BRANCH   6   7
ATOM      7  C   UNL     1      18.105  27.817  28.577  1.00  0.00     0.041 C 
ATOM      8  O   UNL     1      18.291  26.622  28.930  1.00  0.00    -0.550 OA
ATOM      9  O   UNL     1      17.613  28.090  27.307  1.00  0.00    -0.550 OA
ENDBRANCH   6   7
ENDBRANCH   5   6
ENDBRANCH   4   5
ENDBRANCH   3   4
ENDBRANCH   2   3
ENDBRANCH   1   2
BRANCH   1  10
ATOM     10  C   UNL     1      19.890  28.449  35.593  1.00  0.00     0.000 C 
BRANCH  10  11
ATOM     11  C   UNL     1      18.830  29.559  35.713  1.00  0.00    -0.000 C 
BRANCH  11  12
ATOM     12  C   UNL     1      17.530  29.224  34.968  1.00  0.00    -0.000 C 
BRANCH  12  13
ATOM     13  C   UNL     1      16.677  30.485  34.761  1.00  0.00    -0.000 C 
BRANCH  13  14
ATOM     14  C   UNL     1      16.780  31.051  33.334  1.00  0.00    -0.000 C 
BRANCH  14  15
ATOM     15  C   UNL     1      18.099  31.783  33.024  1.00  0.00    -0.003 C 
ATOM     16  C   UNL     1      18.222  32.197  31.558  1.00  0.00     0.004 C 
ENDBRANCH  14  15
ENDBRANCH  13  14
ENDBRANCH  12  13
ENDBRANCH  11  12
ENDBRANCH  10  11
ENDBRANCH   1  10
TORSDOF 12
ENDMDL
MODEL 4
REMARK VINA RESULT:    -4.546      2.234      3.413
REMARK INTER + INTRA:          -8.878
REMARK INTER:                  -7.225
REMARK INTRA:                  -1.653
REMARK UNBOUND:                -1.142
REMARK SMILES CCCCCCCCCCCCCC(=O)[O-]
REMARK SMILES IDX 8 1 9 2 10 3 11 4 12 5 13 6 14 7 15 8 16 9 7 10 6 11 5 12
REMARK SMILES IDX 4 13 3 14 2 15 1 16
REMARK H PARENT
REMARK Flexibility Score: inf
ROOT
ATOM      1  C   UNL     1      19.419  28.534  31.050  1.00  0.00     0.000 C 
ENDROOT
BRANCH   1   2
ATOM      2  C   UNL     1      17.975  29.044  31.216  1.00  0.00     0.000 C 
BRANCH   2   3
ATOM      3  C   UNL     1      17.841  30.398  31.936  1.00  0.00     0.000 C 
BRANCH   3   4
ATOM      4  C   UNL     1      16.907  30.336  33.152  1.00  0.00     0.000 C 
BRANCH   4   5
ATOM      5  C   UNL     1      17.708  30.248  34.457  1.00  0.00     0.006 C 
BRANCH   5   6
ATOM      6  C   UNL     1      17.850  28.794  34.918  1.00  0.00     0.053 C 
BRANCH   6   7
ATOM      7  C   UNL     1      19.255  28.320  34.728  1.00  0.00     0.041 C 
ATOM      8  O   UNL     1      19.523  27.090  34.787  1.00  0.00    -0.550 OA
ATOM      9  O   UNL     1      20.264  29.230  34.436  1.00  0.00    -0.550 OA
ENDBRANCH   6   7
ENDBRANCH   5   6
ENDBRANCH   4   5
ENDBRANCH   3   4
ENDBRANCH   2   3
ENDBRANCH   1   2
BRANCH   1  10
ATOM     10  C   UNL     1      19.568  27.001  30.961  1.00  0.00     0.000 C 
BRANCH  10  11
ATOM     11  C   UNL     1      19.768  26.450  29.539  1.00  0.00    -0.000 C 
BRANCH  11  12
ATOM     12  C   UNL     1      18.443  26.214  28.799  1.00  0.00    -0.000 C 
BRANCH  12  13
ATOM     13  C   UNL     1      18.437  26.932  27.440  1.00  0.00    -0.000 C 
BRANCH  13  14
ATOM     14  C   UNL     1      17.936  28.384  27.531  1.00  0.00    -0.000 C 
BRANCH  14  15
ATOM     15  C   UNL     1      19.043  29.454  27.488  1.00  0.00    -0.003 C 
ATOM     16  C   UNL     1      18.611  30.787  28.097  1.00  0.00     0.004 C 
ENDBRANCH  14  15
ENDBRANCH  13  14
ENDBRANCH  12  13
ENDBRANCH  11  12
ENDBRANCH  10  11
ENDBRANCH   1  10
TORSDOF 12
ENDMDL
MODEL 5
REMARK VINA RESULT:    -4.520      3.331      6.848
REMARK INTER + INTRA:          -8.833
REMARK INTER:                  -7.205
REMARK INTRA:                  -1.628
REMARK UNBOUND:                -1.142
REMARK SMILES CCCCCCCCCCCCCC(=O)[O-]
REMARK SMILES IDX 8 1 9 2 10 3 11 4 12 5 13 6 14 7 15 8 16 9 7 10 6 11 5 12
REMARK SMILES IDX 4 13 3 14 2 15 1 16
REMARK H PARENT
REMARK Flexibility Score: inf
ROOT
ATOM      1  C   UNL     1      20.007  28.721  31.450  1.00  0.00     0.000 C 
ENDROOT
BRANCH   1   2
ATOM      2  C   UNL     1      19.305  29.933  30.808  1.00  0.00     0.000 C 
BRANCH   2   3
ATOM      3  C   UNL     1      18.113  29.587  29.898  1.00  0.00     0.000 C 
BRANCH   3   4
ATOM      4  C   UNL     1      18.462  29.652  28.405  1.00  0.00     0.000 C 
BRANCH   4   5
ATOM      5  C   UNL     1      18.016  28.377  27.680  1.00  0.00     0.006 C 
BRANCH   5   6
ATOM      6  C   UNL     1      17.871  27.209  28.659  1.00  0.00     0.053 C 
BRANCH   6   7
ATOM      7  C   UNL     1      18.920  26.176  28.401  1.00  0.00     0.041 C 
ATOM      8  O   UNL     1      20.092  26.341  28.833  1.00  0.00    -0.550 OA
ATOM      9  O   UNL     1      18.595  25.007  27.725  1.00  0.00    -0.550 OA
ENDBRANCH   6   7
ENDBRANCH   5   6
ENDBRANCH   4   5
ENDBRANCH   3   4
ENDBRANCH   2   3
ENDBRANCH   1   2
BRANCH   1  10
ATOM     10  C   UNL     1      19.087  27.786  32.263  1.00  0.00     0.000 C 
BRANCH  10  11
ATOM     11  C   UNL     1      19.778  27.041  33.418  1.00  0.00    -0.000 C 
BRANCH  11  12
ATOM     12  C   UNL     1      19.447  27.637  34.794  1.00  0.00    -0.000 C 
BRANCH  12  13
ATOM     13  C   UNL     1      18.210  28.544  34.716  1.00  0.00    -0.000 C 
BRANCH  13  14
ATOM     14  C   UNL     1      18.495  29.988  35.164  1.00  0.00    -0.000 C 
BRANCH  14  15
ATOM     15  C   UNL     1      17.783  31.074  34.337  1.00  0.00    -0.003 C 
ATOM     16  C   UNL     1      16.711  30.510  33.406  1.00  0.00     0.004 C 
ENDBRANCH  14  15
ENDBRANCH  13  14
ENDBRANCH  12  13
ENDBRANCH  11  12
ENDBRANCH  10  11
ENDBRANCH   1  10
TORSDOF 12
ENDMDL
MODEL 6
REMARK VINA RESULT:    -4.515      3.545      6.654
REMARK INTER + INTRA:          -8.825
REMARK INTER:                  -7.877
REMARK INTRA:                  -0.948
REMARK UNBOUND:                -1.142
REMARK SMILES CCCCCCCCCCCCCC(=O)[O-]
REMARK SMILES IDX 8 1 9 2 10 3 11 4 12 5 13 6 14 7 15 8 16 9 7 10 6 11 5 12
REMARK SMILES IDX 4 13 3 14 2 15 1 16
REMARK H PARENT
REMARK Flexibility Score: inf
ROOT
ATOM      1  C   UNL     1      18.197  32.084  32.047  1.00  0.00     0.000 C 
ENDROOT
BRANCH   1   2
ATOM      2  C   UNL     1      18.365  31.052  30.916  1.00  0.00     0.000 C 
BRANCH   2   3
ATOM      3  C   UNL     1      18.376  31.642  29.494  1.00  0.00     0.000 C 
BRANCH   3   4
ATOM      4  C   UNL     1      18.743  30.607  28.422  1.00  0.00     0.000 C 
BRANCH   4   5
ATOM      5  C   UNL     1      18.375  29.190  28.877  1.00  0.00     0.006 C 
BRANCH   5   6
ATOM      6  C   UNL     1      17.818  28.365  27.712  1.00  0.00     0.053 C 
BRANCH   6   7
ATOM      7  C   UNL     1      18.895  27.525  27.104  1.00  0.00     0.041 C 
ATOM      8  O   UNL     1      19.242  26.444  27.651  1.00  0.00    -0.550 OA
ATOM      9  O   UNL     1      19.484  27.909  25.906  1.00  0.00    -0.550 OA
ENDBRANCH   6   7
ENDBRANCH   5   6
ENDBRANCH   4   5
ENDBRANCH   3   4
ENDBRANCH   2   3
ENDBRANCH   1   2
BRANCH   1  10
ATOM     10  C   UNL     1      17.178  31.700  33.140  1.00  0.00     0.000 C 
BRANCH  10  11
ATOM     11  C   UNL     1      16.932  30.189  33.294  1.00  0.00    -0.000 C 
BRANCH  11  12
ATOM     12  C   UNL     1      17.161  29.691  34.729  1.00  0.00    -0.000 C 
BRANCH  12  13
ATOM     13  C   UNL     1      18.319  28.683  34.781  1.00  0.00    -0.000 C 
BRANCH  13  14
ATOM     14  C   UNL     1      18.791  28.238  33.386  1.00  0.00    -0.000 C 
BRANCH  14  15
ATOM     15  C   UNL     1      19.825  27.098  33.387  1.00  0.00    -0.003 C 
ATOM     16  C   UNL     1      20.140  26.577  34.788  1.00  0.00     0.004 C 
ENDBRANCH  14  15
ENDBRANCH  13  14
ENDBRANCH  12  13
ENDBRANCH  11  12
ENDBRANCH  10  11
ENDBRANCH   1  10
TORSDOF 12
ENDMDL
MODEL 7
REMARK VINA RESULT:    -4.479      3.374      6.355
REMARK INTER + INTRA:          -8.762
REMARK INTER:                  -7.487
REMARK INTRA:                  -1.275
REMARK UNBOUND:                -1.142
REMARK SMILES CCCCCCCCCCCCCC(=O)[O-]
REMARK SMILES IDX 8 1 9 2 10 3 11 4 12 5 13 6 14 7 15 8 16 9 7 10 6 11 5 12
REMARK SMILES IDX 4 13 3 14 2 15 1 16
REMARK H PARENT
REMARK Flexibility Score: inf
ROOT
ATOM      1  C   UNL     1      16.926  30.471  33.269  1.00  0.00     0.000 C 
ENDROOT
BRANCH   1   2
ATOM      2  C   UNL     1      17.517  29.631  32.121  1.00  0.00     0.000 C 
BRANCH   2   3
ATOM      3  C   UNL     1      18.355  30.422  31.100  1.00  0.00     0.000 C 
BRANCH   3   4
ATOM      4  C   UNL     1      18.361  29.779  29.707  1.00  0.00     0.000 C 
BRANCH   4   5
ATOM      5  C   UNL     1      18.034  28.283  29.791  1.00  0.00     0.006 C 
BRANCH   5   6
ATOM      6  C   UNL     1      19.034  27.454  28.979  1.00  0.00     0.053 C 
BRANCH   6   7
ATOM      7  C   UNL     1      18.333  26.709  27.888  1.00  0.00     0.041 C 
ATOM      8  O   UNL     1      17.469  27.289  27.178  1.00  0.00    -0.550 OA
ATOM      9  O   UNL     1      18.666  25.388  27.622  1.00  0.00    -0.550 OA
ENDBRANCH   6   7
ENDBRANCH   5   6
ENDBRANCH   4   5
ENDBRANCH   3   4
ENDBRANCH   2   3
ENDBRANCH   1   2
BRANCH   1  10
ATOM     10  C   UNL     1      17.112  29.876  34.680  1.00  0.00     0.000 C 
BRANCH  10  11
ATOM     11  C   UNL     1      18.419  30.278  35.385  1.00  0.00    -0.000 C 
BRANCH  11  12
ATOM     12  C   UNL     1      19.333  29.078  35.675  1.00  0.00    -0.000 C 
BRANCH  12  13
ATOM     13  C   UNL     1      18.836  27.821  34.943  1.00  0.00    -0.000 C 
BRANCH  13  14
ATOM     14  C   UNL     1      19.968  27.042  34.252  1.00  0.00    -0.000 C 
BRANCH  14  15
ATOM     15  C   UNL     1      19.890  27.017  32.715  1.00  0.00    -0.003 C 
ATOM     16  C   UNL     1      20.607  25.817  32.099  1.00  0.00     0.004 C 
ENDBRANCH  14  15
ENDBRANCH  13  14
ENDBRANCH  12  13
ENDBRANCH  11  12
ENDBRANCH  10  11
ENDBRANCH   1  10
TORSDOF 12
ENDMDL
MODEL 8
REMARK VINA RESULT:    -4.456      1.588      3.313
REMARK INTER + INTRA:          -8.724
REMARK INTER:                  -7.383
REMARK INTRA:                  -1.341
REMARK UNBOUND:                -1.142
REMARK SMILES CCCCCCCCCCCCCC(=O)[O-]
REMARK SMILES IDX 8 1 9 2 10 3 11 4 12 5 13 6 14 7 15 8 16 9 7 10 6 11 5 12
REMARK SMILES IDX 4 13 3 14 2 15 1 16
REMARK H PARENT
REMARK Flexibility Score: inf
ROOT
ATOM      1  C   UNL     1      19.828  29.999  27.717  1.00  0.00     0.000 C 
ENDROOT
BRANCH   1   2
ATOM      2  C   UNL     1      18.731  31.011  28.100  1.00  0.00     0.000 C 
BRANCH   2   3
ATOM      3  C   UNL     1      18.349  31.021  29.592  1.00  0.00     0.000 C 
BRANCH   3   4
ATOM      4  C   UNL     1      18.884  29.801  30.354  1.00  0.00     0.000 C 
BRANCH   4   5
ATOM      5  C   UNL     1      17.804  29.204  31.264  1.00  0.00     0.006 C 
BRANCH   5   6
ATOM      6  C   UNL     1      18.364  28.901  32.657  1.00  0.00     0.053 C 
BRANCH   6   7
ATOM      7  C   UNL     1      17.563  29.601  33.707  1.00  0.00     0.041 C 
ATOM      8  O   UNL     1      17.570  29.181  34.895  1.00  0.00    -0.550 OA
ATOM      9  O   UNL     1      16.847  30.748  33.388  1.00  0.00    -0.550 OA
ENDBRANCH   6   7
ENDBRANCH   5   6
ENDBRANCH   4   5
ENDBRANCH   3   4
ENDBRANCH   2   3
ENDBRANCH   1   2
BRANCH   1  10
ATOM     10  C   UNL     1      19.563  29.204  26.422  1.00  0.00     0.000 C 
BRANCH  10  11
ATOM     11  C   UNL     1      19.123  27.745  26.635  1.00  0.00    -0.000 C 
BRANCH  11  12
ATOM     12  C   UNL     1      17.692  27.627  27.183  1.00  0.00    -0.000 C 
BRANCH  12  13
ATOM     13  C   UNL     1      17.672  26.834  28.498  1.00  0.00    -0.000 C 
BRANCH  13  14
ATOM     14  C   UNL     1      18.915  25.946  28.683  1.00  0.00    -0.000 C 
BRANCH  14  15
ATOM     15  C   UNL     1      18.740  24.487  28.224  1.00  0.00    -0.003 C 
ATOM     16  C   UNL     1      20.031  23.673  28.314  1.00  0.00     0.004 C 
ENDBRANCH  14  15
ENDBRANCH  13  14
ENDBRANCH  12  13
ENDBRANCH  11  12
ENDBRANCH  10  11
ENDBRANCH   1  10
TORSDOF 12
ENDMDL
MODEL 9
REMARK VINA RESULT:    -4.446      3.662      6.803
REMARK INTER + INTRA:          -8.707
REMARK INTER:                  -7.526
REMARK INTRA:                  -1.181
REMARK UNBOUND:                -1.142
REMARK SMILES CCCCCCCCCCCCCC(=O)[O-]
REMARK SMILES IDX 8 1 9 2 10 3 11 4 12 5 13 6 14 7 15 8 16 9 7 10 6 11 5 12
REMARK SMILES IDX 4 13 3 14 2 15 1 16
REMARK H PARENT
REMARK Flexibility Score: inf
ROOT
ATOM      1  C   UNL     1      18.905  30.927  29.047  1.00  0.00     0.000 C 
ENDROOT
BRANCH   1   2
ATOM      2  C   UNL     1      18.342  29.918  28.029  1.00  0.00     0.000 C 
BRANCH   2   3
ATOM      3  C   UNL     1      19.393  29.259  27.117  1.00  0.00     0.000 C 
BRANCH   3   4
ATOM      4  C   UNL     1      19.091  27.781  26.830  1.00  0.00     0.000 C 
BRANCH   4   5
ATOM      5  C   UNL     1      17.802  27.337  27.533  1.00  0.00     0.006 C 
BRANCH   5   6
ATOM      6  C   UNL     1      18.113  26.465  28.753  1.00  0.00     0.053 C 
BRANCH   6   7
ATOM      7  C   UNL     1      19.064  25.371  28.386  1.00  0.00     0.041 C 
ATOM      8  O   UNL     1      18.698  24.446  27.614  1.00  0.00    -0.550 OA
ATOM      9  O   UNL     1      20.370  25.398  28.856  1.00  0.00    -0.550 OA
ENDBRANCH   6   7
ENDBRANCH   5   6
ENDBRANCH   4   5
ENDBRANCH   3   4
ENDBRANCH   2   3
ENDBRANCH   1   2
BRANCH   1  10
ATOM     10  C   UNL     1      18.344  30.796  30.478  1.00  0.00     0.000 C 
BRANCH  10  11
ATOM     11  C   UNL     1      18.220  29.352  30.997  1.00  0.00    -0.000 C 
BRANCH  11  12
ATOM     12  C   UNL     1      19.503  28.852  31.678  1.00  0.00    -0.000 C 
BRANCH  12  13
ATOM     13  C   UNL     1      19.288  27.461  32.295  1.00  0.00    -0.000 C 
BRANCH  13  14
ATOM     14  C   UNL     1      19.581  27.424  33.805  1.00  0.00    -0.000 C 
BRANCH  14  15
ATOM     15  C   UNL     1      19.242  28.721  34.561  1.00  0.00    -0.003 C 
ATOM     16  C   UNL     1      17.751  28.866  34.863  1.00  0.00     0.004 C 
ENDBRANCH  14  15
ENDBRANCH  13  14
ENDBRANCH  12  13
ENDBRANCH  11  12
ENDBRANCH  10  11
ENDBRANCH   1  10
TORSDOF 12
ENDMDL
