MODEL 1
REMARK VINA RESULT:    -4.056      0.000      0.000
REMARK INTER + INTRA:          -5.569
REMARK INTER:                  -5.123
REMARK INTRA:                  -0.446
REMARK UNBOUND:                -0.446
REMARK SMILES CC(C)=CCCC(C)=CCO
REMARK SMILES IDX 7 1 9 2 8 3 6 4 5 5 4 6 1 7 2 8 3 9 10 10 11 11
REMARK H PARENT 11 12
REMARK Flexibility Score: inf
ROOT
ATOM      1  C   UNL     1       4.991  -2.603  26.225  1.00  0.00    -0.075 C 
ATOM      2  C   UNL     1       4.134  -1.729  26.798  1.00  0.00    -0.000 C 
ATOM      3  C   UNL     1       4.893  -2.837  24.740  1.00  0.00     0.039 C 
ENDROOT
BRANCH   1   4
ATOM      4  C   UNL     1       6.009  -3.394  27.022  1.00  0.00     0.034 C 
BRANCH   4   5
ATOM      5  C   UNL     1       6.069  -4.847  26.536  1.00  0.00     0.032 C 
BRANCH   5   6
ATOM      6  C   UNL     1       7.490  -5.275  26.261  1.00  0.00    -0.028 C 
ATOM      7  C   UNL     1       9.363  -6.059  24.874  1.00  0.00     0.039 C 
ATOM      8  C   UNL     1       7.922  -5.650  25.038  1.00  0.00    -0.080 C 
ATOM      9  C   UNL     1       6.998  -5.666  23.844  1.00  0.00     0.039 C 
ENDBRANCH   5   6
ENDBRANCH   4   5
ENDBRANCH   1   4
BRANCH   2  10
ATOM     10  C   UNL     1       4.120  -1.410  28.271  1.00  0.00     0.183 C 
BRANCH  10  11
ATOM     11  O   UNL     1       4.196  -0.024  28.469  1.00  0.00    -0.392 OA
ATOM     12  H   UNL     1       3.666   0.177  29.284  1.00  0.00     0.210 HD
ENDBRANCH  10  11
ENDBRANCH   2  10
TORSDOF 5
ENDMDL
MODEL 2
REMARK VINA RESULT:    -3.989      1.263      1.694
REMARK INTER + INTRA:          -5.484
REMARK INTER:                  -5.111
REMARK INTRA:                  -0.373
REMARK UNBOUND:                -0.446
REMARK SMILES CC(C)=CCCC(C)=CCO
REMARK SMILES IDX 7 1 9 2 8 3 6 4 5 5 4 6 1 7 2 8 3 9 10 10 11 11
REMARK H PARENT 11 12
REMARK Flexibility Score: inf
ROOT
ATOM      1  C   UNL     1       3.464  -2.951  25.834  1.00  0.00    -0.075 C 
ATOM      2  C   UNL     1       3.304  -2.586  27.125  1.00  0.00    -0.000 C 
ATOM      3  C   UNL     1       2.358  -3.725  25.164  1.00  0.00     0.039 C 
ENDROOT
BRANCH   1   4
ATOM      4  C   UNL     1       4.729  -2.661  25.051  1.00  0.00     0.034 C 
BRANCH   4   5
ATOM      5  C   UNL     1       5.446  -3.963  24.677  1.00  0.00     0.032 C 
BRANCH   5   6
ATOM      6  C   UNL     1       6.391  -4.402  25.768  1.00  0.00    -0.028 C 
ATOM      7  C   UNL     1       8.347  -5.562  26.703  1.00  0.00     0.039 C 
ATOM      8  C   UNL     1       7.468  -5.183  25.540  1.00  0.00    -0.080 C 
ATOM      9  C   UNL     1       7.805  -5.679  24.154  1.00  0.00     0.039 C 
ENDBRANCH   5   6
ENDBRANCH   4   5
ENDBRANCH   1   4
BRANCH   2  10
ATOM     10  C   UNL     1       4.333  -1.817  27.915  1.00  0.00     0.183 C 
BRANCH  10  11
ATOM     11  O   UNL     1       4.182  -0.441  27.700  1.00  0.00    -0.392 OA
ATOM     12  H   UNL     1       4.286  -0.001  28.584  1.00  0.00     0.210 HD
ENDBRANCH  10  11
ENDBRANCH   2  10
TORSDOF 5
ENDMDL
MODEL 3
REMARK VINA RESULT:    -3.952      3.775      6.320
REMARK INTER + INTRA:          -5.437
REMARK INTER:                  -4.941
REMARK INTRA:                  -0.496
REMARK UNBOUND:                -0.446
REMARK SMILES CC(C)=CCCC(C)=CCO
REMARK SMILES IDX 7 1 9 2 8 3 6 4 5 5 4 6 1 7 2 8 3 9 10 10 11 11
REMARK H PARENT 11 12
REMARK Flexibility Score: inf
ROOT
ATOM      1  C   UNL     1       9.083  -6.205  25.362  1.00  0.00    -0.075 C 
ATOM      2  C   UNL     1       9.988  -7.208  25.334  1.00  0.00    -0.000 C 
ATOM      3  C   UNL     1       8.807  -5.523  26.677  1.00  0.00     0.039 C 
ENDROOT
BRANCH   1   4
ATOM      4  C   UNL     1       8.295  -5.776  24.139  1.00  0.00     0.034 C 
BRANCH   4   5
ATOM      5  C   UNL     1       6.789  -5.863  24.406  1.00  0.00     0.032 C 
BRANCH   5   6
ATOM      6  C   UNL     1       6.123  -4.520  24.232  1.00  0.00    -0.028 C 
ATOM      7  C   UNL     1       4.811  -2.564  24.938  1.00  0.00     0.039 C 
ATOM      8  C   UNL     1       5.437  -3.905  25.219  1.00  0.00    -0.080 C 
ATOM      9  C   UNL     1       5.286  -4.531  26.585  1.00  0.00     0.039 C 
ENDBRANCH   5   6
ENDBRANCH   4   5
ENDBRANCH   1   4
BRANCH   2  10
ATOM     10  C   UNL     1      10.350  -7.978  24.089  1.00  0.00     0.183 C 
BRANCH  10  11
ATOM     11  O   UNL     1      11.400  -7.342  23.413  1.00  0.00    -0.392 OA
ATOM     12  H   UNL     1      12.185  -7.365  24.021  1.00  0.00     0.210 HD
ENDBRANCH  10  11
ENDBRANCH   2  10
TORSDOF 5
ENDMDL
MODEL 4
REMARK VINA RESULT:    -3.865      2.268      5.057
REMARK INTER + INTRA:          -5.328
REMARK INTER:                  -4.971
REMARK INTRA:                  -0.357
REMARK UNBOUND:                -0.446
REMARK SMILES CC(C)=CCCC(C)=CCO
REMARK SMILES IDX 7 1 9 2 8 3 6 4 5 5 4 6 1 7 2 8 3 9 10 10 11 11
REMARK H PARENT 11 12
REMARK Flexibility Score: inf
ROOT
ATOM      1  C   UNL     1       6.367  -4.874  24.858  1.00  0.00    -0.075 C 
ATOM      2  C   UNL     1       7.394  -5.184  25.678  1.00  0.00    -0.000 C 
ATOM      3  C   UNL     1       6.633  -4.770  23.378  1.00  0.00     0.039 C 
ENDROOT
BRANCH   1   4
ATOM      4  C   UNL     1       4.971  -4.572  25.369  1.00  0.00     0.034 C 
BRANCH   4   5
ATOM      5  C   UNL     1       4.566  -3.135  25.024  1.00  0.00     0.032 C 
BRANCH   5   6
ATOM      6  C   UNL     1       4.718  -2.221  26.216  1.00  0.00    -0.028 C 
ATOM      7  C   UNL     1       3.973  -1.029  28.233  1.00  0.00     0.039 C 
ATOM      8  C   UNL     1       3.712  -1.957  27.075  1.00  0.00    -0.080 C 
ATOM      9  C   UNL     1       2.342  -2.567  26.899  1.00  0.00     0.039 C 
ENDBRANCH   5   6
ENDBRANCH   4   5
ENDBRANCH   1   4
BRANCH   2  10
ATOM     10  C   UNL     1       7.266  -5.311  27.175  1.00  0.00     0.183 C 
BRANCH  10  11
ATOM     11  O   UNL     1       8.447  -4.889  27.801  1.00  0.00    -0.392 OA
ATOM     12  H   UNL     1       8.376  -5.158  28.754  1.00  0.00     0.210 HD
ENDBRANCH  10  11
ENDBRANCH   2  10
TORSDOF 5
ENDMDL
MODEL 5
REMARK VINA RESULT:    -3.839      2.338      2.855
REMARK INTER + INTRA:          -5.295
REMARK INTER:                  -4.745
REMARK INTRA:                  -0.551
REMARK UNBOUND:                -0.446
REMARK SMILES CC(C)=CCCC(C)=CCO
REMARK SMILES IDX 7 1 9 2 8 3 6 4 5 5 4 6 1 7 2 8 3 9 10 10 11 11
REMARK H PARENT 11 12
REMARK Flexibility Score: inf
ROOT
ATOM      1  C   UNL     1       5.425  -3.676  25.765  1.00  0.00    -0.075 C 
ATOM      2  C   UNL     1       6.144  -3.481  26.892  1.00  0.00    -0.000 C 
ATOM      3  C   UNL     1       4.819  -2.477  25.083  1.00  0.00     0.039 C 
ENDROOT
BRANCH   1   4
ATOM      4  C   UNL     1       5.159  -5.053  25.190  1.00  0.00     0.034 C 
BRANCH   4   5
ATOM      5  C   UNL     1       5.898  -5.238  23.860  1.00  0.00     0.032 C 
BRANCH   5   6
ATOM      6  C   UNL     1       7.390  -5.335  24.070  1.00  0.00    -0.028 C 
ATOM      7  C   UNL     1       9.517  -6.481  24.527  1.00  0.00     0.039 C 
ATOM      8  C   UNL     1       8.022  -6.497  24.335  1.00  0.00    -0.080 C 
ATOM      9  C   UNL     1       7.268  -7.801  24.441  1.00  0.00     0.039 C 
ENDBRANCH   5   6
ENDBRANCH   4   5
ENDBRANCH   1   4
BRANCH   2  10
ATOM     10  C   UNL     1       6.796  -4.593  27.675  1.00  0.00     0.183 C 
BRANCH  10  11
ATOM     11  O   UNL     1       8.184  -4.570  27.486  1.00  0.00    -0.392 OA
ATOM     12  H   UNL     1       8.357  -4.963  26.591  1.00  0.00     0.210 HD
ENDBRANCH  10  11
ENDBRANCH   2  10
TORSDOF 5
ENDMDL
MODEL 6
REMARK VINA RESULT:    -3.839      2.241      4.292
REMARK INTER + INTRA:          -5.294
REMARK INTER:                  -4.482
REMARK INTRA:                  -0.812
REMARK UNBOUND:                -0.446
REMARK SMILES CC(C)=CCCC(C)=CCO
REMARK SMILES IDX 7 1 9 2 8 3 6 4 5 5 4 6 1 7 2 8 3 9 10 10 11 11
REMARK H PARENT 11 12
REMARK Flexibility Score: inf
ROOT
ATOM      1  C   UNL     1       8.089  -6.112  25.768  1.00  0.00    -0.075 C 
ATOM      2  C   UNL     1       8.473  -5.267  26.751  1.00  0.00    -0.000 C 
ATOM      3  C   UNL     1       8.963  -6.239  24.548  1.00  0.00     0.039 C 
ENDROOT
BRANCH   1   4
ATOM      4  C   UNL     1       6.791  -6.894  25.820  1.00  0.00     0.034 C 
BRANCH   4   5
ATOM      5  C   UNL     1       5.801  -6.373  24.772  1.00  0.00     0.032 C 
BRANCH   5   6
ATOM      6  C   UNL     1       5.218  -5.042  25.184  1.00  0.00    -0.028 C 
ATOM      7  C   UNL     1       4.799  -2.627  24.994  1.00  0.00     0.039 C 
ATOM      8  C   UNL     1       5.430  -3.902  24.496  1.00  0.00    -0.080 C 
ATOM      9  C   UNL     1       6.280  -3.877  23.248  1.00  0.00     0.039 C 
ENDBRANCH   5   6
ENDBRANCH   4   5
ENDBRANCH   1   4
BRANCH   2  10
ATOM     10  C   UNL     1       7.688  -5.041  28.018  1.00  0.00     0.183 C 
BRANCH  10  11
ATOM     11  O   UNL     1       7.035  -3.801  27.970  1.00  0.00    -0.392 OA
ATOM     12  H   UNL     1       6.060  -3.991  27.985  1.00  0.00     0.210 HD
ENDBRANCH  10  11
ENDBRANCH   2  10
TORSDOF 5
ENDMDL
MODEL 7
REMARK VINA RESULT:    -3.801      2.496      4.942
REMARK INTER + INTRA:          -5.247
REMARK INTER:                  -4.590
REMARK INTRA:                  -0.657
REMARK UNBOUND:                -0.446
REMARK SMILES CC(C)=CCCC(C)=CCO
REMARK SMILES IDX 7 1 9 2 8 3 6 4 5 5 4 6 1 7 2 8 3 9 10 10 11 11
REMARK H PARENT 11 12
REMARK Flexibility Score: inf
ROOT
ATOM      1  C   UNL     1       7.296  -6.583  24.958  1.00  0.00    -0.075 C 
ATOM      2  C   UNL     1       7.915  -6.571  26.159  1.00  0.00    -0.000 C 
ATOM      3  C   UNL     1       6.296  -7.674  24.675  1.00  0.00     0.039 C 
ENDROOT
BRANCH   1   4
ATOM      4  C   UNL     1       7.606  -5.577  23.866  1.00  0.00     0.034 C 
BRANCH   4   5
ATOM      5  C   UNL     1       6.318  -4.936  23.338  1.00  0.00     0.032 C 
BRANCH   5   6
ATOM      6  C   UNL     1       5.967  -3.690  24.115  1.00  0.00    -0.028 C 
ATOM      7  C   UNL     1       4.668  -2.333  25.701  1.00  0.00     0.039 C 
ATOM      8  C   UNL     1       4.929  -3.628  24.975  1.00  0.00    -0.080 C 
ATOM      9  C   UNL     1       4.034  -4.818  25.222  1.00  0.00     0.039 C 
ENDBRANCH   5   6
ENDBRANCH   4   5
ENDBRANCH   1   4
BRANCH   2  10
ATOM     10  C   UNL     1       8.940  -5.542  26.566  1.00  0.00     0.183 C 
BRANCH  10  11
ATOM     11  O   UNL     1       8.443  -4.748  27.608  1.00  0.00    -0.392 OA
ATOM     12  H   UNL     1       8.724  -3.815  27.414  1.00  0.00     0.210 HD
ENDBRANCH  10  11
ENDBRANCH   2  10
TORSDOF 5
ENDMDL
MODEL 8
REMARK VINA RESULT:    -3.708      3.157      5.595
REMARK INTER + INTRA:          -5.130
REMARK INTER:                  -4.681
REMARK INTRA:                  -0.449
REMARK UNBOUND:                -0.446
REMARK SMILES CC(C)=CCCC(C)=CCO
REMARK SMILES IDX 7 1 9 2 8 3 6 4 5 5 4 6 1 7 2 8 3 9 10 10 11 11
REMARK H PARENT 11 12
REMARK Flexibility Score: inf
ROOT
ATOM      1  C   UNL     1       7.196  -5.248  24.422  1.00  0.00    -0.075 C 
ATOM      2  C   UNL     1       8.075  -6.148  23.930  1.00  0.00    -0.000 C 
ATOM      3  C   UNL     1       6.253  -4.567  23.465  1.00  0.00     0.039 C 
ENDROOT
BRANCH   1   4
ATOM      4  C   UNL     1       7.158  -4.856  25.886  1.00  0.00     0.034 C 
BRANCH   4   5
ATOM      5  C   UNL     1       5.720  -4.883  26.417  1.00  0.00     0.032 C 
BRANCH   5   6
ATOM      6  C   UNL     1       5.368  -3.591  27.114  1.00  0.00    -0.028 C 
ATOM      7  C   UNL     1       4.149  -1.480  27.434  1.00  0.00     0.039 C 
ATOM      8  C   UNL     1       4.421  -2.744  26.660  1.00  0.00    -0.080 C 
ATOM      9  C   UNL     1       3.635  -3.037  25.405  1.00  0.00     0.039 C 
ENDBRANCH   5   6
ENDBRANCH   4   5
ENDBRANCH   1   4
BRANCH   2  10
ATOM     10  C   UNL     1       9.077  -6.894  24.776  1.00  0.00     0.183 C 
BRANCH  10  11
ATOM     11  O   UNL     1      10.367  -6.737  24.251  1.00  0.00    -0.392 OA
ATOM     12  H   UNL     1      10.763  -5.943  24.699  1.00  0.00     0.210 HD
ENDBRANCH  10  11
ENDBRANCH   2  10
TORSDOF 5
ENDMDL
MODEL 9
REMARK VINA RESULT:    -3.708      1.732      2.622
REMARK INTER + INTRA:          -5.129
REMARK INTER:                  -4.636
REMARK INTRA:                  -0.493
REMARK UNBOUND:                -0.446
REMARK SMILES CC(C)=CCCC(C)=CCO
REMARK SMILES IDX 7 1 9 2 8 3 6 4 5 5 4 6 1 7 2 8 3 9 10 10 11 11
REMARK H PARENT 11 12
REMARK Flexibility Score: inf
ROOT
ATOM      1  C   UNL     1       5.917  -4.420  24.741  1.00  0.00    -0.075 C 
ATOM      2  C   UNL     1       5.108  -3.354  24.552  1.00  0.00    -0.000 C 
ATOM      3  C   UNL     1       6.718  -4.930  23.571  1.00  0.00     0.039 C 
ENDROOT
BRANCH   1   4
ATOM      4  C   UNL     1       6.009  -5.156  26.064  1.00  0.00     0.034 C 
BRANCH   4   5
ATOM      5  C   UNL     1       7.148  -4.590  26.920  1.00  0.00     0.032 C 
BRANCH   5   6
ATOM      6  C   UNL     1       7.900  -5.691  27.629  1.00  0.00    -0.028 C 
ATOM      7  C   UNL     1       9.665  -7.381  27.899  1.00  0.00     0.039 C 
ATOM      8  C   UNL     1       8.989  -6.292  27.107  1.00  0.00    -0.080 C 
ATOM      9  C   UNL     1       9.539  -5.898  25.757  1.00  0.00     0.039 C 
ENDBRANCH   5   6
ENDBRANCH   4   5
ENDBRANCH   1   4
BRANCH   2  10
ATOM     10  C   UNL     1       4.248  -2.750  25.634  1.00  0.00     0.183 C 
BRANCH  10  11
ATOM     11  O   UNL     1       4.976  -1.794  26.356  1.00  0.00    -0.392 OA
ATOM     12  H   UNL     1       4.312  -1.229  26.831  1.00  0.00     0.210 HD
ENDBRANCH  10  11
ENDBRANCH   2  10
TORSDOF 5
ENDMDL
