MODEL 1
REMARK VINA RESULT:    -4.618      0.000      0.000
REMARK INTER + INTRA:          -5.376
REMARK INTER:                  -5.157
REMARK INTRA:                  -0.219
REMARK UNBOUND:                -0.219
REMARK SMILES O=C([O-])c1ccccc1C(=O)[O-]
REMARK SMILES IDX 4 1 9 2 5 3 8 4 6 5 7 6 2 7 1 8 3 9 10 10 11 11 12 12
REMARK H PARENT
REMARK Flexibility Score: inf
ROOT
ATOM      1  C   UNL     1       5.730 -13.879  16.316  1.00  0.00     0.006 A 
ATOM      2  C   UNL     1       5.624 -13.078  17.489  1.00  0.00     0.006 A 
ATOM      3  C   UNL     1       6.864 -13.741  15.494  1.00  0.00     0.010 A 
ATOM      4  C   UNL     1       6.622 -12.123  17.757  1.00  0.00     0.010 A 
ATOM      5  C   UNL     1       7.852 -12.802  15.792  1.00  0.00     0.001 A 
ATOM      6  C   UNL     1       7.725 -11.987  16.914  1.00  0.00     0.001 A 
ENDROOT
BRANCH   1   7
ATOM      7  C   UNL     1       4.668 -14.814  15.879  1.00  0.00     0.072 C 
ATOM      8  O   UNL     1       4.765 -16.050  16.100  1.00  0.00    -0.545 OA
ATOM      9  O   UNL     1       3.514 -14.325  15.276  1.00  0.00    -0.545 OA
ENDBRANCH   1   7
BRANCH   2  10
ATOM     10  C   UNL     1       4.542 -13.245  18.487  1.00  0.00     0.072 C 
ATOM     11  O   UNL     1       4.717 -13.951  19.515  1.00  0.00    -0.545 OA
ATOM     12  O   UNL     1       3.340 -12.567  18.331  1.00  0.00    -0.545 OA
ENDBRANCH   2  10
TORSDOF 2
ENDMDL
MODEL 2
REMARK VINA RESULT:    -4.615      0.124      2.877
REMARK INTER + INTRA:          -5.373
REMARK INTER:                  -5.153
REMARK INTRA:                  -0.220
REMARK UNBOUND:                -0.219
REMARK SMILES O=C([O-])c1ccccc1C(=O)[O-]
REMARK SMILES IDX 4 1 9 2 5 3 8 4 6 5 7 6 2 7 1 8 3 9 10 10 11 11 12 12
REMARK H PARENT
REMARK Flexibility Score: inf
ROOT
ATOM      1  C   UNL     1       5.714 -12.999  17.502  1.00  0.00     0.006 A 
ATOM      2  C   UNL     1       5.788 -13.804  16.330  1.00  0.00     0.006 A 
ATOM      3  C   UNL     1       6.714 -12.038  17.737  1.00  0.00     0.010 A 
ATOM      4  C   UNL     1       6.895 -13.662  15.473  1.00  0.00     0.010 A 
ATOM      5  C   UNL     1       7.791 -11.900  16.860  1.00  0.00     0.001 A 
ATOM      6  C   UNL     1       7.887 -12.718  15.738  1.00  0.00     0.001 A 
ENDROOT
BRANCH   1   7
ATOM      7  C   UNL     1       4.662 -13.167  18.532  1.00  0.00     0.072 C 
ATOM      8  O   UNL     1       4.866 -13.878  19.552  1.00  0.00    -0.545 OA
ATOM      9  O   UNL     1       3.457 -12.484  18.415  1.00  0.00    -0.545 OA
ENDBRANCH   1   7
BRANCH   2  10
ATOM     10  C   UNL     1       4.717 -14.744  15.926  1.00  0.00     0.072 C 
ATOM     11  O   UNL     1       4.823 -15.978  16.152  1.00  0.00    -0.545 OA
ATOM     12  O   UNL     1       3.548 -14.262  15.350  1.00  0.00    -0.545 OA
ENDBRANCH   2  10
TORSDOF 2
ENDMDL
MODEL 3
REMARK VINA RESULT:    -4.449      1.537      3.450
REMARK INTER + INTRA:          -5.188
REMARK INTER:                  -4.960
REMARK INTRA:                  -0.229
REMARK UNBOUND:                -0.219
REMARK SMILES O=C([O-])c1ccccc1C(=O)[O-]
REMARK SMILES IDX 4 1 9 2 5 3 8 4 6 5 7 6 2 7 1 8 3 9 10 10 11 11 12 12
REMARK H PARENT
REMARK Flexibility Score: inf
ROOT
ATOM      1  C   UNL     1       3.807 -13.346  17.838  1.00  0.00     0.006 A 
ATOM      2  C   UNL     1       4.304 -13.647  16.538  1.00  0.00     0.006 A 
ATOM      3  C   UNL     1       4.661 -12.733  18.773  1.00  0.00     0.010 A 
ATOM      4  C   UNL     1       5.656 -13.385  16.246  1.00  0.00     0.010 A 
ATOM      5  C   UNL     1       5.992 -12.462  18.453  1.00  0.00     0.001 A 
ATOM      6  C   UNL     1       6.491 -12.798  17.197  1.00  0.00     0.001 A 
ENDROOT
BRANCH   1   7
ATOM      7  C   UNL     1       2.441 -13.707  18.283  1.00  0.00     0.072 C 
ATOM      8  O   UNL     1       1.488 -12.891  18.169  1.00  0.00    -0.545 OA
ATOM      9  O   UNL     1       2.182 -14.983  18.772  1.00  0.00    -0.545 OA
ENDBRANCH   1   7
BRANCH   2  10
ATOM     10  C   UNL     1       3.449 -14.165  15.446  1.00  0.00     0.072 C 
ATOM     11  O   UNL     1       3.421 -15.395  15.176  1.00  0.00    -0.545 OA
ATOM     12  O   UNL     1       2.614 -13.302  14.747  1.00  0.00    -0.545 OA
ENDBRANCH   2  10
TORSDOF 2
ENDMDL
MODEL 4
REMARK VINA RESULT:    -4.445      1.727      2.403
REMARK INTER + INTRA:          -5.184
REMARK INTER:                  -4.972
REMARK INTRA:                  -0.212
REMARK UNBOUND:                -0.219
REMARK SMILES O=C([O-])c1ccccc1C(=O)[O-]
REMARK SMILES IDX 4 1 9 2 5 3 8 4 6 5 7 6 2 7 1 8 3 9 10 10 11 11 12 12
REMARK H PARENT
REMARK Flexibility Score: inf
ROOT
ATOM      1  C   UNL     1       4.141 -13.589  16.598  1.00  0.00     0.006 A 
ATOM      2  C   UNL     1       3.522 -13.341  17.857  1.00  0.00     0.006 A 
ATOM      3  C   UNL     1       5.514 -13.320  16.447  1.00  0.00     0.010 A 
ATOM      4  C   UNL     1       4.284 -12.771  18.893  1.00  0.00     0.010 A 
ATOM      5  C   UNL     1       6.256 -12.775  17.496  1.00  0.00     0.001 A 
ATOM      6  C   UNL     1       5.639 -12.491  18.712  1.00  0.00     0.001 A 
ENDROOT
BRANCH   1   7
ATOM      7  C   UNL     1       3.393 -14.058  15.409  1.00  0.00     0.072 C 
ATOM      8  O   UNL     1       3.477 -15.255  15.026  1.00  0.00    -0.545 OA
ATOM      9  O   UNL     1       2.533 -13.194  14.741  1.00  0.00    -0.545 OA
ENDBRANCH   1   7
BRANCH   2  10
ATOM     10  C   UNL     1       2.121 -13.717  18.156  1.00  0.00     0.072 C 
ATOM     11  O   UNL     1       1.203 -12.856  18.133  1.00  0.00    -0.545 OA
ATOM     12  O   UNL     1       1.794 -15.045  18.401  1.00  0.00    -0.545 OA
ENDBRANCH   2  10
TORSDOF 2
ENDMDL
MODEL 5
REMARK VINA RESULT:    -4.404      1.425      1.910
REMARK INTER + INTRA:          -5.137
REMARK INTER:                  -4.921
REMARK INTRA:                  -0.216
REMARK UNBOUND:                -0.219
REMARK SMILES O=C([O-])c1ccccc1C(=O)[O-]
REMARK SMILES IDX 4 1 9 2 5 3 8 4 6 5 7 6 2 7 1 8 3 9 10 10 11 11 12 12
REMARK H PARENT
REMARK Flexibility Score: inf
ROOT
ATOM      1  C   UNL     1       4.229 -13.639  16.997  1.00  0.00     0.006 A 
ATOM      2  C   UNL     1       4.204 -12.944  18.240  1.00  0.00     0.006 A 
ATOM      3  C   UNL     1       5.424 -13.669  16.254  1.00  0.00     0.010 A 
ATOM      4  C   UNL     1       5.355 -12.251  18.658  1.00  0.00     0.010 A 
ATOM      5  C   UNL     1       6.560 -12.992  16.700  1.00  0.00     0.001 A 
ATOM      6  C   UNL     1       6.521 -12.275  17.893  1.00  0.00     0.001 A 
ENDROOT
BRANCH   1   7
ATOM      7  C   UNL     1       3.033 -14.284  16.408  1.00  0.00     0.072 C 
ATOM      8  O   UNL     1       2.296 -13.659  15.599  1.00  0.00    -0.545 OA
ATOM      9  O   UNL     1       2.747 -15.615  16.692  1.00  0.00    -0.545 OA
ENDBRANCH   1   7
BRANCH   2  10
ATOM     10  C   UNL     1       3.041 -12.970  19.156  1.00  0.00     0.072 C 
ATOM     11  O   UNL     1       2.941 -13.854  20.048  1.00  0.00    -0.545 OA
ATOM     12  O   UNL     1       2.076 -11.972  19.084  1.00  0.00    -0.545 OA
ENDBRANCH   2  10
TORSDOF 2
ENDMDL
MODEL 6
REMARK VINA RESULT:    -4.272      3.745      4.897
REMARK INTER + INTRA:          -4.990
REMARK INTER:                  -4.802
REMARK INTRA:                  -0.189
REMARK UNBOUND:                -0.219
REMARK SMILES O=C([O-])c1ccccc1C(=O)[O-]
REMARK SMILES IDX 4 1 9 2 5 3 8 4 6 5 7 6 2 7 1 8 3 9 10 10 11 11 12 12
REMARK H PARENT
REMARK Flexibility Score: inf
ROOT
ATOM      1  C   UNL     1       3.635 -16.050  14.650  1.00  0.00     0.006 A 
ATOM      2  C   UNL     1       2.460 -15.273  14.433  1.00  0.00     0.006 A 
ATOM      3  C   UNL     1       4.651 -15.536  15.477  1.00  0.00     0.010 A 
ATOM      4  C   UNL     1       2.378 -13.987  14.997  1.00  0.00     0.010 A 
ATOM      5  C   UNL     1       4.537 -14.266  16.044  1.00  0.00     0.001 A 
ATOM      6  C   UNL     1       3.409 -13.489  15.794  1.00  0.00     0.001 A 
ENDROOT
BRANCH   1   7
ATOM      7  C   UNL     1       3.873 -17.355  13.991  1.00  0.00     0.072 C 
ATOM      8  O   UNL     1       3.747 -18.433  14.632  1.00  0.00    -0.545 OA
ATOM      9  O   UNL     1       4.171 -17.407  12.635  1.00  0.00    -0.545 OA
ENDBRANCH   1   7
BRANCH   2  10
ATOM     10  C   UNL     1       1.282 -15.781  13.694  1.00  0.00     0.072 C 
ATOM     11  O   UNL     1       0.258 -16.180  14.308  1.00  0.00    -0.545 OA
ATOM     12  O   UNL     1       1.269 -15.758  12.304  1.00  0.00    -0.545 OA
ENDBRANCH   2  10
TORSDOF 2
ENDMDL
MODEL 7
REMARK VINA RESULT:    -4.236      3.800      5.198
REMARK INTER + INTRA:          -4.950
REMARK INTER:                  -4.786
REMARK INTRA:                  -0.164
REMARK UNBOUND:                -0.219
REMARK SMILES O=C([O-])c1ccccc1C(=O)[O-]
REMARK SMILES IDX 4 1 9 2 5 3 8 4 6 5 7 6 2 7 1 8 3 9 10 10 11 11 12 12
REMARK H PARENT
REMARK Flexibility Score: inf
ROOT
ATOM      1  C   UNL     1       2.378 -15.292  14.432  1.00  0.00     0.006 A 
ATOM      2  C   UNL     1       3.608 -16.001  14.543  1.00  0.00     0.006 A 
ATOM      3  C   UNL     1       2.248 -14.044  15.069  1.00  0.00     0.010 A 
ATOM      4  C   UNL     1       4.636 -15.467  15.342  1.00  0.00     0.010 A 
ATOM      5  C   UNL     1       3.290 -13.523  15.838  1.00  0.00     0.001 A 
ATOM      6  C   UNL     1       4.476 -14.238  15.983  1.00  0.00     0.001 A 
ENDROOT
BRANCH   1   7
ATOM      7  C   UNL     1       1.194 -15.835  13.727  1.00  0.00     0.072 C 
ATOM      8  O   UNL     1       0.202 -16.267  14.372  1.00  0.00    -0.545 OA
ATOM      9  O   UNL     1       1.138 -15.812  12.338  1.00  0.00    -0.545 OA
ENDBRANCH   1   7
BRANCH   2  10
ATOM     10  C   UNL     1       3.890 -17.251  13.800  1.00  0.00     0.072 C 
ATOM     11  O   UNL     1       4.166 -17.224  12.572  1.00  0.00    -0.545 OA
ATOM     12  O   UNL     1       3.918 -18.468  14.471  1.00  0.00    -0.545 OA
ENDBRANCH   2  10
TORSDOF 2
ENDMDL
MODEL 8
REMARK VINA RESULT:    -4.228      2.593      4.122
REMARK INTER + INTRA:          -4.941
REMARK INTER:                  -4.726
REMARK INTRA:                  -0.215
REMARK UNBOUND:                -0.219
REMARK SMILES O=C([O-])c1ccccc1C(=O)[O-]
REMARK SMILES IDX 4 1 9 2 5 3 8 4 6 5 7 6 2 7 1 8 3 9 10 10 11 11 12 12
REMARK H PARENT
REMARK Flexibility Score: inf
ROOT
ATOM      1  C   UNL     1       2.839 -13.260  17.900  1.00  0.00     0.006 A 
ATOM      2  C   UNL     1       4.232 -13.447  17.669  1.00  0.00     0.006 A 
ATOM      3  C   UNL     1       1.927 -13.578  16.877  1.00  0.00     0.010 A 
ATOM      4  C   UNL     1       4.662 -13.881  16.401  1.00  0.00     0.010 A 
ATOM      5  C   UNL     1       2.376 -14.028  15.635  1.00  0.00     0.001 A 
ATOM      6  C   UNL     1       3.741 -14.168  15.394  1.00  0.00     0.001 A 
ENDROOT
BRANCH   1   7
ATOM      7  C   UNL     1       2.300 -12.680  19.152  1.00  0.00     0.072 C 
ATOM      8  O   UNL     1       2.167 -11.434  19.280  1.00  0.00    -0.545 OA
ATOM      9  O   UNL     1       1.869 -13.514  20.177  1.00  0.00    -0.545 OA
ENDBRANCH   1   7
BRANCH   2  10
ATOM     10  C   UNL     1       5.257 -13.272  18.724  1.00  0.00     0.072 C 
ATOM     11  O   UNL     1       5.972 -12.236  18.763  1.00  0.00    -0.545 OA
ATOM     12  O   UNL     1       5.395 -14.225  19.726  1.00  0.00    -0.545 OA
ENDBRANCH   2  10
TORSDOF 2
ENDMDL
MODEL 9
REMARK VINA RESULT:    -4.189      2.578      3.766
REMARK INTER + INTRA:          -4.898
REMARK INTER:                  -4.688
REMARK INTRA:                  -0.210
REMARK UNBOUND:                -0.219
REMARK SMILES O=C([O-])c1ccccc1C(=O)[O-]
REMARK SMILES IDX 4 1 9 2 5 3 8 4 6 5 7 6 2 7 1 8 3 9 10 10 11 11 12 12
REMARK H PARENT
REMARK Flexibility Score: inf
ROOT
ATOM      1  C   UNL     1       4.234 -13.485  17.643  1.00  0.00     0.006 A 
ATOM      2  C   UNL     1       2.847 -13.301  17.913  1.00  0.00     0.006 A 
ATOM      3  C   UNL     1       4.631 -13.898  16.358  1.00  0.00     0.010 A 
ATOM      4  C   UNL     1       1.909 -13.604  16.909  1.00  0.00     0.010 A 
ATOM      5  C   UNL     1       3.683 -14.171  15.371  1.00  0.00     0.001 A 
ATOM      6  C   UNL     1       2.325 -14.035  15.650  1.00  0.00     0.001 A 
ENDROOT
BRANCH   1   7
ATOM      7  C   UNL     1       5.285 -13.323  18.673  1.00  0.00     0.072 C 
ATOM      8  O   UNL     1       6.021 -12.300  18.689  1.00  0.00    -0.545 OA
ATOM      9  O   UNL     1       5.427 -14.272  19.679  1.00  0.00    -0.545 OA
ENDBRANCH   1   7
BRANCH   2  10
ATOM     10  C   UNL     1       2.340 -12.739  19.186  1.00  0.00     0.072 C 
ATOM     11  O   UNL     1       2.057 -13.491  20.156  1.00  0.00    -0.545 OA
ATOM     12  O   UNL     1       2.234 -11.363  19.347  1.00  0.00    -0.545 OA
ENDBRANCH   2  10
TORSDOF 2
ENDMDL
