MODEL 1
REMARK VINA RESULT:    -3.949      0.000      0.000
REMARK INTER + INTRA:          -4.738
REMARK INTER:                  -4.642
REMARK INTRA:                  -0.096
REMARK UNBOUND:                -0.096
REMARK SMILES COc1ccc(C=CC(=O)[O-])cc1
REMARK SMILES IDX 6 1 5 2 12 3 4 4 13 5 3 6 7 7 8 8 9 9 10 10 11 11 2 12 1 13
REMARK H PARENT
REMARK Flexibility Score: inf
ROOT
ATOM      1  C   UNL     1      -5.287   0.966  -9.643  1.00  0.00    -0.025 A 
ATOM      2  C   UNL     1      -6.068  -0.178  -9.878  1.00  0.00     0.012 A 
ATOM      3  C   UNL     1      -5.875   2.086  -9.040  1.00  0.00     0.012 A 
ATOM      4  C   UNL     1      -7.404  -0.215  -9.468  1.00  0.00     0.047 A 
ATOM      5  C   UNL     1      -7.212   2.048  -8.630  1.00  0.00     0.047 A 
ATOM      6  C   UNL     1      -7.986   0.891  -8.839  1.00  0.00     0.118 A 
ENDROOT
BRANCH   1   7
ATOM      7  C   UNL     1      -3.889   1.048 -10.115  1.00  0.00     0.010 C 
ATOM      8  C   UNL     1      -2.891   0.231  -9.741  1.00  0.00     0.025 C 
BRANCH   8   9
ATOM      9  C   UNL     1      -2.961  -0.778  -8.666  1.00  0.00     0.064 C 
ATOM     10  O   UNL     1      -3.227  -0.458  -7.478  1.00  0.00    -0.545 OA
ATOM     11  O   UNL     1      -2.657  -2.101  -8.960  1.00  0.00    -0.545 OA
ENDBRANCH   8   9
ENDBRANCH   1   7
BRANCH   6  12
ATOM     12  O   UNL     1      -9.329   0.803  -8.444  1.00  0.00    -0.497 OA
ATOM     13  C   UNL     1     -10.051  -0.416  -8.316  1.00  0.00     0.278 C 
ENDBRANCH   6  12
TORSDOF 3
ENDMDL
MODEL 2
REMARK VINA RESULT:    -3.573      3.999      5.248
REMARK INTER + INTRA:          -4.296
REMARK INTER:                  -4.004
REMARK INTRA:                  -0.292
REMARK UNBOUND:                -0.096
REMARK SMILES COc1ccc(C=CC(=O)[O-])cc1
REMARK SMILES IDX 6 1 5 2 12 3 4 4 13 5 3 6 7 7 8 8 9 9 10 10 11 11 2 12 1 13
REMARK H PARENT
REMARK Flexibility Score: inf
ROOT
ATOM      1  C   UNL     1      -4.867  -3.757  -9.684  1.00  0.00    -0.025 A 
ATOM      2  C   UNL     1      -5.879  -2.884 -10.117  1.00  0.00     0.012 A 
ATOM      3  C   UNL     1      -3.816  -3.255  -8.905  1.00  0.00     0.012 A 
ATOM      4  C   UNL     1      -5.864  -1.541  -9.729  1.00  0.00     0.047 A 
ATOM      5  C   UNL     1      -3.801  -1.912  -8.517  1.00  0.00     0.047 A 
ATOM      6  C   UNL     1      -4.831  -1.044  -8.926  1.00  0.00     0.118 A 
ENDROOT
BRANCH   1   7
ATOM      7  C   UNL     1      -4.833  -5.167 -10.124  1.00  0.00     0.010 C 
ATOM      8  C   UNL     1      -5.659  -6.137  -9.698  1.00  0.00     0.025 C 
BRANCH   8   9
ATOM      9  C   UNL     1      -6.626  -6.018  -8.589  1.00  0.00     0.064 C 
ATOM     10  O   UNL     1      -7.847  -5.798  -8.800  1.00  0.00    -0.545 OA
ATOM     11  O   UNL     1      -6.165  -6.083  -7.281  1.00  0.00    -0.545 OA
ENDBRANCH   8   9
ENDBRANCH   1   7
BRANCH   6  12
ATOM     12  O   UNL     1      -4.863   0.311  -8.563  1.00  0.00    -0.497 OA
ATOM     13  C   UNL     1      -6.027   1.127  -8.603  1.00  0.00     0.278 C 
ENDBRANCH   6  12
TORSDOF 3
ENDMDL
MODEL 3
REMARK VINA RESULT:    -3.437      1.566      5.292
REMARK INTER + INTRA:          -4.136
REMARK INTER:                  -4.054
REMARK INTRA:                  -0.082
REMARK UNBOUND:                -0.096
REMARK SMILES COc1ccc(C=CC(=O)[O-])cc1
REMARK SMILES IDX 6 1 5 2 12 3 4 4 13 5 3 6 7 7 8 8 9 9 10 10 11 11 2 12 1 13
REMARK H PARENT
REMARK Flexibility Score: inf
ROOT
ATOM      1  C   UNL     1      -6.478   0.523  -9.147  1.00  0.00    -0.025 A 
ATOM      2  C   UNL     1      -5.456   0.596  -8.186  1.00  0.00     0.012 A 
ATOM      3  C   UNL     1      -6.431  -0.480 -10.124  1.00  0.00     0.012 A 
ATOM      4  C   UNL     1      -4.431  -0.356  -8.174  1.00  0.00     0.047 A 
ATOM      5  C   UNL     1      -5.407  -1.432 -10.112  1.00  0.00     0.047 A 
ATOM      6  C   UNL     1      -4.398  -1.377  -9.131  1.00  0.00     0.118 A 
ENDROOT
BRANCH   1   7
ATOM      7  C   UNL     1      -7.540   1.548  -9.212  1.00  0.00     0.010 C 
ATOM      8  C   UNL     1      -8.858   1.312  -9.105  1.00  0.00     0.025 C 
BRANCH   8   9
ATOM      9  C   UNL     1      -9.496  -0.019  -9.083  1.00  0.00     0.064 C 
ATOM     10  O   UNL     1      -9.987  -0.532 -10.122  1.00  0.00    -0.545 OA
ATOM     11  O   UNL     1      -9.617  -0.690  -7.873  1.00  0.00    -0.545 OA
ENDBRANCH   8   9
ENDBRANCH   1   7
BRANCH   6  12
ATOM     12  O   UNL     1      -3.351  -2.309  -9.076  1.00  0.00    -0.497 OA
ATOM     13  C   UNL     1      -3.176  -3.377 -10.000  1.00  0.00     0.278 C 
ENDBRANCH   6  12
TORSDOF 3
ENDMDL
MODEL 4
REMARK VINA RESULT:    -3.140     18.046     19.852
REMARK INTER + INTRA:          -3.787
REMARK INTER:                  -5.165
REMARK INTRA:                   1.377
REMARK UNBOUND:                -0.096
REMARK SMILES COc1ccc(C=CC(=O)[O-])cc1
REMARK SMILES IDX 6 1 5 2 12 3 4 4 13 5 3 6 7 7 8 8 9 9 10 10 11 11 2 12 1 13
REMARK H PARENT
REMARK Flexibility Score: inf
ROOT
ATOM      1  C   UNL     1       0.025  -8.518   8.495  1.00  0.00    -0.025 A 
ATOM      2  C   UNL     1       0.373  -7.802   7.339  1.00  0.00     0.012 A 
ATOM      3  C   UNL     1      -0.805  -9.642   8.382  1.00  0.00     0.012 A 
ATOM      4  C   UNL     1      -0.059  -8.237   6.082  1.00  0.00     0.047 A 
ATOM      5  C   UNL     1      -1.237 -10.078   7.125  1.00  0.00     0.047 A 
ATOM      6  C   UNL     1      -0.862  -9.377   5.963  1.00  0.00     0.118 A 
ENDROOT
BRANCH   1   7
ATOM      7  C   UNL     1       0.425  -8.047   9.837  1.00  0.00     0.010 C 
ATOM      8  C   UNL     1       0.892  -6.821  10.125  1.00  0.00     0.025 C 
BRANCH   8   9
ATOM      9  C   UNL     1       1.259  -5.785   9.139  1.00  0.00     0.064 C 
ATOM     10  O   UNL     1       2.088  -6.014   8.220  1.00  0.00    -0.545 OA
ATOM     11  O   UNL     1       0.728  -4.509   9.271  1.00  0.00    -0.545 OA
ENDBRANCH   8   9
ENDBRANCH   1   7
BRANCH   6  12
ATOM     12  O   UNL     1      -1.269  -9.775   4.681  1.00  0.00    -0.497 OA
ATOM     13  C   UNL     1      -0.393  -9.917   3.568  1.00  0.00     0.278 C 
ENDBRANCH   6  12
TORSDOF 3
ENDMDL
MODEL 5
REMARK VINA RESULT:    -3.040      6.132      7.890
REMARK INTER + INTRA:          -3.669
REMARK INTER:                  -3.540
REMARK INTRA:                  -0.130
REMARK UNBOUND:                -0.096
REMARK SMILES COc1ccc(C=CC(=O)[O-])cc1
REMARK SMILES IDX 6 1 5 2 12 3 4 4 13 5 3 6 7 7 8 8 9 9 10 10 11 11 2 12 1 13
REMARK H PARENT
REMARK Flexibility Score: inf
ROOT
ATOM      1  C   UNL     1      -6.404  -6.675  -9.022  1.00  0.00    -0.025 A 
ATOM      2  C   UNL     1      -6.425  -5.807 -10.125  1.00  0.00     0.012 A 
ATOM      3  C   UNL     1      -5.601  -6.361  -7.917  1.00  0.00     0.012 A 
ATOM      4  C   UNL     1      -5.694  -4.615 -10.098  1.00  0.00     0.047 A 
ATOM      5  C   UNL     1      -4.870  -5.170  -7.890  1.00  0.00     0.047 A 
ATOM      6  C   UNL     1      -4.915  -4.284  -8.983  1.00  0.00     0.118 A 
ENDROOT
BRANCH   1   7
ATOM      7  C   UNL     1      -7.126  -7.964  -9.049  1.00  0.00     0.010 C 
ATOM      8  C   UNL     1      -8.202  -8.270  -8.306  1.00  0.00     0.025 C 
BRANCH   8   9
ATOM      9  C   UNL     1      -8.751  -7.453  -7.206  1.00  0.00     0.064 C 
ATOM     10  O   UNL     1      -8.722  -7.849  -6.012  1.00  0.00    -0.545 OA
ATOM     11  O   UNL     1      -9.375  -6.249  -7.506  1.00  0.00    -0.545 OA
ENDBRANCH   8   9
ENDBRANCH   1   7
BRANCH   6  12
ATOM     12  O   UNL     1      -4.202  -3.076  -9.004  1.00  0.00    -0.497 OA
ATOM     13  C   UNL     1      -2.901  -2.921  -9.562  1.00  0.00     0.278 C 
ENDBRANCH   6  12
TORSDOF 3
ENDMDL
MODEL 6
REMARK VINA RESULT:    -2.631      4.345      5.393
REMARK INTER + INTRA:          -3.189
REMARK INTER:                  -3.227
REMARK INTRA:                   0.038
REMARK UNBOUND:                -0.096
REMARK SMILES COc1ccc(C=CC(=O)[O-])cc1
REMARK SMILES IDX 6 1 5 2 12 3 4 4 13 5 3 6 7 7 8 8 9 9 10 10 11 11 2 12 1 13
REMARK H PARENT
REMARK Flexibility Score: inf
ROOT
ATOM      1  C   UNL     1      -4.436  -3.750  -9.033  1.00  0.00    -0.025 A 
ATOM      2  C   UNL     1      -4.530  -4.655  -7.963  1.00  0.00     0.012 A 
ATOM      3  C   UNL     1      -5.305  -3.886 -10.124  1.00  0.00     0.012 A 
ATOM      4  C   UNL     1      -5.516  -5.647  -7.964  1.00  0.00     0.047 A 
ATOM      5  C   UNL     1      -6.290  -4.878 -10.125  1.00  0.00     0.047 A 
ATOM      6  C   UNL     1      -6.404  -5.766  -9.038  1.00  0.00     0.118 A 
ENDROOT
BRANCH   1   7
ATOM      7  C   UNL     1      -3.370  -2.728  -9.079  1.00  0.00     0.010 C 
ATOM      8  C   UNL     1      -3.557  -1.402  -8.982  1.00  0.00     0.025 C 
BRANCH   8   9
ATOM      9  C   UNL     1      -4.863  -0.713  -8.993  1.00  0.00     0.064 C 
ATOM     10  O   UNL     1      -5.599  -0.710 -10.014  1.00  0.00    -0.545 OA
ATOM     11  O   UNL     1      -5.256   0.005  -7.872  1.00  0.00    -0.545 OA
ENDBRANCH   8   9
ENDBRANCH   1   7
BRANCH   6  12
ATOM     12  O   UNL     1      -7.376  -6.776  -8.991  1.00  0.00    -0.497 OA
ATOM     13  C   UNL     1      -8.105  -7.136  -7.822  1.00  0.00     0.278 C 
ENDBRANCH   6  12
TORSDOF 3
ENDMDL
MODEL 7
REMARK VINA RESULT:    -2.326     17.826     19.681
REMARK INTER + INTRA:          -2.830
REMARK INTER:                  -3.255
REMARK INTRA:                   0.425
REMARK UNBOUND:                -0.096
REMARK SMILES COc1ccc(C=CC(=O)[O-])cc1
REMARK SMILES IDX 6 1 5 2 12 3 4 4 13 5 3 6 7 7 8 8 9 9 10 10 11 11 2 12 1 13
REMARK H PARENT
REMARK Flexibility Score: inf
ROOT
ATOM      1  C   UNL     1      -0.994  -9.237   7.395  1.00  0.00    -0.025 A 
ATOM      2  C   UNL     1      -0.064  -8.256   7.014  1.00  0.00     0.012 A 
ATOM      3  C   UNL     1      -1.489 -10.125   6.429  1.00  0.00     0.012 A 
ATOM      4  C   UNL     1       0.404  -8.202   5.697  1.00  0.00     0.047 A 
ATOM      5  C   UNL     1      -1.021 -10.070   5.113  1.00  0.00     0.047 A 
ATOM      6  C   UNL     1      -0.065  -9.106   4.738  1.00  0.00     0.118 A 
ENDROOT
BRANCH   1   7
ATOM      7  C   UNL     1      -1.542  -9.281   8.766  1.00  0.00     0.010 C 
ATOM      8  C   UNL     1      -0.956  -8.759   9.856  1.00  0.00     0.025 C 
BRANCH   8   9
ATOM      9  C   UNL     1       0.413  -8.210   9.919  1.00  0.00     0.064 C 
ATOM     10  O   UNL     1       1.417  -8.956  10.060  1.00  0.00    -0.545 OA
ATOM     11  O   UNL     1       0.590  -6.833   9.890  1.00  0.00    -0.545 OA
ENDBRANCH   8   9
ENDBRANCH   1   7
BRANCH   6  12
ATOM     12  O   UNL     1       0.436  -9.012   3.431  1.00  0.00    -0.497 OA
ATOM     13  C   UNL     1      -0.363  -9.094   2.256  1.00  0.00     0.278 C 
ENDBRANCH   6  12
TORSDOF 3
ENDMDL
