MODEL 1
REMARK VINA RESULT:    -4.586      0.000      0.000
REMARK INTER + INTRA:         -15.879
REMARK INTER:                 -11.556
REMARK INTRA:                  -4.323
REMARK UNBOUND:                -4.323
REMARK SMILES CCCCCCCCCCCCCCCCCCCCCCCCCCCC(=O)[O-]
REMARK SMILES IDX 15 1 16 2 17 3 18 4 19 5 20 6 21 7 22 8 23 9 24 10 25 11
REMARK SMILES IDX 26 12 27 13 28 14 29 15 30 16 14 17 13 18 12 19 11 20 10 21
REMARK SMILES IDX 9 22 8 23 7 24 6 25 5 26 4 27 3 28 2 29 1 30
REMARK H PARENT
REMARK Flexibility Score: inf
ROOT
ATOM      1  C   UNL     1      60.975  30.033  13.313  1.00  0.00     0.000 C 
ENDROOT
BRANCH   1   2
ATOM      2  C   UNL     1      60.363  28.842  12.554  1.00  0.00     0.000 C 
BRANCH   2   3
ATOM      3  C   UNL     1      60.554  28.961  11.032  1.00  0.00     0.000 C 
BRANCH   3   4
ATOM      4  C   UNL     1      60.983  30.376  10.605  1.00  0.00     0.000 C 
BRANCH   4   5
ATOM      5  C   UNL     1      62.138  30.358   9.591  1.00  0.00     0.000 C 
BRANCH   5   6
ATOM      6  C   UNL     1      62.918  29.035   9.618  1.00  0.00     0.000 C 
BRANCH   6   7
ATOM      7  C   UNL     1      64.413  29.270   9.372  1.00  0.00     0.000 C 
BRANCH   7   8
ATOM      8  C   UNL     1      64.697  30.755   9.099  1.00  0.00     0.000 C 
BRANCH   8   9
ATOM      9  C   UNL     1      66.172  31.135   9.323  1.00  0.00     0.000 C 
BRANCH   9  10
ATOM     10  C   UNL     1      66.402  32.549   9.893  1.00  0.00     0.000 C 
BRANCH  10  11
ATOM     11  C   UNL     1      67.875  32.919  10.151  1.00  0.00     0.000 C 
BRANCH  11  12
ATOM     12  C   UNL     1      68.087  34.114  11.103  1.00  0.00     0.006 C 
BRANCH  12  13
ATOM     13  C   UNL     1      66.836  34.518  11.900  1.00  0.00     0.053 C 
BRANCH  13  14
ATOM     14  C   UNL     1      67.165  34.885  13.315  1.00  0.00     0.041 C 
ATOM     15  O   UNL     1      66.955  36.055  13.732  1.00  0.00    -0.550 OA
ATOM     16  O   UNL     1      67.722  33.939  14.166  1.00  0.00    -0.550 OA
ENDBRANCH  13  14
ENDBRANCH  12  13
ENDBRANCH  11  12
ENDBRANCH  10  11
ENDBRANCH   9  10
ENDBRANCH   8   9
ENDBRANCH   7   8
ENDBRANCH   6   7
ENDBRANCH   5   6
ENDBRANCH   4   5
ENDBRANCH   3   4
ENDBRANCH   2   3
ENDBRANCH   1   2
BRANCH   1  17
ATOM     17  C   UNL     1      62.226  29.644  14.128  1.00  0.00     0.000 C 
BRANCH  17  18
ATOM     18  C   UNL     1      63.467  29.348  13.264  1.00  0.00     0.000 C 
BRANCH  18  19
ATOM     19  C   UNL     1      64.223  30.588  12.750  1.00  0.00     0.000 C 
BRANCH  19  20
ATOM     20  C   UNL     1      64.407  31.715  13.784  1.00  0.00     0.000 C 
BRANCH  20  21
ATOM     21  C   UNL     1      63.883  33.072  13.290  1.00  0.00     0.000 C 
BRANCH  21  22
ATOM     22  C   UNL     1      62.384  32.998  12.965  1.00  0.00    -0.000 C 
BRANCH  22  23
ATOM     23  C   UNL     1      61.526  33.810  13.950  1.00  0.00    -0.000 C 
BRANCH  23  24
ATOM     24  C   UNL     1      61.679  33.322  15.401  1.00  0.00    -0.000 C 
BRANCH  24  25
ATOM     25  C   UNL     1      61.497  34.452  16.427  1.00  0.00    -0.000 C 
BRANCH  25  26
ATOM     26  C   UNL     1      62.833  34.937  17.019  1.00  0.00    -0.000 C 
BRANCH  26  27
ATOM     27  C   UNL     1      63.988  33.959  16.749  1.00  0.00    -0.000 C 
BRANCH  27  28
ATOM     28  C   UNL     1      65.353  34.663  16.665  1.00  0.00    -0.000 C 
BRANCH  28  29
ATOM     29  C   UNL     1      65.445  35.881  17.595  1.00  0.00    -0.003 C 
ATOM     30  C   UNL     1      66.326  35.623  18.818  1.00  0.00     0.004 C 
ENDBRANCH  28  29
ENDBRANCH  27  28
ENDBRANCH  26  27
ENDBRANCH  25  26
ENDBRANCH  24  25
ENDBRANCH  23  24
ENDBRANCH  22  23
ENDBRANCH  21  22
ENDBRANCH  20  21
ENDBRANCH  19  20
ENDBRANCH  18  19
ENDBRANCH  17  18
ENDBRANCH   1  17
TORSDOF 26
ENDMDL
MODEL 2
REMARK VINA RESULT:    -4.347      1.490      5.648
REMARK INTER + INTRA:         -15.276
REMARK INTER:                 -11.270
REMARK INTRA:                  -4.007
REMARK UNBOUND:                -4.323
REMARK SMILES CCCCCCCCCCCCCCCCCCCCCCCCCCCC(=O)[O-]
REMARK SMILES IDX 15 1 16 2 17 3 18 4 19 5 20 6 21 7 22 8 23 9 24 10 25 11
REMARK SMILES IDX 26 12 27 13 28 14 29 15 30 16 14 17 13 18 12 19 11 20 10 21
REMARK SMILES IDX 9 22 8 23 7 24 6 25 5 26 4 27 3 28 2 29 1 30
REMARK H PARENT
REMARK Flexibility Score: inf
ROOT
ATOM      1  C   UNL     1      62.223  30.038  10.629  1.00  0.00     0.000 C 
ENDROOT
BRANCH   1   2
ATOM      2  C   UNL     1      60.719  29.714  10.687  1.00  0.00     0.000 C 
BRANCH   2   3
ATOM      3  C   UNL     1      60.253  29.369  12.112  1.00  0.00     0.000 C 
BRANCH   3   4
ATOM      4  C   UNL     1      61.430  29.217  13.092  1.00  0.00     0.000 C 
BRANCH   4   5
ATOM      5  C   UNL     1      61.449  30.321  14.162  1.00  0.00     0.000 C 
BRANCH   5   6
ATOM      6  C   UNL     1      60.624  31.549  13.748  1.00  0.00     0.000 C 
BRANCH   6   7
ATOM      7  C   UNL     1      61.530  32.676  13.236  1.00  0.00     0.000 C 
BRANCH   7   8
ATOM      8  C   UNL     1      61.371  33.940  14.094  1.00  0.00     0.000 C 
BRANCH   8   9
ATOM      9  C   UNL     1      61.691  33.701  15.580  1.00  0.00     0.000 C 
BRANCH   9  10
ATOM     10  C   UNL     1      61.583  34.949  16.480  1.00  0.00     0.000 C 
BRANCH  10  11
ATOM     11  C   UNL     1      62.534  34.966  17.692  1.00  0.00     0.000 C 
BRANCH  11  12
ATOM     12  C   UNL     1      63.988  34.555  17.383  1.00  0.00     0.006 C 
BRANCH  12  13
ATOM     13  C   UNL     1      65.035  35.629  17.720  1.00  0.00     0.053 C 
BRANCH  13  14
ATOM     14  C   UNL     1      66.247  35.046  18.380  1.00  0.00     0.041 C 
ATOM     15  O   UNL     1      66.655  35.506  19.480  1.00  0.00    -0.550 OA
ATOM     16  O   UNL     1      66.937  34.006  17.768  1.00  0.00    -0.550 OA
ENDBRANCH  13  14
ENDBRANCH  12  13
ENDBRANCH  11  12
ENDBRANCH  10  11
ENDBRANCH   9  10
ENDBRANCH   8   9
ENDBRANCH   7   8
ENDBRANCH   6   7
ENDBRANCH   5   6
ENDBRANCH   4   5
ENDBRANCH   3   4
ENDBRANCH   2   3
ENDBRANCH   1   2
BRANCH   1  17
ATOM     17  C   UNL     1      62.985  29.162   9.612  1.00  0.00     0.000 C 
BRANCH  17  18
ATOM     18  C   UNL     1      64.513  29.365   9.634  1.00  0.00     0.000 C 
BRANCH  18  19
ATOM     19  C   UNL     1      65.006  30.710   9.069  1.00  0.00     0.000 C 
BRANCH  19  20
ATOM     20  C   UNL     1      66.536  30.882   9.034  1.00  0.00     0.000 C 
BRANCH  20  21
ATOM     21  C   UNL     1      66.976  32.350   9.134  1.00  0.00     0.000 C 
BRANCH  21  22
ATOM     22  C   UNL     1      66.509  32.976  10.457  1.00  0.00    -0.000 C 
BRANCH  22  23
ATOM     23  C   UNL     1      67.586  33.864  11.102  1.00  0.00    -0.000 C 
BRANCH  23  24
ATOM     24  C   UNL     1      66.980  35.036  11.894  1.00  0.00    -0.000 C 
BRANCH  24  25
ATOM     25  C   UNL     1      67.443  35.061  13.360  1.00  0.00    -0.000 C 
BRANCH  25  26
ATOM     26  C   UNL     1      66.930  33.853  14.165  1.00  0.00    -0.000 C 
BRANCH  26  27
ATOM     27  C   UNL     1      65.395  33.804  14.242  1.00  0.00    -0.000 C 
BRANCH  27  28
ATOM     28  C   UNL     1      64.858  32.378  14.449  1.00  0.00    -0.000 C 
BRANCH  28  29
ATOM     29  C   UNL     1      64.755  31.591  13.134  1.00  0.00    -0.003 C 
ATOM     30  C   UNL     1      64.899  30.083  13.337  1.00  0.00     0.004 C 
ENDBRANCH  28  29
ENDBRANCH  27  28
ENDBRANCH  26  27
ENDBRANCH  25  26
ENDBRANCH  24  25
ENDBRANCH  23  24
ENDBRANCH  22  23
ENDBRANCH  21  22
ENDBRANCH  20  21
ENDBRANCH  19  20
ENDBRANCH  18  19
ENDBRANCH  17  18
ENDBRANCH   1  17
TORSDOF 26
ENDMDL
MODEL 3
REMARK VINA RESULT:    -4.133      4.452      9.652
REMARK INTER + INTRA:         -14.738
REMARK INTER:                 -12.282
REMARK INTRA:                  -2.457
REMARK UNBOUND:                -4.323
REMARK SMILES CCCCCCCCCCCCCCCCCCCCCCCCCCCC(=O)[O-]
REMARK SMILES IDX 15 1 16 2 17 3 18 4 19 5 20 6 21 7 22 8 23 9 24 10 25 11
REMARK SMILES IDX 26 12 27 13 28 14 29 15 30 16 14 17 13 18 12 19 11 20 10 21
REMARK SMILES IDX 9 22 8 23 7 24 6 25 5 26 4 27 3 28 2 29 1 30
REMARK H PARENT
REMARK Flexibility Score: inf
ROOT
ATOM      1  C   UNL     1      62.026  33.204  15.950  1.00  0.00     0.000 C 
ENDROOT
BRANCH   1   2
ATOM      2  C   UNL     1      62.653  34.302  16.828  1.00  0.00     0.000 C 
BRANCH   2   3
ATOM      3  C   UNL     1      64.183  34.362  16.680  1.00  0.00     0.000 C 
BRANCH   3   4
ATOM      4  C   UNL     1      64.820  35.409  17.611  1.00  0.00     0.000 C 
BRANCH   4   5
ATOM      5  C   UNL     1      66.195  34.968  18.136  1.00  0.00     0.000 C 
BRANCH   5   6
ATOM      6  C   UNL     1      66.377  35.280  19.630  1.00  0.00     0.000 C 
BRANCH   6   7
ATOM      7  C   UNL     1      67.546  34.483  20.222  1.00  0.00     0.000 C 
BRANCH   7   8
ATOM      8  C   UNL     1      67.163  33.871  21.577  1.00  0.00     0.000 C 
BRANCH   8   9
ATOM      9  C   UNL     1      67.636  32.415  21.734  1.00  0.00     0.000 C 
BRANCH   9  10
ATOM     10  C   UNL     1      67.021  31.653  22.925  1.00  0.00     0.000 C 
BRANCH  10  11
ATOM     11  C   UNL     1      65.489  31.766  23.053  1.00  0.00     0.000 C 
BRANCH  11  12
ATOM     12  C   UNL     1      64.880  31.002  24.245  1.00  0.00     0.006 C 
BRANCH  12  13
ATOM     13  C   UNL     1      65.089  29.479  24.194  1.00  0.00     0.053 C 
BRANCH  13  14
ATOM     14  C   UNL     1      63.874  28.760  23.695  1.00  0.00     0.041 C 
ATOM     15  O   UNL     1      63.916  28.118  22.611  1.00  0.00    -0.550 OA
ATOM     16  O   UNL     1      62.688  28.817  24.417  1.00  0.00    -0.550 OA
ENDBRANCH  13  14
ENDBRANCH  12  13
ENDBRANCH  11  12
ENDBRANCH  10  11
ENDBRANCH   9  10
ENDBRANCH   8   9
ENDBRANCH   7   8
ENDBRANCH   6   7
ENDBRANCH   5   6
ENDBRANCH   4   5
ENDBRANCH   3   4
ENDBRANCH   2   3
ENDBRANCH   1   2
BRANCH   1  17
ATOM     17  C   UNL     1      61.378  33.762  14.665  1.00  0.00     0.000 C 
BRANCH  17  18
ATOM     18  C   UNL     1      61.977  33.192  13.365  1.00  0.00     0.000 C 
BRANCH  18  19
ATOM     19  C   UNL     1      63.293  32.408  13.535  1.00  0.00     0.000 C 
BRANCH  19  20
ATOM     20  C   UNL     1      64.551  33.120  13.005  1.00  0.00     0.000 C 
BRANCH  20  21
ATOM     21  C   UNL     1      65.040  32.552  11.664  1.00  0.00     0.000 C 
BRANCH  21  22
ATOM     22  C   UNL     1      64.478  31.142  11.426  1.00  0.00    -0.000 C 
BRANCH  22  23
ATOM     23  C   UNL     1      65.137  30.439  10.227  1.00  0.00    -0.000 C 
BRANCH  23  24
ATOM     24  C   UNL     1      64.219  29.379   9.594  1.00  0.00    -0.000 C 
BRANCH  24  25
ATOM     25  C   UNL     1      62.784  29.888   9.385  1.00  0.00    -0.000 C 
BRANCH  25  26
ATOM     26  C   UNL     1      61.728  28.782   9.569  1.00  0.00    -0.000 C 
BRANCH  26  27
ATOM     27  C   UNL     1      60.497  29.267  10.353  1.00  0.00    -0.000 C 
BRANCH  27  28
ATOM     28  C   UNL     1      60.871  30.154  11.552  1.00  0.00    -0.000 C 
BRANCH  28  29
ATOM     29  C   UNL     1      60.756  29.413  12.892  1.00  0.00    -0.003 C 
ATOM     30  C   UNL     1      62.117  29.106  13.515  1.00  0.00     0.004 C 
ENDBRANCH  28  29
ENDBRANCH  27  28
ENDBRANCH  26  27
ENDBRANCH  25  26
ENDBRANCH  24  25
ENDBRANCH  23  24
ENDBRANCH  22  23
ENDBRANCH  21  22
ENDBRANCH  20  21
ENDBRANCH  19  20
ENDBRANCH  18  19
ENDBRANCH  17  18
ENDBRANCH   1  17
TORSDOF 26
ENDMDL
MODEL 4
REMARK VINA RESULT:    -4.119      2.021      4.659
REMARK INTER + INTRA:         -14.703
REMARK INTER:                 -10.865
REMARK INTRA:                  -3.838
REMARK UNBOUND:                -4.323
REMARK SMILES CCCCCCCCCCCCCCCCCCCCCCCCCCCC(=O)[O-]
REMARK SMILES IDX 15 1 16 2 17 3 18 4 19 5 20 6 21 7 22 8 23 9 24 10 25 11
REMARK SMILES IDX 26 12 27 13 28 14 29 15 30 16 14 17 13 18 12 19 11 20 10 21
REMARK SMILES IDX 9 22 8 23 7 24 6 25 5 26 4 27 3 28 2 29 1 30
REMARK H PARENT
REMARK Flexibility Score: inf
ROOT
ATOM      1  C   UNL     1      62.727  28.863   8.962  1.00  0.00     0.000 C 
ENDROOT
BRANCH   1   2
ATOM      2  C   UNL     1      61.588  28.429   9.903  1.00  0.00     0.000 C 
BRANCH   2   3
ATOM      3  C   UNL     1      60.584  29.565  10.164  1.00  0.00     0.000 C 
BRANCH   3   4
ATOM      4  C   UNL     1      60.590  30.025  11.632  1.00  0.00     0.000 C 
BRANCH   4   5
ATOM      5  C   UNL     1      60.920  28.882  12.605  1.00  0.00     0.000 C 
BRANCH   5   6
ATOM      6  C   UNL     1      61.854  29.332  13.739  1.00  0.00     0.000 C 
BRANCH   6   7
ATOM      7  C   UNL     1      63.301  29.453  13.245  1.00  0.00     0.000 C 
BRANCH   7   8
ATOM      8  C   UNL     1      63.862  30.854  13.528  1.00  0.00     0.000 C 
BRANCH   8   9
ATOM      9  C   UNL     1      63.259  31.938  12.616  1.00  0.00     0.000 C 
BRANCH   9  10
ATOM     10  C   UNL     1      62.599  33.119  13.354  1.00  0.00     0.000 C 
BRANCH  10  11
ATOM     11  C   UNL     1      62.144  32.818  14.796  1.00  0.00     0.000 C 
BRANCH  11  12
ATOM     12  C   UNL     1      63.249  32.939  15.864  1.00  0.00     0.006 C 
BRANCH  12  13
ATOM     13  C   UNL     1      63.549  34.381  16.305  1.00  0.00     0.053 C 
BRANCH  13  14
ATOM     14  C   UNL     1      62.522  34.901  17.263  1.00  0.00     0.041 C 
ATOM     15  O   UNL     1      61.376  35.228  16.851  1.00  0.00    -0.550 OA
ATOM     16  O   UNL     1      62.837  35.043  18.609  1.00  0.00    -0.550 OA
ENDBRANCH  13  14
ENDBRANCH  12  13
ENDBRANCH  11  12
ENDBRANCH  10  11
ENDBRANCH   9  10
ENDBRANCH   8   9
ENDBRANCH   7   8
ENDBRANCH   6   7
ENDBRANCH   5   6
ENDBRANCH   4   5
ENDBRANCH   3   4
ENDBRANCH   2   3
ENDBRANCH   1   2
BRANCH   1  17
ATOM     17  C   UNL     1      63.622  29.961   9.573  1.00  0.00     0.000 C 
BRANCH  17  18
ATOM     18  C   UNL     1      65.107  29.850   9.176  1.00  0.00     0.000 C 
BRANCH  18  19
ATOM     19  C   UNL     1      66.063  30.788   9.937  1.00  0.00     0.000 C 
BRANCH  19  20
ATOM     20  C   UNL     1      65.610  32.257  10.017  1.00  0.00     0.000 C 
BRANCH  20  21
ATOM     21  C   UNL     1      66.783  33.248   9.992  1.00  0.00     0.000 C 
BRANCH  21  22
ATOM     22  C   UNL     1      67.288  33.541  11.413  1.00  0.00    -0.000 C 
BRANCH  22  23
ATOM     23  C   UNL     1      66.238  34.263  12.274  1.00  0.00    -0.000 C 
BRANCH  23  24
ATOM     24  C   UNL     1      66.195  33.727  13.716  1.00  0.00    -0.000 C 
BRANCH  24  25
ATOM     25  C   UNL     1      67.025  34.581  14.689  1.00  0.00    -0.000 C 
BRANCH  25  26
ATOM     26  C   UNL     1      67.841  33.731  15.679  1.00  0.00    -0.000 C 
BRANCH  26  27
ATOM     27  C   UNL     1      67.202  33.676  17.076  1.00  0.00    -0.000 C 
BRANCH  27  28
ATOM     28  C   UNL     1      67.574  34.890  17.944  1.00  0.00    -0.000 C 
BRANCH  28  29
ATOM     29  C   UNL     1      66.343  35.582  18.548  1.00  0.00    -0.003 C 
ATOM     30  C   UNL     1      66.255  35.410  20.064  1.00  0.00     0.004 C 
ENDBRANCH  28  29
ENDBRANCH  27  28
ENDBRANCH  26  27
ENDBRANCH  25  26
ENDBRANCH  24  25
ENDBRANCH  23  24
ENDBRANCH  22  23
ENDBRANCH  21  22
ENDBRANCH  20  21
ENDBRANCH  19  20
ENDBRANCH  18  19
ENDBRANCH  17  18
ENDBRANCH   1  17
TORSDOF 26
ENDMDL
MODEL 5
REMARK VINA RESULT:    -4.000      4.802      9.825
REMARK INTER + INTRA:         -14.404
REMARK INTER:                 -11.722
REMARK INTRA:                  -2.682
REMARK UNBOUND:                -4.323
REMARK SMILES CCCCCCCCCCCCCCCCCCCCCCCCCCCC(=O)[O-]
REMARK SMILES IDX 15 1 16 2 17 3 18 4 19 5 20 6 21 7 22 8 23 9 24 10 25 11
REMARK SMILES IDX 26 12 27 13 28 14 29 15 30 16 14 17 13 18 12 19 11 20 10 21
REMARK SMILES IDX 9 22 8 23 7 24 6 25 5 26 4 27 3 28 2 29 1 30
REMARK H PARENT
REMARK Flexibility Score: inf
ROOT
ATOM      1  C   UNL     1      62.298  33.778  16.956  1.00  0.00     0.000 C 
ENDROOT
BRANCH   1   2
ATOM      2  C   UNL     1      63.225  34.836  17.583  1.00  0.00     0.000 C 
BRANCH   2   3
ATOM      3  C   UNL     1      64.680  34.692  17.105  1.00  0.00     0.000 C 
BRANCH   3   4
ATOM      4  C   UNL     1      65.609  35.748  17.729  1.00  0.00     0.000 C 
BRANCH   4   5
ATOM      5  C   UNL     1      66.798  35.119  18.472  1.00  0.00     0.000 C 
BRANCH   5   6
ATOM      6  C   UNL     1      66.598  35.114  19.995  1.00  0.00     0.000 C 
BRANCH   6   7
ATOM      7  C   UNL     1      67.793  34.466  20.706  1.00  0.00     0.000 C 
BRANCH   7   8
ATOM      8  C   UNL     1      67.321  33.444  21.751  1.00  0.00     0.000 C 
BRANCH   8   9
ATOM      9  C   UNL     1      67.682  31.994  21.379  1.00  0.00     0.000 C 
BRANCH   9  10
ATOM     10  C   UNL     1      67.377  30.946  22.468  1.00  0.00     0.000 C 
BRANCH  10  11
ATOM     11  C   UNL     1      65.960  31.020  23.070  1.00  0.00     0.000 C 
BRANCH  11  12
ATOM     12  C   UNL     1      65.563  29.814  23.943  1.00  0.00     0.006 C 
BRANCH  12  13
ATOM     13  C   UNL     1      66.466  28.581  23.769  1.00  0.00     0.053 C 
BRANCH  13  14
ATOM     14  C   UNL     1      65.768  27.314  24.157  1.00  0.00     0.041 C 
ATOM     15  O   UNL     1      64.824  26.867  23.451  1.00  0.00    -0.550 OA
ATOM     16  O   UNL     1      66.147  26.637  25.309  1.00  0.00    -0.550 OA
ENDBRANCH  13  14
ENDBRANCH  12  13
ENDBRANCH  11  12
ENDBRANCH  10  11
ENDBRANCH   9  10
ENDBRANCH   8   9
ENDBRANCH   7   8
ENDBRANCH   6   7
ENDBRANCH   5   6
ENDBRANCH   4   5
ENDBRANCH   3   4
ENDBRANCH   2   3
ENDBRANCH   1   2
BRANCH   1  17
ATOM     17  C   UNL     1      61.684  34.239  15.617  1.00  0.00     0.000 C 
BRANCH  17  18
ATOM     18  C   UNL     1      61.484  33.101  14.597  1.00  0.00     0.000 C 
BRANCH  18  19
ATOM     19  C   UNL     1      62.412  33.149  13.368  1.00  0.00     0.000 C 
BRANCH  19  20
ATOM     20  C   UNL     1      63.620  32.195  13.425  1.00  0.00     0.000 C 
BRANCH  20  21
ATOM     21  C   UNL     1      63.444  31.066  14.452  1.00  0.00     0.000 C 
BRANCH  21  22
ATOM     22  C   UNL     1      63.181  29.724  13.755  1.00  0.00    -0.000 C 
BRANCH  22  23
ATOM     23  C   UNL     1      61.719  29.266  13.887  1.00  0.00    -0.000 C 
BRANCH  23  24
ATOM     24  C   UNL     1      61.068  28.984  12.522  1.00  0.00    -0.000 C 
BRANCH  24  25
ATOM     25  C   UNL     1      60.790  30.268  11.723  1.00  0.00    -0.000 C 
BRANCH  25  26
ATOM     26  C   UNL     1      61.018  30.087  10.211  1.00  0.00    -0.000 C 
BRANCH  26  27
ATOM     27  C   UNL     1      61.797  28.803   9.881  1.00  0.00    -0.000 C 
BRANCH  27  28
ATOM     28  C   UNL     1      63.184  29.090   9.281  1.00  0.00    -0.000 C 
BRANCH  28  29
ATOM     29  C   UNL     1      64.213  29.500  10.344  1.00  0.00    -0.003 C 
ATOM     30  C   UNL     1      64.732  30.924  10.145  1.00  0.00     0.004 C 
ENDBRANCH  28  29
ENDBRANCH  27  28
ENDBRANCH  26  27
ENDBRANCH  25  26
ENDBRANCH  24  25
ENDBRANCH  23  24
ENDBRANCH  22  23
ENDBRANCH  21  22
ENDBRANCH  20  21
ENDBRANCH  19  20
ENDBRANCH  18  19
ENDBRANCH  17  18
ENDBRANCH   1  17
TORSDOF 26
ENDMDL
MODEL 6
REMARK VINA RESULT:    -3.979      7.790     11.397
REMARK INTER + INTRA:         -14.350
REMARK INTER:                 -11.209
REMARK INTRA:                  -3.141
REMARK UNBOUND:                -4.323
REMARK SMILES CCCCCCCCCCCCCCCCCCCCCCCCCCCC(=O)[O-]
REMARK SMILES IDX 15 1 16 2 17 3 18 4 19 5 20 6 21 7 22 8 23 9 24 10 25 11
REMARK SMILES IDX 26 12 27 13 28 14 29 15 30 16 14 17 13 18 12 19 11 20 10 21
REMARK SMILES IDX 9 22 8 23 7 24 6 25 5 26 4 27 3 28 2 29 1 30
REMARK H PARENT
REMARK Flexibility Score: inf
ROOT
ATOM      1  C   UNL     1      65.502  30.754  23.594  1.00  0.00     0.000 C 
ENDROOT
BRANCH   1   2
ATOM      2  C   UNL     1      65.890  32.018  22.806  1.00  0.00     0.000 C 
BRANCH   2   3
ATOM      3  C   UNL     1      67.315  31.933  22.232  1.00  0.00     0.000 C 
BRANCH   3   4
ATOM      4  C   UNL     1      67.976  33.315  22.099  1.00  0.00     0.000 C 
BRANCH   4   5
ATOM      5  C   UNL     1      67.445  34.108  20.894  1.00  0.00     0.000 C 
BRANCH   5   6
ATOM      6  C   UNL     1      67.810  33.449  19.555  1.00  0.00     0.000 C 
BRANCH   6   7
ATOM      7  C   UNL     1      67.275  34.268  18.374  1.00  0.00     0.000 C 
BRANCH   7   8
ATOM      8  C   UNL     1      66.448  35.464  18.865  1.00  0.00     0.000 C 
BRANCH   8   9
ATOM      9  C   UNL     1      65.421  35.951  17.827  1.00  0.00     0.000 C 
BRANCH   9  10
ATOM     10  C   UNL     1      64.200  35.029  17.635  1.00  0.00     0.000 C 
BRANCH  10  11
ATOM     11  C   UNL     1      64.143  34.291  16.283  1.00  0.00     0.000 C 
BRANCH  11  12
ATOM     12  C   UNL     1      62.957  33.320  16.123  1.00  0.00     0.006 C 
BRANCH  12  13
ATOM     13  C   UNL     1      61.826  33.844  15.223  1.00  0.00     0.053 C 
BRANCH  13  14
ATOM     14  C   UNL     1      61.748  33.100  13.926  1.00  0.00     0.041 C 
ATOM     15  O   UNL     1      62.750  33.048  13.162  1.00  0.00    -0.550 OA
ATOM     16  O   UNL     1      60.563  32.481  13.550  1.00  0.00    -0.550 OA
ENDBRANCH  13  14
ENDBRANCH  12  13
ENDBRANCH  11  12
ENDBRANCH  10  11
ENDBRANCH   9  10
ENDBRANCH   8   9
ENDBRANCH   7   8
ENDBRANCH   6   7
ENDBRANCH   5   6
ENDBRANCH   4   5
ENDBRANCH   3   4
ENDBRANCH   2   3
ENDBRANCH   1   2
BRANCH   1  17
ATOM     17  C   UNL     1      66.427  30.495  24.802  1.00  0.00     0.000 C 
BRANCH  17  18
ATOM     18  C   UNL     1      65.677  30.105  26.090  1.00  0.00     0.000 C 
BRANCH  18  19
ATOM     19  C   UNL     1      64.334  30.825  26.313  1.00  0.00     0.000 C 
BRANCH  19  20
ATOM     20  C   UNL     1      63.640  30.512  27.652  1.00  0.00     0.000 C 
BRANCH  20  21
ATOM     21  C   UNL     1      64.227  29.280  28.357  1.00  0.00     0.000 C 
BRANCH  21  22
ATOM     22  C   UNL     1      63.159  28.193  28.545  1.00  0.00    -0.000 C 
BRANCH  22  23
ATOM     23  C   UNL     1      61.853  28.513  27.798  1.00  0.00    -0.000 C 
BRANCH  23  24
ATOM     24  C   UNL     1      61.646  27.611  26.569  1.00  0.00    -0.000 C 
BRANCH  24  25
ATOM     25  C   UNL     1      61.832  28.367  25.243  1.00  0.00    -0.000 C 
BRANCH  25  26
ATOM     26  C   UNL     1      63.149  28.004  24.532  1.00  0.00    -0.000 C 
BRANCH  26  27
ATOM     27  C   UNL     1      63.751  26.684  25.043  1.00  0.00    -0.000 C 
BRANCH  27  28
ATOM     28  C   UNL     1      65.162  26.865  25.628  1.00  0.00    -0.000 C 
BRANCH  28  29
ATOM     29  C   UNL     1      66.257  26.317  24.702  1.00  0.00    -0.003 C 
ATOM     30  C   UNL     1      66.323  27.056  23.366  1.00  0.00     0.004 C 
ENDBRANCH  28  29
ENDBRANCH  27  28
ENDBRANCH  26  27
ENDBRANCH  25  26
ENDBRANCH  24  25
ENDBRANCH  23  24
ENDBRANCH  22  23
ENDBRANCH  21  22
ENDBRANCH  20  21
ENDBRANCH  19  20
ENDBRANCH  18  19
ENDBRANCH  17  18
ENDBRANCH   1  17
TORSDOF 26
ENDMDL
MODEL 7
REMARK VINA RESULT:    -3.960      4.829      7.883
REMARK INTER + INTRA:         -14.301
REMARK INTER:                 -12.303
REMARK INTRA:                  -1.998
REMARK UNBOUND:                -4.323
REMARK SMILES CCCCCCCCCCCCCCCCCCCCCCCCCCCC(=O)[O-]
REMARK SMILES IDX 15 1 16 2 17 3 18 4 19 5 20 6 21 7 22 8 23 9 24 10 25 11
REMARK SMILES IDX 26 12 27 13 28 14 29 15 30 16 14 17 13 18 12 19 11 20 10 21
REMARK SMILES IDX 9 22 8 23 7 24 6 25 5 26 4 27 3 28 2 29 1 30
REMARK H PARENT
REMARK Flexibility Score: inf
ROOT
ATOM      1  C   UNL     1      64.127  34.514  16.613  1.00  0.00     0.000 C 
ENDROOT
BRANCH   1   2
ATOM      2  C   UNL     1      62.774  33.799  16.783  1.00  0.00     0.000 C 
BRANCH   2   3
ATOM      3  C   UNL     1      61.745  34.243  15.729  1.00  0.00     0.000 C 
BRANCH   3   4
ATOM      4  C   UNL     1      61.288  33.079  14.832  1.00  0.00     0.000 C 
BRANCH   4   5
ATOM      5  C   UNL     1      61.709  33.268  13.366  1.00  0.00     0.000 C 
BRANCH   5   6
ATOM      6  C   UNL     1      63.218  33.063  13.161  1.00  0.00     0.000 C 
BRANCH   6   7
ATOM      7  C   UNL     1      63.560  31.573  13.036  1.00  0.00     0.000 C 
BRANCH   7   8
ATOM      8  C   UNL     1      64.177  31.265  11.664  1.00  0.00     0.000 C 
BRANCH   8   9
ATOM      9  C   UNL     1      64.126  29.769  11.305  1.00  0.00     0.000 C 
BRANCH   9  10
ATOM     10  C   UNL     1      63.325  29.430  10.032  1.00  0.00     0.000 C 
BRANCH  10  11
ATOM     11  C   UNL     1      62.015  28.654  10.269  1.00  0.00     0.000 C 
BRANCH  11  12
ATOM     12  C   UNL     1      60.755  29.532  10.401  1.00  0.00     0.006 C 
BRANCH  12  13
ATOM     13  C   UNL     1      60.522  30.097  11.812  1.00  0.00     0.053 C 
BRANCH  13  14
ATOM     14  C   UNL     1      60.406  29.013  12.840  1.00  0.00     0.041 C 
ATOM     15  O   UNL     1      59.339  28.351  12.948  1.00  0.00    -0.550 OA
ATOM     16  O   UNL     1      61.470  28.749  13.693  1.00  0.00    -0.550 OA
ENDBRANCH  13  14
ENDBRANCH  12  13
ENDBRANCH  11  12
ENDBRANCH  10  11
ENDBRANCH   9  10
ENDBRANCH   8   9
ENDBRANCH   7   8
ENDBRANCH   6   7
ENDBRANCH   5   6
ENDBRANCH   4   5
ENDBRANCH   3   4
ENDBRANCH   2   3
ENDBRANCH   1   2
BRANCH   1  17
ATOM     17  C   UNL     1      64.585  35.242  17.895  1.00  0.00     0.000 C 
BRANCH  17  18
ATOM     18  C   UNL     1      65.870  36.073  17.716  1.00  0.00     0.000 C 
BRANCH  18  19
ATOM     19  C   UNL     1      67.015  35.733  18.690  1.00  0.00     0.000 C 
BRANCH  19  20
ATOM     20  C   UNL     1      66.570  35.385  20.123  1.00  0.00     0.000 C 
BRANCH  20  21
ATOM     21  C   UNL     1      67.723  34.867  20.997  1.00  0.00     0.000 C 
BRANCH  21  22
ATOM     22  C   UNL     1      67.744  33.331  21.026  1.00  0.00    -0.000 C 
BRANCH  22  23
ATOM     23  C   UNL     1      67.799  32.769  22.457  1.00  0.00    -0.000 C 
BRANCH  23  24
ATOM     24  C   UNL     1      66.836  31.585  22.657  1.00  0.00    -0.000 C 
BRANCH  24  25
ATOM     25  C   UNL     1      65.454  32.027  23.166  1.00  0.00    -0.000 C 
BRANCH  25  26
ATOM     26  C   UNL     1      64.844  31.031  24.170  1.00  0.00    -0.000 C 
BRANCH  26  27
ATOM     27  C   UNL     1      64.748  29.606  23.602  1.00  0.00    -0.000 C 
BRANCH  27  28
ATOM     28  C   UNL     1      63.894  28.676  24.480  1.00  0.00    -0.000 C 
BRANCH  28  29
ATOM     29  C   UNL     1      62.670  29.388  25.075  1.00  0.00    -0.003 C 
ATOM     30  C   UNL     1      62.623  29.303  26.601  1.00  0.00     0.004 C 
ENDBRANCH  28  29
ENDBRANCH  27  28
ENDBRANCH  26  27
ENDBRANCH  25  26
ENDBRANCH  24  25
ENDBRANCH  23  24
ENDBRANCH  22  23
ENDBRANCH  21  22
ENDBRANCH  20  21
ENDBRANCH  19  20
ENDBRANCH  18  19
ENDBRANCH  17  18
ENDBRANCH   1  17
TORSDOF 26
ENDMDL
MODEL 8
REMARK VINA RESULT:    -3.919      7.816     11.898
REMARK INTER + INTRA:         -14.199
REMARK INTER:                 -11.019
REMARK INTRA:                  -3.180
REMARK UNBOUND:                -4.323
REMARK SMILES CCCCCCCCCCCCCCCCCCCCCCCCCCCC(=O)[O-]
REMARK SMILES IDX 15 1 16 2 17 3 18 4 19 5 20 6 21 7 22 8 23 9 24 10 25 11
REMARK SMILES IDX 26 12 27 13 28 14 29 15 30 16 14 17 13 18 12 19 11 20 10 21
REMARK SMILES IDX 9 22 8 23 7 24 6 25 5 26 4 27 3 28 2 29 1 30
REMARK H PARENT
REMARK Flexibility Score: inf
ROOT
ATOM      1  C   UNL     1      66.858  29.929  26.731  1.00  0.00     0.000 C 
ENDROOT
BRANCH   1   2
ATOM      2  C   UNL     1      65.561  29.713  27.533  1.00  0.00     0.000 C 
BRANCH   2   3
ATOM      3  C   UNL     1      64.521  30.814  27.264  1.00  0.00     0.000 C 
BRANCH   3   4
ATOM      4  C   UNL     1      63.208  30.251  26.692  1.00  0.00     0.000 C 
BRANCH   4   5
ATOM      5  C   UNL     1      63.348  29.807  25.228  1.00  0.00     0.000 C 
BRANCH   5   6
ATOM      6  C   UNL     1      62.605  28.492  24.944  1.00  0.00     0.000 C 
BRANCH   6   7
ATOM      7  C   UNL     1      62.949  27.427  25.993  1.00  0.00     0.000 C 
BRANCH   7   8
ATOM      8  C   UNL     1      64.266  26.718  25.644  1.00  0.00     0.000 C 
BRANCH   8   9
ATOM      9  C   UNL     1      64.235  26.038  24.264  1.00  0.00     0.000 C 
BRANCH   9  10
ATOM     10  C   UNL     1      65.200  26.635  23.220  1.00  0.00     0.000 C 
BRANCH  10  11
ATOM     11  C   UNL     1      66.587  25.968  23.153  1.00  0.00     0.000 C 
BRANCH  11  12
ATOM     12  C   UNL     1      67.366  26.221  21.847  1.00  0.00     0.006 C 
BRANCH  12  13
ATOM     13  C   UNL     1      66.819  27.381  20.998  1.00  0.00     0.053 C 
BRANCH  13  14
ATOM     14  C   UNL     1      66.977  27.126  19.530  1.00  0.00     0.041 C 
ATOM     15  O   UNL     1      66.570  26.045  19.026  1.00  0.00    -0.550 OA
ATOM     16  O   UNL     1      67.591  28.075  18.723  1.00  0.00    -0.550 OA
ENDBRANCH  13  14
ENDBRANCH  12  13
ENDBRANCH  11  12
ENDBRANCH  10  11
ENDBRANCH   9  10
ENDBRANCH   8   9
ENDBRANCH   7   8
ENDBRANCH   6   7
ENDBRANCH   5   6
ENDBRANCH   4   5
ENDBRANCH   3   4
ENDBRANCH   2   3
ENDBRANCH   1   2
BRANCH   1  17
ATOM     17  C   UNL     1      67.076  28.853  25.646  1.00  0.00     0.000 C 
BRANCH  17  18
ATOM     18  C   UNL     1      67.535  29.420  24.288  1.00  0.00     0.000 C 
BRANCH  18  19
ATOM     19  C   UNL     1      66.649  30.540  23.710  1.00  0.00     0.000 C 
BRANCH  19  20
ATOM     20  C   UNL     1      67.107  31.099  22.350  1.00  0.00     0.000 C 
BRANCH  20  21
ATOM     21  C   UNL     1      67.230  32.630  22.343  1.00  0.00     0.000 C 
BRANCH  21  22
ATOM     22  C   UNL     1      67.766  33.132  20.994  1.00  0.00    -0.000 C 
BRANCH  22  23
ATOM     23  C   UNL     1      67.610  34.653  20.827  1.00  0.00    -0.000 C 
BRANCH  23  24
ATOM     24  C   UNL     1      67.299  35.054  19.374  1.00  0.00    -0.000 C 
BRANCH  24  25
ATOM     25  C   UNL     1      65.824  35.436  19.168  1.00  0.00    -0.000 C 
BRANCH  25  26
ATOM     26  C   UNL     1      65.508  35.819  17.711  1.00  0.00    -0.000 C 
BRANCH  26  27
ATOM     27  C   UNL     1      65.816  34.683  16.722  1.00  0.00    -0.000 C 
BRANCH  27  28
ATOM     28  C   UNL     1      64.544  34.012  16.177  1.00  0.00    -0.000 C 
BRANCH  28  29
ATOM     29  C   UNL     1      63.272  34.495  16.889  1.00  0.00    -0.003 C 
ATOM     30  C   UNL     1      62.036  34.436  15.992  1.00  0.00     0.004 C 
ENDBRANCH  28  29
ENDBRANCH  27  28
ENDBRANCH  26  27
ENDBRANCH  25  26
ENDBRANCH  24  25
ENDBRANCH  23  24
ENDBRANCH  22  23
ENDBRANCH  21  22
ENDBRANCH  20  21
ENDBRANCH  19  20
ENDBRANCH  18  19
ENDBRANCH  17  18
ENDBRANCH   1  17
TORSDOF 26
ENDMDL
MODEL 9
REMARK VINA RESULT:    -3.883      7.654     11.063
REMARK INTER + INTRA:         -14.109
REMARK INTER:                 -11.310
REMARK INTRA:                  -2.799
REMARK UNBOUND:                -4.323
REMARK SMILES CCCCCCCCCCCCCCCCCCCCCCCCCCCC(=O)[O-]
REMARK SMILES IDX 15 1 16 2 17 3 18 4 19 5 20 6 21 7 22 8 23 9 24 10 25 11
REMARK SMILES IDX 26 12 27 13 28 14 29 15 30 16 14 17 13 18 12 19 11 20 10 21
REMARK SMILES IDX 9 22 8 23 7 24 6 25 5 26 4 27 3 28 2 29 1 30
REMARK H PARENT
REMARK Flexibility Score: inf
ROOT
ATOM      1  C   UNL     1      65.822  30.910  23.224  1.00  0.00     0.000 C 
ENDROOT
BRANCH   1   2
ATOM      2  C   UNL     1      66.215  32.317  22.738  1.00  0.00     0.000 C 
BRANCH   2   3
ATOM      3  C   UNL     1      67.509  32.306  21.907  1.00  0.00     0.000 C 
BRANCH   3   4
ATOM      4  C   UNL     1      67.695  33.599  21.095  1.00  0.00     0.000 C 
BRANCH   4   5
ATOM      5  C   UNL     1      66.501  34.557  21.234  1.00  0.00     0.000 C 
BRANCH   5   6
ATOM      6  C   UNL     1      66.499  35.648  20.152  1.00  0.00     0.000 C 
BRANCH   6   7
ATOM      7  C   UNL     1      66.504  35.032  18.747  1.00  0.00     0.000 C 
BRANCH   7   8
ATOM      8  C   UNL     1      65.739  35.921  17.755  1.00  0.00     0.000 C 
BRANCH   8   9
ATOM      9  C   UNL     1      65.570  35.269  16.371  1.00  0.00     0.000 C 
BRANCH   9  10
ATOM     10  C   UNL     1      64.580  34.088  16.324  1.00  0.00     0.000 C 
BRANCH  10  11
ATOM     11  C   UNL     1      63.809  33.933  14.999  1.00  0.00     0.000 C 
BRANCH  11  12
ATOM     12  C   UNL     1      62.274  33.915  15.141  1.00  0.00     0.006 C 
BRANCH  12  13
ATOM     13  C   UNL     1      61.523  33.541  13.852  1.00  0.00     0.053 C 
BRANCH  13  14
ATOM     14  C   UNL     1      61.384  32.059  13.692  1.00  0.00     0.041 C 
ATOM     15  O   UNL     1      61.042  31.568  12.583  1.00  0.00    -0.550 OA
ATOM     16  O   UNL     1      61.611  31.219  14.775  1.00  0.00    -0.550 OA
ENDBRANCH  13  14
ENDBRANCH  12  13
ENDBRANCH  11  12
ENDBRANCH  10  11
ENDBRANCH   9  10
ENDBRANCH   8   9
ENDBRANCH   7   8
ENDBRANCH   6   7
ENDBRANCH   5   6
ENDBRANCH   4   5
ENDBRANCH   3   4
ENDBRANCH   2   3
ENDBRANCH   1   2
BRANCH   1  17
ATOM     17  C   UNL     1      66.809  29.819  22.759  1.00  0.00     0.000 C 
BRANCH  17  18
ATOM     18  C   UNL     1      67.719  29.281  23.881  1.00  0.00     0.000 C 
BRANCH  18  19
ATOM     19  C   UNL     1      67.348  29.737  25.305  1.00  0.00     0.000 C 
BRANCH  19  20
ATOM     20  C   UNL     1      66.636  28.677  26.165  1.00  0.00     0.000 C 
BRANCH  20  21
ATOM     21  C   UNL     1      66.298  27.399  25.382  1.00  0.00     0.000 C 
BRANCH  21  22
ATOM     22  C   UNL     1      65.047  26.718  25.955  1.00  0.00    -0.000 C 
BRANCH  22  23
ATOM     23  C   UNL     1      63.867  26.725  24.969  1.00  0.00    -0.000 C 
BRANCH  23  24
ATOM     24  C   UNL     1      63.511  28.144  24.493  1.00  0.00    -0.000 C 
BRANCH  24  25
ATOM     25  C   UNL     1      62.122  28.597  24.971  1.00  0.00    -0.000 C 
BRANCH  25  26
ATOM     26  C   UNL     1      61.635  27.818  26.207  1.00  0.00    -0.000 C 
BRANCH  26  27
ATOM     27  C   UNL     1      61.736  28.643  27.501  1.00  0.00    -0.000 C 
BRANCH  27  28
ATOM     28  C   UNL     1      62.929  28.224  28.378  1.00  0.00    -0.000 C 
BRANCH  28  29
ATOM     29  C   UNL     1      63.906  29.381  28.633  1.00  0.00    -0.003 C 
ATOM     30  C   UNL     1      63.692  30.556  27.680  1.00  0.00     0.004 C 
ENDBRANCH  28  29
ENDBRANCH  27  28
ENDBRANCH  26  27
ENDBRANCH  25  26
ENDBRANCH  24  25
ENDBRANCH  23  24
ENDBRANCH  22  23
ENDBRANCH  21  22
ENDBRANCH  20  21
ENDBRANCH  19  20
ENDBRANCH  18  19
ENDBRANCH  17  18
ENDBRANCH   1  17
TORSDOF 26
ENDMDL
