MODEL 1
REMARK VINA RESULT:    -5.727      0.000      0.000
REMARK INTER + INTRA:          -6.326
REMARK INTER:                  -6.229
REMARK INTRA:                  -0.097
REMARK UNBOUND:                -0.097
REMARK SMILES C=C(C)[C@H]1CC=C(C)[C@@H](O)C1
REMARK SMILES IDX 8 1 7 2 6 3 5 4 4 5 11 6 9 7 10 8 2 10 1 11 3 12
REMARK H PARENT 10 9
REMARK Flexibility Score: inf
ROOT
ATOM      1  C   UNL     1     137.912 123.774 137.495  1.00  0.00     0.042 C 
ATOM      2  C   UNL     1     137.066 124.048 138.711  1.00  0.00    -0.049 C 
ATOM      3  C   UNL     1     135.823 124.547 138.532  1.00  0.00    -0.025 C 
ATOM      4  C   UNL     1     134.889 124.860 139.672  1.00  0.00     0.035 C 
ATOM      5  C   UNL     1     135.231 124.051 140.932  1.00  0.00     0.021 C 
ATOM      6  C   UNL     1     136.729 124.184 141.237  1.00  0.00     0.044 C 
ATOM      7  C   UNL     1     137.570 123.612 140.080  1.00  0.00     0.140 C 
ENDROOT
BRANCH   7   8
ATOM      8  O   UNL     1     138.906 124.013 140.237  1.00  0.00    -0.389 OA
ATOM      9  H   UNL     1     139.144 123.854 141.188  1.00  0.00     0.211 HD
ENDBRANCH   7   8
BRANCH   5  10
ATOM     10  C   UNL     1     134.376 124.480 142.117  1.00  0.00    -0.077 C 
ATOM     11  C   UNL     1     134.739 124.148 143.366  1.00  0.00     0.008 C 
ATOM     12  C   UNL     1     133.106 125.273 141.924  1.00  0.00     0.039 C 
ENDBRANCH   5  10
TORSDOF 2
ENDMDL
MODEL 2
REMARK VINA RESULT:    -5.550      1.744      2.282
REMARK INTER + INTRA:          -6.135
REMARK INTER:                  -6.040
REMARK INTRA:                  -0.095
REMARK UNBOUND:                -0.097
REMARK SMILES C=C(C)[C@H]1CC=C(C)[C@@H](O)C1
REMARK SMILES IDX 8 1 7 2 6 3 5 4 4 5 11 6 9 7 10 8 2 10 1 11 3 12
REMARK H PARENT 10 9
REMARK Flexibility Score: inf
ROOT
ATOM      1  C   UNL     1     137.592 123.536 137.716  1.00  0.00     0.042 C 
ATOM      2  C   UNL     1     136.936 123.583 139.071  1.00  0.00    -0.049 C 
ATOM      3  C   UNL     1     137.714 123.786 140.156  1.00  0.00    -0.025 C 
ATOM      4  C   UNL     1     137.169 123.851 141.560  1.00  0.00     0.035 C 
ATOM      5  C   UNL     1     135.684 124.242 141.580  1.00  0.00     0.021 C 
ATOM      6  C   UNL     1     134.905 123.356 140.600  1.00  0.00     0.044 C 
ATOM      7  C   UNL     1     135.416 123.561 139.161  1.00  0.00     0.140 C 
ENDROOT
BRANCH   7   8
ATOM      8  O   UNL     1     134.913 122.538 138.342  1.00  0.00    -0.389 OA
ATOM      9  H   UNL     1     135.690 122.145 137.865  1.00  0.00     0.211 HD
ENDBRANCH   7   8
BRANCH   5  10
ATOM     10  C   UNL     1     135.108 124.164 142.988  1.00  0.00    -0.077 C 
ATOM     11  C   UNL     1     135.855 124.525 144.043  1.00  0.00     0.008 C 
ATOM     12  C   UNL     1     133.701 123.676 143.236  1.00  0.00     0.039 C 
ENDBRANCH   5  10
TORSDOF 2
ENDMDL
MODEL 3
REMARK VINA RESULT:    -5.145      2.032      4.446
REMARK INTER + INTRA:          -5.693
REMARK INTER:                  -5.597
REMARK INTRA:                  -0.096
REMARK UNBOUND:                -0.097
REMARK SMILES C=C(C)[C@H]1CC=C(C)[C@@H](O)C1
REMARK SMILES IDX 8 1 7 2 6 3 5 4 4 5 11 6 9 7 10 8 2 10 1 11 3 12
REMARK H PARENT 10 9
REMARK Flexibility Score: inf
ROOT
ATOM      1  C   UNL     1     132.801 123.763 143.007  1.00  0.00     0.042 C 
ATOM      2  C   UNL     1     134.120 123.695 142.283  1.00  0.00    -0.049 C 
ATOM      3  C   UNL     1     134.180 123.016 141.117  1.00  0.00    -0.025 C 
ATOM      4  C   UNL     1     135.444 122.880 140.306  1.00  0.00     0.035 C 
ATOM      5  C   UNL     1     136.439 124.012 140.603  1.00  0.00     0.021 C 
ATOM      6  C   UNL     1     136.627 124.148 142.119  1.00  0.00     0.044 C 
ATOM      7  C   UNL     1     135.294 124.516 142.799  1.00  0.00     0.140 C 
ENDROOT
BRANCH   7   8
ATOM      8  O   UNL     1     135.417 124.337 144.186  1.00  0.00    -0.389 OA
ATOM      9  H   UNL     1     134.707 124.886 144.611  1.00  0.00     0.211 HD
ENDBRANCH   7   8
BRANCH   5  10
ATOM     10  C   UNL     1     137.766 123.787 139.890  1.00  0.00    -0.077 C 
ATOM     11  C   UNL     1     138.886 123.581 140.601  1.00  0.00     0.008 C 
ATOM     12  C   UNL     1     137.861 123.797 138.384  1.00  0.00     0.039 C 
ENDBRANCH   5  10
TORSDOF 2
ENDMDL
MODEL 4
REMARK VINA RESULT:    -5.131      2.015      4.468
REMARK INTER + INTRA:          -5.678
REMARK INTER:                  -5.581
REMARK INTRA:                  -0.097
REMARK UNBOUND:                -0.097
REMARK SMILES C=C(C)[C@H]1CC=C(C)[C@@H](O)C1
REMARK SMILES IDX 8 1 7 2 6 3 5 4 4 5 11 6 9 7 10 8 2 10 1 11 3 12
REMARK H PARENT 10 9
REMARK Flexibility Score: inf
ROOT
ATOM      1  C   UNL     1     136.861 124.128 144.503  1.00  0.00     0.042 C 
ATOM      2  C   UNL     1     136.669 124.209 143.011  1.00  0.00    -0.049 C 
ATOM      3  C   UNL     1     137.704 123.873 142.209  1.00  0.00    -0.025 C 
ATOM      4  C   UNL     1     137.628 123.916 140.705  1.00  0.00     0.035 C 
ATOM      5  C   UNL     1     136.182 123.803 140.201  1.00  0.00     0.021 C 
ATOM      6  C   UNL     1     135.298 124.812 140.945  1.00  0.00     0.044 C 
ATOM      7  C   UNL     1     135.284 124.509 142.455  1.00  0.00     0.140 C 
ENDROOT
BRANCH   7   8
ATOM      8  O   UNL     1     134.731 125.602 143.142  1.00  0.00    -0.389 OA
ATOM      9  H   UNL     1     135.176 125.638 144.029  1.00  0.00     0.211 HD
ENDBRANCH   7   8
BRANCH   5  10
ATOM     10  C   UNL     1     136.103 123.993 138.691  1.00  0.00    -0.077 C 
ATOM     11  C   UNL     1     134.969 124.435 138.126  1.00  0.00     0.008 C 
ATOM     12  C   UNL     1     137.279 123.684 137.798  1.00  0.00     0.039 C 
ENDBRANCH   5  10
TORSDOF 2
ENDMDL
MODEL 5
REMARK VINA RESULT:    -5.116      1.393      3.975
REMARK INTER + INTRA:          -5.662
REMARK INTER:                  -5.567
REMARK INTRA:                  -0.094
REMARK UNBOUND:                -0.097
REMARK SMILES C=C(C)[C@H]1CC=C(C)[C@@H](O)C1
REMARK SMILES IDX 8 1 7 2 6 3 5 4 4 5 11 6 9 7 10 8 2 10 1 11 3 12
REMARK H PARENT 10 9
REMARK Flexibility Score: inf
ROOT
ATOM      1  C   UNL     1     136.460 124.506 144.446  1.00  0.00     0.042 C 
ATOM      2  C   UNL     1     136.234 124.414 142.960  1.00  0.00    -0.049 C 
ATOM      3  C   UNL     1     135.002 124.689 142.478  1.00  0.00    -0.025 C 
ATOM      4  C   UNL     1     134.659 124.628 141.011  1.00  0.00     0.035 C 
ATOM      5  C   UNL     1     135.901 124.803 140.125  1.00  0.00     0.021 C 
ATOM      6  C   UNL     1     137.006 123.848 140.594  1.00  0.00     0.044 C 
ATOM      7  C   UNL     1     137.424 124.173 142.041  1.00  0.00     0.140 C 
ENDROOT
BRANCH   7   8
ATOM      8  O   UNL     1     138.199 123.117 142.547  1.00  0.00    -0.389 OA
ATOM      9  H   UNL     1     139.150 123.377 142.429  1.00  0.00     0.211 HD
ENDBRANCH   7   8
BRANCH   5  10
ATOM     10  C   UNL     1     135.567 124.596 138.653  1.00  0.00    -0.077 C 
ATOM     11  C   UNL     1     134.398 125.030 138.160  1.00  0.00     0.008 C 
ATOM     12  C   UNL     1     136.527 123.897 137.721  1.00  0.00     0.039 C 
ENDBRANCH   5  10
TORSDOF 2
ENDMDL
MODEL 6
REMARK VINA RESULT:    -4.829      1.124      1.536
REMARK INTER + INTRA:          -5.349
REMARK INTER:                  -5.251
REMARK INTRA:                  -0.099
REMARK UNBOUND:                -0.097
REMARK SMILES C=C(C)[C@H]1CC=C(C)[C@@H](O)C1
REMARK SMILES IDX 8 1 7 2 6 3 5 4 4 5 11 6 9 7 10 8 2 10 1 11 3 12
REMARK H PARENT 10 9
REMARK Flexibility Score: inf
ROOT
ATOM      1  C   UNL     1     138.659 123.745 139.185  1.00  0.00     0.042 C 
ATOM      2  C   UNL     1     137.431 124.007 140.017  1.00  0.00    -0.049 C 
ATOM      3  C   UNL     1     136.330 124.495 139.403  1.00  0.00    -0.025 C 
ATOM      4  C   UNL     1     135.046 124.796 140.133  1.00  0.00     0.035 C 
ATOM      5  C   UNL     1     134.921 123.985 141.431  1.00  0.00     0.021 C 
ATOM      6  C   UNL     1     136.208 124.130 142.254  1.00  0.00     0.044 C 
ATOM      7  C   UNL     1     137.414 123.569 141.475  1.00  0.00     0.140 C 
ENDROOT
BRANCH   7   8
ATOM      8  O   UNL     1     138.601 123.982 142.101  1.00  0.00    -0.389 OA
ATOM      9  H   UNL     1     139.125 123.161 142.292  1.00  0.00     0.211 HD
ENDBRANCH   7   8
BRANCH   5  10
ATOM     10  C   UNL     1     133.694 124.401 142.231  1.00  0.00    -0.077 C 
ATOM     11  C   UNL     1     133.076 125.562 141.962  1.00  0.00     0.008 C 
ATOM     12  C   UNL     1     133.149 123.536 143.342  1.00  0.00     0.039 C 
ENDBRANCH   5  10
TORSDOF 2
ENDMDL
MODEL 7
REMARK VINA RESULT:    -4.778      2.207      4.699
REMARK INTER + INTRA:          -5.295
REMARK INTER:                  -5.200
REMARK INTRA:                  -0.095
REMARK UNBOUND:                -0.097
REMARK SMILES C=C(C)[C@H]1CC=C(C)[C@@H](O)C1
REMARK SMILES IDX 8 1 7 2 6 3 5 4 4 5 11 6 9 7 10 8 2 10 1 11 3 12
REMARK H PARENT 10 9
REMARK Flexibility Score: inf
ROOT
ATOM      1  C   UNL     1     133.217 124.121 143.409  1.00  0.00     0.042 C 
ATOM      2  C   UNL     1     134.077 124.017 142.177  1.00  0.00    -0.049 C 
ATOM      3  C   UNL     1     134.665 125.139 141.705  1.00  0.00    -0.025 C 
ATOM      4  C   UNL     1     135.545 125.156 140.482  1.00  0.00     0.035 C 
ATOM      5  C   UNL     1     136.155 123.776 140.196  1.00  0.00     0.021 C 
ATOM      6  C   UNL     1     135.049 122.712 140.211  1.00  0.00     0.044 C 
ATOM      7  C   UNL     1     134.384 122.643 141.599  1.00  0.00     0.140 C 
ENDROOT
BRANCH   7   8
ATOM      8  O   UNL     1     133.197 121.898 141.506  1.00  0.00    -0.389 OA
ATOM      9  H   UNL     1     133.365 121.032 141.960  1.00  0.00     0.211 HD
ENDBRANCH   7   8
BRANCH   5  10
ATOM     10  C   UNL     1     136.922 123.769 138.880  1.00  0.00    -0.077 C 
ATOM     11  C   UNL     1     136.268 123.906 137.717  1.00  0.00     0.008 C 
ATOM     12  C   UNL     1     138.422 123.602 138.847  1.00  0.00     0.039 C 
ENDBRANCH   5  10
TORSDOF 2
ENDMDL
MODEL 8
REMARK VINA RESULT:    -4.768      1.722      4.282
REMARK INTER + INTRA:          -5.284
REMARK INTER:                  -5.186
REMARK INTRA:                  -0.097
REMARK UNBOUND:                -0.097
REMARK SMILES C=C(C)[C@H]1CC=C(C)[C@@H](O)C1
REMARK SMILES IDX 8 1 7 2 6 3 5 4 4 5 11 6 9 7 10 8 2 10 1 11 3 12
REMARK H PARENT 10 9
REMARK Flexibility Score: inf
ROOT
ATOM      1  C   UNL     1     132.873 125.383 142.240  1.00  0.00     0.042 C 
ATOM      2  C   UNL     1     134.104 124.912 141.510  1.00  0.00    -0.049 C 
ATOM      3  C   UNL     1     134.076 124.874 140.159  1.00  0.00    -0.025 C 
ATOM      4  C   UNL     1     135.246 124.421 139.324  1.00  0.00     0.035 C 
ATOM      5  C   UNL     1     136.577 124.571 140.074  1.00  0.00     0.021 C 
ATOM      6  C   UNL     1     136.460 123.932 141.464  1.00  0.00     0.044 C 
ATOM      7  C   UNL     1     135.379 124.647 142.298  1.00  0.00     0.140 C 
ENDROOT
BRANCH   7   8
ATOM      8  O   UNL     1     135.078 123.870 143.428  1.00  0.00    -0.389 OA
ATOM      9  H   UNL     1     135.918 123.411 143.693  1.00  0.00     0.211 HD
ENDBRANCH   7   8
BRANCH   5  10
ATOM     10  C   UNL     1     137.733 123.977 139.279  1.00  0.00    -0.077 C 
ATOM     11  C   UNL     1     138.891 123.683 139.890  1.00  0.00     0.008 C 
ATOM     12  C   UNL     1     137.614 123.714 137.797  1.00  0.00     0.039 C 
ENDBRANCH   5  10
TORSDOF 2
ENDMDL
MODEL 9
REMARK VINA RESULT:    -4.185      2.133      4.053
REMARK INTER + INTRA:          -4.649
REMARK INTER:                  -4.551
REMARK INTRA:                  -0.099
REMARK UNBOUND:                -0.097
REMARK SMILES C=C(C)[C@H]1CC=C(C)[C@@H](O)C1
REMARK SMILES IDX 8 1 7 2 6 3 5 4 4 5 11 6 9 7 10 8 2 10 1 11 3 12
REMARK H PARENT 10 9
REMARK Flexibility Score: inf
ROOT
ATOM      1  C   UNL     1     134.070 125.222 138.118  1.00  0.00     0.042 C 
ATOM      2  C   UNL     1     135.331 124.700 138.754  1.00  0.00    -0.049 C 
ATOM      3  C   UNL     1     136.325 124.262 137.950  1.00  0.00    -0.025 C 
ATOM      4  C   UNL     1     137.629 123.718 138.473  1.00  0.00     0.035 C 
ATOM      5  C   UNL     1     137.939 124.233 139.886  1.00  0.00     0.021 C 
ATOM      6  C   UNL     1     136.716 124.025 140.789  1.00  0.00     0.044 C 
ATOM      7  C   UNL     1     135.511 124.826 140.261  1.00  0.00     0.140 C 
ENDROOT
BRANCH   7   8
ATOM      8  O   UNL     1     134.345 124.389 140.910  1.00  0.00    -0.389 OA
ATOM      9  H   UNL     1     134.535 123.479 141.259  1.00  0.00     0.211 HD
ENDBRANCH   7   8
BRANCH   5  10
ATOM     10  C   UNL     1     139.182 123.566 140.461  1.00  0.00    -0.077 C 
ATOM     11  C   UNL     1     139.761 122.545 139.811  1.00  0.00     0.008 C 
ATOM     12  C   UNL     1     139.786 124.022 141.768  1.00  0.00     0.039 C 
ENDBRANCH   5  10
TORSDOF 2
ENDMDL
