MODEL 1
REMARK VINA RESULT:    -5.747      0.000      0.000
REMARK INTER + INTRA:          -8.980
REMARK INTER:                  -8.771
REMARK INTRA:                  -0.209
REMARK UNBOUND:                -0.209
REMARK SMILES O=C([O-])CCCCCCCCC(=O)[O-]
REMARK SMILES IDX 7 1 6 2 5 3 4 4 2 5 1 6 3 7 8 8 9 9 10 10 11 11 12 12 13 13
REMARK SMILES IDX 14 14
REMARK H PARENT
REMARK Flexibility Score: inf
ROOT
ATOM      1  C   UNL     1      -0.868   8.919 -38.636  1.00  0.00     0.000 C 
ENDROOT
BRANCH   1   2
ATOM      2  C   UNL     1      -1.008  10.398 -38.232  1.00  0.00     0.000 C 
BRANCH   2   3
ATOM      3  C   UNL     1       0.312  11.177 -38.351  1.00  0.00     0.006 C 
BRANCH   3   4
ATOM      4  C   UNL     1       0.400  12.324 -37.335  1.00  0.00     0.053 C 
BRANCH   4   5
ATOM      5  C   UNL     1      -0.932  12.973 -37.117  1.00  0.00     0.041 C 
ATOM      6  O   UNL     1      -1.323  13.891 -37.885  1.00  0.00    -0.550 OA
ATOM      7  O   UNL     1      -1.725  12.587 -36.044  1.00  0.00    -0.550 OA
ENDBRANCH   4   5
ENDBRANCH   3   4
ENDBRANCH   2   3
ENDBRANCH   1   2
BRANCH   1   8
ATOM      8  C   UNL     1      -2.078   8.330 -39.390  1.00  0.00     0.000 C 
BRANCH   8   9
ATOM      9  C   UNL     1      -3.214   9.326 -39.683  1.00  0.00     0.000 C 
BRANCH   9  10
ATOM     10  C   UNL     1      -4.518   8.978 -38.949  1.00  0.00     0.006 C 
BRANCH  10  11
ATOM     11  C   UNL     1      -5.738   9.341 -39.801  1.00  0.00     0.053 C 
BRANCH  11  12
ATOM     12  C   UNL     1      -6.941   8.575 -39.346  1.00  0.00     0.041 C 
ATOM     13  O   UNL     1      -7.220   7.465 -39.870  1.00  0.00    -0.550 OA
ATOM     14  O   UNL     1      -7.725   9.063 -38.308  1.00  0.00    -0.550 OA
ENDBRANCH  11  12
ENDBRANCH  10  11
ENDBRANCH   9  10
ENDBRANCH   8   9
ENDBRANCH   1   8
TORSDOF 9
ENDMDL
MODEL 2
REMARK VINA RESULT:    -5.723      0.770      6.210
REMARK INTER + INTRA:          -8.943
REMARK INTER:                  -8.667
REMARK INTRA:                  -0.276
REMARK UNBOUND:                -0.209
REMARK SMILES O=C([O-])CCCCCCCCC(=O)[O-]
REMARK SMILES IDX 7 1 6 2 5 3 4 4 2 5 1 6 3 7 8 8 9 9 10 10 11 11 12 12 13 13
REMARK SMILES IDX 14 14
REMARK H PARENT
REMARK Flexibility Score: inf
ROOT
ATOM      1  C   UNL     1      -2.216   8.384 -39.414  1.00  0.00     0.000 C 
ENDROOT
BRANCH   1   2
ATOM      2  C   UNL     1      -3.408   9.351 -39.534  1.00  0.00     0.000 C 
BRANCH   2   3
ATOM      3  C   UNL     1      -4.591   8.954 -38.636  1.00  0.00     0.006 C 
BRANCH   3   4
ATOM      4  C   UNL     1      -5.831   8.565 -39.452  1.00  0.00     0.053 C 
BRANCH   4   5
ATOM      5  C   UNL     1      -6.946   9.547 -39.265  1.00  0.00     0.041 C 
ATOM      6  O   UNL     1      -6.966  10.617 -39.929  1.00  0.00    -0.550 OA
ATOM      7  O   UNL     1      -7.944   9.297 -38.333  1.00  0.00    -0.550 OA
ENDBRANCH   4   5
ENDBRANCH   3   4
ENDBRANCH   2   3
ENDBRANCH   1   2
BRANCH   1   8
ATOM      8  C   UNL     1      -0.986   8.952 -38.676  1.00  0.00     0.000 C 
BRANCH   8   9
ATOM      9  C   UNL     1      -1.090  10.435 -38.277  1.00  0.00     0.000 C 
BRANCH   9  10
ATOM     10  C   UNL     1       0.262  11.164 -38.333  1.00  0.00     0.006 C 
BRANCH  10  11
ATOM     11  C   UNL     1       0.370  12.202 -37.212  1.00  0.00     0.053 C 
BRANCH  11  12
ATOM     12  C   UNL     1      -0.927  12.932 -37.048  1.00  0.00     0.041 C 
ATOM     13  O   UNL     1      -1.673  12.682 -36.065  1.00  0.00    -0.550 OA
ATOM     14  O   UNL     1      -1.287  13.922 -37.953  1.00  0.00    -0.550 OA
ENDBRANCH  11  12
ENDBRANCH  10  11
ENDBRANCH   9  10
ENDBRANCH   8   9
ENDBRANCH   1   8
TORSDOF 9
ENDMDL
MODEL 3
REMARK VINA RESULT:    -5.612      1.910      7.722
REMARK INTER + INTRA:          -8.774
REMARK INTER:                  -8.545
REMARK INTRA:                  -0.229
REMARK UNBOUND:                -0.209
REMARK SMILES O=C([O-])CCCCCCCCC(=O)[O-]
REMARK SMILES IDX 7 1 6 2 5 3 4 4 2 5 1 6 3 7 8 8 9 9 10 10 11 11 12 12 13 13
REMARK SMILES IDX 14 14
REMARK H PARENT
REMARK Flexibility Score: inf
ROOT
ATOM      1  C   UNL     1      -4.880   8.909 -38.828  1.00  0.00     0.000 C 
ENDROOT
BRANCH   1   2
ATOM      2  C   UNL     1      -6.295   8.926 -39.434  1.00  0.00     0.000 C 
BRANCH   2   3
ATOM      3  C   UNL     1      -6.906   7.521 -39.564  1.00  0.00     0.006 C 
BRANCH   3   4
ATOM      4  C   UNL     1      -7.403   7.236 -40.988  1.00  0.00     0.053 C 
BRANCH   4   5
ATOM      5  C   UNL     1      -7.766   5.793 -41.168  1.00  0.00     0.041 C 
ATOM      6  O   UNL     1      -7.706   5.262 -42.308  1.00  0.00    -0.550 OA
ATOM      7  O   UNL     1      -8.204   5.047 -40.082  1.00  0.00    -0.550 OA
ENDBRANCH   4   5
ENDBRANCH   3   4
ENDBRANCH   2   3
ENDBRANCH   1   2
BRANCH   1   8
ATOM      8  C   UNL     1      -3.751   9.325 -39.795  1.00  0.00     0.000 C 
BRANCH   8   9
ATOM      9  C   UNL     1      -2.334   8.907 -39.364  1.00  0.00     0.000 C 
BRANCH   9  10
ATOM     10  C   UNL     1      -1.771   9.783 -38.234  1.00  0.00     0.006 C 
BRANCH  10  11
ATOM     11  C   UNL     1      -0.308  10.146 -38.501  1.00  0.00     0.053 C 
BRANCH  11  12
ATOM     12  C   UNL     1       0.024  11.470 -37.886  1.00  0.00     0.041 C 
ATOM     13  O   UNL     1       1.184  11.946 -37.998  1.00  0.00    -0.550 OA
ATOM     14  O   UNL     1      -0.961  12.200 -37.233  1.00  0.00    -0.550 OA
ENDBRANCH  11  12
ENDBRANCH  10  11
ENDBRANCH   9  10
ENDBRANCH   8   9
ENDBRANCH   1   8
TORSDOF 9
ENDMDL
MODEL 4
REMARK VINA RESULT:    -5.430      1.207      6.820
REMARK INTER + INTRA:          -8.496
REMARK INTER:                  -8.194
REMARK INTRA:                  -0.302
REMARK UNBOUND:                -0.209
REMARK SMILES O=C([O-])CCCCCCCCC(=O)[O-]
REMARK SMILES IDX 7 1 6 2 5 3 4 4 2 5 1 6 3 7 8 8 9 9 10 10 11 11 12 12 13 13
REMARK SMILES IDX 14 14
REMARK H PARENT
REMARK Flexibility Score: inf
ROOT
ATOM      1  C   UNL     1      -3.396   9.348 -39.575  1.00  0.00     0.000 C 
ENDROOT
BRANCH   1   2
ATOM      2  C   UNL     1      -4.665   8.827 -38.877  1.00  0.00     0.000 C 
BRANCH   2   3
ATOM      3  C   UNL     1      -5.952   9.167 -39.648  1.00  0.00     0.006 C 
BRANCH   3   4
ATOM      4  C   UNL     1      -7.145   8.323 -39.181  1.00  0.00     0.053 C 
BRANCH   4   5
ATOM      5  C   UNL     1      -8.175   9.159 -38.485  1.00  0.00     0.041 C 
ATOM      6  O   UNL     1      -8.149  10.414 -38.588  1.00  0.00    -0.550 OA
ATOM      7  O   UNL     1      -9.143   8.553 -37.694  1.00  0.00    -0.550 OA
ENDBRANCH   4   5
ENDBRANCH   3   4
ENDBRANCH   2   3
ENDBRANCH   1   2
BRANCH   1   8
ATOM      8  C   UNL     1      -2.193   8.383 -39.548  1.00  0.00     0.000 C 
BRANCH   8   9
ATOM      9  C   UNL     1      -1.085   8.746 -38.543  1.00  0.00     0.000 C 
BRANCH   9  10
ATOM     10  C   UNL     1      -1.051  10.246 -38.210  1.00  0.00     0.006 C 
BRANCH  10  11
ATOM     11  C   UNL     1       0.385  10.776 -38.223  1.00  0.00     0.053 C 
BRANCH  11  12
ATOM     12  C   UNL     1       0.415  12.219 -37.825  1.00  0.00     0.041 C 
ATOM     13  O   UNL     1       1.317  12.979 -38.264  1.00  0.00    -0.550 OA
ATOM     14  O   UNL     1      -0.583  12.735 -37.007  1.00  0.00    -0.550 OA
ENDBRANCH  11  12
ENDBRANCH  10  11
ENDBRANCH   9  10
ENDBRANCH   8   9
ENDBRANCH   1   8
TORSDOF 9
ENDMDL
MODEL 5
REMARK VINA RESULT:    -5.340      1.858      2.822
REMARK INTER + INTRA:          -8.359
REMARK INTER:                  -8.081
REMARK INTRA:                  -0.278
REMARK UNBOUND:                -0.209
REMARK SMILES O=C([O-])CCCCCCCCC(=O)[O-]
REMARK SMILES IDX 7 1 6 2 5 3 4 4 2 5 1 6 3 7 8 8 9 9 10 10 11 11 12 12 13 13
REMARK SMILES IDX 14 14
REMARK H PARENT
REMARK Flexibility Score: inf
ROOT
ATOM      1  C   UNL     1      -3.402   9.294 -39.433  1.00  0.00     0.000 C 
ENDROOT
BRANCH   1   2
ATOM      2  C   UNL     1      -2.074   8.527 -39.302  1.00  0.00     0.000 C 
BRANCH   2   3
ATOM      3  C   UNL     1      -0.971   9.354 -38.622  1.00  0.00     0.006 C 
BRANCH   3   4
ATOM      4  C   UNL     1      -1.474  10.733 -38.175  1.00  0.00     0.053 C 
BRANCH   4   5
ATOM      5  C   UNL     1      -0.342  11.641 -37.803  1.00  0.00     0.041 C 
ATOM      6  O   UNL     1      -0.574  12.761 -37.276  1.00  0.00    -0.550 OA
ATOM      7  O   UNL     1       0.968  11.264 -38.071  1.00  0.00    -0.550 OA
ENDBRANCH   4   5
ENDBRANCH   3   4
ENDBRANCH   2   3
ENDBRANCH   1   2
BRANCH   1   8
ATOM      8  C   UNL     1      -4.630   8.583 -38.828  1.00  0.00     0.000 C 
BRANCH   8   9
ATOM      9  C   UNL     1      -5.975   8.916 -39.497  1.00  0.00     0.000 C 
BRANCH   9  10
ATOM     10  C   UNL     1      -6.926   7.711 -39.559  1.00  0.00     0.006 C 
BRANCH  10  11
ATOM     11  C   UNL     1      -7.286   7.373 -41.009  1.00  0.00     0.053 C 
BRANCH  11  12
ATOM     12  C   UNL     1      -7.705   5.941 -41.123  1.00  0.00     0.041 C 
ATOM     13  O   UNL     1      -7.695   5.366 -42.244  1.00  0.00    -0.550 OA
ATOM     14  O   UNL     1      -8.059   5.226 -39.986  1.00  0.00    -0.550 OA
ENDBRANCH  11  12
ENDBRANCH  10  11
ENDBRANCH   9  10
ENDBRANCH   8   9
ENDBRANCH   1   8
TORSDOF 9
ENDMDL
MODEL 6
REMARK VINA RESULT:    -5.137      3.806      4.961
REMARK INTER + INTRA:          -8.048
REMARK INTER:                  -7.733
REMARK INTRA:                  -0.315
REMARK UNBOUND:                -0.209
REMARK SMILES O=C([O-])CCCCCCCCC(=O)[O-]
REMARK SMILES IDX 7 1 6 2 5 3 4 4 2 5 1 6 3 7 8 8 9 9 10 10 11 11 12 12 13 13
REMARK SMILES IDX 14 14
REMARK H PARENT
REMARK Flexibility Score: inf
ROOT
ATOM      1  C   UNL     1      -0.990   8.601 -38.662  1.00  0.00     0.000 C 
ENDROOT
BRANCH   1   2
ATOM      2  C   UNL     1      -1.022   7.743 -39.939  1.00  0.00     0.000 C 
BRANCH   2   3
ATOM      3  C   UNL     1       0.141   8.052 -40.896  1.00  0.00     0.006 C 
BRANCH   3   4
ATOM      4  C   UNL     1       0.248   7.022 -42.029  1.00  0.00     0.053 C 
BRANCH   4   5
ATOM      5  C   UNL     1       0.849   5.736 -41.551  1.00  0.00     0.041 C 
ATOM      6  O   UNL     1       0.115   4.836 -41.064  1.00  0.00    -0.550 OA
ATOM      7  O   UNL     1       2.223   5.546 -41.612  1.00  0.00    -0.550 OA
ENDBRANCH   4   5
ENDBRANCH   3   4
ENDBRANCH   2   3
ENDBRANCH   1   2
BRANCH   1   8
ATOM      8  C   UNL     1      -2.120   9.644 -38.547  1.00  0.00     0.000 C 
BRANCH   8   9
ATOM      9  C   UNL     1      -3.251   9.500 -39.581  1.00  0.00     0.000 C 
BRANCH   9  10
ATOM     10  C   UNL     1      -4.529   8.889 -38.986  1.00  0.00     0.006 C 
BRANCH  10  11
ATOM     11  C   UNL     1      -5.766   9.340 -39.769  1.00  0.00     0.053 C 
BRANCH  11  12
ATOM     12  C   UNL     1      -6.973   8.574 -39.326  1.00  0.00     0.041 C 
ATOM     13  O   UNL     1      -7.246   7.463 -39.852  1.00  0.00    -0.550 OA
ATOM     14  O   UNL     1      -7.769   9.063 -38.298  1.00  0.00    -0.550 OA
ENDBRANCH  11  12
ENDBRANCH  10  11
ENDBRANCH   9  10
ENDBRANCH   8   9
ENDBRANCH   1   8
TORSDOF 9
ENDMDL
MODEL 7
REMARK VINA RESULT:    -5.016      3.634      6.654
REMARK INTER + INTRA:          -7.864
REMARK INTER:                  -7.539
REMARK INTRA:                  -0.326
REMARK UNBOUND:                -0.209
REMARK SMILES O=C([O-])CCCCCCCCC(=O)[O-]
REMARK SMILES IDX 7 1 6 2 5 3 4 4 2 5 1 6 3 7 8 8 9 9 10 10 11 11 12 12 13 13
REMARK SMILES IDX 14 14
REMARK H PARENT
REMARK Flexibility Score: inf
ROOT
ATOM      1  C   UNL     1      -3.117   9.304 -39.504  1.00  0.00     0.000 C 
ENDROOT
BRANCH   1   2
ATOM      2  C   UNL     1      -4.439   8.960 -38.795  1.00  0.00     0.000 C 
BRANCH   2   3
ATOM      3  C   UNL     1      -5.671   9.179 -39.690  1.00  0.00     0.006 C 
BRANCH   3   4
ATOM      4  C   UNL     1      -6.912   8.453 -39.154  1.00  0.00     0.053 C 
BRANCH   4   5
ATOM      5  C   UNL     1      -7.672   9.303 -38.182  1.00  0.00     0.041 C 
ATOM      6  O   UNL     1      -7.648   9.037 -36.952  1.00  0.00    -0.550 OA
ATOM      7  O   UNL     1      -8.436  10.369 -38.642  1.00  0.00    -0.550 OA
ENDBRANCH   4   5
ENDBRANCH   3   4
ENDBRANCH   2   3
ENDBRANCH   1   2
BRANCH   1   8
ATOM      8  C   UNL     1      -1.862   9.250 -38.608  1.00  0.00     0.000 C 
BRANCH   8   9
ATOM      9  C   UNL     1      -0.619   8.620 -39.261  1.00  0.00     0.000 C 
BRANCH   9  10
ATOM     10  C   UNL     1      -0.967   7.476 -40.226  1.00  0.00     0.006 C 
BRANCH  10  11
ATOM     11  C   UNL     1       0.048   7.398 -41.370  1.00  0.00     0.053 C 
BRANCH  11  12
ATOM     12  C   UNL     1       0.661   6.034 -41.435  1.00  0.00     0.041 C 
ATOM     13  O   UNL     1       1.835   5.888 -41.864  1.00  0.00    -0.550 OA
ATOM     14  O   UNL     1      -0.047   4.931 -40.974  1.00  0.00    -0.550 OA
ENDBRANCH  11  12
ENDBRANCH  10  11
ENDBRANCH   9  10
ENDBRANCH   8   9
ENDBRANCH   1   8
TORSDOF 9
ENDMDL
MODEL 8
REMARK VINA RESULT:    -4.963      3.833      4.947
REMARK INTER + INTRA:          -7.783
REMARK INTER:                  -7.523
REMARK INTRA:                  -0.259
REMARK UNBOUND:                -0.209
REMARK SMILES O=C([O-])CCCCCCCCC(=O)[O-]
REMARK SMILES IDX 7 1 6 2 5 3 4 4 2 5 1 6 3 7 8 8 9 9 10 10 11 11 12 12 13 13
REMARK SMILES IDX 14 14
REMARK H PARENT
REMARK Flexibility Score: inf
ROOT
ATOM      1  C   UNL     1      -1.672  10.181 -38.319  1.00  0.00     0.000 C 
ENDROOT
BRANCH   1   2
ATOM      2  C   UNL     1      -0.143  10.356 -38.311  1.00  0.00     0.000 C 
BRANCH   2   3
ATOM      3  C   UNL     1       0.289  11.829 -38.213  1.00  0.00     0.006 C 
BRANCH   3   4
ATOM      4  C   UNL     1      -0.097  12.457 -36.867  1.00  0.00     0.053 C 
BRANCH   4   5
ATOM      5  C   UNL     1      -1.276  13.372 -37.002  1.00  0.00     0.041 C 
ATOM      6  O   UNL     1      -1.412  14.083 -38.032  1.00  0.00    -0.550 OA
ATOM      7  O   UNL     1      -2.203  13.465 -35.973  1.00  0.00    -0.550 OA
ENDBRANCH   4   5
ENDBRANCH   3   4
ENDBRANCH   2   3
ENDBRANCH   1   2
BRANCH   1   8
ATOM      8  C   UNL     1      -2.199   9.083 -39.266  1.00  0.00     0.000 C 
BRANCH   8   9
ATOM      9  C   UNL     1      -1.374   7.785 -39.285  1.00  0.00     0.000 C 
BRANCH   9  10
ATOM     10  C   UNL     1      -0.583   7.599 -40.589  1.00  0.00     0.006 C 
BRANCH  10  11
ATOM     11  C   UNL     1      -0.086   6.157 -40.727  1.00  0.00     0.053 C 
BRANCH  11  12
ATOM     12  C   UNL     1       0.949   6.061 -41.802  1.00  0.00     0.041 C 
ATOM     13  O   UNL     1       2.111   5.660 -41.529  1.00  0.00    -0.550 OA
ATOM     14  O   UNL     1       0.618   6.366 -43.117  1.00  0.00    -0.550 OA
ENDBRANCH  11  12
ENDBRANCH  10  11
ENDBRANCH   9  10
ENDBRANCH   8   9
ENDBRANCH   1   8
TORSDOF 9
ENDMDL
