MODEL 1
REMARK VINA RESULT:    -3.513      0.000      0.000
REMARK INTER + INTRA:          -3.513
REMARK INTER:                  -3.513
REMARK INTRA:                   0.000
REMARK UNBOUND:                 0.000
REMARK SMILES CC1(C)O[C@]2(C)CC[C@H]1CC2
REMARK SMILES IDX 1 1 2 2 9 3 10 4 11 5 5 6 4 7 7 8 8 9 6 10 3 11
REMARK H PARENT
REMARK Flexibility Score: inf
ROOT
ATOM      1  C   UNL     1       0.122   3.757  11.216  1.00  0.00     0.042 C 
ATOM      2  C   UNL     1      -0.820   3.709   9.994  1.00  0.00     0.066 C 
ATOM      3  C   UNL     1      -0.137   4.378   8.737  1.00  0.00     0.021 C 
ATOM      4  C   UNL     1      -1.142   4.348   7.561  1.00  0.00     0.009 C 
ATOM      5  C   UNL     1      -2.490   4.949   8.027  1.00  0.00     0.035 C 
ATOM      6  C   UNL     1      -2.360   5.466   9.490  1.00  0.00     0.066 C 
ATOM      7  O   UNL     1      -2.045   4.368  10.348  1.00  0.00    -0.369 OA
ATOM      8  C   UNL     1      -1.209   6.511   9.555  1.00  0.00     0.035 C 
ATOM      9  C   UNL     1       0.109   5.873   9.053  1.00  0.00     0.009 C 
ATOM     10  C   UNL     1      -3.677   6.094   9.953  1.00  0.00     0.042 C 
ATOM     11  C   UNL     1      -1.136   2.224   9.716  1.00  0.00     0.042 C 
ENDROOT
TORSDOF 0
ENDMDL
MODEL 2
REMARK VINA RESULT:    -3.510      0.963      3.294
REMARK INTER + INTRA:          -3.510
REMARK INTER:                  -3.510
REMARK INTRA:                   0.000
REMARK UNBOUND:                 0.000
REMARK SMILES CC1(C)O[C@]2(C)CC[C@H]1CC2
REMARK SMILES IDX 1 1 2 2 9 3 10 4 11 5 5 6 4 7 7 8 8 9 6 10 3 11
REMARK H PARENT
REMARK Flexibility Score: inf
ROOT
ATOM      1  C   UNL     1      -3.562   5.126   8.212  1.00  0.00     0.042 C 
ATOM      2  C   UNL     1      -2.400   5.469   9.170  1.00  0.00     0.066 C 
ATOM      3  C   UNL     1      -1.082   5.778   8.360  1.00  0.00     0.021 C 
ATOM      4  C   UNL     1       0.056   6.064   9.368  1.00  0.00     0.009 C 
ATOM      5  C   UNL     1       0.123   4.912  10.401  1.00  0.00     0.035 C 
ATOM      6  C   UNL     1      -0.911   3.810  10.029  1.00  0.00     0.066 C 
ATOM      7  O   UNL     1      -2.226   4.368  10.073  1.00  0.00    -0.369 OA
ATOM      8  C   UNL     1      -0.617   3.308   8.586  1.00  0.00     0.035 C 
ATOM      9  C   UNL     1      -0.667   4.497   7.597  1.00  0.00     0.009 C 
ATOM     10  C   UNL     1      -0.833   2.649  11.025  1.00  0.00     0.042 C 
ATOM     11  C   UNL     1      -2.834   6.701   9.994  1.00  0.00     0.042 C 
ENDROOT
TORSDOF 0
ENDMDL
MODEL 3
REMARK VINA RESULT:    -3.225      1.476      3.155
REMARK INTER + INTRA:          -3.225
REMARK INTER:                  -3.225
REMARK INTRA:                   0.000
REMARK UNBOUND:                 0.000
REMARK SMILES CC1(C)O[C@]2(C)CC[C@H]1CC2
REMARK SMILES IDX 1 1 2 2 9 3 10 4 11 5 5 6 4 7 7 8 8 9 6 10 3 11
REMARK H PARENT
REMARK Flexibility Score: inf
ROOT
ATOM      1  C   UNL     1       0.103   5.779  10.593  1.00  0.00     0.042 C 
ATOM      2  C   UNL     1      -1.066   5.890   9.591  1.00  0.00     0.066 C 
ATOM      3  C   UNL     1      -2.090   4.706   9.794  1.00  0.00     0.021 C 
ATOM      4  C   UNL     1      -3.208   4.839   8.733  1.00  0.00     0.009 C 
ATOM      5  C   UNL     1      -2.566   4.976   7.331  1.00  0.00     0.035 C 
ATOM      6  C   UNL     1      -1.020   4.843   7.444  1.00  0.00     0.066 C 
ATOM      7  O   UNL     1      -0.517   5.899   8.265  1.00  0.00    -0.369 OA
ATOM      8  C   UNL     1      -0.677   3.476   8.103  1.00  0.00     0.035 C 
ATOM      9  C   UNL     1      -1.364   3.375   9.487  1.00  0.00     0.009 C 
ATOM     10  C   UNL     1      -0.374   4.943   6.059  1.00  0.00     0.042 C 
ATOM     11  C   UNL     1      -1.752   7.252   9.835  1.00  0.00     0.042 C 
ENDROOT
TORSDOF 0
ENDMDL
MODEL 4
REMARK VINA RESULT:    -3.090      2.360      4.777
REMARK INTER + INTRA:          -3.090
REMARK INTER:                  -3.090
REMARK INTRA:                   0.000
REMARK UNBOUND:                 0.000
REMARK SMILES CC1(C)O[C@]2(C)CC[C@H]1CC2
REMARK SMILES IDX 1 1 2 2 9 3 10 4 11 5 5 6 4 7 7 8 8 9 6 10 3 11
REMARK H PARENT
REMARK Flexibility Score: inf
ROOT
ATOM      1  C   UNL     1      -6.564   6.616   9.235  1.00  0.00     0.042 C 
ATOM      2  C   UNL     1      -5.092   7.080   9.258  1.00  0.00     0.066 C 
ATOM      3  C   UNL     1      -4.688   7.726   7.876  1.00  0.00     0.021 C 
ATOM      4  C   UNL     1      -3.194   8.125   7.940  1.00  0.00     0.009 C 
ATOM      5  C   UNL     1      -2.363   6.908   8.412  1.00  0.00     0.035 C 
ATOM      6  C   UNL     1      -3.288   5.668   8.577  1.00  0.00     0.066 C 
ATOM      7  O   UNL     1      -4.271   5.946   9.577  1.00  0.00    -0.369 OA
ATOM      8  C   UNL     1      -4.002   5.387   7.223  1.00  0.00     0.035 C 
ATOM      9  C   UNL     1      -4.796   6.640   6.779  1.00  0.00     0.009 C 
ATOM     10  C   UNL     1      -2.472   4.447   9.013  1.00  0.00     0.042 C 
ATOM     11  C   UNL     1      -4.953   8.108  10.402  1.00  0.00     0.042 C 
ENDROOT
TORSDOF 0
ENDMDL
MODEL 5
REMARK VINA RESULT:    -3.057      1.330      3.254
REMARK INTER + INTRA:          -3.057
REMARK INTER:                  -3.057
REMARK INTRA:                   0.000
REMARK UNBOUND:                 0.000
REMARK SMILES CC1(C)O[C@]2(C)CC[C@H]1CC2
REMARK SMILES IDX 1 1 2 2 9 3 10 4 11 5 5 6 4 7 7 8 8 9 6 10 3 11
REMARK H PARENT
REMARK Flexibility Score: inf
ROOT
ATOM      1  C   UNL     1      -0.899   5.245   5.972  1.00  0.00     0.042 C 
ATOM      2  C   UNL     1      -1.827   5.203   7.206  1.00  0.00     0.066 C 
ATOM      3  C   UNL     1      -1.585   6.460   8.129  1.00  0.00     0.021 C 
ATOM      4  C   UNL     1      -2.501   6.339   9.370  1.00  0.00     0.009 C 
ATOM      5  C   UNL     1      -2.301   4.948  10.017  1.00  0.00     0.035 C 
ATOM      6  C   UNL     1      -1.183   4.171   9.262  1.00  0.00     0.066 C 
ATOM      7  O   UNL     1      -1.584   3.973   7.905  1.00  0.00    -0.369 OA
ATOM      8  C   UNL     1       0.125   5.013   9.291  1.00  0.00     0.035 C 
ATOM      9  C   UNL     1      -0.133   6.403   8.661  1.00  0.00     0.009 C 
ATOM     10  C   UNL     1      -0.952   2.804   9.913  1.00  0.00     0.042 C 
ATOM     11  C   UNL     1      -3.281   5.181   6.686  1.00  0.00     0.042 C 
ENDROOT
TORSDOF 0
ENDMDL
MODEL 6
REMARK VINA RESULT:    -3.014      1.302      2.921
REMARK INTER + INTRA:          -3.014
REMARK INTER:                  -3.014
REMARK INTRA:                   0.000
REMARK UNBOUND:                 0.000
REMARK SMILES CC1(C)O[C@]2(C)CC[C@H]1CC2
REMARK SMILES IDX 1 1 2 2 9 3 10 4 11 5 5 6 4 7 7 8 8 9 6 10 3 11
REMARK H PARENT
REMARK Flexibility Score: inf
ROOT
ATOM      1  C   UNL     1      -1.202   2.726   9.690  1.00  0.00     0.042 C 
ATOM      2  C   UNL     1      -0.923   4.243   9.625  1.00  0.00     0.066 C 
ATOM      3  C   UNL     1      -2.249   5.064   9.869  1.00  0.00     0.021 C 
ATOM      4  C   UNL     1      -1.921   6.571   9.743  1.00  0.00     0.009 C 
ATOM      5  C   UNL     1      -1.180   6.820   8.407  1.00  0.00     0.035 C 
ATOM      6  C   UNL     1      -1.092   5.494   7.597  1.00  0.00     0.066 C 
ATOM      7  O   UNL     1      -0.342   4.536   8.346  1.00  0.00    -0.369 OA
ATOM      8  C   UNL     1      -2.530   4.949   7.364  1.00  0.00     0.035 C 
ATOM      9  C   UNL     1      -3.240   4.744   8.725  1.00  0.00     0.009 C 
ATOM     10  C   UNL     1      -0.389   5.734   6.257  1.00  0.00     0.042 C 
ATOM     11  C   UNL     1       0.125   4.564  10.713  1.00  0.00     0.042 C 
ENDROOT
TORSDOF 0
ENDMDL
MODEL 7
REMARK VINA RESULT:    -2.925      1.452      3.117
REMARK INTER + INTRA:          -2.925
REMARK INTER:                  -2.925
REMARK INTRA:                   0.000
REMARK UNBOUND:                 0.000
REMARK SMILES CC1(C)O[C@]2(C)CC[C@H]1CC2
REMARK SMILES IDX 1 1 2 2 9 3 10 4 11 5 5 6 4 7 7 8 8 9 6 10 3 11
REMARK H PARENT
REMARK Flexibility Score: inf
ROOT
ATOM      1  C   UNL     1      -2.045   5.195   6.628  1.00  0.00     0.042 C 
ATOM      2  C   UNL     1      -1.070   4.806   7.761  1.00  0.00     0.066 C 
ATOM      3  C   UNL     1      -1.837   4.075   8.931  1.00  0.00     0.021 C 
ATOM      4  C   UNL     1      -0.824   3.756  10.055  1.00  0.00     0.009 C 
ATOM      5  C   UNL     1      -0.051   5.045  10.425  1.00  0.00     0.035 C 
ATOM      6  C   UNL     1      -0.610   6.247   9.610  1.00  0.00     0.066 C 
ATOM      7  O   UNL     1      -0.416   6.000   8.216  1.00  0.00    -0.369 OA
ATOM      8  C   UNL     1      -2.133   6.387   9.897  1.00  0.00     0.035 C 
ATOM      9  C   UNL     1      -2.857   5.066   9.540  1.00  0.00     0.009 C 
ATOM     10  C   UNL     1       0.125   7.536   9.990  1.00  0.00     0.042 C 
ATOM     11  C   UNL     1      -0.000   3.877   7.147  1.00  0.00     0.042 C 
ENDROOT
TORSDOF 0
ENDMDL
MODEL 8
REMARK VINA RESULT:    -2.908      2.380      3.775
REMARK INTER + INTRA:          -2.908
REMARK INTER:                  -2.908
REMARK INTRA:                   0.000
REMARK UNBOUND:                 0.000
REMARK SMILES CC1(C)O[C@]2(C)CC[C@H]1CC2
REMARK SMILES IDX 1 1 2 2 9 3 10 4 11 5 5 6 4 7 7 8 8 9 6 10 3 11
REMARK H PARENT
REMARK Flexibility Score: inf
ROOT
ATOM      1  C   UNL     1      -2.501   5.087   9.767  1.00  0.00     0.042 C 
ATOM      2  C   UNL     1      -3.294   5.871   8.700  1.00  0.00     0.066 C 
ATOM      3  C   UNL     1      -2.829   7.379   8.655  1.00  0.00     0.021 C 
ATOM      4  C   UNL     1      -3.690   8.125   7.609  1.00  0.00     0.009 C 
ATOM      5  C   UNL     1      -5.188   7.863   7.901  1.00  0.00     0.035 C 
ATOM      6  C   UNL     1      -5.331   7.016   9.198  1.00  0.00     0.066 C 
ATOM      7  O   UNL     1      -4.691   5.753   9.007  1.00  0.00    -0.369 OA
ATOM      8  C   UNL     1      -4.638   7.767  10.371  1.00  0.00     0.035 C 
ATOM      9  C   UNL     1      -3.154   8.031  10.021  1.00  0.00     0.009 C 
ATOM     10  C   UNL     1      -6.810   6.777   9.518  1.00  0.00     0.042 C 
ATOM     11  C   UNL     1      -3.041   5.182   7.342  1.00  0.00     0.042 C 
ENDROOT
TORSDOF 0
ENDMDL
MODEL 9
REMARK VINA RESULT:    -2.853      1.472      2.229
REMARK INTER + INTRA:          -2.853
REMARK INTER:                  -2.853
REMARK INTRA:                   0.000
REMARK UNBOUND:                 0.000
REMARK SMILES CC1(C)O[C@]2(C)CC[C@H]1CC2
REMARK SMILES IDX 1 1 2 2 9 3 10 4 11 5 5 6 4 7 7 8 8 9 6 10 3 11
REMARK H PARENT
REMARK Flexibility Score: inf
ROOT
ATOM      1  C   UNL     1      -0.977   3.038   9.264  1.00  0.00     0.042 C 
ATOM      2  C   UNL     1      -0.817   4.171   8.227  1.00  0.00     0.066 C 
ATOM      3  C   UNL     1      -0.221   5.466   8.903  1.00  0.00     0.021 C 
ATOM      4  C   UNL     1      -0.132   6.580   7.832  1.00  0.00     0.009 C 
ATOM      5  C   UNL     1      -1.505   6.725   7.134  1.00  0.00     0.035 C 
ATOM      6  C   UNL     1      -2.539   5.772   7.799  1.00  0.00     0.066 C 
ATOM      7  O   UNL     1      -2.102   4.420   7.638  1.00  0.00    -0.369 OA
ATOM      8  C   UNL     1      -2.627   6.102   9.317  1.00  0.00     0.035 C 
ATOM      9  C   UNL     1      -1.227   5.971   9.964  1.00  0.00     0.009 C 
ATOM     10  C   UNL     1      -3.912   5.929   7.139  1.00  0.00     0.042 C 
ATOM     11  C   UNL     1       0.125   3.650   7.119  1.00  0.00     0.042 C 
ENDROOT
TORSDOF 0
ENDMDL
