MODEL 1
REMARK VINA RESULT:    -4.308      0.000      0.000
REMARK INTER + INTRA:          -7.478
REMARK INTER:                  -6.826
REMARK INTRA:                  -0.652
REMARK UNBOUND:                -0.652
REMARK SMILES CCCCCCCCCCCC(=O)[O-]
REMARK SMILES IDX 7 1 8 2 9 3 10 4 11 5 12 6 13 7 14 8 6 9 5 10 4 11 3 12 2 13
REMARK SMILES IDX 1 14
REMARK H PARENT
REMARK Flexibility Score: inf
ROOT
ATOM      1  C   UNL     1      14.988 -11.597  23.710  1.00  0.00     0.000 C 
ENDROOT
BRANCH   1   2
ATOM      2  C   UNL     1      13.780 -11.977  22.840  1.00  0.00     0.000 C 
BRANCH   2   3
ATOM      3  C   UNL     1      12.978 -10.732  22.441  1.00  0.00     0.000 C 
BRANCH   3   4
ATOM      4  C   UNL     1      12.970 -10.546  20.919  1.00  0.00     0.006 C 
BRANCH   4   5
ATOM      5  C   UNL     1      14.131  -9.653  20.469  1.00  0.00     0.053 C 
BRANCH   5   6
ATOM      6  C   UNL     1      14.333  -8.532  21.438  1.00  0.00     0.041 C 
ATOM      7  O   UNL     1      15.385  -8.473  22.129  1.00  0.00    -0.550 OA
ATOM      8  O   UNL     1      13.384  -7.523  21.545  1.00  0.00    -0.550 OA
ENDBRANCH   5   6
ENDBRANCH   4   5
ENDBRANCH   3   4
ENDBRANCH   2   3
ENDBRANCH   1   2
BRANCH   1   9
ATOM      9  C   UNL     1      15.913 -12.791  24.003  1.00  0.00     0.000 C 
BRANCH   9  10
ATOM     10  C   UNL     1      17.024 -13.026  22.959  1.00  0.00    -0.000 C 
BRANCH  10  11
ATOM     11  C   UNL     1      17.210 -11.887  21.937  1.00  0.00    -0.000 C 
BRANCH  11  12
ATOM     12  C   UNL     1      18.464 -12.008  21.047  1.00  0.00    -0.000 C 
BRANCH  12  13
ATOM     13  C   UNL     1      19.449 -13.113  21.466  1.00  0.00    -0.003 C 
ATOM     14  C   UNL     1      20.886 -12.825  21.035  1.00  0.00     0.004 C 
ENDBRANCH  12  13
ENDBRANCH  11  12
ENDBRANCH  10  11
ENDBRANCH   9  10
ENDBRANCH   1   9
TORSDOF 10
ENDMDL
MODEL 2
REMARK VINA RESULT:    -4.123     14.189     16.097
REMARK INTER + INTRA:          -7.185
REMARK INTER:                  -5.794
REMARK INTRA:                  -1.391
REMARK UNBOUND:                -0.652
REMARK SMILES CCCCCCCCCCCC(=O)[O-]
REMARK SMILES IDX 7 1 8 2 9 3 10 4 11 5 12 6 13 7 14 8 6 9 5 10 4 11 3 12 2 13
REMARK SMILES IDX 1 14
REMARK H PARENT
REMARK Flexibility Score: inf
ROOT
ATOM      1  C   UNL     1      10.385  -7.536  36.089  1.00  0.00     0.000 C 
ENDROOT
BRANCH   1   2
ATOM      2  C   UNL     1      11.243  -6.560  36.908  1.00  0.00     0.000 C 
BRANCH   2   3
ATOM      3  C   UNL     1      10.389  -5.418  37.472  1.00  0.00     0.000 C 
BRANCH   3   4
ATOM      4  C   UNL     1      10.839  -4.064  36.909  1.00  0.00     0.006 C 
BRANCH   4   5
ATOM      5  C   UNL     1      11.938  -4.245  35.858  1.00  0.00     0.053 C 
BRANCH   5   6
ATOM      6  C   UNL     1      13.072  -3.306  36.121  1.00  0.00     0.041 C 
ATOM      7  O   UNL     1      12.883  -2.061  36.100  1.00  0.00    -0.550 OA
ATOM      8  O   UNL     1      14.329  -3.805  36.438  1.00  0.00    -0.550 OA
ENDBRANCH   5   6
ENDBRANCH   4   5
ENDBRANCH   3   4
ENDBRANCH   2   3
ENDBRANCH   1   2
BRANCH   1   9
ATOM      9  C   UNL     1      10.802  -7.603  34.609  1.00  0.00     0.000 C 
BRANCH   9  10
ATOM     10  C   UNL     1       9.717  -8.131  33.650  1.00  0.00    -0.000 C 
BRANCH  10  11
ATOM     11  C   UNL     1       8.493  -7.209  33.478  1.00  0.00    -0.000 C 
BRANCH  11  12
ATOM     12  C   UNL     1       8.815  -5.783  32.986  1.00  0.00    -0.000 C 
BRANCH  12  13
ATOM     13  C   UNL     1       8.566  -4.672  34.022  1.00  0.00    -0.003 C 
ATOM     14  C   UNL     1       7.557  -5.074  35.096  1.00  0.00     0.004 C 
ENDBRANCH  12  13
ENDBRANCH  11  12
ENDBRANCH  10  11
ENDBRANCH   9  10
ENDBRANCH   1   9
TORSDOF 10
ENDMDL
MODEL 3
REMARK VINA RESULT:    -4.024     13.553     14.903
REMARK INTER + INTRA:          -7.027
REMARK INTER:                  -6.152
REMARK INTRA:                  -0.876
REMARK UNBOUND:                -0.652
REMARK SMILES CCCCCCCCCCCC(=O)[O-]
REMARK SMILES IDX 7 1 8 2 9 3 10 4 11 5 12 6 13 7 14 8 6 9 5 10 4 11 3 12 2 13
REMARK SMILES IDX 1 14
REMARK H PARENT
REMARK Flexibility Score: inf
ROOT
ATOM      1  C   UNL     1      17.523 -12.741  34.975  1.00  0.00     0.000 C 
ENDROOT
BRANCH   1   2
ATOM      2  C   UNL     1      16.936 -11.967  36.164  1.00  0.00     0.000 C 
BRANCH   2   3
ATOM      3  C   UNL     1      17.467 -10.528  36.199  1.00  0.00     0.000 C 
BRANCH   3   4
ATOM      4  C   UNL     1      17.341  -9.928  37.605  1.00  0.00     0.006 C 
BRANCH   4   5
ATOM      5  C   UNL     1      16.073 -10.430  38.304  1.00  0.00     0.053 C 
BRANCH   5   6
ATOM      6  C   UNL     1      15.092  -9.313  38.471  1.00  0.00     0.041 C 
ATOM      7  O   UNL     1      15.451  -8.120  38.284  1.00  0.00    -0.550 OA
ATOM      8  O   UNL     1      13.768  -9.592  38.785  1.00  0.00    -0.550 OA
ENDBRANCH   5   6
ENDBRANCH   4   5
ENDBRANCH   3   4
ENDBRANCH   2   3
ENDBRANCH   1   2
BRANCH   1   9
ATOM      9  C   UNL     1      18.811 -12.106  34.424  1.00  0.00     0.000 C 
BRANCH   9  10
ATOM     10  C   UNL     1      19.966 -13.094  34.167  1.00  0.00    -0.000 C 
BRANCH  10  11
ATOM     11  C   UNL     1      21.350 -12.445  33.970  1.00  0.00    -0.000 C 
BRANCH  11  12
ATOM     12  C   UNL     1      22.086 -12.069  35.273  1.00  0.00    -0.000 C 
BRANCH  12  13
ATOM     13  C   UNL     1      21.923 -10.601  35.705  1.00  0.00    -0.003 C 
ATOM     14  C   UNL     1      21.037 -10.438  36.939  1.00  0.00     0.004 C 
ENDBRANCH  12  13
ENDBRANCH  11  12
ENDBRANCH  10  11
ENDBRANCH   9  10
ENDBRANCH   1   9
TORSDOF 10
ENDMDL
MODEL 4
REMARK VINA RESULT:    -4.014     14.559     16.585
REMARK INTER + INTRA:          -7.011
REMARK INTER:                  -5.301
REMARK INTRA:                  -1.710
REMARK UNBOUND:                -0.652
REMARK SMILES CCCCCCCCCCCC(=O)[O-]
REMARK SMILES IDX 7 1 8 2 9 3 10 4 11 5 12 6 13 7 14 8 6 9 5 10 4 11 3 12 2 13
REMARK SMILES IDX 1 14
REMARK H PARENT
REMARK Flexibility Score: inf
ROOT
ATOM      1  C   UNL     1       9.643  -7.841  33.990  1.00  0.00     0.000 C 
ENDROOT
BRANCH   1   2
ATOM      2  C   UNL     1      10.812  -7.100  34.656  1.00  0.00     0.000 C 
BRANCH   2   3
ATOM      3  C   UNL     1      10.763  -7.257  36.181  1.00  0.00     0.000 C 
BRANCH   3   4
ATOM      4  C   UNL     1      11.338  -6.019  36.881  1.00  0.00     0.006 C 
BRANCH   4   5
ATOM      5  C   UNL     1      11.575  -4.884  35.880  1.00  0.00     0.053 C 
BRANCH   5   6
ATOM      6  C   UNL     1      11.583  -3.562  36.580  1.00  0.00     0.041 C 
ATOM      7  O   UNL     1      12.392  -2.663  36.228  1.00  0.00    -0.550 OA
ATOM      8  O   UNL     1      10.665  -3.304  37.590  1.00  0.00    -0.550 OA
ENDBRANCH   5   6
ENDBRANCH   4   5
ENDBRANCH   3   4
ENDBRANCH   2   3
ENDBRANCH   1   2
BRANCH   1   9
ATOM      9  C   UNL     1       8.537  -6.891  33.496  1.00  0.00     0.000 C 
BRANCH   9  10
ATOM     10  C   UNL     1       8.972  -5.424  33.313  1.00  0.00    -0.000 C 
BRANCH  10  11
ATOM     11  C   UNL     1       8.280  -4.415  34.251  1.00  0.00    -0.000 C 
BRANCH  11  12
ATOM     12  C   UNL     1       7.261  -5.029  35.232  1.00  0.00    -0.000 C 
BRANCH  12  13
ATOM     13  C   UNL     1       7.736  -5.106  36.693  1.00  0.00    -0.003 C 
ATOM     14  C   UNL     1       7.403  -6.440  37.359  1.00  0.00     0.004 C 
ENDBRANCH  12  13
ENDBRANCH  11  12
ENDBRANCH  10  11
ENDBRANCH   9  10
ENDBRANCH   1   9
TORSDOF 10
ENDMDL
MODEL 5
REMARK VINA RESULT:    -3.984     13.831     15.576
REMARK INTER + INTRA:          -6.964
REMARK INTER:                  -5.540
REMARK INTRA:                  -1.424
REMARK UNBOUND:                -0.652
REMARK SMILES CCCCCCCCCCCC(=O)[O-]
REMARK SMILES IDX 7 1 8 2 9 3 10 4 11 5 12 6 13 7 14 8 6 9 5 10 4 11 3 12 2 13
REMARK SMILES IDX 1 14
REMARK H PARENT
REMARK Flexibility Score: inf
ROOT
ATOM      1  C   UNL     1       8.673  -5.966  33.416  1.00  0.00     0.000 C 
ENDROOT
BRANCH   1   2
ATOM      2  C   UNL     1       8.460  -5.262  34.764  1.00  0.00     0.000 C 
BRANCH   2   3
ATOM      3  C   UNL     1       9.696  -4.442  35.157  1.00  0.00     0.000 C 
BRANCH   3   4
ATOM      4  C   UNL     1      10.985  -5.138  34.705  1.00  0.00     0.006 C 
BRANCH   4   5
ATOM      5  C   UNL     1      12.150  -4.146  34.637  1.00  0.00     0.053 C 
BRANCH   5   6
ATOM      6  C   UNL     1      12.473  -3.624  36.001  1.00  0.00     0.041 C 
ATOM      7  O   UNL     1      12.579  -2.384  36.196  1.00  0.00    -0.550 OA
ATOM      8  O   UNL     1      12.609  -4.502  37.068  1.00  0.00    -0.550 OA
ENDBRANCH   5   6
ENDBRANCH   4   5
ENDBRANCH   3   4
ENDBRANCH   2   3
ENDBRANCH   1   2
BRANCH   1   9
ATOM      9  C   UNL     1       8.490  -7.492  33.502  1.00  0.00     0.000 C 
BRANCH   9  10
ATOM     10  C   UNL     1       9.733  -8.319  33.118  1.00  0.00    -0.000 C 
BRANCH  10  11
ATOM     11  C   UNL     1      10.453  -9.003  34.297  1.00  0.00    -0.000 C 
BRANCH  11  12
ATOM     12  C   UNL     1       9.860  -8.700  35.688  1.00  0.00    -0.000 C 
BRANCH  12  13
ATOM     13  C   UNL     1      10.864  -8.142  36.711  1.00  0.00    -0.003 C 
ATOM     14  C   UNL     1      10.234  -7.145  37.681  1.00  0.00     0.004 C 
ENDBRANCH  12  13
ENDBRANCH  11  12
ENDBRANCH  10  11
ENDBRANCH   9  10
ENDBRANCH   1   9
TORSDOF 10
ENDMDL
MODEL 6
REMARK VINA RESULT:    -3.940     14.399     16.180
REMARK INTER + INTRA:          -6.896
REMARK INTER:                  -5.427
REMARK INTRA:                  -1.469
REMARK UNBOUND:                -0.652
REMARK SMILES CCCCCCCCCCCC(=O)[O-]
REMARK SMILES IDX 7 1 8 2 9 3 10 4 11 5 12 6 13 7 14 8 6 9 5 10 4 11 3 12 2 13
REMARK SMILES IDX 1 14
REMARK H PARENT
REMARK Flexibility Score: inf
ROOT
ATOM      1  C   UNL     1       7.698  -4.152  35.503  1.00  0.00     0.000 C 
ENDROOT
BRANCH   1   2
ATOM      2  C   UNL     1       8.566  -3.650  36.666  1.00  0.00     0.000 C 
BRANCH   2   3
ATOM      3  C   UNL     1       9.172  -4.823  37.446  1.00  0.00     0.000 C 
BRANCH   3   4
ATOM      4  C   UNL     1      10.687  -4.910  37.220  1.00  0.00     0.006 C 
BRANCH   4   5
ATOM      5  C   UNL     1      11.243  -3.578  36.709  1.00  0.00     0.053 C 
BRANCH   5   6
ATOM      6  C   UNL     1      12.305  -3.814  35.683  1.00  0.00     0.041 C 
ATOM      7  O   UNL     1      12.000  -4.257  34.544  1.00  0.00    -0.550 OA
ATOM      8  O   UNL     1      13.628  -3.499  35.966  1.00  0.00    -0.550 OA
ENDBRANCH   5   6
ENDBRANCH   4   5
ENDBRANCH   3   4
ENDBRANCH   2   3
ENDBRANCH   1   2
BRANCH   1   9
ATOM      9  C   UNL     1       8.457  -4.198  34.166  1.00  0.00     0.000 C 
BRANCH   9  10
ATOM     10  C   UNL     1       8.700  -5.613  33.604  1.00  0.00    -0.000 C 
BRANCH  10  11
ATOM     11  C   UNL     1       7.991  -6.750  34.366  1.00  0.00    -0.000 C 
BRANCH  11  12
ATOM     12  C   UNL     1       8.931  -7.729  35.099  1.00  0.00    -0.000 C 
BRANCH  12  13
ATOM     13  C   UNL     1      10.410  -7.636  34.685  1.00  0.00    -0.003 C 
ATOM     14  C   UNL     1      10.795  -8.659  33.618  1.00  0.00     0.004 C 
ENDBRANCH  12  13
ENDBRANCH  11  12
ENDBRANCH  10  11
ENDBRANCH   9  10
ENDBRANCH   1   9
TORSDOF 10
ENDMDL
MODEL 7
REMARK VINA RESULT:    -3.923     14.249     15.829
REMARK INTER + INTRA:          -6.868
REMARK INTER:                  -5.841
REMARK INTRA:                  -1.027
REMARK UNBOUND:                -0.652
REMARK SMILES CCCCCCCCCCCC(=O)[O-]
REMARK SMILES IDX 7 1 8 2 9 3 10 4 11 5 12 6 13 7 14 8 6 9 5 10 4 11 3 12 2 13
REMARK SMILES IDX 1 14
REMARK H PARENT
REMARK Flexibility Score: inf
ROOT
ATOM      1  C   UNL     1      10.617  -7.951  36.036  1.00  0.00     0.000 C 
ENDROOT
BRANCH   1   2
ATOM      2  C   UNL     1      10.836  -7.606  34.556  1.00  0.00     0.000 C 
BRANCH   2   3
ATOM      3  C   UNL     1       9.837  -8.354  33.664  1.00  0.00     0.000 C 
BRANCH   3   4
ATOM      4  C   UNL     1       8.553  -7.539  33.470  1.00  0.00     0.006 C 
BRANCH   4   5
ATOM      5  C   UNL     1       8.866  -6.046  33.335  1.00  0.00     0.053 C 
BRANCH   5   6
ATOM      6  C   UNL     1       8.112  -5.258  34.358  1.00  0.00     0.041 C 
ATOM      7  O   UNL     1       7.417  -5.849  35.227  1.00  0.00    -0.550 OA
ATOM      8  O   UNL     1       8.213  -3.873  34.384  1.00  0.00    -0.550 OA
ENDBRANCH   5   6
ENDBRANCH   4   5
ENDBRANCH   3   4
ENDBRANCH   2   3
ENDBRANCH   1   2
BRANCH   1   9
ATOM      9  C   UNL     1      10.518  -6.704  36.933  1.00  0.00     0.000 C 
BRANCH   9  10
ATOM     10  C   UNL     1      11.237  -5.453  36.391  1.00  0.00    -0.000 C 
BRANCH  10  11
ATOM     11  C   UNL     1      12.285  -4.840  37.340  1.00  0.00    -0.000 C 
BRANCH  11  12
ATOM     12  C   UNL     1      12.638  -5.704  38.568  1.00  0.00    -0.000 C 
BRANCH  12  13
ATOM     13  C   UNL     1      14.140  -5.986  38.749  1.00  0.00    -0.003 C 
ATOM     14  C   UNL     1      14.458  -7.476  38.855  1.00  0.00     0.004 C 
ENDBRANCH  12  13
ENDBRANCH  11  12
ENDBRANCH  10  11
ENDBRANCH   9  10
ENDBRANCH   1   9
TORSDOF 10
ENDMDL
MODEL 8
REMARK VINA RESULT:    -3.872     14.774     16.565
REMARK INTER + INTRA:          -6.788
REMARK INTER:                  -5.246
REMARK INTRA:                  -1.542
REMARK UNBOUND:                -0.652
REMARK SMILES CCCCCCCCCCCC(=O)[O-]
REMARK SMILES IDX 7 1 8 2 9 3 10 4 11 5 12 6 13 7 14 8 6 9 5 10 4 11 3 12 2 13
REMARK SMILES IDX 1 14
REMARK H PARENT
REMARK Flexibility Score: inf
ROOT
ATOM      1  C   UNL     1       8.647  -5.472  37.410  1.00  0.00     0.000 C 
ENDROOT
BRANCH   1   2
ATOM      2  C   UNL     1       9.820  -6.391  37.782  1.00  0.00     0.000 C 
BRANCH   2   3
ATOM      3  C   UNL     1      11.162  -5.741  37.424  1.00  0.00     0.000 C 
BRANCH   3   4
ATOM      4  C   UNL     1      10.953  -4.381  36.746  1.00  0.00     0.006 C 
BRANCH   4   5
ATOM      5  C   UNL     1      11.975  -4.163  35.627  1.00  0.00     0.053 C 
BRANCH   5   6
ATOM      6  C   UNL     1      13.085  -3.277  36.097  1.00  0.00     0.041 C 
ATOM      7  O   UNL     1      12.921  -2.029  36.151  1.00  0.00    -0.550 OA
ATOM      8  O   UNL     1      14.285  -3.832  36.524  1.00  0.00    -0.550 OA
ENDBRANCH   5   6
ENDBRANCH   4   5
ENDBRANCH   3   4
ENDBRANCH   2   3
ENDBRANCH   1   2
BRANCH   1   9
ATOM      9  C   UNL     1       7.449  -6.238  36.823  1.00  0.00     0.000 C 
BRANCH   9  10
ATOM     10  C   UNL     1       7.103  -5.885  35.363  1.00  0.00    -0.000 C 
BRANCH  10  11
ATOM     11  C   UNL     1       8.109  -4.952  34.660  1.00  0.00    -0.000 C 
BRANCH  11  12
ATOM     12  C   UNL     1       8.881  -5.591  33.487  1.00  0.00    -0.000 C 
BRANCH  12  13
ATOM     13  C   UNL     1       9.021  -7.121  33.563  1.00  0.00    -0.003 C 
ATOM     14  C   UNL     1      10.290  -7.568  34.286  1.00  0.00     0.004 C 
ENDBRANCH  12  13
ENDBRANCH  11  12
ENDBRANCH  10  11
ENDBRANCH   9  10
ENDBRANCH   1   9
TORSDOF 10
ENDMDL
MODEL 9
REMARK VINA RESULT:    -3.102     13.641     14.757
REMARK INTER + INTRA:          -5.567
REMARK INTER:                  -5.030
REMARK INTRA:                  -0.537
REMARK UNBOUND:                -0.652
REMARK SMILES CCCCCCCCCCCC(=O)[O-]
REMARK SMILES IDX 7 1 8 2 9 3 10 4 11 5 12 6 13 7 14 8 6 9 5 10 4 11 3 12 2 13
REMARK SMILES IDX 1 14
REMARK H PARENT
REMARK Flexibility Score: inf
ROOT
ATOM      1  C   UNL     1      19.715   0.674  28.749  1.00  0.00     0.000 C 
ENDROOT
BRANCH   1   2
ATOM      2  C   UNL     1      19.050   1.237  27.484  1.00  0.00     0.000 C 
BRANCH   2   3
ATOM      3  C   UNL     1      19.361   2.730  27.318  1.00  0.00     0.000 C 
BRANCH   3   4
ATOM      4  C   UNL     1      19.975   3.014  25.942  1.00  0.00     0.006 C 
BRANCH   4   5
ATOM      5  C   UNL     1      21.305   3.761  26.079  1.00  0.00     0.053 C 
BRANCH   5   6
ATOM      6  C   UNL     1      21.200   5.130  25.486  1.00  0.00     0.041 C 
ATOM      7  O   UNL     1      21.336   6.149  26.214  1.00  0.00    -0.550 OA
ATOM      8  O   UNL     1      20.999   5.283  24.120  1.00  0.00    -0.550 OA
ENDBRANCH   5   6
ENDBRANCH   4   5
ENDBRANCH   3   4
ENDBRANCH   2   3
ENDBRANCH   1   2
BRANCH   1   9
ATOM      9  C   UNL     1      21.206   1.042  28.855  1.00  0.00     0.000 C 
BRANCH   9  10
ATOM     10  C   UNL     1      22.125  -0.098  29.336  1.00  0.00    -0.000 C 
BRANCH  10  11
ATOM     11  C   UNL     1      21.844  -1.476  28.704  1.00  0.00    -0.000 C 
BRANCH  11  12
ATOM     12  C   UNL     1      21.768  -2.649  29.703  1.00  0.00    -0.000 C 
BRANCH  12  13
ATOM     13  C   UNL     1      21.367  -3.999  29.084  1.00  0.00    -0.003 C 
ATOM     14  C   UNL     1      20.644  -4.915  30.070  1.00  0.00     0.004 C 
ENDBRANCH  12  13
ENDBRANCH  11  12
ENDBRANCH  10  11
ENDBRANCH   9  10
ENDBRANCH   1   9
TORSDOF 10
ENDMDL
