MODEL 1
REMARK VINA RESULT:    -5.574      0.000      0.000
REMARK INTER + INTRA:          -6.086
REMARK INTER:                  -6.063
REMARK INTRA:                  -0.022
REMARK UNBOUND:                -0.022
REMARK SMILES COc1ccccc1O
REMARK SMILES IDX 3 1 4 2 5 3 6 4 7 5 8 6 2 7 1 8 9 9
REMARK H PARENT 9 10
REMARK Flexibility Score: inf
ROOT
ATOM      1  C   UNL     1      10.622   8.985  29.276  1.00  0.00     0.160 A 
ATOM      2  C   UNL     1      11.963   9.212  29.647  1.00  0.00     0.050 A 
ATOM      3  C   UNL     1      13.002   8.591  28.947  1.00  0.00     0.004 A 
ATOM      4  C   UNL     1      12.718   7.744  27.875  1.00  0.00     0.004 A 
ATOM      5  C   UNL     1      11.393   7.513  27.500  1.00  0.00     0.050 A 
ATOM      6  C   UNL     1      10.344   8.131  28.197  1.00  0.00     0.157 A 
ENDROOT
BRANCH   1   7
ATOM      7  O   UNL     1       9.547   9.586  29.949  1.00  0.00    -0.493 OA
ATOM      8  C   UNL     1       8.983  10.847  29.603  1.00  0.00     0.278 C 
ENDBRANCH   1   7
BRANCH   6   9
ATOM      9  O   UNL     1       9.020   7.901  27.823  1.00  0.00    -0.504 OA
ATOM     10  H   UNL     1       8.666   6.964  27.677  1.00  0.00     0.293 HD
ENDBRANCH   6   9
TORSDOF 2
ENDMDL
MODEL 2
REMARK VINA RESULT:    -5.349      1.371      3.136
REMARK INTER + INTRA:          -5.841
REMARK INTER:                  -5.813
REMARK INTRA:                  -0.028
REMARK UNBOUND:                -0.022
REMARK SMILES COc1ccccc1O
REMARK SMILES IDX 3 1 4 2 5 3 6 4 7 5 8 6 2 7 1 8 9 9
REMARK H PARENT 9 10
REMARK Flexibility Score: inf
ROOT
ATOM      1  C   UNL     1      11.255   8.475  28.409  1.00  0.00     0.160 A 
ATOM      2  C   UNL     1      12.131   9.411  28.995  1.00  0.00     0.050 A 
ATOM      3  C   UNL     1      11.642  10.630  29.474  1.00  0.00     0.004 A 
ATOM      4  C   UNL     1      10.281  10.927  29.375  1.00  0.00     0.004 A 
ATOM      5  C   UNL     1       9.405  10.006  28.796  1.00  0.00     0.050 A 
ATOM      6  C   UNL     1       9.888   8.781  28.313  1.00  0.00     0.157 A 
ENDROOT
BRANCH   1   7
ATOM      7  O   UNL     1      11.701   7.240  27.915  1.00  0.00    -0.493 OA
ATOM      8  C   UNL     1      12.940   6.631  28.267  1.00  0.00     0.278 C 
ENDBRANCH   1   7
BRANCH   6   9
ATOM      9  O   UNL     1       9.015   7.861  27.735  1.00  0.00    -0.504 OA
ATOM     10  H   UNL     1       8.243   7.463  28.256  1.00  0.00     0.293 HD
ENDBRANCH   6   9
TORSDOF 2
ENDMDL
MODEL 3
REMARK VINA RESULT:    -5.337      1.262      1.767
REMARK INTER + INTRA:          -5.827
REMARK INTER:                  -5.789
REMARK INTRA:                  -0.038
REMARK UNBOUND:                -0.022
REMARK SMILES COc1ccccc1O
REMARK SMILES IDX 3 1 4 2 5 3 6 4 7 5 8 6 2 7 1 8 9 9
REMARK H PARENT 9 10
REMARK Flexibility Score: inf
ROOT
ATOM      1  C   UNL     1      11.142   9.281  29.495  1.00  0.00     0.160 A 
ATOM      2  C   UNL     1      12.271   8.508  29.152  1.00  0.00     0.050 A 
ATOM      3  C   UNL     1      12.231   7.655  28.045  1.00  0.00     0.004 A 
ATOM      4  C   UNL     1      11.073   7.565  27.271  1.00  0.00     0.004 A 
ATOM      5  C   UNL     1       9.951   8.326  27.601  1.00  0.00     0.050 A 
ATOM      6  C   UNL     1       9.981   9.184  28.711  1.00  0.00     0.157 A 
ENDROOT
BRANCH   1   7
ATOM      7  O   UNL     1      11.136  10.150  30.596  1.00  0.00    -0.493 OA
ATOM      8  C   UNL     1      11.615  11.491  30.567  1.00  0.00     0.278 C 
ENDBRANCH   1   7
BRANCH   6   9
ATOM      9  O   UNL     1       8.861   9.945  29.042  1.00  0.00    -0.504 OA
ATOM     10  H   UNL     1       7.928   9.553  29.017  1.00  0.00     0.293 HD
ENDBRANCH   6   9
TORSDOF 2
ENDMDL
MODEL 4
REMARK VINA RESULT:    -5.279      1.253      2.359
REMARK INTER + INTRA:          -5.765
REMARK INTER:                  -5.738
REMARK INTRA:                  -0.027
REMARK UNBOUND:                -0.022
REMARK SMILES COc1ccccc1O
REMARK SMILES IDX 3 1 4 2 5 3 6 4 7 5 8 6 2 7 1 8 9 9
REMARK H PARENT 9 10
REMARK Flexibility Score: inf
ROOT
ATOM      1  C   UNL     1      10.819   9.433  28.959  1.00  0.00     0.160 A 
ATOM      2  C   UNL     1      10.214   8.648  27.956  1.00  0.00     0.050 A 
ATOM      3  C   UNL     1      10.932   7.622  27.335  1.00  0.00     0.004 A 
ATOM      4  C   UNL     1      12.254   7.368  27.705  1.00  0.00     0.004 A 
ATOM      5  C   UNL     1      12.863   8.140  28.697  1.00  0.00     0.050 A 
ATOM      6  C   UNL     1      12.149   9.172  29.325  1.00  0.00     0.157 A 
ENDROOT
BRANCH   1   7
ATOM      7  O   UNL     1      10.137  10.472  29.609  1.00  0.00    -0.493 OA
ATOM      8  C   UNL     1       8.736  10.707  29.503  1.00  0.00     0.278 C 
ENDBRANCH   1   7
BRANCH   6   9
ATOM      9  O   UNL     1      12.755   9.943  30.316  1.00  0.00    -0.504 OA
ATOM     10  H   UNL     1      13.762  10.042  30.368  1.00  0.00     0.293 HD
ENDBRANCH   6   9
TORSDOF 2
ENDMDL
MODEL 5
REMARK VINA RESULT:    -5.145      1.832      2.631
REMARK INTER + INTRA:          -5.619
REMARK INTER:                  -5.572
REMARK INTRA:                  -0.046
REMARK UNBOUND:                -0.022
REMARK SMILES COc1ccccc1O
REMARK SMILES IDX 3 1 4 2 5 3 6 4 7 5 8 6 2 7 1 8 9 9
REMARK H PARENT 9 10
REMARK Flexibility Score: inf
ROOT
ATOM      1  C   UNL     1      11.264   9.341  29.442  1.00  0.00     0.160 A 
ATOM      2  C   UNL     1      10.073   9.247  28.693  1.00  0.00     0.050 A 
ATOM      3  C   UNL     1       9.984   8.354  27.621  1.00  0.00     0.004 A 
ATOM      4  C   UNL     1      11.074   7.550  27.285  1.00  0.00     0.004 A 
ATOM      5  C   UNL     1      12.258   7.636  28.020  1.00  0.00     0.050 A 
ATOM      6  C   UNL     1      12.357   8.529  29.098  1.00  0.00     0.157 A 
ENDROOT
BRANCH   1   7
ATOM      7  O   UNL     1      11.399  10.222  30.525  1.00  0.00    -0.493 OA
ATOM      8  C   UNL     1      11.590  11.628  30.402  1.00  0.00     0.278 C 
ENDBRANCH   1   7
BRANCH   6   9
ATOM      9  O   UNL     1      13.539   8.616  29.832  1.00  0.00    -0.504 OA
ATOM     10  H   UNL     1      14.282   7.937  29.723  1.00  0.00     0.293 HD
ENDBRANCH   6   9
TORSDOF 2
ENDMDL
MODEL 6
REMARK VINA RESULT:    -5.018      2.179      3.958
REMARK INTER + INTRA:          -5.480
REMARK INTER:                  -5.444
REMARK INTRA:                  -0.036
REMARK UNBOUND:                -0.022
REMARK SMILES COc1ccccc1O
REMARK SMILES IDX 3 1 4 2 5 3 6 4 7 5 8 6 2 7 1 8 9 9
REMARK H PARENT 9 10
REMARK Flexibility Score: inf
ROOT
ATOM      1  C   UNL     1      12.259   7.977  28.331  1.00  0.00     0.160 A 
ATOM      2  C   UNL     1      11.226   7.530  27.482  1.00  0.00     0.050 A 
ATOM      3  C   UNL     1      10.040   8.261  27.371  1.00  0.00     0.004 A 
ATOM      4  C   UNL     1       9.872   9.440  28.100  1.00  0.00     0.004 A 
ATOM      5  C   UNL     1      10.889   9.891  28.943  1.00  0.00     0.050 A 
ATOM      6  C   UNL     1      12.083   9.163  29.061  1.00  0.00     0.157 A 
ENDROOT
BRANCH   1   7
ATOM      7  O   UNL     1      13.466   7.276  28.474  1.00  0.00    -0.493 OA
ATOM      8  C   UNL     1      13.561   5.879  28.735  1.00  0.00     0.278 C 
ENDBRANCH   1   7
BRANCH   6   9
ATOM      9  O   UNL     1      13.099   9.612  29.903  1.00  0.00    -0.504 OA
ATOM     10  H   UNL     1      13.563  10.499  29.747  1.00  0.00     0.293 HD
ENDBRANCH   6   9
TORSDOF 2
ENDMDL
MODEL 7
REMARK VINA RESULT:    -4.993      1.743      2.996
REMARK INTER + INTRA:          -5.453
REMARK INTER:                  -5.412
REMARK INTRA:                  -0.042
REMARK UNBOUND:                -0.022
REMARK SMILES COc1ccccc1O
REMARK SMILES IDX 3 1 4 2 5 3 6 4 7 5 8 6 2 7 1 8 9 9
REMARK H PARENT 9 10
REMARK Flexibility Score: inf
ROOT
ATOM      1  C   UNL     1      10.885  10.422  29.461  1.00  0.00     0.160 A 
ATOM      2  C   UNL     1      11.170   9.296  28.661  1.00  0.00     0.050 A 
ATOM      3  C   UNL     1      12.328   8.547  28.886  1.00  0.00     0.004 A 
ATOM      4  C   UNL     1      13.211   8.909  29.906  1.00  0.00     0.004 A 
ATOM      5  C   UNL     1      12.938  10.022  30.703  1.00  0.00     0.050 A 
ATOM      6  C   UNL     1      11.777  10.780  30.484  1.00  0.00     0.157 A 
ENDROOT
BRANCH   1   7
ATOM      7  O   UNL     1       9.735  11.203  29.271  1.00  0.00    -0.493 OA
ATOM      8  C   UNL     1       8.402  10.716  29.389  1.00  0.00     0.278 C 
ENDBRANCH   1   7
BRANCH   6   9
ATOM      9  O   UNL     1      11.504  11.892  31.280  1.00  0.00    -0.504 OA
ATOM     10  H   UNL     1      11.921  12.004  32.195  1.00  0.00     0.293 HD
ENDBRANCH   6   9
TORSDOF 2
ENDMDL
MODEL 8
REMARK VINA RESULT:    -4.952      1.344      2.736
REMARK INTER + INTRA:          -5.409
REMARK INTER:                  -5.365
REMARK INTRA:                  -0.044
REMARK UNBOUND:                -0.022
REMARK SMILES COc1ccccc1O
REMARK SMILES IDX 3 1 4 2 5 3 6 4 7 5 8 6 2 7 1 8 9 9
REMARK H PARENT 9 10
REMARK Flexibility Score: inf
ROOT
ATOM      1  C   UNL     1      11.120   8.619  29.067  1.00  0.00     0.160 A 
ATOM      2  C   UNL     1      12.462   8.474  28.657  1.00  0.00     0.050 A 
ATOM      3  C   UNL     1      13.491   9.073  29.388  1.00  0.00     0.004 A 
ATOM      4  C   UNL     1      13.197   9.819  30.531  1.00  0.00     0.004 A 
ATOM      5  C   UNL     1      11.873   9.969  30.945  1.00  0.00     0.050 A 
ATOM      6  C   UNL     1      10.833   9.371  30.217  1.00  0.00     0.157 A 
ENDROOT
BRANCH   1   7
ATOM      7  O   UNL     1      10.055   8.036  28.364  1.00  0.00    -0.493 OA
ATOM      8  C   UNL     1       9.666   8.399  27.044  1.00  0.00     0.278 C 
ENDBRANCH   1   7
BRANCH   6   9
ATOM      9  O   UNL     1       9.510   9.521  30.630  1.00  0.00    -0.504 OA
ATOM     10  H   UNL     1       8.860   8.745  30.616  1.00  0.00     0.293 HD
ENDBRANCH   6   9
TORSDOF 2
ENDMDL
MODEL 9
REMARK VINA RESULT:    -4.688      1.830      3.412
REMARK INTER + INTRA:          -5.121
REMARK INTER:                  -5.086
REMARK INTRA:                  -0.035
REMARK UNBOUND:                -0.022
REMARK SMILES COc1ccccc1O
REMARK SMILES IDX 3 1 4 2 5 3 6 4 7 5 8 6 2 7 1 8 9 9
REMARK H PARENT 9 10
REMARK Flexibility Score: inf
ROOT
ATOM      1  C   UNL     1      10.774   9.316  29.313  1.00  0.00     0.160 A 
ATOM      2  C   UNL     1      10.078  10.534  29.452  1.00  0.00     0.050 A 
ATOM      3  C   UNL     1      10.615  11.569  30.224  1.00  0.00     0.004 A 
ATOM      4  C   UNL     1      11.846  11.402  30.861  1.00  0.00     0.004 A 
ATOM      5  C   UNL     1      12.543  10.200  30.730  1.00  0.00     0.050 A 
ATOM      6  C   UNL     1      12.012   9.156  29.957  1.00  0.00     0.157 A 
ENDROOT
BRANCH   1   7
ATOM      7  O   UNL     1      10.274   8.251  28.549  1.00  0.00    -0.493 OA
ATOM      8  C   UNL     1       9.747   8.382  27.233  1.00  0.00     0.278 C 
ENDBRANCH   1   7
BRANCH   6   9
ATOM      9  O   UNL     1      12.707   7.955  29.825  1.00  0.00    -0.504 OA
ATOM     10  H   UNL     1      12.990   7.415  30.634  1.00  0.00     0.293 HD
ENDBRANCH   6   9
TORSDOF 2
ENDMDL
