MODEL 1
REMARK VINA RESULT:    -2.966      0.000      0.000
REMARK INTER + INTRA:         -13.887
REMARK INTER:                  -7.734
REMARK INTRA:                  -6.153
REMARK UNBOUND:                -6.153
REMARK SMILES CCCCCCCCCCCCCCCCCCCCCCCCCCCCCO
REMARK SMILES IDX 16 1 15 2 14 3 13 4 12 5 11 6 10 7 9 8 8 9 7 10 6 11 5 12
REMARK SMILES IDX 4 13 3 14 2 15 1 16 17 17 18 18 19 19 20 20 21 21 22 22
REMARK SMILES IDX 23 23 24 24 25 25 26 26 27 27 28 28 29 29 30 30
REMARK H PARENT 30 31
REMARK Flexibility Score: inf
ROOT
ATOM      1  C   UNL     1     139.406 138.220 141.114  1.00  0.00     0.000 C 
ENDROOT
BRANCH   1   2
ATOM      2  C   UNL     1     138.940 137.371 139.915  1.00  0.00     0.000 C 
BRANCH   2   3
ATOM      3  C   UNL     1     139.654 137.729 138.600  1.00  0.00     0.000 C 
BRANCH   3   4
ATOM      4  C   UNL     1     140.655 138.889 138.714  1.00  0.00     0.000 C 
BRANCH   4   5
ATOM      5  C   UNL     1     142.121 138.437 138.583  1.00  0.00     0.000 C 
BRANCH   5   6
ATOM      6  C   UNL     1     142.959 138.794 139.820  1.00  0.00     0.000 C 
BRANCH   6   7
ATOM      7  C   UNL     1     142.537 140.123 140.464  1.00  0.00     0.000 C 
BRANCH   7   8
ATOM      8  C   UNL     1     142.534 140.010 141.992  1.00  0.00    -0.000 C 
BRANCH   8   9
ATOM      9  C   UNL     1     143.891 139.516 142.516  1.00  0.00    -0.000 C 
BRANCH   9  10
ATOM     10  C   UNL     1     143.749 138.262 143.408  1.00  0.00    -0.000 C 
BRANCH  10  11
ATOM     11  C   UNL     1     142.290 137.843 143.659  1.00  0.00    -0.000 C 
BRANCH  11  12
ATOM     12  C   UNL     1     142.031 136.363 143.351  1.00  0.00    -0.000 C 
BRANCH  12  13
ATOM     13  C   UNL     1     142.513 136.000 141.943  1.00  0.00    -0.000 C 
BRANCH  13  14
ATOM     14  C   UNL     1     141.542 135.025 141.258  1.00  0.00    -0.000 C 
BRANCH  14  15
ATOM     15  C   UNL     1     141.750 134.970 139.737  1.00  0.00    -0.003 C 
ATOM     16  C   UNL     1     142.112 133.569 139.241  1.00  0.00     0.004 C 
ENDBRANCH  14  15
ENDBRANCH  13  14
ENDBRANCH  12  13
ENDBRANCH  11  12
ENDBRANCH  10  11
ENDBRANCH   9  10
ENDBRANCH   8   9
ENDBRANCH   7   8
ENDBRANCH   6   7
ENDBRANCH   5   6
ENDBRANCH   4   5
ENDBRANCH   3   4
ENDBRANCH   2   3
ENDBRANCH   1   2
BRANCH   1  17
ATOM     17  C   UNL     1     138.743 137.756 142.424  1.00  0.00     0.000 C 
BRANCH  17  18
ATOM     18  C   UNL     1     138.462 138.935 143.376  1.00  0.00     0.000 C 
BRANCH  18  19
ATOM     19  C   UNL     1     136.958 139.141 143.628  1.00  0.00     0.000 C 
BRANCH  19  20
ATOM     20  C   UNL     1     136.340 140.246 142.746  1.00  0.00     0.000 C 
BRANCH  20  21
ATOM     21  C   UNL     1     135.480 139.694 141.584  1.00  0.00     0.000 C 
BRANCH  21  22
ATOM     22  C   UNL     1     136.163 139.852 140.213  1.00  0.00     0.000 C 
BRANCH  22  23
ATOM     23  C   UNL     1     135.819 141.185 139.529  1.00  0.00     0.000 C 
BRANCH  23  24
ATOM     24  C   UNL     1     137.065 142.006 139.163  1.00  0.00     0.000 C 
BRANCH  24  25
ATOM     25  C   UNL     1     138.341 141.278 139.605  1.00  0.00     0.000 C 
BRANCH  25  26
ATOM     26  C   UNL     1     139.345 142.247 140.245  1.00  0.00     0.000 C 
BRANCH  26  27
ATOM     27  C   UNL     1     139.409 142.046 141.766  1.00  0.00     0.002 C 
BRANCH  27  28
ATOM     28  C   UNL     1     138.687 143.157 142.542  1.00  0.00     0.028 C 
BRANCH  28  29
ATOM     29  C   UNL     1     139.445 144.490 142.513  1.00  0.00     0.156 C 
BRANCH  29  30
ATOM     30  O   UNL     1     138.546 145.559 142.398  1.00  0.00    -0.396 OA
ATOM     31  H   UNL     1     138.334 145.852 143.322  1.00  0.00     0.210 HD
ENDBRANCH  29  30
ENDBRANCH  28  29
ENDBRANCH  27  28
ENDBRANCH  26  27
ENDBRANCH  25  26
ENDBRANCH  24  25
ENDBRANCH  23  24
ENDBRANCH  22  23
ENDBRANCH  21  22
ENDBRANCH  20  21
ENDBRANCH  19  20
ENDBRANCH  18  19
ENDBRANCH  17  18
ENDBRANCH   1  17
TORSDOF 28
ENDMDL
MODEL 2
REMARK VINA RESULT:    -2.949      2.910      6.834
REMARK INTER + INTRA:         -13.844
REMARK INTER:                  -7.940
REMARK INTRA:                  -5.904
REMARK UNBOUND:                -6.153
REMARK SMILES CCCCCCCCCCCCCCCCCCCCCCCCCCCCCO
REMARK SMILES IDX 16 1 15 2 14 3 13 4 12 5 11 6 10 7 9 8 8 9 7 10 6 11 5 12
REMARK SMILES IDX 4 13 3 14 2 15 1 16 17 17 18 18 19 19 20 20 21 21 22 22
REMARK SMILES IDX 23 23 24 24 25 25 26 26 27 27 28 28 29 29 30 30
REMARK H PARENT 30 31
REMARK Flexibility Score: inf
ROOT
ATOM      1  C   UNL     1     138.132 142.569 142.359  1.00  0.00     0.000 C 
ENDROOT
BRANCH   1   2
ATOM      2  C   UNL     1     138.448 143.791 141.474  1.00  0.00     0.000 C 
BRANCH   2   3
ATOM      3  C   UNL     1     138.911 145.020 142.274  1.00  0.00     0.000 C 
BRANCH   3   4
ATOM      4  C   UNL     1     140.169 145.707 141.719  1.00  0.00     0.000 C 
BRANCH   4   5
ATOM      5  C   UNL     1     139.980 146.253 140.292  1.00  0.00     0.000 C 
BRANCH   5   6
ATOM      6  C   UNL     1     140.925 145.592 139.278  1.00  0.00     0.000 C 
BRANCH   6   7
ATOM      7  C   UNL     1     141.867 144.565 139.923  1.00  0.00     0.000 C 
BRANCH   7   8
ATOM      8  C   UNL     1     141.635 143.169 139.335  1.00  0.00    -0.000 C 
BRANCH   8   9
ATOM      9  C   UNL     1     141.874 142.076 140.388  1.00  0.00    -0.000 C 
BRANCH   9  10
ATOM     10  C   UNL     1     141.297 140.711 139.950  1.00  0.00    -0.000 C 
BRANCH  10  11
ATOM     11  C   UNL     1     139.801 140.756 139.592  1.00  0.00    -0.000 C 
BRANCH  11  12
ATOM     12  C   UNL     1     139.063 139.459 139.944  1.00  0.00    -0.000 C 
BRANCH  12  13
ATOM     13  C   UNL     1     137.603 139.739 140.315  1.00  0.00    -0.000 C 
BRANCH  13  14
ATOM     14  C   UNL     1     137.164 138.893 141.521  1.00  0.00    -0.000 C 
BRANCH  14  15
ATOM     15  C   UNL     1     138.360 138.374 142.333  1.00  0.00    -0.003 C 
ATOM     16  C   UNL     1     137.987 138.024 143.775  1.00  0.00     0.004 C 
ENDBRANCH  14  15
ENDBRANCH  13  14
ENDBRANCH  12  13
ENDBRANCH  11  12
ENDBRANCH  10  11
ENDBRANCH   9  10
ENDBRANCH   8   9
ENDBRANCH   7   8
ENDBRANCH   6   7
ENDBRANCH   5   6
ENDBRANCH   4   5
ENDBRANCH   3   4
ENDBRANCH   2   3
ENDBRANCH   1   2
BRANCH   1  17
ATOM     17  C   UNL     1     139.041 142.523 143.601  1.00  0.00     0.000 C 
BRANCH  17  18
ATOM     18  C   UNL     1     140.134 141.444 143.474  1.00  0.00     0.000 C 
BRANCH  18  19
ATOM     19  C   UNL     1     141.479 141.898 144.069  1.00  0.00     0.000 C 
BRANCH  19  20
ATOM     20  C   UNL     1     141.771 143.395 143.837  1.00  0.00     0.000 C 
BRANCH  20  21
ATOM     21  C   UNL     1     143.273 143.752 143.947  1.00  0.00     0.000 C 
BRANCH  21  22
ATOM     22  C   UNL     1     144.096 143.229 142.755  1.00  0.00     0.000 C 
BRANCH  22  23
ATOM     23  C   UNL     1     145.118 142.155 143.165  1.00  0.00     0.000 C 
BRANCH  23  24
ATOM     24  C   UNL     1     144.682 140.736 142.771  1.00  0.00     0.000 C 
BRANCH  24  25
ATOM     25  C   UNL     1     144.658 139.818 143.999  1.00  0.00     0.000 C 
BRANCH  25  26
ATOM     26  C   UNL     1     143.715 138.624 143.787  1.00  0.00     0.000 C 
BRANCH  26  27
ATOM     27  C   UNL     1     143.242 138.550 142.328  1.00  0.00     0.002 C 
BRANCH  27  28
ATOM     28  C   UNL     1     141.943 137.747 142.165  1.00  0.00     0.028 C 
BRANCH  28  29
ATOM     29  C   UNL     1     141.886 136.972 140.844  1.00  0.00     0.156 C 
BRANCH  29  30
ATOM     30  O   UNL     1     142.547 135.742 140.972  1.00  0.00    -0.396 OA
ATOM     31  H   UNL     1     142.432 135.455 141.915  1.00  0.00     0.210 HD
ENDBRANCH  29  30
ENDBRANCH  28  29
ENDBRANCH  27  28
ENDBRANCH  26  27
ENDBRANCH  25  26
ENDBRANCH  24  25
ENDBRANCH  23  24
ENDBRANCH  22  23
ENDBRANCH  21  22
ENDBRANCH  20  21
ENDBRANCH  19  20
ENDBRANCH  18  19
ENDBRANCH  17  18
ENDBRANCH   1  17
TORSDOF 28
ENDMDL
MODEL 3
REMARK VINA RESULT:    -2.815      2.802      7.856
REMARK INTER + INTRA:         -13.494
REMARK INTER:                  -8.222
REMARK INTRA:                  -5.271
REMARK UNBOUND:                -6.153
REMARK SMILES CCCCCCCCCCCCCCCCCCCCCCCCCCCCCO
REMARK SMILES IDX 16 1 15 2 14 3 13 4 12 5 11 6 10 7 9 8 8 9 7 10 6 11 5 12
REMARK SMILES IDX 4 13 3 14 2 15 1 16 17 17 18 18 19 19 20 20 21 21 22 22
REMARK SMILES IDX 23 23 24 24 25 25 26 26 27 27 28 28 29 29 30 30
REMARK H PARENT 30 31
REMARK Flexibility Score: inf
ROOT
ATOM      1  C   UNL     1     142.241 143.417 143.308  1.00  0.00     0.000 C 
ENDROOT
BRANCH   1   2
ATOM      2  C   UNL     1     141.088 144.209 143.958  1.00  0.00     0.000 C 
BRANCH   2   3
ATOM      3  C   UNL     1     140.570 145.361 143.081  1.00  0.00     0.000 C 
BRANCH   3   4
ATOM      4  C   UNL     1     139.123 145.191 142.592  1.00  0.00     0.000 C 
BRANCH   4   5
ATOM      5  C   UNL     1     138.365 144.069 143.325  1.00  0.00     0.000 C 
BRANCH   5   6
ATOM      6  C   UNL     1     137.899 142.955 142.376  1.00  0.00     0.000 C 
BRANCH   6   7
ATOM      7  C   UNL     1     138.194 143.266 140.901  1.00  0.00     0.000 C 
BRANCH   7   8
ATOM      8  C   UNL     1     138.815 142.052 140.203  1.00  0.00    -0.000 C 
BRANCH   8   9
ATOM      9  C   UNL     1     140.074 141.570 140.941  1.00  0.00    -0.000 C 
BRANCH   9  10
ATOM     10  C   UNL     1     141.347 141.721 140.078  1.00  0.00    -0.000 C 
BRANCH  10  11
ATOM     11  C   UNL     1     141.328 142.951 139.155  1.00  0.00    -0.000 C 
BRANCH  11  12
ATOM     12  C   UNL     1     141.799 144.232 139.854  1.00  0.00    -0.000 C 
BRANCH  12  13
ATOM     13  C   UNL     1     141.788 145.423 138.890  1.00  0.00    -0.000 C 
BRANCH  13  14
ATOM     14  C   UNL     1     140.410 146.103 138.864  1.00  0.00    -0.000 C 
BRANCH  14  15
ATOM     15  C   UNL     1     140.333 147.298 139.825  1.00  0.00    -0.003 C 
ATOM     16  C   UNL     1     140.967 148.564 139.246  1.00  0.00     0.004 C 
ENDBRANCH  14  15
ENDBRANCH  13  14
ENDBRANCH  12  13
ENDBRANCH  11  12
ENDBRANCH  10  11
ENDBRANCH   9  10
ENDBRANCH   8   9
ENDBRANCH   7   8
ENDBRANCH   6   7
ENDBRANCH   5   6
ENDBRANCH   4   5
ENDBRANCH   3   4
ENDBRANCH   2   3
ENDBRANCH   1   2
BRANCH   1  17
ATOM     17  C   UNL     1     143.561 143.613 144.075  1.00  0.00     0.000 C 
BRANCH  17  18
ATOM     18  C   UNL     1     144.732 142.871 143.402  1.00  0.00     0.000 C 
BRANCH  18  19
ATOM     19  C   UNL     1     144.407 142.449 141.958  1.00  0.00     0.000 C 
BRANCH  19  20
ATOM     20  C   UNL     1     144.518 140.926 141.731  1.00  0.00     0.000 C 
BRANCH  20  21
ATOM     21  C   UNL     1     144.285 140.096 143.015  1.00  0.00     0.000 C 
BRANCH  21  22
ATOM     22  C   UNL     1     142.816 139.665 143.185  1.00  0.00     0.000 C 
BRANCH  22  23
ATOM     23  C   UNL     1     142.533 138.274 142.593  1.00  0.00     0.000 C 
BRANCH  23  24
ATOM     24  C   UNL     1     141.850 138.340 141.218  1.00  0.00     0.000 C 
BRANCH  24  25
ATOM     25  C   UNL     1     140.601 137.451 141.193  1.00  0.00     0.000 C 
BRANCH  25  26
ATOM     26  C   UNL     1     139.771 137.616 142.474  1.00  0.00     0.000 C 
BRANCH  26  27
ATOM     27  C   UNL     1     138.356 138.115 142.151  1.00  0.00     0.002 C 
BRANCH  27  28
ATOM     28  C   UNL     1     137.950 139.332 142.995  1.00  0.00     0.028 C 
BRANCH  28  29
ATOM     29  C   UNL     1     136.438 139.587 142.980  1.00  0.00     0.156 C 
BRANCH  29  30
ATOM     30  O   UNL     1     135.781 138.578 142.262  1.00  0.00    -0.396 OA
ATOM     31  H   UNL     1     134.818 138.817 142.253  1.00  0.00     0.210 HD
ENDBRANCH  29  30
ENDBRANCH  28  29
ENDBRANCH  27  28
ENDBRANCH  26  27
ENDBRANCH  25  26
ENDBRANCH  24  25
ENDBRANCH  23  24
ENDBRANCH  22  23
ENDBRANCH  21  22
ENDBRANCH  20  21
ENDBRANCH  19  20
ENDBRANCH  18  19
ENDBRANCH  17  18
ENDBRANCH   1  17
TORSDOF 28
ENDMDL
MODEL 4
REMARK VINA RESULT:    -2.768      2.942      4.859
REMARK INTER + INTRA:         -13.372
REMARK INTER:                  -8.142
REMARK INTRA:                  -5.230
REMARK UNBOUND:                -6.153
REMARK SMILES CCCCCCCCCCCCCCCCCCCCCCCCCCCCCO
REMARK SMILES IDX 16 1 15 2 14 3 13 4 12 5 11 6 10 7 9 8 8 9 7 10 6 11 5 12
REMARK SMILES IDX 4 13 3 14 2 15 1 16 17 17 18 18 19 19 20 20 21 21 22 22
REMARK SMILES IDX 23 23 24 24 25 25 26 26 27 27 28 28 29 29 30 30
REMARK H PARENT 30 31
REMARK Flexibility Score: inf
ROOT
ATOM      1  C   UNL     1     139.660 141.163 141.683  1.00  0.00     0.000 C 
ENDROOT
BRANCH   1   2
ATOM      2  C   UNL     1     141.116 141.671 141.704  1.00  0.00     0.000 C 
BRANCH   2   3
ATOM      3  C   UNL     1     141.583 142.126 143.098  1.00  0.00     0.000 C 
BRANCH   3   4
ATOM      4  C   UNL     1     142.413 143.419 143.102  1.00  0.00     0.000 C 
BRANCH   4   5
ATOM      5  C   UNL     1     143.873 143.199 143.537  1.00  0.00     0.000 C 
BRANCH   5   6
ATOM      6  C   UNL     1     144.787 142.827 142.360  1.00  0.00     0.000 C 
BRANCH   6   7
ATOM      7  C   UNL     1     145.243 141.361 142.399  1.00  0.00     0.000 C 
BRANCH   7   8
ATOM      8  C   UNL     1     144.683 140.585 141.202  1.00  0.00    -0.000 C 
BRANCH   8   9
ATOM      9  C   UNL     1     143.913 139.337 141.661  1.00  0.00    -0.000 C 
BRANCH   9  10
ATOM     10  C   UNL     1     143.925 139.178 143.198  1.00  0.00    -0.000 C 
BRANCH  10  11
ATOM     11  C   UNL     1     142.577 138.726 143.786  1.00  0.00    -0.000 C 
BRANCH  11  12
ATOM     12  C   UNL     1     142.462 137.203 143.918  1.00  0.00    -0.000 C 
BRANCH  12  13
ATOM     13  C   UNL     1     141.183 136.686 143.252  1.00  0.00    -0.000 C 
BRANCH  13  14
ATOM     14  C   UNL     1     140.948 137.371 141.896  1.00  0.00    -0.000 C 
BRANCH  14  15
ATOM     15  C   UNL     1     141.049 136.385 140.722  1.00  0.00    -0.003 C 
ATOM     16  C   UNL     1     141.830 135.120 141.079  1.00  0.00     0.004 C 
ENDBRANCH  14  15
ENDBRANCH  13  14
ENDBRANCH  12  13
ENDBRANCH  11  12
ENDBRANCH  10  11
ENDBRANCH   9  10
ENDBRANCH   8   9
ENDBRANCH   7   8
ENDBRANCH   6   7
ENDBRANCH   5   6
ENDBRANCH   4   5
ENDBRANCH   3   4
ENDBRANCH   2   3
ENDBRANCH   1   2
BRANCH   1  17
ATOM     17  C   UNL     1     139.217 140.667 143.071  1.00  0.00     0.000 C 
BRANCH  17  18
ATOM     18  C   UNL     1     137.929 141.366 143.547  1.00  0.00     0.000 C 
BRANCH  18  19
ATOM     19  C   UNL     1     137.861 142.838 143.101  1.00  0.00     0.000 C 
BRANCH  19  20
ATOM     20  C   UNL     1     138.526 143.807 144.100  1.00  0.00     0.000 C 
BRANCH  20  21
ATOM     21  C   UNL     1     139.164 145.044 143.423  1.00  0.00     0.000 C 
BRANCH  21  22
ATOM     22  C   UNL     1     139.124 144.965 141.886  1.00  0.00     0.000 C 
BRANCH  22  23
ATOM     23  C   UNL     1     139.846 146.145 141.213  1.00  0.00     0.000 C 
BRANCH  23  24
ATOM     24  C   UNL     1     140.460 145.771 139.855  1.00  0.00     0.000 C 
BRANCH  24  25
ATOM     25  C   UNL     1     141.683 144.865 140.047  1.00  0.00     0.000 C 
BRANCH  25  26
ATOM     26  C   UNL     1     142.098 144.199 138.727  1.00  0.00     0.000 C 
BRANCH  26  27
ATOM     27  C   UNL     1     143.281 143.243 138.942  1.00  0.00     0.002 C 
BRANCH  27  28
ATOM     28  C   UNL     1     144.265 143.243 137.763  1.00  0.00     0.028 C 
BRANCH  28  29
ATOM     29  C   UNL     1     145.495 142.363 138.017  1.00  0.00     0.156 C 
BRANCH  29  30
ATOM     30  O   UNL     1     146.633 143.159 138.207  1.00  0.00    -0.396 OA
ATOM     31  H   UNL     1     147.156 143.112 137.365  1.00  0.00     0.210 HD
ENDBRANCH  29  30
ENDBRANCH  28  29
ENDBRANCH  27  28
ENDBRANCH  26  27
ENDBRANCH  25  26
ENDBRANCH  24  25
ENDBRANCH  23  24
ENDBRANCH  22  23
ENDBRANCH  21  22
ENDBRANCH  20  21
ENDBRANCH  19  20
ENDBRANCH  18  19
ENDBRANCH  17  18
ENDBRANCH   1  17
TORSDOF 28
ENDMDL
MODEL 5
REMARK VINA RESULT:    -2.724      1.446      4.028
REMARK INTER + INTRA:         -13.256
REMARK INTER:                  -8.105
REMARK INTRA:                  -5.151
REMARK UNBOUND:                -6.153
REMARK SMILES CCCCCCCCCCCCCCCCCCCCCCCCCCCCCO
REMARK SMILES IDX 16 1 15 2 14 3 13 4 12 5 11 6 10 7 9 8 8 9 7 10 6 11 5 12
REMARK SMILES IDX 4 13 3 14 2 15 1 16 17 17 18 18 19 19 20 20 21 21 22 22
REMARK SMILES IDX 23 23 24 24 25 25 26 26 27 27 28 28 29 29 30 30
REMARK H PARENT 30 31
REMARK Flexibility Score: inf
ROOT
ATOM      1  C   UNL     1     138.432 139.619 143.459  1.00  0.00     0.000 C 
ENDROOT
BRANCH   1   2
ATOM      2  C   UNL     1     138.266 138.119 143.142  1.00  0.00     0.000 C 
BRANCH   2   3
ATOM      3  C   UNL     1     139.230 137.218 143.932  1.00  0.00     0.000 C 
BRANCH   3   4
ATOM      4  C   UNL     1     140.685 137.712 143.960  1.00  0.00     0.000 C 
BRANCH   4   5
ATOM      5  C   UNL     1     141.713 136.568 143.892  1.00  0.00     0.000 C 
BRANCH   5   6
ATOM      6  C   UNL     1     142.409 136.482 142.526  1.00  0.00     0.000 C 
BRANCH   6   7
ATOM      7  C   UNL     1     141.778 135.433 141.599  1.00  0.00     0.000 C 
BRANCH   7   8
ATOM      8  C   UNL     1     141.507 136.025 140.212  1.00  0.00    -0.000 C 
BRANCH   8   9
ATOM      9  C   UNL     1     140.366 137.054 140.260  1.00  0.00    -0.000 C 
BRANCH   9  10
ATOM     10  C   UNL     1     140.785 138.415 139.662  1.00  0.00    -0.000 C 
BRANCH  10  11
ATOM     11  C   UNL     1     140.107 139.622 140.334  1.00  0.00    -0.000 C 
BRANCH  11  12
ATOM     12  C   UNL     1     141.085 140.764 140.640  1.00  0.00    -0.000 C 
BRANCH  12  13
ATOM     13  C   UNL     1     141.845 140.504 141.944  1.00  0.00    -0.000 C 
BRANCH  13  14
ATOM     14  C   UNL     1     143.364 140.613 141.732  1.00  0.00    -0.000 C 
BRANCH  14  15
ATOM     15  C   UNL     1     143.999 139.262 141.370  1.00  0.00    -0.003 C 
ATOM     16  C   UNL     1     144.381 139.167 139.892  1.00  0.00     0.004 C 
ENDBRANCH  14  15
ENDBRANCH  13  14
ENDBRANCH  12  13
ENDBRANCH  11  12
ENDBRANCH  10  11
ENDBRANCH   9  10
ENDBRANCH   8   9
ENDBRANCH   7   8
ENDBRANCH   6   7
ENDBRANCH   5   6
ENDBRANCH   4   5
ENDBRANCH   3   4
ENDBRANCH   2   3
ENDBRANCH   1   2
BRANCH   1  17
ATOM     17  C   UNL     1     137.165 140.415 143.097  1.00  0.00     0.000 C 
BRANCH  17  18
ATOM     18  C   UNL     1     136.007 139.491 142.672  1.00  0.00     0.000 C 
BRANCH  18  19
ATOM     19  C   UNL     1     135.479 139.820 141.264  1.00  0.00     0.000 C 
BRANCH  19  20
ATOM     20  C   UNL     1     136.565 139.728 140.172  1.00  0.00     0.000 C 
BRANCH  20  21
ATOM     21  C   UNL     1     136.214 140.519 138.889  1.00  0.00     0.000 C 
BRANCH  21  22
ATOM     22  C   UNL     1     136.217 142.043 139.112  1.00  0.00     0.000 C 
BRANCH  22  23
ATOM     23  C   UNL     1     137.475 142.722 138.546  1.00  0.00     0.000 C 
BRANCH  23  24
ATOM     24  C   UNL     1     138.550 142.971 139.616  1.00  0.00     0.000 C 
BRANCH  24  25
ATOM     25  C   UNL     1     137.907 143.143 140.998  1.00  0.00     0.000 C 
BRANCH  25  26
ATOM     26  C   UNL     1     138.943 143.574 142.046  1.00  0.00     0.000 C 
BRANCH  26  27
ATOM     27  C   UNL     1     139.041 145.105 142.123  1.00  0.00     0.002 C 
BRANCH  27  28
ATOM     28  C   UNL     1     140.157 145.672 141.234  1.00  0.00     0.028 C 
BRANCH  28  29
ATOM     29  C   UNL     1     139.758 146.982 140.544  1.00  0.00     0.156 C 
BRANCH  29  30
ATOM     30  O   UNL     1     139.356 146.734 139.224  1.00  0.00    -0.396 OA
ATOM     31  H   UNL     1     138.991 147.588 138.873  1.00  0.00     0.210 HD
ENDBRANCH  29  30
ENDBRANCH  28  29
ENDBRANCH  27  28
ENDBRANCH  26  27
ENDBRANCH  25  26
ENDBRANCH  24  25
ENDBRANCH  23  24
ENDBRANCH  22  23
ENDBRANCH  21  22
ENDBRANCH  20  21
ENDBRANCH  19  20
ENDBRANCH  18  19
ENDBRANCH  17  18
ENDBRANCH   1  17
TORSDOF 28
ENDMDL
MODEL 6
REMARK VINA RESULT:    -2.723      2.456      6.228
REMARK INTER + INTRA:         -13.255
REMARK INTER:                  -8.237
REMARK INTRA:                  -5.018
REMARK UNBOUND:                -6.153
REMARK SMILES CCCCCCCCCCCCCCCCCCCCCCCCCCCCCO
REMARK SMILES IDX 16 1 15 2 14 3 13 4 12 5 11 6 10 7 9 8 8 9 7 10 6 11 5 12
REMARK SMILES IDX 4 13 3 14 2 15 1 16 17 17 18 18 19 19 20 20 21 21 22 22
REMARK SMILES IDX 23 23 24 24 25 25 26 26 27 27 28 28 29 29 30 30
REMARK H PARENT 30 31
REMARK Flexibility Score: inf
ROOT
ATOM      1  C   UNL     1     139.953 144.909 139.987  1.00  0.00     0.000 C 
ENDROOT
BRANCH   1   2
ATOM      2  C   UNL     1     141.354 144.312 139.741  1.00  0.00     0.000 C 
BRANCH   2   3
ATOM      3  C   UNL     1     141.584 142.976 140.467  1.00  0.00     0.000 C 
BRANCH   3   4
ATOM      4  C   UNL     1     140.632 141.847 140.044  1.00  0.00     0.000 C 
BRANCH   4   5
ATOM      5  C   UNL     1     139.755 141.330 141.199  1.00  0.00     0.000 C 
BRANCH   5   6
ATOM      6  C   UNL     1     138.255 141.529 140.935  1.00  0.00     0.000 C 
BRANCH   6   7
ATOM      7  C   UNL     1     137.551 140.239 140.492  1.00  0.00     0.000 C 
BRANCH   7   8
ATOM      8  C   UNL     1     136.143 140.155 141.089  1.00  0.00    -0.000 C 
BRANCH   8   9
ATOM      9  C   UNL     1     136.143 139.359 142.404  1.00  0.00    -0.000 C 
BRANCH   9  10
ATOM     10  C   UNL     1     136.897 140.100 143.531  1.00  0.00    -0.000 C 
BRANCH  10  11
ATOM     11  C   UNL     1     138.068 139.297 144.125  1.00  0.00    -0.000 C 
BRANCH  11  12
ATOM     12  C   UNL     1     138.124 137.852 143.613  1.00  0.00    -0.000 C 
BRANCH  12  13
ATOM     13  C   UNL     1     139.333 137.638 142.697  1.00  0.00    -0.000 C 
BRANCH  13  14
ATOM     14  C   UNL     1     140.622 137.451 143.514  1.00  0.00    -0.000 C 
BRANCH  14  15
ATOM     15  C   UNL     1     141.358 136.153 143.149  1.00  0.00    -0.003 C 
ATOM     16  C   UNL     1     142.564 136.394 142.240  1.00  0.00     0.004 C 
ENDBRANCH  14  15
ENDBRANCH  13  14
ENDBRANCH  12  13
ENDBRANCH  11  12
ENDBRANCH  10  11
ENDBRANCH   9  10
ENDBRANCH   8   9
ENDBRANCH   7   8
ENDBRANCH   6   7
ENDBRANCH   5   6
ENDBRANCH   4   5
ENDBRANCH   3   4
ENDBRANCH   2   3
ENDBRANCH   1   2
BRANCH   1  17
ATOM     17  C   UNL     1     140.037 146.259 140.722  1.00  0.00     0.000 C 
BRANCH  17  18
ATOM     18  C   UNL     1     139.404 146.189 142.125  1.00  0.00     0.000 C 
BRANCH  18  19
ATOM     19  C   UNL     1     138.914 144.773 142.479  1.00  0.00     0.000 C 
BRANCH  19  20
ATOM     20  C   UNL     1     139.723 144.116 143.616  1.00  0.00     0.000 C 
BRANCH  20  21
ATOM     21  C   UNL     1     141.033 144.868 143.950  1.00  0.00     0.000 C 
BRANCH  21  22
ATOM     22  C   UNL     1     142.275 143.961 143.869  1.00  0.00     0.000 C 
BRANCH  22  23
ATOM     23  C   UNL     1     141.946 142.480 144.119  1.00  0.00     0.000 C 
BRANCH  23  24
ATOM     24  C   UNL     1     143.159 141.558 143.921  1.00  0.00     0.000 C 
BRANCH  24  25
ATOM     25  C   UNL     1     142.767 140.317 143.111  1.00  0.00     0.000 C 
BRANCH  25  26
ATOM     26  C   UNL     1     143.921 139.849 142.212  1.00  0.00     0.000 C 
BRANCH  26  27
ATOM     27  C   UNL     1     144.619 141.045 141.548  1.00  0.00     0.002 C 
BRANCH  27  28
ATOM     28  C   UNL     1     144.583 140.976 140.014  1.00  0.00     0.028 C 
BRANCH  28  29
ATOM     29  C   UNL     1     145.544 141.971 139.353  1.00  0.00     0.156 C 
BRANCH  29  30
ATOM     30  O   UNL     1     144.842 143.094 138.892  1.00  0.00    -0.396 OA
ATOM     31  H   UNL     1     144.880 143.769 139.619  1.00  0.00     0.210 HD
ENDBRANCH  29  30
ENDBRANCH  28  29
ENDBRANCH  27  28
ENDBRANCH  26  27
ENDBRANCH  25  26
ENDBRANCH  24  25
ENDBRANCH  23  24
ENDBRANCH  22  23
ENDBRANCH  21  22
ENDBRANCH  20  21
ENDBRANCH  19  20
ENDBRANCH  18  19
ENDBRANCH  17  18
ENDBRANCH   1  17
TORSDOF 28
ENDMDL
MODEL 7
REMARK VINA RESULT:    -2.715      1.677      4.289
REMARK INTER + INTRA:         -13.233
REMARK INTER:                  -7.740
REMARK INTRA:                  -5.494
REMARK UNBOUND:                -6.153
REMARK SMILES CCCCCCCCCCCCCCCCCCCCCCCCCCCCCO
REMARK SMILES IDX 16 1 15 2 14 3 13 4 12 5 11 6 10 7 9 8 8 9 7 10 6 11 5 12
REMARK SMILES IDX 4 13 3 14 2 15 1 16 17 17 18 18 19 19 20 20 21 21 22 22
REMARK SMILES IDX 23 23 24 24 25 25 26 26 27 27 28 28 29 29 30 30
REMARK H PARENT 30 31
REMARK Flexibility Score: inf
ROOT
ATOM      1  C   UNL     1     139.929 140.103 139.475  1.00  0.00     0.000 C 
ENDROOT
BRANCH   1   2
ATOM      2  C   UNL     1     139.169 138.905 138.871  1.00  0.00     0.000 C 
BRANCH   2   3
ATOM      3  C   UNL     1     139.064 137.704 139.827  1.00  0.00     0.000 C 
BRANCH   3   4
ATOM      4  C   UNL     1     139.887 136.478 139.405  1.00  0.00     0.000 C 
BRANCH   4   5
ATOM      5  C   UNL     1     141.352 136.542 139.875  1.00  0.00     0.000 C 
BRANCH   5   6
ATOM      6  C   UNL     1     141.743 135.340 140.747  1.00  0.00     0.000 C 
BRANCH   6   7
ATOM      7  C   UNL     1     142.260 135.751 142.133  1.00  0.00     0.000 C 
BRANCH   7   8
ATOM      8  C   UNL     1     141.408 136.882 142.717  1.00  0.00    -0.000 C 
BRANCH   8   9
ATOM      9  C   UNL     1     142.270 137.872 143.517  1.00  0.00    -0.000 C 
BRANCH   9  10
ATOM     10  C   UNL     1     143.362 138.529 142.643  1.00  0.00    -0.000 C 
BRANCH  10  11
ATOM     11  C   UNL     1     143.369 140.066 142.712  1.00  0.00    -0.000 C 
BRANCH  11  12
ATOM     12  C   UNL     1     144.741 140.643 143.082  1.00  0.00    -0.000 C 
BRANCH  12  13
ATOM     13  C   UNL     1     144.605 142.041 143.694  1.00  0.00    -0.000 C 
BRANCH  13  14
ATOM     14  C   UNL     1     143.130 142.463 143.794  1.00  0.00    -0.000 C 
BRANCH  14  15
ATOM     15  C   UNL     1     142.898 143.890 143.276  1.00  0.00    -0.003 C 
ATOM     16  C   UNL     1     142.390 143.920 141.833  1.00  0.00     0.004 C 
ENDBRANCH  14  15
ENDBRANCH  13  14
ENDBRANCH  12  13
ENDBRANCH  11  12
ENDBRANCH  10  11
ENDBRANCH   9  10
ENDBRANCH   8   9
ENDBRANCH   7   8
ENDBRANCH   6   7
ENDBRANCH   5   6
ENDBRANCH   4   5
ENDBRANCH   3   4
ENDBRANCH   2   3
ENDBRANCH   1   2
BRANCH   1  17
ATOM     17  C   UNL     1     140.129 139.935 140.992  1.00  0.00     0.000 C 
BRANCH  17  18
ATOM     18  C   UNL     1     139.993 141.275 141.741  1.00  0.00     0.000 C 
BRANCH  18  19
ATOM     19  C   UNL     1     139.490 141.093 143.184  1.00  0.00     0.000 C 
BRANCH  19  20
ATOM     20  C   UNL     1     139.083 139.640 143.507  1.00  0.00     0.000 C 
BRANCH  20  21
ATOM     21  C   UNL     1     137.568 139.470 143.769  1.00  0.00     0.000 C 
BRANCH  21  22
ATOM     22  C   UNL     1     136.852 138.709 142.637  1.00  0.00     0.000 C 
BRANCH  22  23
ATOM     23  C   UNL     1     135.742 139.541 141.972  1.00  0.00     0.000 C 
BRANCH  23  24
ATOM     24  C   UNL     1     136.050 139.879 140.505  1.00  0.00     0.000 C 
BRANCH  24  25
ATOM     25  C   UNL     1     136.622 141.297 140.386  1.00  0.00     0.000 C 
BRANCH  25  26
ATOM     26  C   UNL     1     136.645 141.770 138.925  1.00  0.00     0.000 C 
BRANCH  26  27
ATOM     27  C   UNL     1     137.044 143.250 138.834  1.00  0.00     0.002 C 
BRANCH  27  28
ATOM     28  C   UNL     1     138.070 143.655 139.902  1.00  0.00     0.028 C 
BRANCH  28  29
ATOM     29  C   UNL     1     139.264 144.420 139.318  1.00  0.00     0.156 C 
BRANCH  29  30
ATOM     30  O   UNL     1     139.368 145.686 139.912  1.00  0.00    -0.396 OA
ATOM     31  H   UNL     1     139.839 145.555 140.776  1.00  0.00     0.210 HD
ENDBRANCH  29  30
ENDBRANCH  28  29
ENDBRANCH  27  28
ENDBRANCH  26  27
ENDBRANCH  25  26
ENDBRANCH  24  25
ENDBRANCH  23  24
ENDBRANCH  22  23
ENDBRANCH  21  22
ENDBRANCH  20  21
ENDBRANCH  19  20
ENDBRANCH  18  19
ENDBRANCH  17  18
ENDBRANCH   1  17
TORSDOF 28
ENDMDL
MODEL 8
REMARK VINA RESULT:    -2.703      1.953      4.103
REMARK INTER + INTRA:         -13.203
REMARK INTER:                  -7.344
REMARK INTRA:                  -5.859
REMARK UNBOUND:                -6.153
REMARK SMILES CCCCCCCCCCCCCCCCCCCCCCCCCCCCCO
REMARK SMILES IDX 16 1 15 2 14 3 13 4 12 5 11 6 10 7 9 8 8 9 7 10 6 11 5 12
REMARK SMILES IDX 4 13 3 14 2 15 1 16 17 17 18 18 19 19 20 20 21 21 22 22
REMARK SMILES IDX 23 23 24 24 25 25 26 26 27 27 28 28 29 29 30 30
REMARK H PARENT 30 31
REMARK Flexibility Score: inf
ROOT
ATOM      1  C   UNL     1     138.524 136.553 138.528  1.00  0.00     0.000 C 
ENDROOT
BRANCH   1   2
ATOM      2  C   UNL     1     140.002 136.123 138.437  1.00  0.00     0.000 C 
BRANCH   2   3
ATOM      3  C   UNL     1     140.238 134.658 138.843  1.00  0.00     0.000 C 
BRANCH   3   4
ATOM      4  C   UNL     1     141.337 134.457 139.897  1.00  0.00     0.000 C 
BRANCH   4   5
ATOM      5  C   UNL     1     141.779 135.769 140.568  1.00  0.00     0.000 C 
BRANCH   5   6
ATOM      6  C   UNL     1     142.337 135.549 141.982  1.00  0.00     0.000 C 
BRANCH   6   7
ATOM      7  C   UNL     1     141.390 136.049 143.082  1.00  0.00     0.000 C 
BRANCH   7   8
ATOM      8  C   UNL     1     142.114 137.012 144.027  1.00  0.00    -0.000 C 
BRANCH   8   9
ATOM      9  C   UNL     1     143.256 137.746 143.305  1.00  0.00    -0.000 C 
BRANCH   9  10
ATOM     10  C   UNL     1     142.921 139.233 143.050  1.00  0.00    -0.000 C 
BRANCH  10  11
ATOM     11  C   UNL     1     143.734 139.864 141.907  1.00  0.00    -0.000 C 
BRANCH  11  12
ATOM     12  C   UNL     1     144.001 138.890 140.753  1.00  0.00    -0.000 C 
BRANCH  12  13
ATOM     13  C   UNL     1     143.545 139.482 139.415  1.00  0.00    -0.000 C 
BRANCH  13  14
ATOM     14  C   UNL     1     142.156 138.957 139.019  1.00  0.00    -0.000 C 
BRANCH  14  15
ATOM     15  C   UNL     1     141.281 140.049 138.385  1.00  0.00    -0.003 C 
ATOM     16  C   UNL     1     141.195 139.925 136.863  1.00  0.00     0.004 C 
ENDBRANCH  14  15
ENDBRANCH  13  14
ENDBRANCH  12  13
ENDBRANCH  11  12
ENDBRANCH  10  11
ENDBRANCH   9  10
ENDBRANCH   8   9
ENDBRANCH   7   8
ENDBRANCH   6   7
ENDBRANCH   5   6
ENDBRANCH   4   5
ENDBRANCH   3   4
ENDBRANCH   2   3
ENDBRANCH   1   2
BRANCH   1  17
ATOM     17  C   UNL     1     138.360 137.830 139.372  1.00  0.00     0.000 C 
BRANCH  17  18
ATOM     18  C   UNL     1     138.743 137.598 140.847  1.00  0.00     0.000 C 
BRANCH  18  19
ATOM     19  C   UNL     1     139.529 138.780 141.442  1.00  0.00     0.000 C 
BRANCH  19  20
ATOM     20  C   UNL     1     139.194 139.046 142.925  1.00  0.00     0.000 C 
BRANCH  20  21
ATOM     21  C   UNL     1     137.872 138.386 143.384  1.00  0.00     0.000 C 
BRANCH  21  22
ATOM     22  C   UNL     1     136.929 139.377 144.090  1.00  0.00     0.000 C 
BRANCH  22  23
ATOM     23  C   UNL     1     136.072 140.187 143.103  1.00  0.00     0.000 C 
BRANCH  23  24
ATOM     24  C   UNL     1     135.682 139.383 141.853  1.00  0.00     0.000 C 
BRANCH  24  25
ATOM     25  C   UNL     1     135.754 140.263 140.600  1.00  0.00     0.000 C 
BRANCH  25  26
ATOM     26  C   UNL     1     136.998 141.164 140.620  1.00  0.00     0.000 C 
BRANCH  26  27
ATOM     27  C   UNL     1     137.339 141.661 139.208  1.00  0.00     0.002 C 
BRANCH  27  28
ATOM     28  C   UNL     1     136.709 140.796 138.106  1.00  0.00     0.028 C 
BRANCH  28  29
ATOM     29  C   UNL     1     137.544 140.771 136.821  1.00  0.00     0.156 C 
BRANCH  29  30
ATOM     30  O   UNL     1     138.269 141.964 136.688  1.00  0.00    -0.396 OA
ATOM     31  H   UNL     1     137.773 142.527 136.039  1.00  0.00     0.210 HD
ENDBRANCH  29  30
ENDBRANCH  28  29
ENDBRANCH  27  28
ENDBRANCH  26  27
ENDBRANCH  25  26
ENDBRANCH  24  25
ENDBRANCH  23  24
ENDBRANCH  22  23
ENDBRANCH  21  22
ENDBRANCH  20  21
ENDBRANCH  19  20
ENDBRANCH  18  19
ENDBRANCH  17  18
ENDBRANCH   1  17
TORSDOF 28
ENDMDL
MODEL 9
REMARK VINA RESULT:    -2.685      1.863      4.514
REMARK INTER + INTRA:         -13.155
REMARK INTER:                  -7.505
REMARK INTRA:                  -5.650
REMARK UNBOUND:                -6.153
REMARK SMILES CCCCCCCCCCCCCCCCCCCCCCCCCCCCCO
REMARK SMILES IDX 16 1 15 2 14 3 13 4 12 5 11 6 10 7 9 8 8 9 7 10 6 11 5 12
REMARK SMILES IDX 4 13 3 14 2 15 1 16 17 17 18 18 19 19 20 20 21 21 22 22
REMARK SMILES IDX 23 23 24 24 25 25 26 26 27 27 28 28 29 29 30 30
REMARK H PARENT 30 31
REMARK Flexibility Score: inf
ROOT
ATOM      1  C   UNL     1     138.249 138.905 139.721  1.00  0.00     0.000 C 
ENDROOT
BRANCH   1   2
ATOM      2  C   UNL     1     139.471 138.678 138.809  1.00  0.00     0.000 C 
BRANCH   2   3
ATOM      3  C   UNL     1     140.594 139.706 139.026  1.00  0.00     0.000 C 
BRANCH   3   4
ATOM      4  C   UNL     1     141.578 139.348 140.151  1.00  0.00     0.000 C 
BRANCH   4   5
ATOM      5  C   UNL     1     141.782 137.831 140.315  1.00  0.00     0.000 C 
BRANCH   5   6
ATOM      6  C   UNL     1     142.891 137.492 141.323  1.00  0.00     0.000 C 
BRANCH   6   7
ATOM      7  C   UNL     1     143.676 138.728 141.784  1.00  0.00     0.000 C 
BRANCH   7   8
ATOM      8  C   UNL     1     143.887 138.704 143.301  1.00  0.00    -0.000 C 
BRANCH   8   9
ATOM      9  C   UNL     1     144.665 139.942 143.774  1.00  0.00    -0.000 C 
BRANCH   9  10
ATOM     10  C   UNL     1     143.762 141.193 143.871  1.00  0.00    -0.000 C 
BRANCH  10  11
ATOM     11  C   UNL     1     144.444 142.488 143.395  1.00  0.00    -0.000 C 
BRANCH  11  12
ATOM     12  C   UNL     1     143.697 143.169 142.242  1.00  0.00    -0.000 C 
BRANCH  12  13
ATOM     13  C   UNL     1     143.690 142.285 140.990  1.00  0.00    -0.000 C 
BRANCH  13  14
ATOM     14  C   UNL     1     142.668 142.789 139.960  1.00  0.00    -0.000 C 
BRANCH  14  15
ATOM     15  C   UNL     1     142.782 144.302 139.720  1.00  0.00    -0.003 C 
ATOM     16  C   UNL     1     141.431 145.015 139.797  1.00  0.00     0.004 C 
ENDBRANCH  14  15
ENDBRANCH  13  14
ENDBRANCH  12  13
ENDBRANCH  11  12
ENDBRANCH  10  11
ENDBRANCH   9  10
ENDBRANCH   8   9
ENDBRANCH   7   8
ENDBRANCH   6   7
ENDBRANCH   5   6
ENDBRANCH   4   5
ENDBRANCH   3   4
ENDBRANCH   2   3
ENDBRANCH   1   2
BRANCH   1  17
ATOM     17  C   UNL     1     137.813 140.382 139.721  1.00  0.00     0.000 C 
BRANCH  17  18
ATOM     18  C   UNL     1     137.020 140.748 140.990  1.00  0.00     0.000 C 
BRANCH  18  19
ATOM     19  C   UNL     1     136.187 139.568 141.523  1.00  0.00     0.000 C 
BRANCH  19  20
ATOM     20  C   UNL     1     136.032 139.577 143.058  1.00  0.00     0.000 C 
BRANCH  20  21
ATOM     21  C   UNL     1     137.335 139.216 143.809  1.00  0.00     0.000 C 
BRANCH  21  22
ATOM     22  C   UNL     1     138.028 137.968 143.228  1.00  0.00     0.000 C 
BRANCH  22  23
ATOM     23  C   UNL     1     139.555 138.127 143.135  1.00  0.00     0.000 C 
BRANCH  23  24
ATOM     24  C   UNL     1     140.093 139.247 144.039  1.00  0.00     0.000 C 
BRANCH  24  25
ATOM     25  C   UNL     1     140.601 140.423 143.197  1.00  0.00     0.000 C 
BRANCH  25  26
ATOM     26  C   UNL     1     139.864 141.723 143.551  1.00  0.00     0.000 C 
BRANCH  26  27
ATOM     27  C   UNL     1     139.759 142.645 142.327  1.00  0.00     0.002 C 
BRANCH  27  28
ATOM     28  C   UNL     1     138.706 143.749 142.505  1.00  0.00     0.028 C 
BRANCH  28  29
ATOM     29  C   UNL     1     139.325 145.110 142.844  1.00  0.00     0.156 C 
BRANCH  29  30
ATOM     30  O   UNL     1     138.749 146.117 142.057  1.00  0.00    -0.396 OA
ATOM     31  H   UNL     1     138.105 146.599 142.639  1.00  0.00     0.210 HD
ENDBRANCH  29  30
ENDBRANCH  28  29
ENDBRANCH  27  28
ENDBRANCH  26  27
ENDBRANCH  25  26
ENDBRANCH  24  25
ENDBRANCH  23  24
ENDBRANCH  22  23
ENDBRANCH  21  22
ENDBRANCH  20  21
ENDBRANCH  19  20
ENDBRANCH  18  19
ENDBRANCH  17  18
ENDBRANCH   1  17
TORSDOF 28
ENDMDL
