MODEL 1
REMARK VINA RESULT:    -2.725      0.000      0.000
REMARK INTER + INTRA:          -3.763
REMARK INTER:                  -3.522
REMARK INTRA:                  -0.241
REMARK UNBOUND:                -0.241
REMARK SMILES CCCCCCC=O
REMARK SMILES IDX 4 1 3 2 2 3 1 4 5 5 6 6 7 7 8 8
REMARK H PARENT
REMARK Flexibility Score: inf
ROOT
ATOM      1  C   UNL     1     140.389 135.411 129.702  1.00  0.00     0.000 C 
ENDROOT
BRANCH   1   2
ATOM      2  C   UNL     1     139.674 134.728 128.525  1.00  0.00    -0.000 C 
BRANCH   2   3
ATOM      3  C   UNL     1     138.479 133.874 128.973  1.00  0.00    -0.003 C 
ATOM      4  C   UNL     1     137.263 134.746 129.272  1.00  0.00     0.004 C 
ENDBRANCH   2   3
ENDBRANCH   1   2
BRANCH   1   5
ATOM      5  C   UNL     1     140.330 136.945 129.619  1.00  0.00     0.008 C 
BRANCH   5   6
ATOM      6  C   UNL     1     140.148 137.438 128.176  1.00  0.00     0.072 C 
BRANCH   6   7
ATOM      7  C   UNL     1     141.004 138.633 127.875  1.00  0.00     0.224 C 
ATOM      8  O   UNL     1     140.761 139.715 128.386  1.00  0.00    -0.303 OA
ENDBRANCH   6   7
ENDBRANCH   5   6
ENDBRANCH   1   5
TORSDOF 5
ENDMDL
MODEL 2
REMARK VINA RESULT:    -2.681      4.009      4.960
REMARK INTER + INTRA:          -3.706
REMARK INTER:                  -3.564
REMARK INTRA:                  -0.142
REMARK UNBOUND:                -0.241
REMARK SMILES CCCCCCC=O
REMARK SMILES IDX 4 1 3 2 2 3 1 4 5 5 6 6 7 7 8 8
REMARK H PARENT
REMARK Flexibility Score: inf
ROOT
ATOM      1  C   UNL     1     137.871 140.222 128.655  1.00  0.00     0.000 C 
ENDROOT
BRANCH   1   2
ATOM      2  C   UNL     1     136.703 141.174 128.963  1.00  0.00    -0.000 C 
BRANCH   2   3
ATOM      3  C   UNL     1     135.333 140.543 128.672  1.00  0.00    -0.003 C 
ATOM      4  C   UNL     1     134.653 140.091 129.961  1.00  0.00     0.004 C 
ENDBRANCH   2   3
ENDBRANCH   1   2
BRANCH   1   5
ATOM      5  C   UNL     1     138.763 139.967 129.882  1.00  0.00     0.008 C 
BRANCH   5   6
ATOM      6  C   UNL     1     140.229 140.340 129.617  1.00  0.00     0.072 C 
BRANCH   6   7
ATOM      7  C   UNL     1     140.817 139.549 128.485  1.00  0.00     0.224 C 
ATOM      8  O   UNL     1     140.952 138.339 128.579  1.00  0.00    -0.303 OA
ENDBRANCH   6   7
ENDBRANCH   5   6
ENDBRANCH   1   5
TORSDOF 5
ENDMDL
MODEL 3
REMARK VINA RESULT:    -2.680      2.014      3.801
REMARK INTER + INTRA:          -3.704
REMARK INTER:                  -3.312
REMARK INTRA:                  -0.393
REMARK UNBOUND:                -0.241
REMARK SMILES CCCCCCC=O
REMARK SMILES IDX 4 1 3 2 2 3 1 4 5 5 6 6 7 7 8 8
REMARK H PARENT
REMARK Flexibility Score: inf
ROOT
ATOM      1  C   UNL     1     139.727 134.584 128.545  1.00  0.00     0.000 C 
ENDROOT
BRANCH   1   2
ATOM      2  C   UNL     1     140.337 135.374 129.714  1.00  0.00    -0.000 C 
BRANCH   2   3
ATOM      3  C   UNL     1     140.398 136.884 129.440  1.00  0.00    -0.003 C 
ATOM      4  C   UNL     1     139.478 137.651 130.386  1.00  0.00     0.004 C 
ENDBRANCH   2   3
ENDBRANCH   1   2
BRANCH   1   5
ATOM      5  C   UNL     1     138.467 133.802 128.955  1.00  0.00     0.008 C 
BRANCH   5   6
ATOM      6  C   UNL     1     137.306 134.734 129.329  1.00  0.00     0.072 C 
BRANCH   6   7
ATOM      7  C   UNL     1     136.753 135.455 128.134  1.00  0.00     0.224 C 
ATOM      8  O   UNL     1     136.873 136.665 128.030  1.00  0.00    -0.303 OA
ENDBRANCH   6   7
ENDBRANCH   5   6
ENDBRANCH   1   5
TORSDOF 5
ENDMDL
MODEL 4
REMARK VINA RESULT:    -2.680      3.303      4.690
REMARK INTER + INTRA:          -3.704
REMARK INTER:                  -3.463
REMARK INTRA:                  -0.241
REMARK UNBOUND:                -0.241
REMARK SMILES CCCCCCC=O
REMARK SMILES IDX 4 1 3 2 2 3 1 4 5 5 6 6 7 7 8 8
REMARK H PARENT
REMARK Flexibility Score: inf
ROOT
ATOM      1  C   UNL     1     139.744 140.311 129.768  1.00  0.00     0.000 C 
ENDROOT
BRANCH   1   2
ATOM      2  C   UNL     1     140.454 139.659 128.571  1.00  0.00    -0.000 C 
BRANCH   2   3
ATOM      3  C   UNL     1     141.312 138.452 128.976  1.00  0.00    -0.003 C 
ATOM      4  C   UNL     1     140.437 137.265 129.368  1.00  0.00     0.004 C 
ENDBRANCH   2   3
ENDBRANCH   1   2
BRANCH   1   5
ATOM      5  C   UNL     1     138.216 140.355 129.597  1.00  0.00     0.008 C 
BRANCH   5   6
ATOM      6  C   UNL     1     137.792 140.122 128.140  1.00  0.00     0.072 C 
BRANCH   6   7
ATOM      7  C   UNL     1     136.307 139.955 128.004  1.00  0.00     0.224 C 
ATOM      8  O   UNL     1     135.558 140.903 128.178  1.00  0.00    -0.303 OA
ENDBRANCH   6   7
ENDBRANCH   5   6
ENDBRANCH   1   5
TORSDOF 5
ENDMDL
MODEL 5
REMARK VINA RESULT:    -2.660      2.372      4.421
REMARK INTER + INTRA:          -3.678
REMARK INTER:                  -3.510
REMARK INTRA:                  -0.168
REMARK UNBOUND:                -0.241
REMARK SMILES CCCCCCC=O
REMARK SMILES IDX 4 1 3 2 2 3 1 4 5 5 6 6 7 7 8 8
REMARK H PARENT
REMARK Flexibility Score: inf
ROOT
ATOM      1  C   UNL     1     140.117 136.664 130.087  1.00  0.00     0.000 C 
ENDROOT
BRANCH   1   2
ATOM      2  C   UNL     1     140.242 137.383 128.734  1.00  0.00    -0.000 C 
BRANCH   2   3
ATOM      3  C   UNL     1     141.196 138.585 128.788  1.00  0.00    -0.003 C 
ATOM      4  C   UNL     1     140.426 139.886 128.998  1.00  0.00     0.004 C 
ENDBRANCH   2   3
ENDBRANCH   1   2
BRANCH   1   5
ATOM      5  C   UNL     1     140.253 135.137 129.960  1.00  0.00     0.008 C 
BRANCH   5   6
ATOM      6  C   UNL     1     139.772 134.627 128.594  1.00  0.00     0.072 C 
BRANCH   6   7
ATOM      7  C   UNL     1     138.449 133.923 128.688  1.00  0.00     0.224 C 
ATOM      8  O   UNL     1     137.573 134.347 129.425  1.00  0.00    -0.303 OA
ENDBRANCH   6   7
ENDBRANCH   5   6
ENDBRANCH   1   5
TORSDOF 5
ENDMDL
MODEL 6
REMARK VINA RESULT:    -2.659      3.268      4.608
REMARK INTER + INTRA:          -3.678
REMARK INTER:                  -3.510
REMARK INTRA:                  -0.168
REMARK UNBOUND:                -0.241
REMARK SMILES CCCCCCC=O
REMARK SMILES IDX 4 1 3 2 2 3 1 4 5 5 6 6 7 7 8 8
REMARK H PARENT
REMARK Flexibility Score: inf
ROOT
ATOM      1  C   UNL     1     138.312 134.175 129.174  1.00  0.00     0.000 C 
ENDROOT
BRANCH   1   2
ATOM      2  C   UNL     1     139.700 134.649 128.714  1.00  0.00    -0.000 C 
BRANCH   2   3
ATOM      3  C   UNL     1     140.595 135.082 129.884  1.00  0.00    -0.003 C 
ATOM      4  C   UNL     1     139.913 134.818 131.223  1.00  0.00     0.004 C 
ENDBRANCH   2   3
ENDBRANCH   1   2
BRANCH   1   5
ATOM      5  C   UNL     1     137.176 135.059 128.631  1.00  0.00     0.008 C 
BRANCH   5   6
ATOM      6  C   UNL     1     135.918 134.984 129.509  1.00  0.00     0.072 C 
BRANCH   6   7
ATOM      7  C   UNL     1     134.709 135.537 128.812  1.00  0.00     0.224 C 
ATOM      8  O   UNL     1     134.090 136.473 129.293  1.00  0.00    -0.303 OA
ENDBRANCH   6   7
ENDBRANCH   5   6
ENDBRANCH   1   5
TORSDOF 5
ENDMDL
MODEL 7
REMARK VINA RESULT:    -2.656      2.629      4.199
REMARK INTER + INTRA:          -3.674
REMARK INTER:                  -3.537
REMARK INTRA:                  -0.137
REMARK UNBOUND:                -0.241
REMARK SMILES CCCCCCC=O
REMARK SMILES IDX 4 1 3 2 2 3 1 4 5 5 6 6 7 7 8 8
REMARK H PARENT
REMARK Flexibility Score: inf
ROOT
ATOM      1  C   UNL     1     136.498 135.297 129.782  1.00  0.00     0.000 C 
ENDROOT
BRANCH   1   2
ATOM      2  C   UNL     1     135.041 134.844 129.587  1.00  0.00    -0.000 C 
BRANCH   2   3
ATOM      3  C   UNL     1     134.320 135.632 128.484  1.00  0.00    -0.003 C 
ATOM      4  C   UNL     1     134.283 137.122 128.809  1.00  0.00     0.004 C 
ENDBRANCH   2   3
ENDBRANCH   1   2
BRANCH   1   5
ATOM      5  C   UNL     1     137.400 134.907 128.599  1.00  0.00     0.008 C 
BRANCH   5   6
ATOM      6  C   UNL     1     138.629 134.105 129.051  1.00  0.00     0.072 C 
BRANCH   6   7
ATOM      7  C   UNL     1     139.911 134.842 128.793  1.00  0.00     0.224 C 
ATOM      8  O   UNL     1     140.703 135.042 129.700  1.00  0.00    -0.303 OA
ENDBRANCH   6   7
ENDBRANCH   5   6
ENDBRANCH   1   5
TORSDOF 5
ENDMDL
MODEL 8
REMARK VINA RESULT:    -2.623      4.759      6.265
REMARK INTER + INTRA:          -3.631
REMARK INTER:                  -3.315
REMARK INTRA:                  -0.315
REMARK UNBOUND:                -0.241
REMARK SMILES CCCCCCC=O
REMARK SMILES IDX 4 1 3 2 2 3 1 4 5 5 6 6 7 7 8 8
REMARK H PARENT
REMARK Flexibility Score: inf
ROOT
ATOM      1  C   UNL     1     135.480 140.656 128.631  1.00  0.00     0.000 C 
ENDROOT
BRANCH   1   2
ATOM      2  C   UNL     1     136.836 141.225 129.077  1.00  0.00    -0.000 C 
BRANCH   2   3
ATOM      3  C   UNL     1     137.991 140.235 128.869  1.00  0.00    -0.003 C 
ATOM      4  C   UNL     1     138.854 140.128 130.123  1.00  0.00     0.004 C 
ENDBRANCH   2   3
ENDBRANCH   1   2
BRANCH   1   5
ATOM      5  C   UNL     1     134.696 140.018 129.791  1.00  0.00     0.008 C 
BRANCH   5   6
ATOM      6  C   UNL     1     134.932 138.503 129.882  1.00  0.00     0.072 C 
BRANCH   6   7
ATOM      7  C   UNL     1     135.065 137.870 128.528  1.00  0.00     0.224 C 
ATOM      8  O   UNL     1     136.021 137.155 128.270  1.00  0.00    -0.303 OA
ENDBRANCH   6   7
ENDBRANCH   5   6
ENDBRANCH   1   5
TORSDOF 5
ENDMDL
MODEL 9
REMARK VINA RESULT:    -2.603      3.753      5.579
REMARK INTER + INTRA:          -3.606
REMARK INTER:                  -3.406
REMARK INTRA:                  -0.200
REMARK UNBOUND:                -0.241
REMARK SMILES CCCCCCC=O
REMARK SMILES IDX 4 1 3 2 2 3 1 4 5 5 6 6 7 7 8 8
REMARK H PARENT
REMARK Flexibility Score: inf
ROOT
ATOM      1  C   UNL     1     134.580 135.516 128.576  1.00  0.00     0.000 C 
ENDROOT
BRANCH   1   2
ATOM      2  C   UNL     1     134.028 136.890 128.989  1.00  0.00    -0.000 C 
BRANCH   2   3
ATOM      3  C   UNL     1     134.985 138.040 128.643  1.00  0.00    -0.003 C 
ATOM      4  C   UNL     1     134.978 139.106 129.735  1.00  0.00     0.004 C 
ENDBRANCH   2   3
ENDBRANCH   1   2
BRANCH   1   5
ATOM      5  C   UNL     1     135.051 134.683 129.781  1.00  0.00     0.008 C 
BRANCH   5   6
ATOM      6  C   UNL     1     136.482 135.042 130.207  1.00  0.00     0.072 C 
BRANCH   6   7
ATOM      7  C   UNL     1     137.501 134.591 129.201  1.00  0.00     0.224 C 
ATOM      8  O   UNL     1     138.602 134.209 129.564  1.00  0.00    -0.303 OA
ENDBRANCH   6   7
ENDBRANCH   5   6
ENDBRANCH   1   5
TORSDOF 5
ENDMDL
