MODEL 1
REMARK VINA RESULT:    -7.380      0.000      0.000
REMARK INTER + INTRA:          -9.163
REMARK INTER:                  -8.890
REMARK INTRA:                  -0.273
REMARK UNBOUND:                -0.273
REMARK SMILES O=c1c(O)c(-c2ccc(O)cc2O)oc2cc(O)cc(O)c12
REMARK SMILES IDX 5 1 3 2 2 3 1 4 22 5 20 6 19 7 17 8 16 9 15 10 14 11 6 12
REMARK SMILES IDX 8 13 7 14 9 15 11 16 12 17 10 18 13 20 4 22 21 24 18 26
REMARK H PARENT 10 19 13 21 4 23 21 25 18 27
REMARK Flexibility Score: inf
ROOT
ATOM      1  C   UNL     1      16.594  30.279  11.405  1.00  0.00     0.184 A 
ATOM      2  C   UNL     1      17.881  29.760  11.635  1.00  0.00     0.208 A 
ATOM      3  C   UNL     1      18.138  28.417  11.315  1.00  0.00     0.238 A 
ATOM      4  O   UNL     1      19.286  27.939  11.525  1.00  0.00    -0.285 OA
ATOM      5  C   UNL     1      17.113  27.625  10.759  1.00  0.00     0.111 A 
ATOM      6  C   UNL     1      17.291  26.265  10.406  1.00  0.00     0.134 A 
ATOM      7  C   UNL     1      16.223  25.546   9.850  1.00  0.00     0.093 A 
ATOM      8  C   UNL     1      14.984  26.157   9.641  1.00  0.00     0.123 A 
ATOM      9  C   UNL     1      14.802  27.499   9.988  1.00  0.00     0.094 A 
ATOM     10  C   UNL     1      15.854  28.233  10.545  1.00  0.00     0.146 A 
ATOM     11  O   UNL     1      15.654  29.505  10.870  1.00  0.00    -0.451 OA
ENDROOT
BRANCH   1  12
ATOM     12  C   UNL     1      16.247  31.681  11.737  1.00  0.00     0.063 A 
ATOM     13  C   UNL     1      16.708  34.065  11.567  1.00  0.00     0.047 A 
ATOM     14  C   UNL     1      17.019  32.744  11.233  1.00  0.00     0.020 A 
ATOM     15  C   UNL     1      15.634  34.342  12.414  1.00  0.00     0.119 A 
ATOM     16  C   UNL     1      14.867  33.292  12.932  1.00  0.00     0.093 A 
ATOM     17  C   UNL     1      15.169  31.962  12.601  1.00  0.00     0.130 A 
BRANCH  15  18
ATOM     18  O   UNL     1      15.338  35.664  12.738  1.00  0.00    -0.508 OA
ATOM     19  H   UNL     1      16.053  36.382  12.744  1.00  0.00     0.293 HD
ENDBRANCH  15  18
BRANCH  17  20
ATOM     20  O   UNL     1      14.394  30.924  13.118  1.00  0.00    -0.507 OA
ATOM     21  H   UNL     1      14.761  29.984  13.216  1.00  0.00     0.293 HD
ENDBRANCH  17  20
ENDBRANCH   1  12
BRANCH   2  22
ATOM     22  O   UNL     1      18.889  30.579  12.149  1.00  0.00    -0.502 OA
ATOM     23  H   UNL     1      19.079  30.649  13.142  1.00  0.00     0.293 HD
ENDBRANCH   2  22
BRANCH   6  24
ATOM     24  O   UNL     1      18.516  25.626  10.601  1.00  0.00    -0.507 OA
ATOM     25  H   UNL     1      19.283  25.734   9.948  1.00  0.00     0.293 HD
ENDBRANCH   6  24
BRANCH   8  26
ATOM     26  O   UNL     1      13.939  25.420   9.086  1.00  0.00    -0.508 OA
ATOM     27  H   UNL     1      13.868  25.272   8.086  1.00  0.00     0.293 HD
ENDBRANCH   8  26
TORSDOF 6
ENDMDL
MODEL 2
REMARK VINA RESULT:    -6.971      1.611      2.929
REMARK INTER + INTRA:          -8.669
REMARK INTER:                  -8.293
REMARK INTRA:                  -0.376
REMARK UNBOUND:                -0.273
REMARK SMILES O=c1c(O)c(-c2ccc(O)cc2O)oc2cc(O)cc(O)c12
REMARK SMILES IDX 5 1 3 2 2 3 1 4 22 5 20 6 19 7 17 8 16 9 15 10 14 11 6 12
REMARK SMILES IDX 8 13 7 14 9 15 11 16 12 17 10 18 13 20 4 22 21 24 18 26
REMARK H PARENT 10 19 13 21 4 23 21 25 18 27
REMARK Flexibility Score: inf
ROOT
ATOM      1  C   UNL     1      16.309  29.920  10.739  1.00  0.00     0.184 A 
ATOM      2  C   UNL     1      15.202  29.053  10.758  1.00  0.00     0.208 A 
ATOM      3  C   UNL     1      15.350  27.751  10.253  1.00  0.00     0.238 A 
ATOM      4  O   UNL     1      14.362  26.968  10.257  1.00  0.00    -0.285 OA
ATOM      5  C   UNL     1      16.602  27.337   9.755  1.00  0.00     0.111 A 
ATOM      6  C   UNL     1      16.837  26.041   9.232  1.00  0.00     0.134 A 
ATOM      7  C   UNL     1      18.114  25.702   8.763  1.00  0.00     0.093 A 
ATOM      8  C   UNL     1      19.158  26.629   8.805  1.00  0.00     0.123 A 
ATOM      9  C   UNL     1      18.933  27.909   9.319  1.00  0.00     0.094 A 
ATOM     10  C   UNL     1      17.666  28.268   9.792  1.00  0.00     0.146 A 
ATOM     11  O   UNL     1      17.478  29.491  10.272  1.00  0.00    -0.451 OA
ENDROOT
BRANCH   1  12
ATOM     12  C   UNL     1      16.219  31.313  11.238  1.00  0.00     0.063 A 
ATOM     13  C   UNL     1      15.984  33.697  10.808  1.00  0.00     0.047 A 
ATOM     14  C   UNL     1      16.041  32.381  10.341  1.00  0.00     0.020 A 
ATOM     15  C   UNL     1      16.114  33.965  12.172  1.00  0.00     0.119 A 
ATOM     16  C   UNL     1      16.305  32.910  13.073  1.00  0.00     0.093 A 
ATOM     17  C   UNL     1      16.362  31.585  12.614  1.00  0.00     0.130 A 
BRANCH  15  18
ATOM     18  O   UNL     1      16.055  35.282  12.623  1.00  0.00    -0.508 OA
ATOM     19  H   UNL     1      15.903  35.501  13.600  1.00  0.00     0.293 HD
ENDBRANCH  15  18
BRANCH  17  20
ATOM     20  O   UNL     1      16.547  30.543  13.522  1.00  0.00    -0.507 OA
ATOM     21  H   UNL     1      16.311  30.644  14.502  1.00  0.00     0.293 HD
ENDBRANCH  17  20
ENDBRANCH   1  12
BRANCH   2  22
ATOM     22  O   UNL     1      13.984  29.478  11.295  1.00  0.00    -0.502 OA
ATOM     23  H   UNL     1      13.906  29.860  12.230  1.00  0.00     0.293 HD
ENDBRANCH   2  22
BRANCH   6  24
ATOM     24  O   UNL     1      15.815  25.093   9.178  1.00  0.00    -0.507 OA
ATOM     25  H   UNL     1      15.955  24.139   9.489  1.00  0.00     0.293 HD
ENDBRANCH   6  24
BRANCH   8  26
ATOM     26  O   UNL     1      20.418  26.266   8.333  1.00  0.00    -0.508 OA
ATOM     27  H   UNL     1      20.570  25.388   7.850  1.00  0.00     0.293 HD
ENDBRANCH   8  26
TORSDOF 6
ENDMDL
MODEL 3
REMARK VINA RESULT:    -6.878      4.177      7.420
REMARK INTER + INTRA:          -8.558
REMARK INTER:                  -8.083
REMARK INTRA:                  -0.475
REMARK UNBOUND:                -0.273
REMARK SMILES O=c1c(O)c(-c2ccc(O)cc2O)oc2cc(O)cc(O)c12
REMARK SMILES IDX 5 1 3 2 2 3 1 4 22 5 20 6 19 7 17 8 16 9 15 10 14 11 6 12
REMARK SMILES IDX 8 13 7 14 9 15 11 16 12 17 10 18 13 20 4 22 21 24 18 26
REMARK H PARENT 10 19 13 21 4 23 21 25 18 27
REMARK Flexibility Score: inf
ROOT
ATOM      1  C   UNL     1      14.180  36.383  13.664  1.00  0.00     0.184 A 
ATOM      2  C   UNL     1      13.338  35.386  14.189  1.00  0.00     0.208 A 
ATOM      3  C   UNL     1      13.643  34.039  13.937  1.00  0.00     0.238 A 
ATOM      4  O   UNL     1      12.890  33.137  14.396  1.00  0.00    -0.285 OA
ATOM      5  C   UNL     1      14.788  33.714  13.182  1.00  0.00     0.111 A 
ATOM      6  C   UNL     1      15.168  32.382  12.887  1.00  0.00     0.134 A 
ATOM      7  C   UNL     1      16.328  32.140  12.136  1.00  0.00     0.093 A 
ATOM      8  C   UNL     1      17.112  33.200  11.675  1.00  0.00     0.123 A 
ATOM      9  C   UNL     1      16.742  34.517  11.962  1.00  0.00     0.094 A 
ATOM     10  C   UNL     1      15.589  34.779  12.709  1.00  0.00     0.146 A 
ATOM     11  O   UNL     1      15.258  36.040  12.966  1.00  0.00    -0.451 OA
ENDROOT
BRANCH   1  12
ATOM     12  C   UNL     1      13.908  37.825  13.875  1.00  0.00     0.063 A 
ATOM     13  C   UNL     1      12.734  39.864  13.249  1.00  0.00     0.047 A 
ATOM     14  C   UNL     1      12.972  38.498  13.069  1.00  0.00     0.020 A 
ATOM     15  C   UNL     1      13.435  40.577  14.224  1.00  0.00     0.119 A 
ATOM     16  C   UNL     1      14.379  39.920  15.023  1.00  0.00     0.093 A 
ATOM     17  C   UNL     1      14.622  38.548  14.851  1.00  0.00     0.130 A 
BRANCH  15  18
ATOM     18  O   UNL     1      13.188  41.937  14.391  1.00  0.00    -0.508 OA
ATOM     19  H   UNL     1      13.862  42.637  14.105  1.00  0.00     0.293 HD
ENDBRANCH  15  18
BRANCH  17  20
ATOM     20  O   UNL     1      15.561  37.903  15.656  1.00  0.00    -0.507 OA
ATOM     21  H   UNL     1      15.851  36.949  15.475  1.00  0.00     0.293 HD
ENDBRANCH  17  20
ENDBRANCH   1  12
BRANCH   2  22
ATOM     22  O   UNL     1      12.232  35.736  14.968  1.00  0.00    -0.502 OA
ATOM     23  H   UNL     1      11.319  35.316  14.835  1.00  0.00     0.293 HD
ENDBRANCH   2  22
BRANCH   6  24
ATOM     24  O   UNL     1      14.407  31.301  13.334  1.00  0.00    -0.507 OA
ATOM     25  H   UNL     1      14.766  30.354  13.321  1.00  0.00     0.293 HD
ENDBRANCH   6  24
BRANCH   8  26
ATOM     26  O   UNL     1      18.260  32.932  10.930  1.00  0.00    -0.508 OA
ATOM     27  H   UNL     1      19.173  32.880  11.366  1.00  0.00     0.293 HD
ENDBRANCH   8  26
TORSDOF 6
ENDMDL
MODEL 4
REMARK VINA RESULT:    -6.780      2.240      3.209
REMARK INTER + INTRA:          -8.440
REMARK INTER:                  -8.026
REMARK INTRA:                  -0.414
REMARK UNBOUND:                -0.273
REMARK SMILES O=c1c(O)c(-c2ccc(O)cc2O)oc2cc(O)cc(O)c12
REMARK SMILES IDX 5 1 3 2 2 3 1 4 22 5 20 6 19 7 17 8 16 9 15 10 14 11 6 12
REMARK SMILES IDX 8 13 7 14 9 15 11 16 12 17 10 18 13 20 4 22 21 24 18 26
REMARK H PARENT 10 19 13 21 4 23 21 25 18 27
REMARK Flexibility Score: inf
ROOT
ATOM      1  C   UNL     1      16.377  29.171  10.053  1.00  0.00     0.184 A 
ATOM      2  C   UNL     1      16.056  29.412   8.704  1.00  0.00     0.208 A 
ATOM      3  C   UNL     1      16.230  28.378   7.770  1.00  0.00     0.238 A 
ATOM      4  O   UNL     1      15.953  28.585   6.558  1.00  0.00    -0.285 OA
ATOM      5  C   UNL     1      16.704  27.123   8.202  1.00  0.00     0.111 A 
ATOM      6  C   UNL     1      16.904  26.027   7.326  1.00  0.00     0.134 A 
ATOM      7  C   UNL     1      17.371  24.807   7.835  1.00  0.00     0.093 A 
ATOM      8  C   UNL     1      17.643  24.660   9.197  1.00  0.00     0.123 A 
ATOM      9  C   UNL     1      17.449  25.737  10.067  1.00  0.00     0.094 A 
ATOM     10  C   UNL     1      16.984  26.963   9.579  1.00  0.00     0.146 A 
ATOM     11  O   UNL     1      16.812  27.971  10.426  1.00  0.00    -0.451 OA
ENDROOT
BRANCH   1  12
ATOM     12  C   UNL     1      16.236  30.222  11.088  1.00  0.00     0.063 A 
ATOM     13  C   UNL     1      17.202  32.022  12.413  1.00  0.00     0.047 A 
ATOM     14  C   UNL     1      17.326  31.049  11.417  1.00  0.00     0.020 A 
ATOM     15  C   UNL     1      15.996  32.175  13.099  1.00  0.00     0.119 A 
ATOM     16  C   UNL     1      14.909  31.349  12.789  1.00  0.00     0.093 A 
ATOM     17  C   UNL     1      15.023  30.371  11.789  1.00  0.00     0.130 A 
BRANCH  15  18
ATOM     18  O   UNL     1      15.888  33.149  14.089  1.00  0.00    -0.508 OA
ATOM     19  H   UNL     1      16.519  33.172  14.882  1.00  0.00     0.293 HD
ENDBRANCH  15  18
BRANCH  17  20
ATOM     20  O   UNL     1      13.931  29.558  11.486  1.00  0.00    -0.507 OA
ATOM     21  H   UNL     1      13.161  29.892  10.918  1.00  0.00     0.293 HD
ENDBRANCH  17  20
ENDBRANCH   1  12
BRANCH   2  22
ATOM     22  O   UNL     1      15.549  30.653   8.311  1.00  0.00    -0.502 OA
ATOM     23  H   UNL     1      14.680  31.025   8.674  1.00  0.00     0.293 HD
ENDBRANCH   2  22
BRANCH   6  24
ATOM     24  O   UNL     1      16.640  26.142   5.961  1.00  0.00    -0.507 OA
ATOM     25  H   UNL     1      15.718  25.968   5.580  1.00  0.00     0.293 HD
ENDBRANCH   6  24
BRANCH   8  26
ATOM     26  O   UNL     1      18.107  23.436   9.677  1.00  0.00    -0.508 OA
ATOM     27  H   UNL     1      19.096  23.259   9.809  1.00  0.00     0.293 HD
ENDBRANCH   8  26
TORSDOF 6
ENDMDL
MODEL 5
REMARK VINA RESULT:    -6.753      9.549     11.049
REMARK INTER + INTRA:          -8.408
REMARK INTER:                  -7.980
REMARK INTRA:                  -0.428
REMARK UNBOUND:                -0.273
REMARK SMILES O=c1c(O)c(-c2ccc(O)cc2O)oc2cc(O)cc(O)c12
REMARK SMILES IDX 5 1 3 2 2 3 1 4 22 5 20 6 19 7 17 8 16 9 15 10 14 11 6 12
REMARK SMILES IDX 8 13 7 14 9 15 11 16 12 17 10 18 13 20 4 22 21 24 18 26
REMARK H PARENT 10 19 13 21 4 23 21 25 18 27
REMARK Flexibility Score: inf
ROOT
ATOM      1  C   UNL     1      10.090  32.524   3.894  1.00  0.00     0.184 A 
ATOM      2  C   UNL     1       9.389  32.871   2.725  1.00  0.00     0.208 A 
ATOM      3  C   UNL     1       8.195  32.197   2.425  1.00  0.00     0.238 A 
ATOM      4  O   UNL     1       7.562  32.494   1.375  1.00  0.00    -0.285 OA
ATOM      5  C   UNL     1       7.717  31.204   3.304  1.00  0.00     0.111 A 
ATOM      6  C   UNL     1       6.520  30.480   3.076  1.00  0.00     0.134 A 
ATOM      7  C   UNL     1       6.106  29.512   4.003  1.00  0.00     0.093 A 
ATOM      8  C   UNL     1       6.863  29.252   5.148  1.00  0.00     0.123 A 
ATOM      9  C   UNL     1       8.045  29.962   5.378  1.00  0.00     0.094 A 
ATOM     10  C   UNL     1       8.475  30.932   4.465  1.00  0.00     0.146 A 
ATOM     11  O   UNL     1       9.604  31.589   4.705  1.00  0.00    -0.451 OA
ENDROOT
BRANCH   1  12
ATOM     12  C   UNL     1      11.367  33.181   4.263  1.00  0.00     0.063 A 
ATOM     13  C   UNL     1      12.569  35.078   5.201  1.00  0.00     0.047 A 
ATOM     14  C   UNL     1      11.365  34.446   4.878  1.00  0.00     0.020 A 
ATOM     15  C   UNL     1      13.787  34.463   4.906  1.00  0.00     0.119 A 
ATOM     16  C   UNL     1      13.801  33.210   4.282  1.00  0.00     0.093 A 
ATOM     17  C   UNL     1      12.597  32.566   3.956  1.00  0.00     0.130 A 
BRANCH  15  18
ATOM     18  O   UNL     1      14.979  35.106   5.234  1.00  0.00    -0.508 OA
ATOM     19  H   UNL     1      15.847  34.593   5.333  1.00  0.00     0.293 HD
ENDBRANCH  15  18
BRANCH  17  20
ATOM     20  O   UNL     1      12.624  31.315   3.339  1.00  0.00    -0.507 OA
ATOM     21  H   UNL     1      12.415  31.203   2.354  1.00  0.00     0.293 HD
ENDBRANCH  17  20
ENDBRANCH   1  12
BRANCH   2  22
ATOM     22  O   UNL     1       9.865  33.888   1.893  1.00  0.00    -0.502 OA
ATOM     23  H   UNL     1       9.247  34.525   1.406  1.00  0.00     0.293 HD
ENDBRANCH   2  22
BRANCH   6  24
ATOM     24  O   UNL     1       5.741  30.717   1.943  1.00  0.00    -0.507 OA
ATOM     25  H   UNL     1       5.208  29.979   1.499  1.00  0.00     0.293 HD
ENDBRANCH   6  24
BRANCH   8  26
ATOM     26  O   UNL     1       6.430  28.285   6.053  1.00  0.00    -0.508 OA
ATOM     27  H   UNL     1       5.444  28.092   6.190  1.00  0.00     0.293 HD
ENDBRANCH   8  26
TORSDOF 6
ENDMDL
MODEL 6
REMARK VINA RESULT:    -6.704      1.821      7.070
REMARK INTER + INTRA:          -8.348
REMARK INTER:                  -7.985
REMARK INTRA:                  -0.363
REMARK UNBOUND:                -0.273
REMARK SMILES O=c1c(O)c(-c2ccc(O)cc2O)oc2cc(O)cc(O)c12
REMARK SMILES IDX 5 1 3 2 2 3 1 4 22 5 20 6 19 7 17 8 16 9 15 10 14 11 6 12
REMARK SMILES IDX 8 13 7 14 9 15 11 16 12 17 10 18 13 20 4 22 21 24 18 26
REMARK H PARENT 10 19 13 21 4 23 21 25 18 27
REMARK Flexibility Score: inf
ROOT
ATOM      1  C   UNL     1      16.482  31.025  11.393  1.00  0.00     0.184 A 
ATOM      2  C   UNL     1      15.681  31.622  12.384  1.00  0.00     0.208 A 
ATOM      3  C   UNL     1      15.878  32.978  12.688  1.00  0.00     0.238 A 
ATOM      4  O   UNL     1      15.172  33.522  13.581  1.00  0.00    -0.285 OA
ATOM      5  C   UNL     1      16.855  33.714  11.988  1.00  0.00     0.111 A 
ATOM      6  C   UNL     1      17.113  35.086  12.231  1.00  0.00     0.134 A 
ATOM      7  C   UNL     1      18.098  35.751  11.486  1.00  0.00     0.093 A 
ATOM      8  C   UNL     1      18.828  35.074  10.507  1.00  0.00     0.123 A 
ATOM      9  C   UNL     1      18.579  33.721  10.262  1.00  0.00     0.094 A 
ATOM     10  C   UNL     1      17.602  33.039  10.995  1.00  0.00     0.146 A 
ATOM     11  O   UNL     1      17.387  31.753  10.745  1.00  0.00    -0.451 OA
ENDROOT
BRANCH   1  12
ATOM     12  C   UNL     1      16.342  29.594  11.034  1.00  0.00     0.063 A 
ATOM     13  C   UNL     1      14.987  27.749  10.207  1.00  0.00     0.047 A 
ATOM     14  C   UNL     1      15.128  29.103  10.520  1.00  0.00     0.020 A 
ATOM     15  C   UNL     1      16.048  26.865  10.412  1.00  0.00     0.119 A 
ATOM     16  C   UNL     1      17.257  27.340  10.936  1.00  0.00     0.093 A 
ATOM     17  C   UNL     1      17.409  28.699  11.251  1.00  0.00     0.130 A 
BRANCH  15  18
ATOM     18  O   UNL     1      15.892  25.518  10.096  1.00  0.00    -0.508 OA
ATOM     19  H   UNL     1      16.679  24.946   9.811  1.00  0.00     0.293 HD
ENDBRANCH  15  18
BRANCH  17  20
ATOM     20  O   UNL     1      18.620  29.160  11.767  1.00  0.00    -0.507 OA
ATOM     21  H   UNL     1      18.964  30.092  11.564  1.00  0.00     0.293 HD
ENDBRANCH  17  20
ENDBRANCH   1  12
BRANCH   2  22
ATOM     22  O   UNL     1      14.693  30.879  13.033  1.00  0.00    -0.502 OA
ATOM     23  H   UNL     1      14.369  29.984  12.684  1.00  0.00     0.293 HD
ENDBRANCH   2  22
BRANCH   6  24
ATOM     24  O   UNL     1      16.400  35.790  13.202  1.00  0.00    -0.507 OA
ATOM     25  H   UNL     1      16.259  36.791  13.139  1.00  0.00     0.293 HD
ENDBRANCH   6  24
BRANCH   8  26
ATOM     26  O   UNL     1      19.801  35.759   9.780  1.00  0.00    -0.508 OA
ATOM     27  H   UNL     1      19.653  36.709   9.461  1.00  0.00     0.293 HD
ENDBRANCH   8  26
TORSDOF 6
ENDMDL
MODEL 7
REMARK VINA RESULT:    -6.689      8.853     11.298
REMARK INTER + INTRA:          -8.331
REMARK INTER:                  -7.949
REMARK INTRA:                  -0.382
REMARK UNBOUND:                -0.273
REMARK SMILES O=c1c(O)c(-c2ccc(O)cc2O)oc2cc(O)cc(O)c12
REMARK SMILES IDX 5 1 3 2 2 3 1 4 22 5 20 6 19 7 17 8 16 9 15 10 14 11 6 12
REMARK SMILES IDX 8 13 7 14 9 15 11 16 12 17 10 18 13 20 4 22 21 24 18 26
REMARK H PARENT 10 19 13 21 4 23 21 25 18 27
REMARK Flexibility Score: inf
ROOT
ATOM      1  C   UNL     1      11.267  32.963   3.865  1.00  0.00     0.184 A 
ATOM      2  C   UNL     1      12.619  32.573   3.846  1.00  0.00     0.208 A 
ATOM      3  C   UNL     1      13.570  33.396   4.470  1.00  0.00     0.238 A 
ATOM      4  O   UNL     1      14.786  33.061   4.451  1.00  0.00    -0.285 OA
ATOM      5  C   UNL     1      13.153  34.579   5.113  1.00  0.00     0.111 A 
ATOM      6  C   UNL     1      14.048  35.461   5.768  1.00  0.00     0.134 A 
ATOM      7  C   UNL     1      13.553  36.615   6.392  1.00  0.00     0.093 A 
ATOM      8  C   UNL     1      12.187  36.906   6.374  1.00  0.00     0.123 A 
ATOM      9  C   UNL     1      11.299  36.040   5.729  1.00  0.00     0.094 A 
ATOM     10  C   UNL     1      11.772  34.884   5.099  1.00  0.00     0.146 A 
ATOM     11  O   UNL     1      10.908  34.080   4.490  1.00  0.00    -0.451 OA
ENDROOT
BRANCH   1  12
ATOM     12  C   UNL     1      10.212  32.153   3.211  1.00  0.00     0.063 A 
ATOM     13  C   UNL     1       8.957  30.076   3.025  1.00  0.00     0.047 A 
ATOM     14  C   UNL     1       9.933  30.849   3.659  1.00  0.00     0.020 A 
ATOM     15  C   UNL     1       8.256  30.586   1.931  1.00  0.00     0.119 A 
ATOM     16  C   UNL     1       8.535  31.877   1.467  1.00  0.00     0.093 A 
ATOM     17  C   UNL     1       9.511  32.663   2.099  1.00  0.00     0.130 A 
BRANCH  15  18
ATOM     18  O   UNL     1       7.287  29.802   1.310  1.00  0.00    -0.508 OA
ATOM     19  H   UNL     1       6.412  29.578   1.769  1.00  0.00     0.293 HD
ENDBRANCH  15  18
BRANCH  17  20
ATOM     20  O   UNL     1       9.776  33.950   1.631  1.00  0.00    -0.507 OA
ATOM     21  H   UNL     1      10.538  34.505   2.004  1.00  0.00     0.293 HD
ENDBRANCH  17  20
ENDBRANCH   1  12
BRANCH   2  22
ATOM     22  O   UNL     1      12.998  31.375   3.236  1.00  0.00    -0.502 OA
ATOM     23  H   UNL     1      13.844  31.290   2.685  1.00  0.00     0.293 HD
ENDBRANCH   2  22
BRANCH   6  24
ATOM     24  O   UNL     1      15.417  35.198   5.804  1.00  0.00    -0.507 OA
ATOM     25  H   UNL     1      16.046  35.726   6.398  1.00  0.00     0.293 HD
ENDBRANCH   6  24
BRANCH   8  26
ATOM     26  O   UNL     1      11.722  38.060   7.003  1.00  0.00    -0.508 OA
ATOM     27  H   UNL     1      10.731  38.238   7.116  1.00  0.00     0.293 HD
ENDBRANCH   8  26
TORSDOF 6
ENDMDL
MODEL 8
REMARK VINA RESULT:    -6.629      9.373     10.735
REMARK INTER + INTRA:          -8.258
REMARK INTER:                  -7.781
REMARK INTRA:                  -0.477
REMARK UNBOUND:                -0.273
REMARK SMILES O=c1c(O)c(-c2ccc(O)cc2O)oc2cc(O)cc(O)c12
REMARK SMILES IDX 5 1 3 2 2 3 1 4 22 5 20 6 19 7 17 8 16 9 15 10 14 11 6 12
REMARK SMILES IDX 8 13 7 14 9 15 11 16 12 17 10 18 13 20 4 22 21 24 18 26
REMARK H PARENT 10 19 13 21 4 23 21 25 18 27
REMARK Flexibility Score: inf
ROOT
ATOM      1  C   UNL     1      10.529  32.776   4.300  1.00  0.00     0.184 A 
ATOM      2  C   UNL     1       9.713  32.260   5.323  1.00  0.00     0.208 A 
ATOM      3  C   UNL     1       8.575  31.516   4.973  1.00  0.00     0.238 A 
ATOM      4  O   UNL     1       7.832  31.056   5.882  1.00  0.00    -0.285 OA
ATOM      5  C   UNL     1       8.284  31.289   3.613  1.00  0.00     0.111 A 
ATOM      6  C   UNL     1       7.159  30.546   3.176  1.00  0.00     0.134 A 
ATOM      7  C   UNL     1       6.942  30.357   1.803  1.00  0.00     0.093 A 
ATOM      8  C   UNL     1       7.823  30.894   0.862  1.00  0.00     0.123 A 
ATOM      9  C   UNL     1       8.935  31.628   1.286  1.00  0.00     0.094 A 
ATOM     10  C   UNL     1       9.169  31.829   2.651  1.00  0.00     0.146 A 
ATOM     11  O   UNL     1      10.229  32.533   3.027  1.00  0.00    -0.451 OA
ENDROOT
BRANCH   1  12
ATOM     12  C   UNL     1      11.735  33.586   4.596  1.00  0.00     0.063 A 
ATOM     13  C   UNL     1      12.747  35.700   5.252  1.00  0.00     0.047 A 
ATOM     14  C   UNL     1      11.610  34.928   4.998  1.00  0.00     0.020 A 
ATOM     15  C   UNL     1      14.020  35.149   5.096  1.00  0.00     0.119 A 
ATOM     16  C   UNL     1      14.157  33.818   4.683  1.00  0.00     0.093 A 
ATOM     17  C   UNL     1      13.021  33.034   4.429  1.00  0.00     0.130 A 
BRANCH  15  18
ATOM     18  O   UNL     1      15.144  35.932   5.352  1.00  0.00    -0.508 OA
ATOM     19  H   UNL     1      15.063  36.871   5.723  1.00  0.00     0.293 HD
ENDBRANCH  15  18
BRANCH  17  20
ATOM     20  O   UNL     1      13.169  31.708   4.023  1.00  0.00    -0.507 OA
ATOM     21  H   UNL     1      13.740  31.457   3.224  1.00  0.00     0.293 HD
ENDBRANCH  17  20
ENDBRANCH   1  12
BRANCH   2  22
ATOM     22  O   UNL     1      10.049  32.467   6.663  1.00  0.00    -0.502 OA
ATOM     23  H   UNL     1      10.212  31.702   7.307  1.00  0.00     0.293 HD
ENDBRANCH   2  22
BRANCH   6  24
ATOM     24  O   UNL     1       6.261  29.997   4.091  1.00  0.00    -0.507 OA
ATOM     25  H   UNL     1       5.270  30.201   4.054  1.00  0.00     0.293 HD
ENDBRANCH   6  24
BRANCH   8  26
ATOM     26  O   UNL     1       7.584  30.690  -0.497  1.00  0.00    -0.508 OA
ATOM     27  H   UNL     1       6.657  30.476  -0.845  1.00  0.00     0.293 HD
ENDBRANCH   8  26
TORSDOF 6
ENDMDL
MODEL 9
REMARK VINA RESULT:    -6.472     11.265     12.011
REMARK INTER + INTRA:          -8.069
REMARK INTER:                  -7.592
REMARK INTRA:                  -0.477
REMARK UNBOUND:                -0.273
REMARK SMILES O=c1c(O)c(-c2ccc(O)cc2O)oc2cc(O)cc(O)c12
REMARK SMILES IDX 5 1 3 2 2 3 1 4 22 5 20 6 19 7 17 8 16 9 15 10 14 11 6 12
REMARK SMILES IDX 8 13 7 14 9 15 11 16 12 17 10 18 13 20 4 22 21 24 18 26
REMARK H PARENT 10 19 13 21 4 23 21 25 18 27
REMARK Flexibility Score: inf
ROOT
ATOM      1  C   UNL     1       7.703  33.992   4.248  1.00  0.00     0.184 A 
ATOM      2  C   UNL     1       8.547  33.603   3.191  1.00  0.00     0.208 A 
ATOM      3  C   UNL     1       8.756  32.235   2.958  1.00  0.00     0.238 A 
ATOM      4  O   UNL     1       9.517  31.875   2.020  1.00  0.00    -0.285 OA
ATOM      5  C   UNL     1       8.107  31.284   3.772  1.00  0.00     0.111 A 
ATOM      6  C   UNL     1       8.261  29.885   3.601  1.00  0.00     0.134 A 
ATOM      7  C   UNL     1       7.574  29.002   4.447  1.00  0.00     0.093 A 
ATOM      8  C   UNL     1       6.741  29.487   5.458  1.00  0.00     0.123 A 
ATOM      9  C   UNL     1       6.585  30.865   5.632  1.00  0.00     0.094 A 
ATOM     10  C   UNL     1       7.261  31.763   4.799  1.00  0.00     0.146 A 
ATOM     11  O   UNL     1       7.099  33.067   4.988  1.00  0.00    -0.451 OA
ENDROOT
BRANCH   1  12
ATOM     12  C   UNL     1       7.452  35.419   4.563  1.00  0.00     0.063 A 
ATOM     13  C   UNL     1       8.142  37.497   5.626  1.00  0.00     0.047 A 
ATOM     14  C   UNL     1       8.390  36.160   5.305  1.00  0.00     0.020 A 
ATOM     15  C   UNL     1       6.954  38.109   5.221  1.00  0.00     0.119 A 
ATOM     16  C   UNL     1       6.007  37.377   4.493  1.00  0.00     0.093 A 
ATOM     17  C   UNL     1       6.248  36.034   4.164  1.00  0.00     0.130 A 
BRANCH  15  18
ATOM     18  O   UNL     1       6.721  39.442   5.549  1.00  0.00    -0.508 OA
ATOM     19  H   UNL     1       7.484  40.089   5.712  1.00  0.00     0.293 HD
ENDBRANCH  15  18
BRANCH  17  20
ATOM     20  O   UNL     1       5.301  35.317   3.434  1.00  0.00    -0.507 OA
ATOM     21  H   UNL     1       5.411  34.327   3.247  1.00  0.00     0.293 HD
ENDBRANCH  17  20
ENDBRANCH   1  12
BRANCH   2  22
ATOM     22  O   UNL     1       9.144  34.568   2.376  1.00  0.00    -0.502 OA
ATOM     23  H   UNL     1       8.833  34.747   1.429  1.00  0.00     0.293 HD
ENDBRANCH   2  22
BRANCH   6  24
ATOM     24  O   UNL     1       9.085  29.370   2.601  1.00  0.00    -0.507 OA
ATOM     25  H   UNL     1       9.918  28.836   2.818  1.00  0.00     0.293 HD
ENDBRANCH   6  24
BRANCH   8  26
ATOM     26  O   UNL     1       6.069  28.587   6.284  1.00  0.00    -0.508 OA
ATOM     27  H   UNL     1       5.606  27.767   5.909  1.00  0.00     0.293 HD
ENDBRANCH   8  26
TORSDOF 6
ENDMDL
