MODEL 1
REMARK VINA RESULT:    -5.920      0.000      0.000
REMARK INTER + INTRA:         -13.970
REMARK INTER:                 -11.111
REMARK INTRA:                  -2.859
REMARK UNBOUND:                -2.859
REMARK SMILES CCCCCCCCC=CCCCCCCCC(=O)[O-]
REMARK SMILES IDX 10 1 9 2 11 3 12 4 13 5 14 6 15 7 16 8 17 9 18 10 19 11
REMARK SMILES IDX 20 12 8 13 7 14 6 15 5 16 4 17 3 18 2 19 1 20
REMARK H PARENT
REMARK Flexibility Score: inf
ROOT
ATOM      1  C   UNL     1     -64.727  -0.067  -3.167  1.00  0.00    -0.031 C 
ATOM      2  C   UNL     1     -63.842  -1.048  -2.906  1.00  0.00    -0.031 C 
ENDROOT
BRANCH   1   3
ATOM      3  C   UNL     1     -64.436   1.181  -3.963  1.00  0.00     0.027 C 
BRANCH   3   4
ATOM      4  C   UNL     1     -65.054   2.422  -3.307  1.00  0.00     0.004 C 
BRANCH   4   5
ATOM      5  C   UNL     1     -64.021   3.159  -2.442  1.00  0.00     0.000 C 
BRANCH   5   6
ATOM      6  C   UNL     1     -62.575   2.702  -2.711  1.00  0.00     0.000 C 
BRANCH   6   7
ATOM      7  C   UNL     1     -61.877   2.019  -1.520  1.00  0.00     0.000 C 
BRANCH   7   8
ATOM      8  C   UNL     1     -62.822   1.777  -0.330  1.00  0.00     0.006 C 
BRANCH   8   9
ATOM      9  C   UNL     1     -62.055   1.518   0.972  1.00  0.00     0.053 C 
BRANCH   9  10
ATOM     10  C   UNL     1     -61.350   2.746   1.460  1.00  0.00     0.041 C 
ATOM     11  O   UNL     1     -62.005   3.690   1.976  1.00  0.00    -0.550 OA
ATOM     12  O   UNL     1     -59.969   2.848   1.344  1.00  0.00    -0.550 OA
ENDBRANCH   9  10
ENDBRANCH   8   9
ENDBRANCH   7   8
ENDBRANCH   6   7
ENDBRANCH   5   6
ENDBRANCH   4   5
ENDBRANCH   3   4
ENDBRANCH   1   3
BRANCH   2  13
ATOM     13  C   UNL     1     -62.406  -1.082  -3.378  1.00  0.00     0.027 C 
BRANCH  13  14
ATOM     14  C   UNL     1     -61.611  -2.227  -2.731  1.00  0.00     0.004 C 
BRANCH  14  15
ATOM     15  C   UNL     1     -60.862  -1.855  -1.435  1.00  0.00     0.000 C 
BRANCH  15  16
ATOM     16  C   UNL     1     -61.314  -2.612  -0.173  1.00  0.00     0.000 C 
BRANCH  16  17
ATOM     17  C   UNL     1     -62.612  -2.047   0.433  1.00  0.00    -0.000 C 
BRANCH  17  18
ATOM     18  C   UNL     1     -63.742  -3.101   0.488  1.00  0.00    -0.000 C 
BRANCH  18  19
ATOM     19  C   UNL     1     -65.156  -2.494   0.501  1.00  0.00    -0.003 C 
ATOM     20  C   UNL     1     -65.154  -0.967   0.525  1.00  0.00     0.004 C 
ENDBRANCH  18  19
ENDBRANCH  17  18
ENDBRANCH  16  17
ENDBRANCH  15  16
ENDBRANCH  14  15
ENDBRANCH  13  14
ENDBRANCH   2  13
TORSDOF 15
ENDMDL
MODEL 2
REMARK VINA RESULT:    -5.910      2.818      5.888
REMARK INTER + INTRA:         -13.952
REMARK INTER:                 -11.305
REMARK INTRA:                  -2.647
REMARK UNBOUND:                -2.859
REMARK SMILES CCCCCCCCC=CCCCCCCCC(=O)[O-]
REMARK SMILES IDX 10 1 9 2 11 3 12 4 13 5 14 6 15 7 16 8 17 9 18 10 19 11
REMARK SMILES IDX 20 12 8 13 7 14 6 15 5 16 4 17 3 18 2 19 1 20
REMARK H PARENT
REMARK Flexibility Score: inf
ROOT
ATOM      1  C   UNL     1     -65.612  -0.155   0.501  1.00  0.00    -0.031 C 
ATOM      2  C   UNL     1     -65.828   0.052  -0.812  1.00  0.00    -0.031 C 
ENDROOT
BRANCH   1   3
ATOM      3  C   UNL     1     -64.503  -1.000   1.079  1.00  0.00     0.027 C 
BRANCH   3   4
ATOM      4  C   UNL     1     -64.794  -2.496   0.913  1.00  0.00     0.004 C 
BRANCH   4   5
ATOM      5  C   UNL     1     -63.501  -3.283   0.652  1.00  0.00     0.000 C 
BRANCH   5   6
ATOM      6  C   UNL     1     -62.894  -2.999  -0.735  1.00  0.00     0.000 C 
BRANCH   6   7
ATOM      7  C   UNL     1     -61.577  -2.203  -0.718  1.00  0.00     0.000 C 
BRANCH   7   8
ATOM      8  C   UNL     1     -61.402  -1.306  -1.955  1.00  0.00     0.006 C 
BRANCH   8   9
ATOM      9  C   UNL     1     -62.013  -1.934  -3.214  1.00  0.00     0.053 C 
BRANCH   9  10
ATOM     10  C   UNL     1     -61.083  -2.917  -3.856  1.00  0.00     0.041 C 
ATOM     11  O   UNL     1     -59.844  -2.695  -3.880  1.00  0.00    -0.550 OA
ATOM     12  O   UNL     1     -61.586  -4.081  -4.426  1.00  0.00    -0.550 OA
ENDBRANCH   9  10
ENDBRANCH   8   9
ENDBRANCH   7   8
ENDBRANCH   6   7
ENDBRANCH   5   6
ENDBRANCH   4   5
ENDBRANCH   3   4
ENDBRANCH   1   3
BRANCH   2  13
ATOM     13  C   UNL     1     -64.990  -0.510  -1.939  1.00  0.00     0.027 C 
BRANCH  13  14
ATOM     14  C   UNL     1     -65.277   0.190  -3.277  1.00  0.00     0.004 C 
BRANCH  14  15
ATOM     15  C   UNL     1     -64.167   1.143  -3.769  1.00  0.00     0.000 C 
BRANCH  15  16
ATOM     16  C   UNL     1     -64.466   2.644  -3.598  1.00  0.00     0.000 C 
BRANCH  16  17
ATOM     17  C   UNL     1     -64.324   3.122  -2.141  1.00  0.00    -0.000 C 
BRANCH  17  18
ATOM     18  C   UNL     1     -62.998   2.656  -1.497  1.00  0.00    -0.000 C 
BRANCH  18  19
ATOM     19  C   UNL     1     -63.064   2.526   0.035  1.00  0.00    -0.003 C 
ATOM     20  C   UNL     1     -62.018   1.568   0.602  1.00  0.00     0.004 C 
ENDBRANCH  18  19
ENDBRANCH  17  18
ENDBRANCH  16  17
ENDBRANCH  15  16
ENDBRANCH  14  15
ENDBRANCH  13  14
ENDBRANCH   2  13
TORSDOF 15
ENDMDL
MODEL 3
REMARK VINA RESULT:    -5.830      2.819      5.524
REMARK INTER + INTRA:         -13.802
REMARK INTER:                 -11.195
REMARK INTRA:                  -2.607
REMARK UNBOUND:                -2.859
REMARK SMILES CCCCCCCCC=CCCCCCCCC(=O)[O-]
REMARK SMILES IDX 10 1 9 2 11 3 12 4 13 5 14 6 15 7 16 8 17 9 18 10 19 11
REMARK SMILES IDX 20 12 8 13 7 14 6 15 5 16 4 17 3 18 2 19 1 20
REMARK H PARENT
REMARK Flexibility Score: inf
ROOT
ATOM      1  C   UNL     1     -65.157   0.148  -2.310  1.00  0.00    -0.031 C 
ATOM      2  C   UNL     1     -65.019   1.027  -3.321  1.00  0.00    -0.031 C 
ENDROOT
BRANCH   1   3
ATOM      3  C   UNL     1     -64.977   0.468  -0.847  1.00  0.00     0.027 C 
BRANCH   3   4
ATOM      4  C   UNL     1     -65.360  -0.724   0.039  1.00  0.00     0.004 C 
BRANCH   4   5
ATOM      5  C   UNL     1     -64.200  -1.114   0.968  1.00  0.00     0.000 C 
BRANCH   5   6
ATOM      6  C   UNL     1     -63.645  -2.521   0.679  1.00  0.00     0.000 C 
BRANCH   6   7
ATOM      7  C   UNL     1     -62.458  -2.564  -0.300  1.00  0.00     0.000 C 
BRANCH   7   8
ATOM      8  C   UNL     1     -62.897  -2.678  -1.770  1.00  0.00     0.006 C 
BRANCH   8   9
ATOM      9  C   UNL     1     -61.964  -1.909  -2.713  1.00  0.00     0.053 C 
BRANCH   9  10
ATOM     10  C   UNL     1     -61.284  -2.818  -3.690  1.00  0.00     0.041 C 
ATOM     11  O   UNL     1     -60.057  -2.680  -3.937  1.00  0.00    -0.550 OA
ATOM     12  O   UNL     1     -62.006  -3.820  -4.328  1.00  0.00    -0.550 OA
ENDBRANCH   9  10
ENDBRANCH   8   9
ENDBRANCH   7   8
ENDBRANCH   6   7
ENDBRANCH   5   6
ENDBRANCH   4   5
ENDBRANCH   3   4
ENDBRANCH   1   3
BRANCH   2  13
ATOM     13  C   UNL     1     -64.678   2.492  -3.170  1.00  0.00     0.027 C 
BRANCH  13  14
ATOM     14  C   UNL     1     -63.168   2.750  -3.294  1.00  0.00     0.004 C 
BRANCH  14  15
ATOM     15  C   UNL     1     -62.389   2.734  -1.962  1.00  0.00     0.000 C 
BRANCH  15  16
ATOM     16  C   UNL     1     -61.385   1.577  -1.802  1.00  0.00     0.000 C 
BRANCH  16  17
ATOM     17  C   UNL     1     -61.353   1.003  -0.374  1.00  0.00    -0.000 C 
BRANCH  17  18
ATOM     18  C   UNL     1     -62.055   1.928   0.647  1.00  0.00    -0.000 C 
BRANCH  18  19
ATOM     19  C   UNL     1     -61.085   2.662   1.590  1.00  0.00    -0.003 C 
ATOM     20  C   UNL     1     -61.511   4.097   1.891  1.00  0.00     0.004 C 
ENDBRANCH  18  19
ENDBRANCH  17  18
ENDBRANCH  16  17
ENDBRANCH  15  16
ENDBRANCH  14  15
ENDBRANCH  13  14
ENDBRANCH   2  13
TORSDOF 15
ENDMDL
MODEL 4
REMARK VINA RESULT:    -5.781      1.039      3.225
REMARK INTER + INTRA:         -13.710
REMARK INTER:                 -11.106
REMARK INTRA:                  -2.604
REMARK UNBOUND:                -2.859
REMARK SMILES CCCCCCCCC=CCCCCCCCC(=O)[O-]
REMARK SMILES IDX 10 1 9 2 11 3 12 4 13 5 14 6 15 7 16 8 17 9 18 10 19 11
REMARK SMILES IDX 20 12 8 13 7 14 6 15 5 16 4 17 3 18 2 19 1 20
REMARK H PARENT
REMARK Flexibility Score: inf
ROOT
ATOM      1  C   UNL     1     -65.165  -0.024  -0.618  1.00  0.00    -0.031 C 
ATOM      2  C   UNL     1     -65.102  -0.856   0.439  1.00  0.00    -0.031 C 
ENDROOT
BRANCH   1   3
ATOM      3  C   UNL     1     -65.091  -0.444  -2.065  1.00  0.00     0.027 C 
BRANCH   3   4
ATOM      4  C   UNL     1     -65.256   0.755  -3.006  1.00  0.00     0.004 C 
BRANCH   4   5
ATOM      5  C   UNL     1     -63.920   1.123  -3.668  1.00  0.00     0.000 C 
BRANCH   5   6
ATOM      6  C   UNL     1     -63.426   2.530  -3.283  1.00  0.00     0.000 C 
BRANCH   6   7
ATOM      7  C   UNL     1     -63.124   2.725  -1.785  1.00  0.00     0.000 C 
BRANCH   7   8
ATOM      8  C   UNL     1     -61.841   2.008  -1.334  1.00  0.00     0.006 C 
BRANCH   8   9
ATOM      9  C   UNL     1     -61.899   1.595   0.142  1.00  0.00     0.053 C 
BRANCH   9  10
ATOM     10  C   UNL     1     -61.336   2.653   1.041  1.00  0.00     0.041 C 
ATOM     11  O   UNL     1     -60.096   2.714   1.249  1.00  0.00    -0.550 OA
ATOM     12  O   UNL     1     -62.183   3.572   1.649  1.00  0.00    -0.550 OA
ENDBRANCH   9  10
ENDBRANCH   8   9
ENDBRANCH   7   8
ENDBRANCH   6   7
ENDBRANCH   5   6
ENDBRANCH   4   5
ENDBRANCH   3   4
ENDBRANCH   1   3
BRANCH   2  13
ATOM     13  C   UNL     1     -64.961  -2.360   0.364  1.00  0.00     0.027 C 
BRANCH  13  14
ATOM     14  C   UNL     1     -63.508  -2.816   0.570  1.00  0.00     0.004 C 
BRANCH  14  15
ATOM     15  C   UNL     1     -62.661  -2.910  -0.716  1.00  0.00     0.000 C 
BRANCH  15  16
ATOM     16  C   UNL     1     -61.341  -2.120  -0.693  1.00  0.00     0.000 C 
BRANCH  16  17
ATOM     17  C   UNL     1     -60.981  -1.511  -2.061  1.00  0.00    -0.000 C 
BRANCH  17  18
ATOM     18  C   UNL     1     -61.959  -1.949  -3.174  1.00  0.00    -0.000 C 
BRANCH  18  19
ATOM     19  C   UNL     1     -61.271  -2.617  -4.378  1.00  0.00    -0.003 C 
ATOM     20  C   UNL     1     -61.451  -4.133  -4.408  1.00  0.00     0.004 C 
ENDBRANCH  18  19
ENDBRANCH  17  18
ENDBRANCH  16  17
ENDBRANCH  15  16
ENDBRANCH  14  15
ENDBRANCH  13  14
ENDBRANCH   2  13
TORSDOF 15
ENDMDL
MODEL 5
REMARK VINA RESULT:    -5.778      0.946      2.766
REMARK INTER + INTRA:         -13.704
REMARK INTER:                 -10.819
REMARK INTRA:                  -2.885
REMARK UNBOUND:                -2.859
REMARK SMILES CCCCCCCCC=CCCCCCCCC(=O)[O-]
REMARK SMILES IDX 10 1 9 2 11 3 12 4 13 5 14 6 15 7 16 8 17 9 18 10 19 11
REMARK SMILES IDX 20 12 8 13 7 14 6 15 5 16 4 17 3 18 2 19 1 20
REMARK H PARENT
REMARK Flexibility Score: inf
ROOT
ATOM      1  C   UNL     1     -65.425  -0.026  -2.764  1.00  0.00    -0.031 C 
ATOM      2  C   UNL     1     -65.374  -0.541  -1.521  1.00  0.00    -0.031 C 
ENDROOT
BRANCH   1   3
ATOM      3  C   UNL     1     -65.158   1.415  -3.122  1.00  0.00     0.027 C 
BRANCH   3   4
ATOM      4  C   UNL     1     -63.772   1.587  -3.755  1.00  0.00     0.004 C 
BRANCH   4   5
ATOM      5  C   UNL     1     -63.093   2.870  -3.252  1.00  0.00     0.000 C 
BRANCH   5   6
ATOM      6  C   UNL     1     -62.342   2.672  -1.922  1.00  0.00     0.000 C 
BRANCH   6   7
ATOM      7  C   UNL     1     -61.795   1.251  -1.689  1.00  0.00     0.000 C 
BRANCH   7   8
ATOM      8  C   UNL     1     -61.298   1.028  -0.251  1.00  0.00     0.006 C 
BRANCH   8   9
ATOM      9  C   UNL     1     -61.995   1.956   0.752  1.00  0.00     0.053 C 
BRANCH   9  10
ATOM     10  C   UNL     1     -61.045   2.948   1.349  1.00  0.00     0.041 C 
ATOM     11  O   UNL     1     -59.803   2.761   1.273  1.00  0.00    -0.550 OA
ATOM     12  O   UNL     1     -61.534   4.082   1.988  1.00  0.00    -0.550 OA
ENDBRANCH   9  10
ENDBRANCH   8   9
ENDBRANCH   7   8
ENDBRANCH   6   7
ENDBRANCH   5   6
ENDBRANCH   4   5
ENDBRANCH   3   4
ENDBRANCH   1   3
BRANCH   2  13
ATOM     13  C   UNL     1     -65.023   0.226  -0.267  1.00  0.00     0.027 C 
BRANCH  13  14
ATOM     14  C   UNL     1     -64.703  -0.707   0.912  1.00  0.00     0.004 C 
BRANCH  14  15
ATOM     15  C   UNL     1     -64.832  -2.214   0.609  1.00  0.00     0.000 C 
BRANCH  15  16
ATOM     16  C   UNL     1     -63.552  -3.041   0.830  1.00  0.00     0.000 C 
BRANCH  16  17
ATOM     17  C   UNL     1     -62.388  -2.597  -0.075  1.00  0.00    -0.000 C 
BRANCH  17  18
ATOM     18  C   UNL     1     -62.722  -2.745  -1.577  1.00  0.00    -0.000 C 
BRANCH  18  19
ATOM     19  C   UNL     1     -61.562  -2.359  -2.512  1.00  0.00    -0.003 C 
ATOM     20  C   UNL     1     -62.033  -1.778  -3.844  1.00  0.00     0.004 C 
ENDBRANCH  18  19
ENDBRANCH  17  18
ENDBRANCH  16  17
ENDBRANCH  15  16
ENDBRANCH  14  15
ENDBRANCH  13  14
ENDBRANCH   2  13
TORSDOF 15
ENDMDL
MODEL 6
REMARK VINA RESULT:    -5.777      1.765      3.845
REMARK INTER + INTRA:         -13.701
REMARK INTER:                 -10.722
REMARK INTRA:                  -2.979
REMARK UNBOUND:                -2.859
REMARK SMILES CCCCCCCCC=CCCCCCCCC(=O)[O-]
REMARK SMILES IDX 10 1 9 2 11 3 12 4 13 5 14 6 15 7 16 8 17 9 18 10 19 11
REMARK SMILES IDX 20 12 8 13 7 14 6 15 5 16 4 17 3 18 2 19 1 20
REMARK H PARENT
REMARK Flexibility Score: inf
ROOT
ATOM      1  C   UNL     1     -64.825   2.439  -3.339  1.00  0.00    -0.031 C 
ATOM      2  C   UNL     1     -64.248   3.212  -2.399  1.00  0.00    -0.031 C 
ENDROOT
BRANCH   1   3
ATOM      3  C   UNL     1     -64.283   1.123  -3.839  1.00  0.00     0.027 C 
BRANCH   3   4
ATOM      4  C   UNL     1     -64.999  -0.064  -3.183  1.00  0.00     0.004 C 
BRANCH   4   5
ATOM      5  C   UNL     1     -64.014  -1.202  -2.880  1.00  0.00     0.000 C 
BRANCH   5   6
ATOM      6  C   UNL     1     -62.554  -0.838  -3.212  1.00  0.00     0.000 C 
BRANCH   6   7
ATOM      7  C   UNL     1     -61.498  -1.800  -2.638  1.00  0.00     0.000 C 
BRANCH   7   8
ATOM      8  C   UNL     1     -60.940  -1.337  -1.281  1.00  0.00     0.006 C 
BRANCH   8   9
ATOM      9  C   UNL     1     -60.450   0.116  -1.323  1.00  0.00     0.053 C 
BRANCH   9  10
ATOM     10  C   UNL     1     -58.956   0.200  -1.376  1.00  0.00     0.041 C 
ATOM     11  O   UNL     1     -58.262  -0.851  -1.404  1.00  0.00    -0.550 OA
ATOM     12  O   UNL     1     -58.328   1.440  -1.397  1.00  0.00    -0.550 OA
ENDBRANCH   9  10
ENDBRANCH   8   9
ENDBRANCH   7   8
ENDBRANCH   6   7
ENDBRANCH   5   6
ENDBRANCH   4   5
ENDBRANCH   3   4
ENDBRANCH   1   3
BRANCH   2  13
ATOM     13  C   UNL     1     -62.965   2.892  -1.667  1.00  0.00     0.027 C 
BRANCH  13  14
ATOM     14  C   UNL     1     -63.211   2.565  -0.185  1.00  0.00     0.004 C 
BRANCH  14  15
ATOM     15  C   UNL     1     -63.476   1.076   0.123  1.00  0.00     0.000 C 
BRANCH  15  16
ATOM     16  C   UNL     1     -64.959   0.664   0.150  1.00  0.00     0.000 C 
BRANCH  16  17
ATOM     17  C   UNL     1     -65.172  -0.778   0.647  1.00  0.00    -0.000 C 
BRANCH  17  18
ATOM     18  C   UNL     1     -63.887  -1.387   1.252  1.00  0.00    -0.000 C 
BRANCH  18  19
ATOM     19  C   UNL     1     -63.504  -2.751   0.651  1.00  0.00    -0.003 C 
ATOM     20  C   UNL     1     -64.617  -3.371  -0.190  1.00  0.00     0.004 C 
ENDBRANCH  18  19
ENDBRANCH  17  18
ENDBRANCH  16  17
ENDBRANCH  15  16
ENDBRANCH  14  15
ENDBRANCH  13  14
ENDBRANCH   2  13
TORSDOF 15
ENDMDL
MODEL 7
REMARK VINA RESULT:    -5.773      2.820      5.888
REMARK INTER + INTRA:         -13.695
REMARK INTER:                 -10.873
REMARK INTRA:                  -2.822
REMARK UNBOUND:                -2.859
REMARK SMILES CCCCCCCCC=CCCCCCCCC(=O)[O-]
REMARK SMILES IDX 10 1 9 2 11 3 12 4 13 5 14 6 15 7 16 8 17 9 18 10 19 11
REMARK SMILES IDX 20 12 8 13 7 14 6 15 5 16 4 17 3 18 2 19 1 20
REMARK H PARENT
REMARK Flexibility Score: inf
ROOT
ATOM      1  C   UNL     1     -64.473   0.065   0.254  1.00  0.00    -0.031 C 
ATOM      2  C   UNL     1     -63.620   1.100   0.123  1.00  0.00    -0.031 C 
ENDROOT
BRANCH   1   3
ATOM      3  C   UNL     1     -64.309  -1.082   1.221  1.00  0.00     0.027 C 
BRANCH   3   4
ATOM      4  C   UNL     1     -65.011  -2.347   0.713  1.00  0.00     0.004 C 
BRANCH   4   5
ATOM      5  C   UNL     1     -64.054  -3.208  -0.125  1.00  0.00     0.000 C 
BRANCH   5   6
ATOM      6  C   UNL     1     -62.573  -2.847   0.092  1.00  0.00     0.000 C 
BRANCH   6   7
ATOM      7  C   UNL     1     -61.849  -2.299  -1.152  1.00  0.00     0.000 C 
BRANCH   7   8
ATOM      8  C   UNL     1     -62.796  -2.056  -2.339  1.00  0.00     0.006 C 
BRANCH   8   9
ATOM      9  C   UNL     1     -62.032  -1.770  -3.638  1.00  0.00     0.053 C 
BRANCH   9  10
ATOM     10  C   UNL     1     -61.113  -2.894  -4.004  1.00  0.00     0.041 C 
ATOM     11  O   UNL     1     -61.582  -3.993  -4.403  1.00  0.00    -0.550 OA
ATOM     12  O   UNL     1     -59.736  -2.728  -3.906  1.00  0.00    -0.550 OA
ENDBRANCH   9  10
ENDBRANCH   8   9
ENDBRANCH   7   8
ENDBRANCH   6   7
ENDBRANCH   5   6
ENDBRANCH   4   5
ENDBRANCH   3   4
ENDBRANCH   1   3
BRANCH   2  13
ATOM     13  C   UNL     1     -62.359   1.305   0.930  1.00  0.00     0.027 C 
BRANCH  13  14
ATOM     14  C   UNL     1     -61.205   1.849   0.072  1.00  0.00     0.004 C 
BRANCH  14  15
ATOM     15  C   UNL     1     -61.177   1.344  -1.386  1.00  0.00     0.000 C 
BRANCH  15  16
ATOM     16  C   UNL     1     -61.536   2.395  -2.452  1.00  0.00     0.000 C 
BRANCH  16  17
ATOM     17  C   UNL     1     -62.668   1.938  -3.389  1.00  0.00    -0.000 C 
BRANCH  17  18
ATOM     18  C   UNL     1     -63.891   2.882  -3.337  1.00  0.00    -0.000 C 
BRANCH  18  19
ATOM     19  C   UNL     1     -65.226   2.156  -3.094  1.00  0.00    -0.003 C 
ATOM     20  C   UNL     1     -65.138   0.647  -3.313  1.00  0.00     0.004 C 
ENDBRANCH  18  19
ENDBRANCH  17  18
ENDBRANCH  16  17
ENDBRANCH  15  16
ENDBRANCH  14  15
ENDBRANCH  13  14
ENDBRANCH   2  13
TORSDOF 15
ENDMDL
MODEL 8
REMARK VINA RESULT:    -5.706      2.338      4.723
REMARK INTER + INTRA:         -13.569
REMARK INTER:                 -10.501
REMARK INTRA:                  -3.068
REMARK UNBOUND:                -2.859
REMARK SMILES CCCCCCCCC=CCCCCCCCC(=O)[O-]
REMARK SMILES IDX 10 1 9 2 11 3 12 4 13 5 14 6 15 7 16 8 17 9 18 10 19 11
REMARK SMILES IDX 20 12 8 13 7 14 6 15 5 16 4 17 3 18 2 19 1 20
REMARK H PARENT
REMARK Flexibility Score: inf
ROOT
ATOM      1  C   UNL     1     -64.724  -2.145   0.763  1.00  0.00    -0.031 C 
ATOM      2  C   UNL     1     -64.218  -3.005  -0.141  1.00  0.00    -0.031 C 
ENDROOT
BRANCH   1   3
ATOM      3  C   UNL     1     -64.053  -0.877   1.231  1.00  0.00     0.027 C 
BRANCH   3   4
ATOM      4  C   UNL     1     -64.504   0.334   0.406  1.00  0.00     0.004 C 
BRANCH   4   5
ATOM      5  C   UNL     1     -63.364   1.352   0.255  1.00  0.00     0.000 C 
BRANCH   5   6
ATOM      6  C   UNL     1     -62.009   0.695  -0.068  1.00  0.00     0.000 C 
BRANCH   6   7
ATOM      7  C   UNL     1     -61.145   1.455  -1.092  1.00  0.00     0.000 C 
BRANCH   7   8
ATOM      8  C   UNL     1     -59.796   0.769  -1.364  1.00  0.00     0.006 C 
BRANCH   8   9
ATOM      9  C   UNL     1     -59.916  -0.760  -1.371  1.00  0.00     0.053 C 
BRANCH   9  10
ATOM     10  C   UNL     1     -58.603  -1.423  -1.654  1.00  0.00     0.041 C 
ATOM     11  O   UNL     1     -58.435  -2.065  -2.723  1.00  0.00    -0.550 OA
ATOM     12  O   UNL     1     -57.564  -1.330  -0.735  1.00  0.00    -0.550 OA
ENDBRANCH   9  10
ENDBRANCH   8   9
ENDBRANCH   7   8
ENDBRANCH   6   7
ENDBRANCH   5   6
ENDBRANCH   4   5
ENDBRANCH   3   4
ENDBRANCH   1   3
BRANCH   2  13
ATOM     13  C   UNL     1     -62.898  -2.846  -0.860  1.00  0.00     0.027 C 
BRANCH  13  14
ATOM     14  C   UNL     1     -63.083  -2.643  -2.372  1.00  0.00     0.004 C 
BRANCH  14  15
ATOM     15  C   UNL     1     -63.326  -1.184  -2.813  1.00  0.00     0.000 C 
BRANCH  15  16
ATOM     16  C   UNL     1     -64.804  -0.775  -2.947  1.00  0.00     0.000 C 
BRANCH  16  17
ATOM     17  C   UNL     1     -64.989   0.729  -3.219  1.00  0.00    -0.000 C 
BRANCH  17  18
ATOM     18  C   UNL     1     -63.742   1.364  -3.876  1.00  0.00    -0.000 C 
BRANCH  18  19
ATOM     19  C   UNL     1     -63.543   2.848  -3.522  1.00  0.00    -0.003 C 
ATOM     20  C   UNL     1     -64.542   3.358  -2.485  1.00  0.00     0.004 C 
ENDBRANCH  18  19
ENDBRANCH  17  18
ENDBRANCH  16  17
ENDBRANCH  15  16
ENDBRANCH  14  15
ENDBRANCH  13  14
ENDBRANCH   2  13
TORSDOF 15
ENDMDL
MODEL 9
REMARK VINA RESULT:    -5.673      1.623      3.081
REMARK INTER + INTRA:         -13.506
REMARK INTER:                 -10.576
REMARK INTRA:                  -2.930
REMARK UNBOUND:                -2.859
REMARK SMILES CCCCCCCCC=CCCCCCCCC(=O)[O-]
REMARK SMILES IDX 10 1 9 2 11 3 12 4 13 5 14 6 15 7 16 8 17 9 18 10 19 11
REMARK SMILES IDX 20 12 8 13 7 14 6 15 5 16 4 17 3 18 2 19 1 20
REMARK H PARENT
REMARK Flexibility Score: inf
ROOT
ATOM      1  C   UNL     1     -65.474   0.006  -2.758  1.00  0.00    -0.031 C 
ATOM      2  C   UNL     1     -65.679  -0.108  -1.431  1.00  0.00    -0.031 C 
ENDROOT
BRANCH   1   3
ATOM      3  C   UNL     1     -64.317   0.728  -3.402  1.00  0.00     0.027 C 
BRANCH   3   4
ATOM      4  C   UNL     1     -64.633   2.213  -3.618  1.00  0.00     0.004 C 
BRANCH   4   5
ATOM      5  C   UNL     1     -63.524   3.102  -3.036  1.00  0.00     0.000 C 
BRANCH   5   6
ATOM      6  C   UNL     1     -62.257   2.313  -2.658  1.00  0.00     0.000 C 
BRANCH   6   7
ATOM      7  C   UNL     1     -61.822   2.447  -1.187  1.00  0.00     0.000 C 
BRANCH   7   8
ATOM      8  C   UNL     1     -61.315   1.124  -0.589  1.00  0.00     0.006 C 
BRANCH   8   9
ATOM      9  C   UNL     1     -60.072   0.599  -1.318  1.00  0.00     0.053 C 
BRANCH   9  10
ATOM     10  C   UNL     1     -58.858   1.424  -1.017  1.00  0.00     0.041 C 
ATOM     11  O   UNL     1     -58.734   1.983   0.104  1.00  0.00    -0.550 OA
ATOM     12  O   UNL     1     -57.864   1.573  -1.976  1.00  0.00    -0.550 OA
ENDBRANCH   9  10
ENDBRANCH   8   9
ENDBRANCH   7   8
ENDBRANCH   6   7
ENDBRANCH   5   6
ENDBRANCH   4   5
ENDBRANCH   3   4
ENDBRANCH   1   3
BRANCH   2  13
ATOM     13  C   UNL     1     -64.779   0.452  -0.353  1.00  0.00     0.027 C 
BRANCH  13  14
ATOM     14  C   UNL     1     -64.482  -0.581   0.746  1.00  0.00     0.004 C 
BRANCH  14  15
ATOM     15  C   UNL     1     -65.065  -1.988   0.499  1.00  0.00     0.000 C 
BRANCH  15  16
ATOM     16  C   UNL     1     -64.047  -3.051   0.046  1.00  0.00     0.000 C 
BRANCH  16  17
ATOM     17  C   UNL     1     -62.587  -2.581   0.184  1.00  0.00    -0.000 C 
BRANCH  17  18
ATOM     18  C   UNL     1     -61.826  -2.624  -1.161  1.00  0.00    -0.000 C 
BRANCH  18  19
ATOM     19  C   UNL     1     -62.731  -2.436  -2.392  1.00  0.00    -0.003 C 
ATOM     20  C   UNL     1     -61.953  -2.094  -3.661  1.00  0.00     0.004 C 
ENDBRANCH  18  19
ENDBRANCH  17  18
ENDBRANCH  16  17
ENDBRANCH  15  16
ENDBRANCH  14  15
ENDBRANCH  13  14
ENDBRANCH   2  13
TORSDOF 15
ENDMDL
