MODEL 1
REMARK VINA RESULT:    -4.765      0.000      0.000
REMARK INTER + INTRA:          -7.154
REMARK INTER:                  -6.994
REMARK INTRA:                  -0.160
REMARK UNBOUND:                -0.160
REMARK SMILES O=C([O-])CCCCCCCC(=O)[O-]
REMARK SMILES IDX 7 1 6 2 5 3 4 4 2 5 1 6 3 7 8 8 9 9 10 10 11 11 12 12 13 13
REMARK H PARENT
REMARK Flexibility Score: inf
ROOT
ATOM      1  C   UNL     1      49.343 -41.434  -3.159  1.00  0.00     0.000 C 
ENDROOT
BRANCH   1   2
ATOM      2  C   UNL     1      50.799 -41.868  -3.410  1.00  0.00     0.000 C 
BRANCH   2   3
ATOM      3  C   UNL     1      51.810 -41.025  -2.616  1.00  0.00     0.006 C 
BRANCH   3   4
ATOM      4  C   UNL     1      52.851 -41.885  -1.888  1.00  0.00     0.053 C 
BRANCH   4   5
ATOM      5  C   UNL     1      54.179 -41.197  -1.874  1.00  0.00     0.041 C 
ATOM      6  O   UNL     1      55.239 -41.867  -1.755  1.00  0.00    -0.550 OA
ATOM      7  O   UNL     1      54.245 -39.811  -1.942  1.00  0.00    -0.550 OA
ENDBRANCH   4   5
ENDBRANCH   3   4
ENDBRANCH   2   3
ENDBRANCH   1   2
BRANCH   1   8
ATOM      8  C   UNL     1      48.591 -41.108  -4.459  1.00  0.00     0.000 C 
BRANCH   8   9
ATOM      9  C   UNL     1      47.581 -39.961  -4.285  1.00  0.00     0.006 C 
BRANCH   9  10
ATOM     10  C   UNL     1      46.239 -40.450  -3.725  1.00  0.00     0.053 C 
BRANCH  10  11
ATOM     11  C   UNL     1      45.295 -39.316  -3.466  1.00  0.00     0.041 C 
ATOM     12  O   UNL     1      44.431 -39.002  -4.326  1.00  0.00    -0.550 OA
ATOM     13  O   UNL     1      45.390 -38.587  -2.287  1.00  0.00    -0.550 OA
ENDBRANCH  10  11
ENDBRANCH   9  10
ENDBRANCH   8   9
ENDBRANCH   1   8
TORSDOF 8
ENDMDL
MODEL 2
REMARK VINA RESULT:    -4.750      0.756      7.451
REMARK INTER + INTRA:          -7.131
REMARK INTER:                  -6.891
REMARK INTRA:                  -0.240
REMARK UNBOUND:                -0.160
REMARK SMILES O=C([O-])CCCCCCCC(=O)[O-]
REMARK SMILES IDX 7 1 6 2 5 3 4 4 2 5 1 6 3 7 8 8 9 9 10 10 11 11 12 12 13 13
REMARK H PARENT
REMARK Flexibility Score: inf
ROOT
ATOM      1  C   UNL     1      49.273 -41.158  -3.189  1.00  0.00     0.000 C 
ENDROOT
BRANCH   1   2
ATOM      2  C   UNL     1      48.738 -40.435  -4.439  1.00  0.00     0.000 C 
BRANCH   2   3
ATOM      3  C   UNL     1      47.213 -40.240  -4.399  1.00  0.00     0.006 C 
BRANCH   3   4
ATOM      4  C   UNL     1      46.617 -40.537  -3.017  1.00  0.00     0.053 C 
BRANCH   4   5
ATOM      5  C   UNL     1      45.571 -39.525  -2.672  1.00  0.00     0.041 C 
ATOM      6  O   UNL     1      45.867 -38.303  -2.610  1.00  0.00    -0.550 OA
ATOM      7  O   UNL     1      44.280 -39.936  -2.368  1.00  0.00    -0.550 OA
ENDBRANCH   4   5
ENDBRANCH   3   4
ENDBRANCH   2   3
ENDBRANCH   1   2
BRANCH   1   8
ATOM      8  C   UNL     1      50.688 -41.721  -3.393  1.00  0.00     0.000 C 
BRANCH   8   9
ATOM      9  C   UNL     1      51.766 -40.885  -2.680  1.00  0.00     0.006 C 
BRANCH   9  10
ATOM     10  C   UNL     1      52.759 -41.760  -1.905  1.00  0.00     0.053 C 
BRANCH  10  11
ATOM     11  C   UNL     1      54.134 -41.166  -1.892  1.00  0.00     0.041 C 
ATOM     12  O   UNL     1      55.144 -41.907  -1.756  1.00  0.00    -0.550 OA
ATOM     13  O   UNL     1      54.299 -39.791  -2.003  1.00  0.00    -0.550 OA
ENDBRANCH  10  11
ENDBRANCH   9  10
ENDBRANCH   8   9
ENDBRANCH   1   8
TORSDOF 8
ENDMDL
MODEL 3
REMARK VINA RESULT:    -4.623      1.141      1.707
REMARK INTER + INTRA:          -6.945
REMARK INTER:                  -6.619
REMARK INTRA:                  -0.326
REMARK UNBOUND:                -0.160
REMARK SMILES O=C([O-])CCCCCCCC(=O)[O-]
REMARK SMILES IDX 7 1 6 2 5 3 4 4 2 5 1 6 3 7 8 8 9 9 10 10 11 11 12 12 13 13
REMARK H PARENT
REMARK Flexibility Score: inf
ROOT
ATOM      1  C   UNL     1      49.034 -40.808  -4.809  1.00  0.00     0.000 C 
ENDROOT
BRANCH   1   2
ATOM      2  C   UNL     1      49.307 -41.779  -3.646  1.00  0.00     0.000 C 
BRANCH   2   3
ATOM      3  C   UNL     1      50.808 -41.948  -3.358  1.00  0.00     0.006 C 
BRANCH   3   4
ATOM      4  C   UNL     1      51.433 -40.692  -2.739  1.00  0.00     0.053 C 
BRANCH   4   5
ATOM      5  C   UNL     1      52.805 -40.992  -2.223  1.00  0.00     0.041 C 
ATOM      6  O   UNL     1      53.066 -42.123  -1.735  1.00  0.00    -0.550 OA
ATOM      7  O   UNL     1      53.783 -40.006  -2.236  1.00  0.00    -0.550 OA
ENDBRANCH   4   5
ENDBRANCH   3   4
ENDBRANCH   2   3
ENDBRANCH   1   2
BRANCH   1   8
ATOM      8  C   UNL     1      47.687 -40.082  -4.670  1.00  0.00     0.000 C 
BRANCH   8   9
ATOM      9  C   UNL     1      46.986 -40.386  -3.334  1.00  0.00     0.006 C 
BRANCH   9  10
ATOM     10  C   UNL     1      45.461 -40.257  -3.437  1.00  0.00     0.053 C 
BRANCH  10  11
ATOM     11  C   UNL     1      44.866 -39.664  -2.196  1.00  0.00     0.041 C 
ATOM     12  O   UNL     1      44.653 -40.388  -1.188  1.00  0.00    -0.550 OA
ATOM     13  O   UNL     1      44.521 -38.319  -2.164  1.00  0.00    -0.550 OA
ENDBRANCH  10  11
ENDBRANCH   9  10
ENDBRANCH   8   9
ENDBRANCH   1   8
TORSDOF 8
ENDMDL
MODEL 4
REMARK VINA RESULT:    -4.515      2.187      2.772
REMARK INTER + INTRA:          -6.787
REMARK INTER:                  -6.317
REMARK INTRA:                  -0.469
REMARK UNBOUND:                -0.160
REMARK SMILES O=C([O-])CCCCCCCC(=O)[O-]
REMARK SMILES IDX 7 1 6 2 5 3 4 4 2 5 1 6 3 7 8 8 9 9 10 10 11 11 12 12 13 13
REMARK H PARENT
REMARK Flexibility Score: inf
ROOT
ATOM      1  C   UNL     1      49.808 -41.133  -4.404  1.00  0.00     0.000 C 
ENDROOT
BRANCH   1   2
ATOM      2  C   UNL     1      50.698 -41.811  -3.347  1.00  0.00     0.000 C 
BRANCH   2   3
ATOM      3  C   UNL     1      51.824 -40.893  -2.846  1.00  0.00     0.006 C 
BRANCH   3   4
ATOM      4  C   UNL     1      52.698 -41.562  -1.778  1.00  0.00     0.053 C 
BRANCH   4   5
ATOM      5  C   UNL     1      54.084 -40.999  -1.810  1.00  0.00     0.041 C 
ATOM      6  O   UNL     1      55.081 -41.768  -1.818  1.00  0.00    -0.550 OA
ATOM      7  O   UNL     1      54.276 -39.623  -1.780  1.00  0.00    -0.550 OA
ENDBRANCH   4   5
ENDBRANCH   3   4
ENDBRANCH   2   3
ENDBRANCH   1   2
BRANCH   1   8
ATOM      8  C   UNL     1      48.358 -40.954  -3.930  1.00  0.00     0.000 C 
BRANCH   8   9
ATOM      9  C   UNL     1      48.113 -39.583  -3.276  1.00  0.00     0.006 C 
BRANCH   9  10
ATOM     10  C   UNL     1      48.888 -38.461  -3.977  1.00  0.00     0.053 C 
BRANCH  10  11
ATOM     11  C   UNL     1      49.620 -37.593  -2.999  1.00  0.00     0.041 C 
ATOM     12  O   UNL     1      48.980 -36.866  -2.194  1.00  0.00    -0.550 OA
ATOM     13  O   UNL     1      51.009 -37.567  -2.996  1.00  0.00    -0.550 OA
ENDBRANCH  10  11
ENDBRANCH   9  10
ENDBRANCH   8   9
ENDBRANCH   1   8
TORSDOF 8
ENDMDL
MODEL 5
REMARK VINA RESULT:    -4.393     13.183     14.327
REMARK INTER + INTRA:          -6.608
REMARK INTER:                  -6.082
REMARK INTRA:                  -0.526
REMARK UNBOUND:                -0.160
REMARK SMILES O=C([O-])CCCCCCCC(=O)[O-]
REMARK SMILES IDX 7 1 6 2 5 3 4 4 2 5 1 6 3 7 8 8 9 9 10 10 11 11 12 12 13 13
REMARK H PARENT
REMARK Flexibility Score: inf
ROOT
ATOM      1  C   UNL     1      50.978 -37.741   8.122  1.00  0.00     0.000 C 
ENDROOT
BRANCH   1   2
ATOM      2  C   UNL     1      50.451 -39.160   7.848  1.00  0.00     0.000 C 
BRANCH   2   3
ATOM      3  C   UNL     1      49.268 -39.535   8.755  1.00  0.00     0.006 C 
BRANCH   3   4
ATOM      4  C   UNL     1      49.547 -40.785   9.599  1.00  0.00     0.053 C 
BRANCH   4   5
ATOM      5  C   UNL     1      49.187 -40.541  11.030  1.00  0.00     0.041 C 
ATOM      6  O   UNL     1      49.640 -39.533  11.635  1.00  0.00    -0.550 OA
ATOM      7  O   UNL     1      48.391 -41.452  11.712  1.00  0.00    -0.550 OA
ENDBRANCH   4   5
ENDBRANCH   3   4
ENDBRANCH   2   3
ENDBRANCH   1   2
BRANCH   1   8
ATOM      8  C   UNL     1      51.745 -37.641   9.450  1.00  0.00     0.000 C 
BRANCH   8   9
ATOM      9  C   UNL     1      51.136 -36.603  10.408  1.00  0.00     0.006 C 
BRANCH   9  10
ATOM     10  C   UNL     1      50.751 -35.304   9.687  1.00  0.00     0.053 C 
BRANCH  10  11
ATOM     11  C   UNL     1      50.923 -34.105  10.568  1.00  0.00     0.041 C 
ATOM     12  O   UNL     1      49.943 -33.352  10.812  1.00  0.00    -0.550 OA
ATOM     13  O   UNL     1      52.172 -33.802  11.094  1.00  0.00    -0.550 OA
ENDBRANCH  10  11
ENDBRANCH   9  10
ENDBRANCH   8   9
ENDBRANCH   1   8
TORSDOF 8
ENDMDL
MODEL 6
REMARK VINA RESULT:    -4.346     12.982     13.941
REMARK INTER + INTRA:          -6.538
REMARK INTER:                  -5.843
REMARK INTRA:                  -0.695
REMARK UNBOUND:                -0.160
REMARK SMILES O=C([O-])CCCCCCCC(=O)[O-]
REMARK SMILES IDX 7 1 6 2 5 3 4 4 2 5 1 6 3 7 8 8 9 9 10 10 11 11 12 12 13 13
REMARK H PARENT
REMARK Flexibility Score: inf
ROOT
ATOM      1  C   UNL     1      51.728 -37.968   8.949  1.00  0.00     0.000 C 
ENDROOT
BRANCH   1   2
ATOM      2  C   UNL     1      51.237 -37.082  10.108  1.00  0.00     0.000 C 
BRANCH   2   3
ATOM      3  C   UNL     1      50.086 -36.151   9.692  1.00  0.00     0.006 C 
BRANCH   3   4
ATOM      4  C   UNL     1      50.558 -34.718   9.419  1.00  0.00     0.053 C 
BRANCH   4   5
ATOM      5  C   UNL     1      50.824 -34.002  10.705  1.00  0.00     0.041 C 
ATOM      6  O   UNL     1      49.869 -33.530  11.377  1.00  0.00    -0.550 OA
ATOM      7  O   UNL     1      52.130 -33.811  11.137  1.00  0.00    -0.550 OA
ENDBRANCH   4   5
ENDBRANCH   3   4
ENDBRANCH   2   3
ENDBRANCH   1   2
BRANCH   1   8
ATOM      8  C   UNL     1      50.627 -38.255   7.916  1.00  0.00     0.000 C 
BRANCH   8   9
ATOM      9  C   UNL     1      50.178 -39.727   7.923  1.00  0.00     0.006 C 
BRANCH   9  10
ATOM     10  C   UNL     1      48.748 -39.893   8.454  1.00  0.00     0.053 C 
BRANCH  10  11
ATOM     11  C   UNL     1      48.690 -39.776   9.946  1.00  0.00     0.041 C 
ATOM     12  O   UNL     1      47.939 -38.921  10.486  1.00  0.00    -0.550 OA
ATOM     13  O   UNL     1      49.486 -40.592  10.740  1.00  0.00    -0.550 OA
ENDBRANCH  10  11
ENDBRANCH   9  10
ENDBRANCH   8   9
ENDBRANCH   1   8
TORSDOF 8
ENDMDL
MODEL 7
REMARK VINA RESULT:    -4.332      1.787      6.596
REMARK INTER + INTRA:          -6.519
REMARK INTER:                  -5.980
REMARK INTRA:                  -0.539
REMARK UNBOUND:                -0.160
REMARK SMILES O=C([O-])CCCCCCCC(=O)[O-]
REMARK SMILES IDX 7 1 6 2 5 3 4 4 2 5 1 6 3 7 8 8 9 9 10 10 11 11 12 12 13 13
REMARK H PARENT
REMARK Flexibility Score: inf
ROOT
ATOM      1  C   UNL     1      48.329 -39.791  -4.389  1.00  0.00     0.000 C 
ENDROOT
BRANCH   1   2
ATOM      2  C   UNL     1      46.802 -39.865  -4.567  1.00  0.00     0.000 C 
BRANCH   2   3
ATOM      3  C   UNL     1      46.041 -39.535  -3.273  1.00  0.00     0.006 C 
BRANCH   3   4
ATOM      4  C   UNL     1      46.579 -40.305  -2.061  1.00  0.00     0.053 C 
BRANCH   4   5
ATOM      5  C   UNL     1      45.660 -40.146  -0.891  1.00  0.00     0.041 C 
ATOM      6  O   UNL     1      45.762 -40.911   0.104  1.00  0.00    -0.550 OA
ATOM      7  O   UNL     1      44.657 -39.185  -0.920  1.00  0.00    -0.550 OA
ENDBRANCH   4   5
ENDBRANCH   3   4
ENDBRANCH   2   3
ENDBRANCH   1   2
BRANCH   1   8
ATOM      8  C   UNL     1      49.051 -41.026  -4.952  1.00  0.00     0.000 C 
BRANCH   8   9
ATOM      9  C   UNL     1      49.735 -41.861  -3.856  1.00  0.00     0.006 C 
BRANCH   9  10
ATOM     10  C   UNL     1      50.262 -40.990  -2.708  1.00  0.00     0.053 C 
BRANCH  10  11
ATOM     11  C   UNL     1      51.759 -40.934  -2.691  1.00  0.00     0.041 C 
ATOM     12  O   UNL     1      52.427 -41.952  -2.369  1.00  0.00    -0.550 OA
ATOM     13  O   UNL     1      52.415 -39.750  -3.003  1.00  0.00    -0.550 OA
ENDBRANCH  10  11
ENDBRANCH   9  10
ENDBRANCH   8   9
ENDBRANCH   1   8
TORSDOF 8
ENDMDL
MODEL 8
REMARK VINA RESULT:    -4.317     12.533     13.552
REMARK INTER + INTRA:          -6.496
REMARK INTER:                  -5.748
REMARK INTRA:                  -0.748
REMARK UNBOUND:                -0.160
REMARK SMILES O=C([O-])CCCCCCCC(=O)[O-]
REMARK SMILES IDX 7 1 6 2 5 3 4 4 2 5 1 6 3 7 8 8 9 9 10 10 11 11 12 12 13 13
REMARK H PARENT
REMARK Flexibility Score: inf
ROOT
ATOM      1  C   UNL     1      48.387 -38.753  11.140  1.00  0.00     0.000 C 
ENDROOT
BRANCH   1   2
ATOM      2  C   UNL     1      49.808 -38.265  11.473  1.00  0.00     0.000 C 
BRANCH   2   3
ATOM      3  C   UNL     1      50.000 -36.767  11.183  1.00  0.00     0.006 C 
BRANCH   3   4
ATOM      4  C   UNL     1      51.144 -36.500  10.199  1.00  0.00     0.053 C 
BRANCH   4   5
ATOM      5  C   UNL     1      50.843 -35.297   9.361  1.00  0.00     0.041 C 
ATOM      6  O   UNL     1      50.872 -34.147   9.871  1.00  0.00    -0.550 OA
ATOM      7  O   UNL     1      50.481 -35.451   8.029  1.00  0.00    -0.550 OA
ENDBRANCH   4   5
ENDBRANCH   3   4
ENDBRANCH   2   3
ENDBRANCH   1   2
BRANCH   1   8
ATOM      8  C   UNL     1      48.359 -40.215  10.666  1.00  0.00     0.000 C 
BRANCH   8   9
ATOM      9  C   UNL     1      49.623 -40.606   9.880  1.00  0.00     0.006 C 
BRANCH   9  10
ATOM     10  C   UNL     1      49.405 -40.537   8.363  1.00  0.00     0.053 C 
BRANCH  10  11
ATOM     11  C   UNL     1      49.757 -39.190   7.809  1.00  0.00     0.041 C 
ATOM     12  O   UNL     1      50.959 -38.898   7.570  1.00  0.00    -0.550 OA
ATOM     13  O   UNL     1      48.762 -38.247   7.585  1.00  0.00    -0.550 OA
ENDBRANCH  10  11
ENDBRANCH   9  10
ENDBRANCH   8   9
ENDBRANCH   1   8
TORSDOF 8
ENDMDL
MODEL 9
REMARK VINA RESULT:    -4.299     13.455     14.455
REMARK INTER + INTRA:          -6.470
REMARK INTER:                  -6.126
REMARK INTRA:                  -0.343
REMARK UNBOUND:                -0.160
REMARK SMILES O=C([O-])CCCCCCCC(=O)[O-]
REMARK SMILES IDX 7 1 6 2 5 3 4 4 2 5 1 6 3 7 8 8 9 9 10 10 11 11 12 12 13 13
REMARK H PARENT
REMARK Flexibility Score: inf
ROOT
ATOM      1  C   UNL     1      51.364 -36.938   9.633  1.00  0.00     0.000 C 
ENDROOT
BRANCH   1   2
ATOM      2  C   UNL     1      50.503 -35.720   9.256  1.00  0.00     0.000 C 
BRANCH   2   3
ATOM      3  C   UNL     1      50.965 -34.432   9.957  1.00  0.00     0.006 C 
BRANCH   3   4
ATOM      4  C   UNL     1      49.862 -33.800  10.815  1.00  0.00     0.053 C 
BRANCH   4   5
ATOM      5  C   UNL     1      50.256 -33.805  12.258  1.00  0.00     0.041 C 
ATOM      6  O   UNL     1      49.484 -34.293  13.125  1.00  0.00    -0.550 OA
ATOM      7  O   UNL     1      51.454 -33.224  12.654  1.00  0.00    -0.550 OA
ENDBRANCH   4   5
ENDBRANCH   3   4
ENDBRANCH   2   3
ENDBRANCH   1   2
BRANCH   1   8
ATOM      8  C   UNL     1      51.405 -38.000   8.522  1.00  0.00     0.000 C 
BRANCH   8   9
ATOM      9  C   UNL     1      50.031 -38.224   7.866  1.00  0.00     0.006 C 
BRANCH   9  10
ATOM     10  C   UNL     1      49.081 -39.018   8.771  1.00  0.00     0.053 C 
BRANCH  10  11
ATOM     11  C   UNL     1      49.506 -40.448   8.908  1.00  0.00     0.041 C 
ATOM     12  O   UNL     1      49.542 -40.993  10.043  1.00  0.00    -0.550 OA
ATOM     13  O   UNL     1      49.889 -41.171   7.785  1.00  0.00    -0.550 OA
ENDBRANCH  10  11
ENDBRANCH   9  10
ENDBRANCH   8   9
ENDBRANCH   1   8
TORSDOF 8
ENDMDL
