MODEL 1
REMARK VINA RESULT:    -3.382      0.000      0.000
REMARK INTER + INTRA:          -4.005
REMARK INTER:                  -3.975
REMARK INTRA:                  -0.030
REMARK UNBOUND:                -0.030
REMARK SMILES CCCCC(=O)[O-]
REMARK SMILES IDX 4 1 5 2 6 3 7 4 3 5 2 6 1 7
REMARK H PARENT
REMARK Flexibility Score: inf
ROOT
ATOM      1  C   UNL     1      13.326 -29.737  23.592  1.00  0.00     0.053 C 
ENDROOT
BRANCH   1   2
ATOM      2  C   UNL     1      13.383 -31.165  23.141  1.00  0.00     0.041 C 
ATOM      3  O   UNL     1      13.312 -31.444  21.914  1.00  0.00    -0.550 OA
ATOM      4  O   UNL     1      13.548 -32.183  24.070  1.00  0.00    -0.550 OA
ENDBRANCH   1   2
BRANCH   1   5
ATOM      5  C   UNL     1      12.101 -29.009  23.021  1.00  0.00     0.006 C 
BRANCH   5   6
ATOM      6  C   UNL     1      11.561 -27.940  23.983  1.00  0.00    -0.003 C 
ATOM      7  C   UNL     1      12.679 -27.357  24.841  1.00  0.00     0.004 C 
ENDBRANCH   5   6
ENDBRANCH   1   5
TORSDOF 3
ENDMDL
MODEL 2
REMARK VINA RESULT:    -3.367      1.666      2.047
REMARK INTER + INTRA:          -3.987
REMARK INTER:                  -3.878
REMARK INTRA:                  -0.109
REMARK UNBOUND:                -0.030
REMARK SMILES CCCCC(=O)[O-]
REMARK SMILES IDX 4 1 5 2 6 3 7 4 3 5 2 6 1 7
REMARK H PARENT
REMARK Flexibility Score: inf
ROOT
ATOM      1  C   UNL     1      13.095 -30.420  22.940  1.00  0.00     0.053 C 
ENDROOT
BRANCH   1   2
ATOM      2  C   UNL     1      12.249 -30.668  21.729  1.00  0.00     0.041 C 
ATOM      3  O   UNL     1      11.086 -30.188  21.659  1.00  0.00    -0.550 OA
ATOM      4  O   UNL     1      12.755 -31.401  20.664  1.00  0.00    -0.550 OA
ENDBRANCH   1   2
BRANCH   1   5
ATOM      5  C   UNL     1      13.385 -28.925  23.135  1.00  0.00     0.006 C 
BRANCH   5   6
ATOM      6  C   UNL     1      12.620 -28.335  24.329  1.00  0.00    -0.003 C 
ATOM      7  C   UNL     1      11.492 -27.421  23.861  1.00  0.00     0.004 C 
ENDBRANCH   5   6
ENDBRANCH   1   5
TORSDOF 3
ENDMDL
MODEL 3
REMARK VINA RESULT:    -3.352      2.827      3.760
REMARK INTER + INTRA:          -3.969
REMARK INTER:                  -3.871
REMARK INTRA:                  -0.098
REMARK UNBOUND:                -0.030
REMARK SMILES CCCCC(=O)[O-]
REMARK SMILES IDX 4 1 5 2 6 3 7 4 3 5 2 6 1 7
REMARK H PARENT
REMARK Flexibility Score: inf
ROOT
ATOM      1  C   UNL     1      13.375 -28.783  23.268  1.00  0.00     0.053 C 
ENDROOT
BRANCH   1   2
ATOM      2  C   UNL     1      12.361 -28.064  24.103  1.00  0.00     0.041 C 
ATOM      3  O   UNL     1      11.134 -28.171  23.842  1.00  0.00    -0.550 OA
ATOM      4  O   UNL     1      12.768 -27.301  25.189  1.00  0.00    -0.550 OA
ENDBRANCH   1   2
BRANCH   1   5
ATOM      5  C   UNL     1      13.039 -30.274  23.122  1.00  0.00     0.006 C 
BRANCH   5   6
ATOM      6  C   UNL     1      12.778 -30.671  21.662  1.00  0.00    -0.003 C 
ATOM      7  C   UNL     1      11.294 -30.576  21.323  1.00  0.00     0.004 C 
ENDBRANCH   5   6
ENDBRANCH   1   5
TORSDOF 3
ENDMDL
MODEL 4
REMARK VINA RESULT:    -3.339      1.747      2.046
REMARK INTER + INTRA:          -3.955
REMARK INTER:                  -3.851
REMARK INTRA:                  -0.104
REMARK UNBOUND:                -0.030
REMARK SMILES CCCCC(=O)[O-]
REMARK SMILES IDX 4 1 5 2 6 3 7 4 3 5 2 6 1 7
REMARK H PARENT
REMARK Flexibility Score: inf
ROOT
ATOM      1  C   UNL     1      13.721 -30.233  22.250  1.00  0.00     0.053 C 
ENDROOT
BRANCH   1   2
ATOM      2  C   UNL     1      12.698 -30.862  21.355  1.00  0.00     0.041 C 
ATOM      3  O   UNL     1      13.048 -31.707  20.488  1.00  0.00    -0.550 OA
ATOM      4  O   UNL     1      11.355 -30.540  21.497  1.00  0.00    -0.550 OA
ENDBRANCH   1   2
BRANCH   1   5
ATOM      5  C   UNL     1      13.143 -29.908  23.634  1.00  0.00     0.006 C 
BRANCH   5   6
ATOM      6  C   UNL     1      13.006 -28.396  23.866  1.00  0.00    -0.003 C 
ATOM      7  C   UNL     1      11.539 -27.985  23.956  1.00  0.00     0.004 C 
ENDBRANCH   5   6
ENDBRANCH   1   5
TORSDOF 3
ENDMDL
MODEL 5
REMARK VINA RESULT:    -3.313      2.774      3.849
REMARK INTER + INTRA:          -3.924
REMARK INTER:                  -3.835
REMARK INTRA:                  -0.089
REMARK UNBOUND:                -0.030
REMARK SMILES CCCCC(=O)[O-]
REMARK SMILES IDX 4 1 5 2 6 3 7 4 3 5 2 6 1 7
REMARK H PARENT
REMARK Flexibility Score: inf
ROOT
ATOM      1  C   UNL     1      13.452 -28.838  23.294  1.00  0.00     0.053 C 
ENDROOT
BRANCH   1   2
ATOM      2  C   UNL     1      12.431 -28.088  24.093  1.00  0.00     0.041 C 
ATOM      3  O   UNL     1      12.779 -27.438  25.114  1.00  0.00    -0.550 OA
ATOM      4  O   UNL     1      11.101 -28.082  23.694  1.00  0.00    -0.550 OA
ENDBRANCH   1   2
BRANCH   1   5
ATOM      5  C   UNL     1      13.121 -30.334  23.208  1.00  0.00     0.006 C 
BRANCH   5   6
ATOM      6  C   UNL     1      12.894 -30.797  21.761  1.00  0.00    -0.003 C 
ATOM      7  C   UNL     1      11.442 -30.592  21.340  1.00  0.00     0.004 C 
ENDBRANCH   5   6
ENDBRANCH   1   5
TORSDOF 3
ENDMDL
MODEL 6
REMARK VINA RESULT:    -3.262      8.678      9.639
REMARK INTER + INTRA:          -3.864
REMARK INTER:                  -3.799
REMARK INTRA:                  -0.066
REMARK UNBOUND:                -0.030
REMARK SMILES CCCCC(=O)[O-]
REMARK SMILES IDX 4 1 5 2 6 3 7 4 3 5 2 6 1 7
REMARK H PARENT
REMARK Flexibility Score: inf
ROOT
ATOM      1  C   UNL     1      17.643 -37.779  26.732  1.00  0.00     0.053 C 
ENDROOT
BRANCH   1   2
ATOM      2  C   UNL     1      17.890 -36.505  25.983  1.00  0.00     0.041 C 
ATOM      3  O   UNL     1      19.053 -36.214  25.595  1.00  0.00    -0.550 OA
ATOM      4  O   UNL     1      16.833 -35.656  25.685  1.00  0.00    -0.550 OA
ENDBRANCH   1   2
BRANCH   1   5
ATOM      5  C   UNL     1      16.150 -37.986  27.025  1.00  0.00     0.006 C 
BRANCH   5   6
ATOM      6  C   UNL     1      15.867 -38.124  28.528  1.00  0.00    -0.003 C 
ATOM      7  C   UNL     1      17.116 -37.828  29.352  1.00  0.00     0.004 C 
ENDBRANCH   5   6
ENDBRANCH   1   5
TORSDOF 3
ENDMDL
MODEL 7
REMARK VINA RESULT:    -3.261     10.718     11.243
REMARK INTER + INTRA:          -3.863
REMARK INTER:                  -3.776
REMARK INTRA:                  -0.087
REMARK UNBOUND:                -0.030
REMARK SMILES CCCCC(=O)[O-]
REMARK SMILES IDX 4 1 5 2 6 3 7 4 3 5 2 6 1 7
REMARK H PARENT
REMARK Flexibility Score: inf
ROOT
ATOM      1  C   UNL     1      22.079 -24.971  20.553  1.00  0.00     0.053 C 
ENDROOT
BRANCH   1   2
ATOM      2  C   UNL     1      23.119 -24.598  19.541  1.00  0.00     0.041 C 
ATOM      3  O   UNL     1      23.232 -25.261  18.475  1.00  0.00    -0.550 OA
ATOM      4  O   UNL     1      23.942 -23.501  19.759  1.00  0.00    -0.550 OA
ENDBRANCH   1   2
BRANCH   1   5
ATOM      5  C   UNL     1      20.769 -25.413  19.887  1.00  0.00     0.006 C 
BRANCH   5   6
ATOM      6  C   UNL     1      20.166 -26.655  20.560  1.00  0.00    -0.003 C 
ATOM      7  C   UNL     1      21.227 -27.727  20.786  1.00  0.00     0.004 C 
ENDBRANCH   5   6
ENDBRANCH   1   5
TORSDOF 3
ENDMDL
MODEL 8
REMARK VINA RESULT:    -3.225     10.897     11.414
REMARK INTER + INTRA:          -3.820
REMARK INTER:                  -3.772
REMARK INTRA:                  -0.048
REMARK UNBOUND:                -0.030
REMARK SMILES CCCCC(=O)[O-]
REMARK SMILES IDX 4 1 5 2 6 3 7 4 3 5 2 6 1 7
REMARK H PARENT
REMARK Flexibility Score: inf
ROOT
ATOM      1  C   UNL     1      22.507 -25.008  19.495  1.00  0.00     0.053 C 
ENDROOT
BRANCH   1   2
ATOM      2  C   UNL     1      23.272 -24.059  20.365  1.00  0.00     0.041 C 
ATOM      3  O   UNL     1      22.982 -23.946  21.586  1.00  0.00    -0.550 OA
ATOM      4  O   UNL     1      24.324 -23.324  19.837  1.00  0.00    -0.550 OA
ENDBRANCH   1   2
BRANCH   1   5
ATOM      5  C   UNL     1      21.759 -26.063  20.322  1.00  0.00     0.006 C 
BRANCH   5   6
ATOM      6  C   UNL     1      20.238 -25.852  20.294  1.00  0.00    -0.003 C 
ATOM      7  C   UNL     1      19.499 -27.186  20.250  1.00  0.00     0.004 C 
ENDBRANCH   5   6
ENDBRANCH   1   5
TORSDOF 3
ENDMDL
MODEL 9
REMARK VINA RESULT:    -3.164      1.699      2.443
REMARK INTER + INTRA:          -3.749
REMARK INTER:                  -3.714
REMARK INTRA:                  -0.035
REMARK UNBOUND:                -0.030
REMARK SMILES CCCCC(=O)[O-]
REMARK SMILES IDX 4 1 5 2 6 3 7 4 3 5 2 6 1 7
REMARK H PARENT
REMARK Flexibility Score: inf
ROOT
ATOM      1  C   UNL     1      13.371 -30.651  21.260  1.00  0.00     0.053 C 
ENDROOT
BRANCH   1   2
ATOM      2  C   UNL     1      13.876 -32.057  21.374  1.00  0.00     0.041 C 
ATOM      3  O   UNL     1      14.273 -32.499  22.486  1.00  0.00    -0.550 OA
ATOM      4  O   UNL     1      13.880 -32.888  20.263  1.00  0.00    -0.550 OA
ENDBRANCH   1   2
BRANCH   1   5
ATOM      5  C   UNL     1      12.105 -30.432  22.101  1.00  0.00     0.006 C 
BRANCH   5   6
ATOM      6  C   UNL     1      12.186 -29.153  22.948  1.00  0.00    -0.003 C 
ATOM      7  C   UNL     1      10.875 -28.375  22.894  1.00  0.00     0.004 C 
ENDBRANCH   5   6
ENDBRANCH   1   5
TORSDOF 3
ENDMDL
