MODEL 1
REMARK VINA RESULT:    -4.554      0.000      0.000
REMARK INTER + INTRA:          -4.909
REMARK INTER:                  -4.820
REMARK INTRA:                  -0.088
REMARK UNBOUND:                -0.088
REMARK SMILES C=C(C)[C@H]1CC=C(C)C(=O)C1
REMARK SMILES IDX 8 1 7 2 6 3 5 4 4 5 11 6 9 7 10 8 2 9 1 10 3 11
REMARK H PARENT
REMARK Flexibility Score: inf
ROOT
ATOM      1  C   UNL     1      24.783  -4.519  57.503  1.00  0.00     0.048 C 
ATOM      2  C   UNL     1      25.043  -4.432  56.025  1.00  0.00    -0.012 C 
ATOM      3  C   UNL     1      24.397  -3.515  55.285  1.00  0.00    -0.019 C 
ATOM      4  C   UNL     1      24.606  -3.396  53.799  1.00  0.00     0.036 C 
ATOM      5  C   UNL     1      26.050  -3.766  53.410  1.00  0.00     0.025 C 
ATOM      6  C   UNL     1      26.401  -5.169  53.938  1.00  0.00     0.089 C 
ATOM      7  C   UNL     1      26.100  -5.271  55.409  1.00  0.00     0.158 C 
ATOM      8  O   UNL     1      26.734  -6.107  56.108  1.00  0.00    -0.295 OA
ENDROOT
BRANCH   5   9
ATOM      9  C   UNL     1      26.273  -3.659  51.907  1.00  0.00    -0.077 C 
ATOM     10  C   UNL     1      26.954  -2.631  51.372  1.00  0.00     0.008 C 
ATOM     11  C   UNL     1      25.728  -4.720  50.986  1.00  0.00     0.039 C 
ENDBRANCH   5   9
TORSDOF 1
ENDMDL
MODEL 2
REMARK VINA RESULT:    -4.352     10.677     11.695
REMARK INTER + INTRA:          -4.695
REMARK INTER:                  -4.599
REMARK INTRA:                  -0.096
REMARK UNBOUND:                -0.088
REMARK SMILES C=C(C)[C@H]1CC=C(C)C(=O)C1
REMARK SMILES IDX 8 1 7 2 6 3 5 4 4 5 11 6 9 7 10 8 2 9 1 10 3 11
REMARK H PARENT
REMARK Flexibility Score: inf
ROOT
ATOM      1  C   UNL     1      15.242  -0.999  59.844  1.00  0.00     0.048 C 
ATOM      2  C   UNL     1      15.484   0.045  58.790  1.00  0.00    -0.012 C 
ATOM      3  C   UNL     1      14.992   1.285  58.950  1.00  0.00    -0.019 C 
ATOM      4  C   UNL     1      15.189   2.363  57.917  1.00  0.00     0.036 C 
ATOM      5  C   UNL     1      16.540   2.198  57.194  1.00  0.00     0.025 C 
ATOM      6  C   UNL     1      16.653   0.784  56.592  1.00  0.00     0.089 C 
ATOM      7  C   UNL     1      16.368  -0.260  57.637  1.00  0.00     0.158 C 
ATOM      8  O   UNL     1      16.861  -1.413  57.504  1.00  0.00    -0.295 OA
ENDROOT
BRANCH   5   9
ATOM      9  C   UNL     1      16.749   3.276  56.139  1.00  0.00    -0.077 C 
ATOM     10  C   UNL     1      16.075   4.438  56.183  1.00  0.00     0.008 C 
ATOM     11  C   UNL     1      17.729   3.053  55.016  1.00  0.00     0.039 C 
ENDBRANCH   5   9
TORSDOF 1
ENDMDL
MODEL 3
REMARK VINA RESULT:    -4.327      1.782      2.327
REMARK INTER + INTRA:          -4.668
REMARK INTER:                  -4.577
REMARK INTRA:                  -0.092
REMARK UNBOUND:                -0.088
REMARK SMILES C=C(C)[C@H]1CC=C(C)C(=O)C1
REMARK SMILES IDX 8 1 7 2 6 3 5 4 4 5 11 6 9 7 10 8 2 9 1 10 3 11
REMARK H PARENT
REMARK Flexibility Score: inf
ROOT
ATOM      1  C   UNL     1      24.252  -3.824  55.101  1.00  0.00     0.048 C 
ATOM      2  C   UNL     1      25.354  -4.057  54.105  1.00  0.00    -0.012 C 
ATOM      3  C   UNL     1      25.462  -3.261  53.028  1.00  0.00    -0.019 C 
ATOM      4  C   UNL     1      26.535  -3.461  51.990  1.00  0.00     0.036 C 
ATOM      5  C   UNL     1      27.825  -4.014  52.625  1.00  0.00     0.025 C 
ATOM      6  C   UNL     1      27.522  -5.305  53.409  1.00  0.00     0.089 C 
ATOM      7  C   UNL     1      26.390  -5.084  54.375  1.00  0.00     0.158 C 
ATOM      8  O   UNL     1      26.311  -5.809  55.404  1.00  0.00    -0.295 OA
ENDROOT
BRANCH   5   9
ATOM      9  C   UNL     1      28.916  -4.231  51.585  1.00  0.00    -0.077 C 
ATOM     10  C   UNL     1      29.506  -3.195  50.965  1.00  0.00     0.008 C 
ATOM     11  C   UNL     1      29.357  -5.628  51.234  1.00  0.00     0.039 C 
ENDBRANCH   5   9
TORSDOF 1
ENDMDL
MODEL 4
REMARK VINA RESULT:    -4.302      1.371      4.312
REMARK INTER + INTRA:          -4.642
REMARK INTER:                  -4.545
REMARK INTRA:                  -0.097
REMARK UNBOUND:                -0.088
REMARK SMILES C=C(C)[C@H]1CC=C(C)C(=O)C1
REMARK SMILES IDX 8 1 7 2 6 3 5 4 4 5 11 6 9 7 10 8 2 9 1 10 3 11
REMARK H PARENT
REMARK Flexibility Score: inf
ROOT
ATOM      1  C   UNL     1      25.791  -4.336  51.106  1.00  0.00     0.048 C 
ATOM      2  C   UNL     1      25.751  -4.200  52.603  1.00  0.00    -0.012 C 
ATOM      3  C   UNL     1      24.777  -3.479  53.184  1.00  0.00    -0.019 C 
ATOM      4  C   UNL     1      24.701  -3.295  54.676  1.00  0.00     0.036 C 
ATOM      5  C   UNL     1      25.235  -4.536  55.416  1.00  0.00     0.025 C 
ATOM      6  C   UNL     1      26.663  -4.867  54.941  1.00  0.00     0.089 C 
ATOM      7  C   UNL     1      26.712  -4.961  53.440  1.00  0.00     0.158 C 
ATOM      8  O   UNL     1      27.605  -5.667  52.898  1.00  0.00    -0.295 OA
ENDROOT
BRANCH   5   9
ATOM      9  C   UNL     1      25.173  -4.360  56.928  1.00  0.00    -0.077 C 
ATOM     10  C   UNL     1      25.715  -5.266  57.760  1.00  0.00     0.008 C 
ATOM     11  C   UNL     1      24.497  -3.151  57.520  1.00  0.00     0.039 C 
ENDBRANCH   5   9
TORSDOF 1
ENDMDL
MODEL 5
REMARK VINA RESULT:    -4.287      1.549      2.136
REMARK INTER + INTRA:          -4.626
REMARK INTER:                  -4.531
REMARK INTRA:                  -0.095
REMARK UNBOUND:                -0.088
REMARK SMILES C=C(C)[C@H]1CC=C(C)C(=O)C1
REMARK SMILES IDX 8 1 7 2 6 3 5 4 4 5 11 6 9 7 10 8 2 9 1 10 3 11
REMARK H PARENT
REMARK Flexibility Score: inf
ROOT
ATOM      1  C   UNL     1      24.587  -4.532  57.708  1.00  0.00     0.048 C 
ATOM      2  C   UNL     1      25.083  -4.236  56.320  1.00  0.00    -0.012 C 
ATOM      3  C   UNL     1      25.812  -5.152  55.660  1.00  0.00    -0.019 C 
ATOM      4  C   UNL     1      26.349  -4.901  54.276  1.00  0.00     0.036 C 
ATOM      5  C   UNL     1      25.396  -4.001  53.466  1.00  0.00     0.025 C 
ATOM      6  C   UNL     1      25.117  -2.694  54.231  1.00  0.00     0.089 C 
ATOM      7  C   UNL     1      24.663  -2.988  55.635  1.00  0.00     0.158 C 
ATOM      8  O   UNL     1      23.948  -2.143  56.238  1.00  0.00    -0.295 OA
ENDROOT
BRANCH   5   9
ATOM      9  C   UNL     1      25.931  -3.730  52.066  1.00  0.00    -0.077 C 
ATOM     10  C   UNL     1      26.569  -2.585  51.771  1.00  0.00     0.008 C 
ATOM     11  C   UNL     1      25.752  -4.757  50.978  1.00  0.00     0.039 C 
ENDBRANCH   5   9
TORSDOF 1
ENDMDL
MODEL 6
REMARK VINA RESULT:    -4.270      2.210      4.404
REMARK INTER + INTRA:          -4.608
REMARK INTER:                  -4.511
REMARK INTRA:                  -0.096
REMARK UNBOUND:                -0.088
REMARK SMILES C=C(C)[C@H]1CC=C(C)C(=O)C1
REMARK SMILES IDX 8 1 7 2 6 3 5 4 4 5 11 6 9 7 10 8 2 9 1 10 3 11
REMARK H PARENT
REMARK Flexibility Score: inf
ROOT
ATOM      1  C   UNL     1      29.457  -5.787  51.124  1.00  0.00     0.048 C 
ATOM      2  C   UNL     1      28.445  -5.280  52.113  1.00  0.00    -0.012 C 
ATOM      3  C   UNL     1      27.164  -5.120  51.737  1.00  0.00    -0.019 C 
ATOM      4  C   UNL     1      26.114  -4.598  52.681  1.00  0.00     0.036 C 
ATOM      5  C   UNL     1      26.404  -5.035  54.130  1.00  0.00     0.025 C 
ATOM      6  C   UNL     1      27.824  -4.605  54.542  1.00  0.00     0.089 C 
ATOM      7  C   UNL     1      28.834  -5.075  53.530  1.00  0.00     0.158 C 
ATOM      8  O   UNL     1      30.027  -5.259  53.893  1.00  0.00    -0.295 OA
ENDROOT
BRANCH   5   9
ATOM      9  C   UNL     1      25.354  -4.506  55.098  1.00  0.00    -0.077 C 
ATOM     10  C   UNL     1      24.403  -3.645  54.697  1.00  0.00     0.008 C 
ATOM     11  C   UNL     1      25.364  -4.948  56.539  1.00  0.00     0.039 C 
ENDBRANCH   5   9
TORSDOF 1
ENDMDL
MODEL 7
REMARK VINA RESULT:    -4.106      9.683     11.116
REMARK INTER + INTRA:          -4.434
REMARK INTER:                  -4.343
REMARK INTRA:                  -0.091
REMARK UNBOUND:                -0.088
REMARK SMILES C=C(C)[C@H]1CC=C(C)C(=O)C1
REMARK SMILES IDX 8 1 7 2 6 3 5 4 4 5 11 6 9 7 10 8 2 9 1 10 3 11
REMARK H PARENT
REMARK Flexibility Score: inf
ROOT
ATOM      1  C   UNL     1      14.113  -0.642  61.451  1.00  0.00     0.048 C 
ATOM      2  C   UNL     1      14.924  -0.698  60.186  1.00  0.00    -0.012 C 
ATOM      3  C   UNL     1      14.790   0.268  59.261  1.00  0.00    -0.019 C 
ATOM      4  C   UNL     1      15.564   0.251  57.970  1.00  0.00     0.036 C 
ATOM      5  C   UNL     1      16.951  -0.392  58.162  1.00  0.00     0.025 C 
ATOM      6  C   UNL     1      16.807  -1.798  58.775  1.00  0.00     0.089 C 
ATOM      7  C   UNL     1      15.958  -1.749  60.017  1.00  0.00     0.158 C 
ATOM      8  O   UNL     1      16.112  -2.636  60.900  1.00  0.00    -0.295 OA
ENDROOT
BRANCH   5   9
ATOM      9  C   UNL     1      17.742  -0.425  56.861  1.00  0.00    -0.077 C 
ATOM     10  C   UNL     1      19.067  -0.201  56.843  1.00  0.00     0.008 C 
ATOM     11  C   UNL     1      17.041  -0.714  55.559  1.00  0.00     0.039 C 
ENDBRANCH   5   9
TORSDOF 1
ENDMDL
MODEL 8
REMARK VINA RESULT:    -4.066      9.935     11.332
REMARK INTER + INTRA:          -4.392
REMARK INTER:                  -4.297
REMARK INTRA:                  -0.095
REMARK UNBOUND:                -0.088
REMARK SMILES C=C(C)[C@H]1CC=C(C)C(=O)C1
REMARK SMILES IDX 8 1 7 2 6 3 5 4 4 5 11 6 9 7 10 8 2 9 1 10 3 11
REMARK H PARENT
REMARK Flexibility Score: inf
ROOT
ATOM      1  C   UNL     1      17.905   2.280  54.682  1.00  0.00     0.048 C 
ATOM      2  C   UNL     1      17.564   1.403  55.855  1.00  0.00    -0.012 C 
ATOM      3  C   UNL     1      17.521   1.927  57.092  1.00  0.00    -0.019 C 
ATOM      4  C   UNL     1      17.203   1.091  58.303  1.00  0.00     0.036 C 
ATOM      5  C   UNL     1      16.220  -0.042  57.952  1.00  0.00     0.025 C 
ATOM      6  C   UNL     1      16.773  -0.887  56.789  1.00  0.00     0.089 C 
ATOM      7  C   UNL     1      17.155  -0.006  55.631  1.00  0.00     0.158 C 
ATOM      8  O   UNL     1      17.159  -0.490  54.467  1.00  0.00    -0.295 OA
ENDROOT
BRANCH   5   9
ATOM      9  C   UNL     1      15.897  -0.903  59.167  1.00  0.00    -0.077 C 
ATOM     10  C   UNL     1      16.544  -2.058  59.398  1.00  0.00     0.008 C 
ATOM     11  C   UNL     1      14.833  -0.465  60.141  1.00  0.00     0.039 C 
ENDBRANCH   5   9
TORSDOF 1
ENDMDL
MODEL 9
REMARK VINA RESULT:    -4.049     10.457     11.845
REMARK INTER + INTRA:          -4.374
REMARK INTER:                  -4.284
REMARK INTRA:                  -0.090
REMARK UNBOUND:                -0.088
REMARK SMILES C=C(C)[C@H]1CC=C(C)C(=O)C1
REMARK SMILES IDX 8 1 7 2 6 3 5 4 4 5 11 6 9 7 10 8 2 9 1 10 3 11
REMARK H PARENT
REMARK Flexibility Score: inf
ROOT
ATOM      1  C   UNL     1      14.469  -1.959  61.786  1.00  0.00     0.048 C 
ATOM      2  C   UNL     1      15.194  -1.387  60.599  1.00  0.00    -0.012 C 
ATOM      3  C   UNL     1      16.004  -2.171  59.868  1.00  0.00    -0.019 C 
ATOM      4  C   UNL     1      16.768  -1.646  58.682  1.00  0.00     0.036 C 
ATOM      5  C   UNL     1      15.980  -0.534  57.963  1.00  0.00     0.025 C 
ATOM      6  C   UNL     1      15.605   0.582  58.957  1.00  0.00     0.089 C 
ATOM      7  C   UNL     1      14.919   0.005  60.165  1.00  0.00     0.158 C 
ATOM      8  O   UNL     1      14.131   0.732  60.829  1.00  0.00    -0.295 OA
ENDROOT
BRANCH   5   9
ATOM      9  C   UNL     1      16.745   0.015  56.766  1.00  0.00    -0.077 C 
ATOM     10  C   UNL     1      16.784  -0.649  55.597  1.00  0.00     0.008 C 
ATOM     11  C   UNL     1      17.477   1.327  56.874  1.00  0.00     0.039 C 
ENDBRANCH   5   9
TORSDOF 1
ENDMDL
