MODEL 1
REMARK VINA RESULT:    -4.953      0.000      0.000
REMARK INTER + INTRA:          -9.659
REMARK INTER:                  -7.704
REMARK INTRA:                  -1.955
REMARK UNBOUND:                -1.955
REMARK SMILES COc1cc(CNC(=O)CCCCC=CC(C)C)ccc1O
REMARK SMILES IDX 11 1 12 2 13 3 14 4 15 5 16 6 17 7 18 8 10 9 8 10 9 11 7 12
REMARK SMILES IDX 6 14 5 15 4 16 19 17 3 18 20 19 21 20 2 21 1 22 22 23
REMARK H PARENT 7 13 22 24
REMARK Flexibility Score: inf
ROOT
ATOM      1  C   UNL     1     -22.998  32.486  -1.222  1.00  0.00     0.010 C 
ENDROOT
BRANCH   1   2
ATOM      2  C   UNL     1     -22.276  33.613  -1.975  1.00  0.00     0.005 C 
BRANCH   2   3
ATOM      3  C   UNL     1     -20.865  33.200  -2.422  1.00  0.00     0.027 C 
BRANCH   3   4
ATOM      4  C   UNL     1     -20.678  31.700  -2.350  1.00  0.00    -0.031 C 
ATOM      5  C   UNL     1     -19.490  31.062  -2.380  1.00  0.00    -0.028 C 
BRANCH   5   6
ATOM      6  C   UNL     1     -18.132  31.747  -2.426  1.00  0.00     0.005 C 
ATOM      7  C   UNL     1     -17.769  32.113  -3.873  1.00  0.00     0.012 C 
ATOM      8  C   UNL     1     -17.057  30.827  -1.835  1.00  0.00     0.012 C 
ENDBRANCH   5   6
ENDBRANCH   3   4
ENDBRANCH   2   3
ENDBRANCH   1   2
BRANCH   1   9
ATOM      9  C   UNL     1     -24.462  32.377  -1.665  1.00  0.00     0.100 C 
BRANCH   9  10
ATOM     10  C   UNL     1     -24.646  31.166  -2.527  1.00  0.00     0.220 C 
ATOM     11  O   UNL     1     -25.178  30.130  -2.037  1.00  0.00    -0.275 OA
ATOM     12  N   UNL     1     -24.166  31.169  -3.881  1.00  0.00    -0.352 N 
ATOM     13  H   UNL     1     -23.855  32.068  -4.309  1.00  0.00     0.163 HD
BRANCH  12  14
ATOM     14  C   UNL     1     -23.995  29.940  -4.655  1.00  0.00     0.151 C 
BRANCH  14  15
ATOM     15  C   UNL     1     -22.535  29.733  -4.966  1.00  0.00    -0.025 A 
ATOM     16  C   UNL     1     -21.840  30.680  -5.736  1.00  0.00     0.056 A 
ATOM     17  C   UNL     1     -21.846  28.626  -4.450  1.00  0.00     0.009 A 
ATOM     18  C   UNL     1     -20.471  30.505  -6.029  1.00  0.00     0.160 A 
ATOM     19  C   UNL     1     -20.488  28.449  -4.732  1.00  0.00     0.050 A 
ATOM     20  C   UNL     1     -19.801  29.376  -5.523  1.00  0.00     0.157 A 
BRANCH  18  21
ATOM     21  O   UNL     1     -19.753  31.423  -6.812  1.00  0.00    -0.493 OA
ATOM     22  C   UNL     1     -19.703  31.412  -8.236  1.00  0.00     0.278 C 
ENDBRANCH  18  21
BRANCH  20  23
ATOM     23  O   UNL     1     -18.448  29.159  -5.793  1.00  0.00    -0.504 OA
ATOM     24  H   UNL     1     -18.004  28.261  -5.644  1.00  0.00     0.293 HD
ENDBRANCH  20  23
ENDBRANCH  14  15
ENDBRANCH  12  14
ENDBRANCH   9  10
ENDBRANCH   1   9
TORSDOF 10
ENDMDL
MODEL 2
REMARK VINA RESULT:    -4.885      1.896      4.182
REMARK INTER + INTRA:          -9.553
REMARK INTER:                  -7.485
REMARK INTRA:                  -2.068
REMARK UNBOUND:                -1.955
REMARK SMILES COc1cc(CNC(=O)CCCCC=CC(C)C)ccc1O
REMARK SMILES IDX 11 1 12 2 13 3 14 4 15 5 16 6 17 7 18 8 10 9 8 10 9 11 7 12
REMARK SMILES IDX 6 14 5 15 4 16 19 17 3 18 20 19 21 20 2 21 1 22 22 23
REMARK H PARENT 7 13 22 24
REMARK Flexibility Score: inf
ROOT
ATOM      1  C   UNL     1     -23.442  30.313  -2.642  1.00  0.00     0.010 C 
ENDROOT
BRANCH   1   2
ATOM      2  C   UNL     1     -24.323  30.025  -3.866  1.00  0.00     0.005 C 
BRANCH   2   3
ATOM      3  C   UNL     1     -23.490  29.775  -5.134  1.00  0.00     0.027 C 
BRANCH   3   4
ATOM      4  C   UNL     1     -22.505  30.898  -5.379  1.00  0.00    -0.031 C 
ATOM      5  C   UNL     1     -21.185  30.739  -5.605  1.00  0.00    -0.028 C 
BRANCH   5   6
ATOM      6  C   UNL     1     -20.474  29.398  -5.717  1.00  0.00     0.005 C 
ATOM      7  C   UNL     1     -20.041  28.907  -4.327  1.00  0.00     0.012 C 
ATOM      8  C   UNL     1     -19.249  29.525  -6.630  1.00  0.00     0.012 C 
ENDBRANCH   5   6
ENDBRANCH   3   4
ENDBRANCH   2   3
ENDBRANCH   1   2
BRANCH   1   9
ATOM      9  C   UNL     1     -23.832  31.642  -1.984  1.00  0.00     0.100 C 
BRANCH   9  10
ATOM     10  C   UNL     1     -22.636  32.539  -1.900  1.00  0.00     0.220 C 
ATOM     11  O   UNL     1     -22.791  33.755  -1.588  1.00  0.00    -0.275 OA
ATOM     12  N   UNL     1     -21.332  32.032  -2.229  1.00  0.00    -0.352 N 
ATOM     13  H   UNL     1     -21.203  31.005  -2.352  1.00  0.00     0.163 HD
BRANCH  12  14
ATOM     14  C   UNL     1     -20.196  32.909  -2.506  1.00  0.00     0.151 C 
BRANCH  14  15
ATOM     15  C   UNL     1     -18.967  32.081  -2.778  1.00  0.00    -0.025 A 
ATOM     16  C   UNL     1     -18.270  32.237  -3.988  1.00  0.00     0.056 A 
ATOM     17  C   UNL     1     -18.478  31.191  -1.811  1.00  0.00     0.009 A 
ATOM     18  C   UNL     1     -17.112  31.476  -4.254  1.00  0.00     0.160 A 
ATOM     19  C   UNL     1     -17.329  30.438  -2.066  1.00  0.00     0.050 A 
ATOM     20  C   UNL     1     -16.649  30.569  -3.283  1.00  0.00     0.157 A 
BRANCH  18  21
ATOM     21  O   UNL     1     -16.405  31.594  -5.461  1.00  0.00    -0.493 OA
ATOM     22  C   UNL     1     -15.446  32.609  -5.746  1.00  0.00     0.278 C 
ENDBRANCH  18  21
BRANCH  20  23
ATOM     23  O   UNL     1     -15.511  29.791  -3.506  1.00  0.00    -0.504 OA
ATOM     24  H   UNL     1     -15.247  29.472  -4.431  1.00  0.00     0.293 HD
ENDBRANCH  20  23
ENDBRANCH  14  15
ENDBRANCH  12  14
ENDBRANCH   9  10
ENDBRANCH   1   9
TORSDOF 10
ENDMDL
MODEL 3
REMARK VINA RESULT:    -4.866      2.641      4.926
REMARK INTER + INTRA:          -9.524
REMARK INTER:                  -7.385
REMARK INTRA:                  -2.139
REMARK UNBOUND:                -1.955
REMARK SMILES COc1cc(CNC(=O)CCCCC=CC(C)C)ccc1O
REMARK SMILES IDX 11 1 12 2 13 3 14 4 15 5 16 6 17 7 18 8 10 9 8 10 9 11 7 12
REMARK SMILES IDX 6 14 5 15 4 16 19 17 3 18 20 19 21 20 2 21 1 22 22 23
REMARK H PARENT 7 13 22 24
REMARK Flexibility Score: inf
ROOT
ATOM      1  C   UNL     1     -18.248  30.815  -1.739  1.00  0.00     0.010 C 
ENDROOT
BRANCH   1   2
ATOM      2  C   UNL     1     -18.589  32.227  -2.235  1.00  0.00     0.005 C 
BRANCH   2   3
ATOM      3  C   UNL     1     -19.373  32.204  -3.557  1.00  0.00     0.027 C 
BRANCH   3   4
ATOM      4  C   UNL     1     -20.658  32.996  -3.453  1.00  0.00    -0.031 C 
ATOM      5  C   UNL     1     -21.865  32.483  -3.136  1.00  0.00    -0.028 C 
BRANCH   5   6
ATOM      6  C   UNL     1     -22.125  31.030  -2.766  1.00  0.00     0.005 C 
ATOM      7  C   UNL     1     -23.462  30.560  -3.362  1.00  0.00     0.012 C 
ATOM      8  C   UNL     1     -22.149  30.870  -1.241  1.00  0.00     0.012 C 
ENDBRANCH   5   6
ENDBRANCH   3   4
ENDBRANCH   2   3
ENDBRANCH   1   2
BRANCH   1   9
ATOM      9  C   UNL     1     -16.762  30.501  -1.950  1.00  0.00     0.100 C 
BRANCH   9  10
ATOM     10  C   UNL     1     -16.523  30.098  -3.373  1.00  0.00     0.220 C 
ATOM     11  O   UNL     1     -15.867  30.866  -4.134  1.00  0.00    -0.275 OA
ATOM     12  N   UNL     1     -17.087  28.877  -3.878  1.00  0.00    -0.352 N 
ATOM     13  H   UNL     1     -17.507  28.196  -3.210  1.00  0.00     0.163 HD
BRANCH  12  14
ATOM     14  C   UNL     1     -17.194  28.596  -5.309  1.00  0.00     0.151 C 
BRANCH  14  15
ATOM     15  C   UNL     1     -18.415  29.275  -5.873  1.00  0.00    -0.025 A 
ATOM     16  C   UNL     1     -18.287  30.174  -6.945  1.00  0.00     0.056 A 
ATOM     17  C   UNL     1     -19.692  28.979  -5.372  1.00  0.00     0.009 A 
ATOM     18  C   UNL     1     -19.421  30.811  -7.490  1.00  0.00     0.160 A 
ATOM     19  C   UNL     1     -20.820  29.603  -5.911  1.00  0.00     0.050 A 
ATOM     20  C   UNL     1     -20.692  30.521  -6.959  1.00  0.00     0.157 A 
BRANCH  18  21
ATOM     21  O   UNL     1     -19.323  31.729  -8.548  1.00  0.00    -0.493 OA
ATOM     22  C   UNL     1     -19.308  31.380  -9.929  1.00  0.00     0.278 C 
ENDBRANCH  18  21
BRANCH  20  23
ATOM     23  O   UNL     1     -21.841  31.133  -7.463  1.00  0.00    -0.504 OA
ATOM     24  H   UNL     1     -22.772  30.797  -7.248  1.00  0.00     0.293 HD
ENDBRANCH  20  23
ENDBRANCH  14  15
ENDBRANCH  12  14
ENDBRANCH   9  10
ENDBRANCH   1   9
TORSDOF 10
ENDMDL
MODEL 4
REMARK VINA RESULT:    -4.843      1.443      3.769
REMARK INTER + INTRA:          -9.488
REMARK INTER:                  -7.094
REMARK INTRA:                  -2.393
REMARK UNBOUND:                -1.955
REMARK SMILES COc1cc(CNC(=O)CCCCC=CC(C)C)ccc1O
REMARK SMILES IDX 11 1 12 2 13 3 14 4 15 5 16 6 17 7 18 8 10 9 8 10 9 11 7 12
REMARK SMILES IDX 6 14 5 15 4 16 19 17 3 18 20 19 21 20 2 21 1 22 22 23
REMARK H PARENT 7 13 22 24
REMARK Flexibility Score: inf
ROOT
ATOM      1  C   UNL     1     -24.886  30.340  -2.518  1.00  0.00     0.010 C 
ENDROOT
BRANCH   1   2
ATOM      2  C   UNL     1     -25.457  30.242  -3.939  1.00  0.00     0.005 C 
BRANCH   2   3
ATOM      3  C   UNL     1     -24.492  29.533  -4.904  1.00  0.00     0.027 C 
BRANCH   3   4
ATOM      4  C   UNL     1     -23.342  30.433  -5.297  1.00  0.00    -0.031 C 
ATOM      5  C   UNL     1     -22.035  30.155  -5.106  1.00  0.00    -0.028 C 
BRANCH   5   6
ATOM      6  C   UNL     1     -21.496  28.858  -4.522  1.00  0.00     0.005 C 
ATOM      7  C   UNL     1     -21.410  28.959  -2.991  1.00  0.00     0.012 C 
ATOM      8  C   UNL     1     -20.110  28.554  -5.103  1.00  0.00     0.012 C 
ENDBRANCH   5   6
ENDBRANCH   3   4
ENDBRANCH   2   3
ENDBRANCH   1   2
BRANCH   1   9
ATOM      9  C   UNL     1     -24.639  31.801  -2.123  1.00  0.00     0.100 C 
BRANCH   9  10
ATOM     10  C   UNL     1     -23.181  32.020  -1.862  1.00  0.00     0.220 C 
ATOM     11  O   UNL     1     -22.625  31.418  -0.899  1.00  0.00    -0.275 OA
ATOM     12  N   UNL     1     -22.439  32.952  -2.665  1.00  0.00    -0.352 N 
ATOM     13  H   UNL     1     -22.875  33.335  -3.532  1.00  0.00     0.163 HD
BRANCH  12  14
ATOM     14  C   UNL     1     -21.134  33.471  -2.260  1.00  0.00     0.151 C 
BRANCH  14  15
ATOM     15  C   UNL     1     -20.040  32.681  -2.930  1.00  0.00    -0.025 A 
ATOM     16  C   UNL     1     -19.794  32.847  -4.303  1.00  0.00     0.056 A 
ATOM     17  C   UNL     1     -19.226  31.815  -2.185  1.00  0.00     0.009 A 
ATOM     18  C   UNL     1     -18.767  32.121  -4.943  1.00  0.00     0.160 A 
ATOM     19  C   UNL     1     -18.205  31.097  -2.811  1.00  0.00     0.050 A 
ATOM     20  C   UNL     1     -17.977  31.238  -4.185  1.00  0.00     0.157 A 
BRANCH  18  21
ATOM     21  O   UNL     1     -18.510  32.250  -6.318  1.00  0.00    -0.493 OA
ATOM     22  C   UNL     1     -19.222  31.566  -7.346  1.00  0.00     0.278 C 
ENDBRANCH  18  21
BRANCH  20  23
ATOM     23  O   UNL     1     -16.954  30.495  -4.778  1.00  0.00    -0.504 OA
ATOM     24  H   UNL     1     -17.130  29.834  -5.526  1.00  0.00     0.293 HD
ENDBRANCH  20  23
ENDBRANCH  14  15
ENDBRANCH  12  14
ENDBRANCH   9  10
ENDBRANCH   1   9
TORSDOF 10
ENDMDL
MODEL 5
REMARK VINA RESULT:    -4.839      1.838      5.129
REMARK INTER + INTRA:          -9.481
REMARK INTER:                  -7.256
REMARK INTRA:                  -2.225
REMARK UNBOUND:                -1.955
REMARK SMILES COc1cc(CNC(=O)CCCCC=CC(C)C)ccc1O
REMARK SMILES IDX 11 1 12 2 13 3 14 4 15 5 16 6 17 7 18 8 10 9 8 10 9 11 7 12
REMARK SMILES IDX 6 14 5 15 4 16 19 17 3 18 20 19 21 20 2 21 1 22 22 23
REMARK H PARENT 7 13 22 24
REMARK Flexibility Score: inf
ROOT
ATOM      1  C   UNL     1     -17.310  29.707  -3.657  1.00  0.00     0.010 C 
ENDROOT
BRANCH   1   2
ATOM      2  C   UNL     1     -16.738  30.585  -2.534  1.00  0.00     0.005 C 
BRANCH   2   3
ATOM      3  C   UNL     1     -17.789  31.546  -1.957  1.00  0.00     0.027 C 
BRANCH   3   4
ATOM      4  C   UNL     1     -19.131  30.867  -1.795  1.00  0.00    -0.031 C 
ATOM      5  C   UNL     1     -20.330  31.455  -1.989  1.00  0.00    -0.028 C 
BRANCH   5   6
ATOM      6  C   UNL     1     -20.532  32.885  -2.468  1.00  0.00     0.005 C 
ATOM      7  C   UNL     1     -21.961  33.354  -2.153  1.00  0.00     0.012 C 
ATOM      8  C   UNL     1     -20.274  32.977  -3.977  1.00  0.00     0.012 C 
ENDBRANCH   5   6
ENDBRANCH   3   4
ENDBRANCH   2   3
ENDBRANCH   1   2
BRANCH   1   9
ATOM      9  C   UNL     1     -17.155  30.388  -5.022  1.00  0.00     0.100 C 
BRANCH   9  10
ATOM     10  C   UNL     1     -18.464  30.380  -5.749  1.00  0.00     0.220 C 
ATOM     11  O   UNL     1     -18.719  31.297  -6.581  1.00  0.00    -0.275 OA
ATOM     12  N   UNL     1     -19.442  29.370  -5.455  1.00  0.00    -0.352 N 
ATOM     13  H   UNL     1     -19.168  28.551  -4.871  1.00  0.00     0.163 HD
BRANCH  12  14
ATOM     14  C   UNL     1     -20.843  29.495  -5.853  1.00  0.00     0.151 C 
BRANCH  14  15
ATOM     15  C   UNL     1     -21.728  29.433  -4.634  1.00  0.00    -0.025 A 
ATOM     16  C   UNL     1     -22.850  30.272  -4.538  1.00  0.00     0.056 A 
ATOM     17  C   UNL     1     -21.472  28.506  -3.613  1.00  0.00     0.009 A 
ATOM     18  C   UNL     1     -23.693  30.220  -3.408  1.00  0.00     0.160 A 
ATOM     19  C   UNL     1     -22.305  28.446  -2.493  1.00  0.00     0.050 A 
ATOM     20  C   UNL     1     -23.408  29.301  -2.382  1.00  0.00     0.157 A 
BRANCH  18  21
ATOM     21  O   UNL     1     -24.810  31.060  -3.273  1.00  0.00    -0.493 OA
ATOM     22  C   UNL     1     -26.103  30.785  -3.806  1.00  0.00     0.278 C 
ENDBRANCH  18  21
BRANCH  20  23
ATOM     23  O   UNL     1     -24.211  29.220  -1.243  1.00  0.00    -0.504 OA
ATOM     24  H   UNL     1     -24.499  30.041  -0.724  1.00  0.00     0.293 HD
ENDBRANCH  20  23
ENDBRANCH  14  15
ENDBRANCH  12  14
ENDBRANCH   9  10
ENDBRANCH   1   9
TORSDOF 10
ENDMDL
MODEL 6
REMARK VINA RESULT:    -4.826      2.944      6.815
REMARK INTER + INTRA:          -9.461
REMARK INTER:                  -7.314
REMARK INTRA:                  -2.146
REMARK UNBOUND:                -1.955
REMARK SMILES COc1cc(CNC(=O)CCCCC=CC(C)C)ccc1O
REMARK SMILES IDX 11 1 12 2 13 3 14 4 15 5 16 6 17 7 18 8 10 9 8 10 9 11 7 12
REMARK SMILES IDX 6 14 5 15 4 16 19 17 3 18 20 19 21 20 2 21 1 22 22 23
REMARK H PARENT 7 13 22 24
REMARK Flexibility Score: inf
ROOT
ATOM      1  C   UNL     1     -16.483  27.414  -5.024  1.00  0.00     0.010 C 
ENDROOT
BRANCH   1   2
ATOM      2  C   UNL     1     -16.567  27.053  -6.514  1.00  0.00     0.005 C 
BRANCH   2   3
ATOM      3  C   UNL     1     -17.822  27.636  -7.182  1.00  0.00     0.027 C 
BRANCH   3   4
ATOM      4  C   UNL     1     -17.854  29.145  -7.078  1.00  0.00    -0.031 C 
ATOM      5  C   UNL     1     -18.905  29.873  -6.649  1.00  0.00    -0.028 C 
BRANCH   5   6
ATOM      6  C   UNL     1     -20.215  29.295  -6.135  1.00  0.00     0.005 C 
ATOM      7  C   UNL     1     -21.348  30.322  -6.287  1.00  0.00     0.012 C 
ATOM      8  C   UNL     1     -20.072  28.891  -4.662  1.00  0.00     0.012 C 
ENDBRANCH   5   6
ENDBRANCH   3   4
ENDBRANCH   2   3
ENDBRANCH   1   2
BRANCH   1   9
ATOM      9  C   UNL     1     -15.278  28.320  -4.744  1.00  0.00     0.100 C 
BRANCH   9  10
ATOM     10  C   UNL     1     -15.743  29.631  -4.188  1.00  0.00     0.220 C 
ATOM     11  O   UNL     1     -15.192  30.700  -4.577  1.00  0.00    -0.275 OA
ATOM     12  N   UNL     1     -16.766  29.662  -3.180  1.00  0.00    -0.352 N 
ATOM     13  H   UNL     1     -17.299  28.791  -2.970  1.00  0.00     0.163 HD
BRANCH  12  14
ATOM     14  C   UNL     1     -17.019  30.842  -2.356  1.00  0.00     0.151 C 
BRANCH  14  15
ATOM     15  C   UNL     1     -18.278  31.528  -2.819  1.00  0.00    -0.025 A 
ATOM     16  C   UNL     1     -19.466  31.389  -2.081  1.00  0.00     0.056 A 
ATOM     17  C   UNL     1     -18.267  32.349  -3.956  1.00  0.00     0.009 A 
ATOM     18  C   UNL     1     -20.651  32.032  -2.496  1.00  0.00     0.160 A 
ATOM     19  C   UNL     1     -19.436  32.992  -4.370  1.00  0.00     0.050 A 
ATOM     20  C   UNL     1     -20.627  32.832  -3.653  1.00  0.00     0.157 A 
BRANCH  18  21
ATOM     21  O   UNL     1     -21.857  31.896  -1.791  1.00  0.00    -0.493 OA
ATOM     22  C   UNL     1     -22.411  30.657  -1.357  1.00  0.00     0.278 C 
ENDBRANCH  18  21
BRANCH  20  23
ATOM     23  O   UNL     1     -21.778  33.481  -4.104  1.00  0.00    -0.504 OA
ATOM     24  H   UNL     1     -22.567  32.977  -4.490  1.00  0.00     0.293 HD
ENDBRANCH  20  23
ENDBRANCH  14  15
ENDBRANCH  12  14
ENDBRANCH   9  10
ENDBRANCH   1   9
TORSDOF 10
ENDMDL
MODEL 7
REMARK VINA RESULT:    -4.802      2.648      6.457
REMARK INTER + INTRA:          -9.424
REMARK INTER:                  -7.223
REMARK INTRA:                  -2.201
REMARK UNBOUND:                -1.955
REMARK SMILES COc1cc(CNC(=O)CCCCC=CC(C)C)ccc1O
REMARK SMILES IDX 11 1 12 2 13 3 14 4 15 5 16 6 17 7 18 8 10 9 8 10 9 11 7 12
REMARK SMILES IDX 6 14 5 15 4 16 19 17 3 18 20 19 21 20 2 21 1 22 22 23
REMARK H PARENT 7 13 22 24
REMARK Flexibility Score: inf
ROOT
ATOM      1  C   UNL     1     -15.539  31.712  -5.609  1.00  0.00     0.010 C 
ENDROOT
BRANCH   1   2
ATOM      2  C   UNL     1     -16.226  31.627  -6.979  1.00  0.00     0.005 C 
BRANCH   2   3
ATOM      3  C   UNL     1     -17.717  31.996  -6.905  1.00  0.00     0.027 C 
BRANCH   3   4
ATOM      4  C   UNL     1     -18.533  31.206  -7.905  1.00  0.00    -0.031 C 
ATOM      5  C   UNL     1     -19.664  30.528  -7.623  1.00  0.00    -0.028 C 
BRANCH   5   6
ATOM      6  C   UNL     1     -20.347  30.497  -6.264  1.00  0.00     0.005 C 
ATOM      7  C   UNL     1     -19.879  29.273  -5.460  1.00  0.00     0.012 C 
ATOM      8  C   UNL     1     -21.870  30.455  -6.439  1.00  0.00     0.012 C 
ENDBRANCH   5   6
ENDBRANCH   3   4
ENDBRANCH   2   3
ENDBRANCH   1   2
BRANCH   1   9
ATOM      9  C   UNL     1     -15.113  30.323  -5.119  1.00  0.00     0.100 C 
BRANCH   9  10
ATOM     10  C   UNL     1     -16.051  29.849  -4.051  1.00  0.00     0.220 C 
ATOM     11  O   UNL     1     -16.651  28.746  -4.197  1.00  0.00    -0.275 OA
ATOM     12  N   UNL     1     -16.306  30.673  -2.902  1.00  0.00    -0.352 N 
ATOM     13  H   UNL     1     -15.707  31.509  -2.733  1.00  0.00     0.163 HD
BRANCH  12  14
ATOM     14  C   UNL     1     -17.445  30.448  -2.014  1.00  0.00     0.151 C 
BRANCH  14  15
ATOM     15  C   UNL     1     -18.642  31.214  -2.514  1.00  0.00    -0.025 A 
ATOM     16  C   UNL     1     -19.930  30.872  -2.070  1.00  0.00     0.056 A 
ATOM     17  C   UNL     1     -18.480  32.305  -3.381  1.00  0.00     0.009 A 
ATOM     18  C   UNL     1     -21.060  31.586  -2.522  1.00  0.00     0.160 A 
ATOM     19  C   UNL     1     -19.595  33.019  -3.829  1.00  0.00     0.050 A 
ATOM     20  C   UNL     1     -20.882  32.661  -3.411  1.00  0.00     0.157 A 
BRANCH  18  21
ATOM     21  O   UNL     1     -22.362  31.255  -2.112  1.00  0.00    -0.493 OA
ATOM     22  C   UNL     1     -23.140  30.193  -2.656  1.00  0.00     0.278 C 
ENDBRANCH  18  21
BRANCH  20  23
ATOM     23  O   UNL     1     -21.972  33.391  -3.889  1.00  0.00    -0.504 OA
ATOM     24  H   UNL     1     -22.876  33.374  -3.432  1.00  0.00     0.293 HD
ENDBRANCH  20  23
ENDBRANCH  14  15
ENDBRANCH  12  14
ENDBRANCH   9  10
ENDBRANCH   1   9
TORSDOF 10
ENDMDL
MODEL 8
REMARK VINA RESULT:    -4.786      1.965      4.571
REMARK INTER + INTRA:          -9.399
REMARK INTER:                  -7.213
REMARK INTRA:                  -2.186
REMARK UNBOUND:                -1.955
REMARK SMILES COc1cc(CNC(=O)CCCCC=CC(C)C)ccc1O
REMARK SMILES IDX 11 1 12 2 13 3 14 4 15 5 16 6 17 7 18 8 10 9 8 10 9 11 7 12
REMARK SMILES IDX 6 14 5 15 4 16 19 17 3 18 20 19 21 20 2 21 1 22 22 23
REMARK H PARENT 7 13 22 24
REMARK Flexibility Score: inf
ROOT
ATOM      1  C   UNL     1     -26.189  28.992  -2.906  1.00  0.00     0.010 C 
ENDROOT
BRANCH   1   2
ATOM      2  C   UNL     1     -26.212  30.423  -3.461  1.00  0.00     0.005 C 
BRANCH   2   3
ATOM      3  C   UNL     1     -25.375  30.562  -4.742  1.00  0.00     0.027 C 
BRANCH   3   4
ATOM      4  C   UNL     1     -24.922  29.213  -5.256  1.00  0.00    -0.031 C 
ATOM      5  C   UNL     1     -23.642  28.861  -5.498  1.00  0.00    -0.028 C 
BRANCH   5   6
ATOM      6  C   UNL     1     -22.431  29.742  -5.230  1.00  0.00     0.005 C 
ATOM      7  C   UNL     1     -22.009  30.471  -6.515  1.00  0.00     0.012 C 
ATOM      8  C   UNL     1     -21.267  28.892  -4.706  1.00  0.00     0.012 C 
ENDBRANCH   5   6
ENDBRANCH   3   4
ENDBRANCH   2   3
ENDBRANCH   1   2
BRANCH   1   9
ATOM      9  C   UNL     1     -25.554  28.951  -1.511  1.00  0.00     0.100 C 
BRANCH   9  10
ATOM     10  C   UNL     1     -24.072  29.136  -1.620  1.00  0.00     0.220 C 
ATOM     11  O   UNL     1     -23.350  28.165  -1.987  1.00  0.00    -0.275 OA
ATOM     12  N   UNL     1     -23.475  30.390  -1.252  1.00  0.00    -0.352 N 
ATOM     13  H   UNL     1     -24.090  31.215  -1.081  1.00  0.00     0.163 HD
BRANCH  12  14
ATOM     14  C   UNL     1     -22.042  30.532  -1.000  1.00  0.00     0.151 C 
BRANCH  14  15
ATOM     15  C   UNL     1     -21.426  31.423  -2.048  1.00  0.00    -0.025 A 
ATOM     16  C   UNL     1     -20.057  31.314  -2.344  1.00  0.00     0.056 A 
ATOM     17  C   UNL     1     -22.217  32.327  -2.771  1.00  0.00     0.009 A 
ATOM     18  C   UNL     1     -19.467  32.134  -3.329  1.00  0.00     0.160 A 
ATOM     19  C   UNL     1     -21.640  33.138  -3.751  1.00  0.00     0.050 A 
ATOM     20  C   UNL     1     -20.270  33.053  -4.028  1.00  0.00     0.157 A 
BRANCH  18  21
ATOM     21  O   UNL     1     -18.098  32.063  -3.633  1.00  0.00    -0.493 OA
ATOM     22  C   UNL     1     -17.083  31.643  -2.725  1.00  0.00     0.278 C 
ENDBRANCH  18  21
BRANCH  20  23
ATOM     23  O   UNL     1     -19.727  33.888  -5.006  1.00  0.00    -0.504 OA
ATOM     24  H   UNL     1     -20.201  34.075  -5.882  1.00  0.00     0.293 HD
ENDBRANCH  20  23
ENDBRANCH  14  15
ENDBRANCH  12  14
ENDBRANCH   9  10
ENDBRANCH   1   9
TORSDOF 10
ENDMDL
MODEL 9
REMARK VINA RESULT:    -4.783      2.299      6.439
REMARK INTER + INTRA:          -9.395
REMARK INTER:                  -7.231
REMARK INTRA:                  -2.164
REMARK UNBOUND:                -1.955
REMARK SMILES COc1cc(CNC(=O)CCCCC=CC(C)C)ccc1O
REMARK SMILES IDX 11 1 12 2 13 3 14 4 15 5 16 6 17 7 18 8 10 9 8 10 9 11 7 12
REMARK SMILES IDX 6 14 5 15 4 16 19 17 3 18 20 19 21 20 2 21 1 22 22 23
REMARK H PARENT 7 13 22 24
REMARK Flexibility Score: inf
ROOT
ATOM      1  C   UNL     1     -19.226  31.856  -7.765  1.00  0.00     0.010 C 
ENDROOT
BRANCH   1   2
ATOM      2  C   UNL     1     -19.832  31.000  -8.886  1.00  0.00     0.005 C 
BRANCH   2   3
ATOM      3  C   UNL     1     -21.364  31.124  -8.947  1.00  0.00     0.027 C 
BRANCH   3   4
ATOM      4  C   UNL     1     -22.038  29.803  -8.652  1.00  0.00    -0.031 C 
ATOM      5  C   UNL     1     -22.376  29.358  -7.424  1.00  0.00    -0.028 C 
BRANCH   5   6
ATOM      6  C   UNL     1     -22.194  30.141  -6.132  1.00  0.00     0.005 C 
ATOM      7  C   UNL     1     -21.021  29.567  -5.322  1.00  0.00     0.012 C 
ATOM      8  C   UNL     1     -23.480  30.088  -5.298  1.00  0.00     0.012 C 
ENDBRANCH   5   6
ENDBRANCH   3   4
ENDBRANCH   2   3
ENDBRANCH   1   2
BRANCH   1   9
ATOM      9  C   UNL     1     -17.795  31.409  -7.442  1.00  0.00     0.100 C 
BRANCH   9  10
ATOM     10  C   UNL     1     -17.636  31.236  -5.963  1.00  0.00     0.220 C 
ATOM     11  O   UNL     1     -17.548  30.072  -5.479  1.00  0.00    -0.275 OA
ATOM     12  N   UNL     1     -17.643  32.386  -5.101  1.00  0.00    -0.352 N 
ATOM     13  H   UNL     1     -17.581  33.338  -5.523  1.00  0.00     0.163 HD
BRANCH  12  14
ATOM     14  C   UNL     1     -17.842  32.282  -3.657  1.00  0.00     0.151 C 
BRANCH  14  15
ATOM     15  C   UNL     1     -19.316  32.268  -3.344  1.00  0.00    -0.025 A 
ATOM     16  C   UNL     1     -19.830  31.339  -2.425  1.00  0.00     0.056 A 
ATOM     17  C   UNL     1     -20.177  33.212  -3.923  1.00  0.00     0.009 A 
ATOM     18  C   UNL     1     -21.206  31.319  -2.115  1.00  0.00     0.160 A 
ATOM     19  C   UNL     1     -21.540  33.201  -3.617  1.00  0.00     0.050 A 
ATOM     20  C   UNL     1     -22.060  32.257  -2.724  1.00  0.00     0.157 A 
BRANCH  18  21
ATOM     21  O   UNL     1     -21.753  30.389  -1.216  1.00  0.00    -0.493 OA
ATOM     22  C   UNL     1     -22.260  29.108  -1.579  1.00  0.00     0.278 C 
ENDBRANCH  18  21
BRANCH  20  23
ATOM     23  O   UNL     1     -23.429  32.270  -2.451  1.00  0.00    -0.504 OA
ATOM     24  H   UNL     1     -24.111  31.869  -3.085  1.00  0.00     0.293 HD
ENDBRANCH  20  23
ENDBRANCH  14  15
ENDBRANCH  12  14
ENDBRANCH   9  10
ENDBRANCH   1   9
TORSDOF 10
ENDMDL
