MODEL 1
REMARK VINA RESULT:    -3.885      0.000      0.000
REMARK INTER + INTRA:          -5.457
REMARK INTER:                  -5.021
REMARK INTRA:                  -0.436
REMARK UNBOUND:                -0.436
REMARK SMILES CCO[C@@H]1O[C@@H](CO)[C@H](O)[C@@H](O)[C@@H]1O
REMARK SMILES IDX 4 1 13 2 11 3 9 4 6 5 5 6 3 7 2 8 1 9 14 10 12 12 7 14 8 15
REMARK SMILES IDX 10 17
REMARK H PARENT 14 11 12 13 8 16 10 18
REMARK Flexibility Score: inf
ROOT
ATOM      1  C   UNL     1       8.297  -8.556   2.361  1.00  0.00     0.281 C 
ATOM      2  C   UNL     1       8.835  -7.661   3.507  1.00  0.00     0.202 C 
ATOM      3  C   UNL     1       7.752  -7.401   4.587  1.00  0.00     0.179 C 
ATOM      4  C   UNL     1       6.647  -8.465   4.522  1.00  0.00     0.177 C 
ATOM      5  C   UNL     1       6.040  -8.476   3.089  1.00  0.00     0.178 C 
ATOM      6  O   UNL     1       6.966  -8.190   2.042  1.00  0.00    -0.341 OA
ENDROOT
BRANCH   1   7
ATOM      7  O   UNL     1       9.088  -8.385   1.196  1.00  0.00    -0.350 OA
BRANCH   7   8
ATOM      8  C   UNL     1       8.291  -8.255   0.031  1.00  0.00     0.160 C 
ATOM      9  C   UNL     1       8.769  -7.076  -0.809  1.00  0.00     0.035 C 
ENDBRANCH   7   8
ENDBRANCH   1   7
BRANCH   2  10
ATOM     10  O   UNL     1       9.281  -6.436   2.982  1.00  0.00    -0.385 OA
ATOM     11  H   UNL     1       9.202  -6.501   1.996  1.00  0.00     0.211 HD
ENDBRANCH   2  10
BRANCH   3  12
ATOM     12  O   UNL     1       8.334  -7.407   5.866  1.00  0.00    -0.387 OA
ATOM     13  H   UNL     1       8.585  -8.348   6.060  1.00  0.00     0.211 HD
ENDBRANCH   3  12
BRANCH   5  14
ATOM     14  C   UNL     1       5.268  -9.770   2.789  1.00  0.00     0.191 C 
BRANCH  14  15
ATOM     15  O   UNL     1       4.414 -10.100   3.848  1.00  0.00    -0.394 OA
ATOM     16  H   UNL     1       4.301  -9.271   4.381  1.00  0.00     0.210 HD
ENDBRANCH  14  15
ENDBRANCH   5  14
BRANCH   4  17
ATOM     17  O   UNL     1       5.637  -8.173   5.454  1.00  0.00    -0.387 OA
ATOM     18  H   UNL     1       5.608  -7.185   5.552  1.00  0.00     0.211 HD
ENDBRANCH   4  17
TORSDOF 7
ENDMDL
MODEL 2
REMARK VINA RESULT:    -3.807     15.003     16.224
REMARK INTER + INTRA:          -5.357
REMARK INTER:                  -4.921
REMARK INTRA:                  -0.436
REMARK UNBOUND:                -0.436
REMARK SMILES CCO[C@@H]1O[C@@H](CO)[C@H](O)[C@@H](O)[C@@H]1O
REMARK SMILES IDX 4 1 13 2 11 3 9 4 6 5 5 6 3 7 2 8 1 9 14 10 12 12 7 14 8 15
REMARK SMILES IDX 10 17
REMARK H PARENT 14 11 12 13 8 16 10 18
REMARK Flexibility Score: inf
ROOT
ATOM      1  C   UNL     1      -2.947  -6.180  -7.945  1.00  0.00     0.281 C 
ATOM      2  C   UNL     1      -3.123  -4.939  -7.033  1.00  0.00     0.202 C 
ATOM      3  C   UNL     1      -4.365  -4.103  -7.436  1.00  0.00     0.179 C 
ATOM      4  C   UNL     1      -5.352  -4.947  -8.254  1.00  0.00     0.177 C 
ATOM      5  C   UNL     1      -4.616  -5.522  -9.498  1.00  0.00     0.178 C 
ATOM      6  O   UNL     1      -3.240  -5.840  -9.289  1.00  0.00    -0.341 OA
ENDROOT
BRANCH   1   7
ATOM      7  O   UNL     1      -1.604  -6.637  -7.895  1.00  0.00    -0.350 OA
BRANCH   7   8
ATOM      8  C   UNL     1      -1.262  -7.397  -9.041  1.00  0.00     0.160 C 
ATOM      9  C   UNL     1       0.250  -7.399  -9.243  1.00  0.00     0.035 C 
ENDBRANCH   7   8
ENDBRANCH   1   7
BRANCH   2  10
ATOM     10  O   UNL     1      -1.971  -4.136  -7.098  1.00  0.00    -0.385 OA
ATOM     11  H   UNL     1      -1.655  -4.164  -8.037  1.00  0.00     0.211 HD
ENDBRANCH   2  10
BRANCH   3  12
ATOM     12  O   UNL     1      -5.009  -3.609  -6.289  1.00  0.00    -0.387 OA
ATOM     13  H   UNL     1      -4.393  -3.767  -5.526  1.00  0.00     0.211 HD
ENDBRANCH   3  12
BRANCH   5  14
ATOM     14  C   UNL     1      -5.358  -6.714 -10.121  1.00  0.00     0.191 C 
BRANCH  14  15
ATOM     15  O   UNL     1      -6.480  -7.060  -9.358  1.00  0.00    -0.394 OA
ATOM     16  H   UNL     1      -6.558  -6.367  -8.652  1.00  0.00     0.210 HD
ENDBRANCH  14  15
ENDBRANCH   5  14
BRANCH   4  17
ATOM     17  O   UNL     1      -6.434  -4.157  -8.676  1.00  0.00    -0.387 OA
ATOM     18  H   UNL     1      -6.228  -3.221  -8.417  1.00  0.00     0.211 HD
ENDBRANCH   4  17
TORSDOF 7
ENDMDL
MODEL 3
REMARK VINA RESULT:    -3.774      1.782      3.622
REMARK INTER + INTRA:          -5.313
REMARK INTER:                  -4.916
REMARK INTRA:                  -0.398
REMARK UNBOUND:                -0.436
REMARK SMILES CCO[C@@H]1O[C@@H](CO)[C@H](O)[C@@H](O)[C@@H]1O
REMARK SMILES IDX 4 1 13 2 11 3 9 4 6 5 5 6 3 7 2 8 1 9 14 10 12 12 7 14 8 15
REMARK SMILES IDX 10 17
REMARK H PARENT 14 11 12 13 8 16 10 18
REMARK Flexibility Score: inf
ROOT
ATOM      1  C   UNL     1       7.659  -8.145   0.174  1.00  0.00     0.281 C 
ATOM      2  C   UNL     1       6.149  -8.469   0.039  1.00  0.00     0.202 C 
ATOM      3  C   UNL     1       5.516  -8.836   1.407  1.00  0.00     0.179 C 
ATOM      4  C   UNL     1       6.372  -8.306   2.566  1.00  0.00     0.177 C 
ATOM      5  C   UNL     1       7.815  -8.870   2.429  1.00  0.00     0.178 C 
ATOM      6  O   UNL     1       8.268  -9.042   1.086  1.00  0.00    -0.341 OA
ENDROOT
BRANCH   1   7
ATOM      7  O   UNL     1       8.304  -8.294  -1.080  1.00  0.00    -0.350 OA
BRANCH   7   8
ATOM      8  C   UNL     1       8.839  -7.067  -1.547  1.00  0.00     0.160 C 
ATOM      9  C   UNL     1       7.833  -6.359  -2.448  1.00  0.00     0.035 C 
ENDBRANCH   7   8
ENDBRANCH   1   7
BRANCH   2  10
ATOM     10  O   UNL     1       5.971  -9.532  -0.863  1.00  0.00    -0.385 OA
ATOM     11  H   UNL     1       6.417 -10.324  -0.465  1.00  0.00     0.211 HD
ENDBRANCH   2  10
BRANCH   3  12
ATOM     12  O   UNL     1       4.220  -8.303   1.499  1.00  0.00    -0.387 OA
ATOM     13  H   UNL     1       3.760  -8.525   0.647  1.00  0.00     0.211 HD
ENDBRANCH   3  12
BRANCH   5  14
ATOM     14  C   UNL     1       8.839  -8.068   3.246  1.00  0.00     0.191 C 
BRANCH  14  15
ATOM     15  O   UNL     1       8.265  -6.899   3.760  1.00  0.00    -0.394 OA
ATOM     16  H   UNL     1       8.887  -6.569   4.459  1.00  0.00     0.210 HD
ENDBRANCH  14  15
ENDBRANCH   5  14
BRANCH   4  17
ATOM     17  O   UNL     1       5.828  -8.710   3.796  1.00  0.00    -0.387 OA
ATOM     18  H   UNL     1       4.843  -8.600   3.729  1.00  0.00     0.211 HD
ENDBRANCH   4  17
TORSDOF 7
ENDMDL
MODEL 4
REMARK VINA RESULT:    -3.642     14.909     16.331
REMARK INTER + INTRA:          -5.143
REMARK INTER:                  -4.700
REMARK INTRA:                  -0.443
REMARK UNBOUND:                -0.436
REMARK SMILES CCO[C@@H]1O[C@@H](CO)[C@H](O)[C@@H](O)[C@@H]1O
REMARK SMILES IDX 4 1 13 2 11 3 9 4 6 5 5 6 3 7 2 8 1 9 14 10 12 12 7 14 8 15
REMARK SMILES IDX 10 17
REMARK H PARENT 14 11 12 13 8 16 10 18
REMARK Flexibility Score: inf
ROOT
ATOM      1  C   UNL     1      -4.135  -5.318  -9.030  1.00  0.00     0.281 C 
ATOM      2  C   UNL     1      -3.635  -4.444  -7.851  1.00  0.00     0.202 C 
ATOM      3  C   UNL     1      -2.483  -5.134  -7.075  1.00  0.00     0.179 C 
ATOM      4  C   UNL     1      -1.809  -6.211  -7.938  1.00  0.00     0.177 C 
ATOM      5  C   UNL     1      -2.885  -7.234  -8.401  1.00  0.00     0.178 C 
ATOM      6  O   UNL     1      -4.178  -6.680  -8.642  1.00  0.00    -0.341 OA
ENDROOT
BRANCH   1   7
ATOM      7  O   UNL     1      -5.447  -4.929  -9.403  1.00  0.00    -0.350 OA
BRANCH   7   8
ATOM      8  C   UNL     1      -6.316  -6.044  -9.516  1.00  0.00     0.160 C 
ATOM      9  C   UNL     1      -7.770  -5.589  -9.469  1.00  0.00     0.035 C 
ENDBRANCH   7   8
ENDBRANCH   1   7
BRANCH   2  10
ATOM     10  O   UNL     1      -4.700  -4.177  -6.974  1.00  0.00    -0.385 OA
ATOM     11  H   UNL     1      -4.414  -4.481  -6.075  1.00  0.00     0.211 HD
ENDBRANCH   2  10
BRANCH   3  12
ATOM     12  O   UNL     1      -1.527  -4.182  -6.682  1.00  0.00    -0.387 OA
ATOM     13  H   UNL     1      -1.877  -3.750  -5.859  1.00  0.00     0.211 HD
ENDBRANCH   3  12
BRANCH   5  14
ATOM     14  C   UNL     1      -2.422  -8.069  -9.604  1.00  0.00     0.191 C 
BRANCH  14  15
ATOM     15  O   UNL     1      -1.217  -7.577 -10.121  1.00  0.00    -0.394 OA
ATOM     16  H   UNL     1      -0.839  -6.983  -9.422  1.00  0.00     0.210 HD
ENDBRANCH  14  15
ENDBRANCH   5  14
BRANCH   4  17
ATOM     17  O   UNL     1      -0.819  -6.877  -7.197  1.00  0.00    -0.387 OA
ATOM     18  H   UNL     1      -1.071  -6.800  -6.239  1.00  0.00     0.211 HD
ENDBRANCH   4  17
TORSDOF 7
ENDMDL
MODEL 5
REMARK VINA RESULT:    -3.629      1.959      3.662
REMARK INTER + INTRA:          -5.127
REMARK INTER:                  -4.830
REMARK INTRA:                  -0.297
REMARK UNBOUND:                -0.436
REMARK SMILES CCO[C@@H]1O[C@@H](CO)[C@H](O)[C@@H](O)[C@@H]1O
REMARK SMILES IDX 4 1 13 2 11 3 9 4 6 5 5 6 3 7 2 8 1 9 14 10 12 12 7 14 8 15
REMARK SMILES IDX 10 17
REMARK H PARENT 14 11 12 13 8 16 10 18
REMARK Flexibility Score: inf
ROOT
ATOM      1  C   UNL     1       7.008  -9.243   3.367  1.00  0.00     0.281 C 
ATOM      2  C   UNL     1       5.858  -8.760   4.288  1.00  0.00     0.202 C 
ATOM      3  C   UNL     1       6.392  -8.251   5.652  1.00  0.00     0.179 C 
ATOM      4  C   UNL     1       7.879  -7.882   5.555  1.00  0.00     0.177 C 
ATOM      5  C   UNL     1       8.675  -9.119   5.050  1.00  0.00     0.178 C 
ATOM      6  O   UNL     1       7.974  -9.949   4.125  1.00  0.00    -0.341 OA
ENDROOT
BRANCH   1   7
ATOM      7  O   UNL     1       6.502 -10.125   2.377  1.00  0.00    -0.350 OA
BRANCH   7   8
ATOM      8  C   UNL     1       6.672  -9.604   1.070  1.00  0.00     0.160 C 
ATOM      9  C   UNL     1       5.532  -8.651   0.726  1.00  0.00     0.035 C 
ENDBRANCH   7   8
ENDBRANCH   1   7
BRANCH   2  10
ATOM     10  O   UNL     1       4.948  -9.810   4.500  1.00  0.00    -0.385 OA
ATOM     11  H   UNL     1       4.069  -9.392   4.696  1.00  0.00     0.211 HD
ENDBRANCH   2  10
BRANCH   3  12
ATOM     12  O   UNL     1       5.657  -7.129   6.071  1.00  0.00    -0.387 OA
ATOM     13  H   UNL     1       6.059  -6.828   6.927  1.00  0.00     0.211 HD
ENDBRANCH   3  12
BRANCH   5  14
ATOM     14  C   UNL     1      10.058  -8.742   4.497  1.00  0.00     0.191 C 
BRANCH  14  15
ATOM     15  O   UNL     1      10.072  -7.416   4.045  1.00  0.00    -0.394 OA
ATOM     16  H   UNL     1       9.435  -6.921   4.623  1.00  0.00     0.210 HD
ENDBRANCH  14  15
ENDBRANCH   5  14
BRANCH   4  17
ATOM     17  O   UNL     1       8.367  -7.495   6.814  1.00  0.00    -0.387 OA
ATOM     18  H   UNL     1       8.142  -8.224   7.449  1.00  0.00     0.211 HD
ENDBRANCH   4  17
TORSDOF 7
ENDMDL
MODEL 6
REMARK VINA RESULT:    -3.606     15.139     16.611
REMARK INTER + INTRA:          -5.097
REMARK INTER:                  -4.859
REMARK INTRA:                  -0.238
REMARK UNBOUND:                -0.436
REMARK SMILES CCO[C@@H]1O[C@@H](CO)[C@H](O)[C@@H](O)[C@@H]1O
REMARK SMILES IDX 4 1 13 2 11 3 9 4 6 5 5 6 3 7 2 8 1 9 14 10 12 12 7 14 8 15
REMARK SMILES IDX 10 17
REMARK H PARENT 14 11 12 13 8 16 10 18
REMARK Flexibility Score: inf
ROOT
ATOM      1  C   UNL     1      -3.589  -6.399  -9.458  1.00  0.00     0.281 C 
ATOM      2  C   UNL     1      -5.130  -6.304  -9.596  1.00  0.00     0.202 C 
ATOM      3  C   UNL     1      -5.749  -5.400  -8.498  1.00  0.00     0.179 C 
ATOM      4  C   UNL     1      -4.692  -4.457  -7.905  1.00  0.00     0.177 C 
ATOM      5  C   UNL     1      -3.510  -5.305  -7.354  1.00  0.00     0.178 C 
ATOM      6  O   UNL     1      -3.228  -6.494  -8.091  1.00  0.00    -0.341 OA
ENDROOT
BRANCH   1   7
ATOM      7  O   UNL     1      -3.111  -7.561 -10.117  1.00  0.00    -0.350 OA
BRANCH   7   8
ATOM      8  C   UNL     1      -2.025  -8.151  -9.424  1.00  0.00     0.160 C 
ATOM      9  C   UNL     1      -0.710  -7.827 -10.125  1.00  0.00     0.035 C 
ENDBRANCH   7   8
ENDBRANCH   1   7
BRANCH   2  10
ATOM     10  O   UNL     1      -5.693  -7.590  -9.521  1.00  0.00    -0.385 OA
ATOM     11  H   UNL     1      -6.074  -7.789 -10.415  1.00  0.00     0.211 HD
ENDBRANCH   2  10
BRANCH   3  12
ATOM     12  O   UNL     1      -6.805  -4.643  -9.034  1.00  0.00    -0.387 OA
ATOM     13  H   UNL     1      -7.445  -5.289  -9.433  1.00  0.00     0.211 HD
ENDBRANCH   3  12
BRANCH   5  14
ATOM     14  C   UNL     1      -2.233  -4.475  -7.158  1.00  0.00     0.191 C 
BRANCH  14  15
ATOM     15  O   UNL     1      -1.152  -5.293  -6.807  1.00  0.00    -0.394 OA
ATOM     16  H   UNL     1      -0.583  -5.359  -7.617  1.00  0.00     0.210 HD
ENDBRANCH  14  15
ENDBRANCH   5  14
BRANCH   4  17
ATOM     17  O   UNL     1      -5.249  -3.699  -6.862  1.00  0.00    -0.387 OA
ATOM     18  H   UNL     1      -4.505  -3.193  -6.441  1.00  0.00     0.211 HD
ENDBRANCH   4  17
TORSDOF 7
ENDMDL
MODEL 7
REMARK VINA RESULT:    -3.597     14.240     15.696
REMARK INTER + INTRA:          -5.085
REMARK INTER:                  -4.704
REMARK INTRA:                  -0.381
REMARK UNBOUND:                -0.436
REMARK SMILES CCO[C@@H]1O[C@@H](CO)[C@H](O)[C@@H](O)[C@@H]1O
REMARK SMILES IDX 4 1 13 2 11 3 9 4 6 5 5 6 3 7 2 8 1 9 14 10 12 12 7 14 8 15
REMARK SMILES IDX 10 17
REMARK H PARENT 14 11 12 13 8 16 10 18
REMARK Flexibility Score: inf
ROOT
ATOM      1  C   UNL     1      -3.663  -7.379  -8.430  1.00  0.00     0.281 C 
ATOM      2  C   UNL     1      -2.137  -7.607  -8.287  1.00  0.00     0.202 C 
ATOM      3  C   UNL     1      -1.408  -6.322  -7.814  1.00  0.00     0.179 C 
ATOM      4  C   UNL     1      -2.388  -5.353  -7.139  1.00  0.00     0.177 C 
ATOM      5  C   UNL     1      -3.542  -5.028  -8.131  1.00  0.00     0.178 C 
ATOM      6  O   UNL     1      -3.914  -6.103  -8.993  1.00  0.00    -0.341 OA
ENDROOT
BRANCH   1   7
ATOM      7  O   UNL     1      -4.223  -8.354  -9.296  1.00  0.00    -0.350 OA
BRANCH   7   8
ATOM      8  C   UNL     1      -5.132  -9.204  -8.617  1.00  0.00     0.160 C 
ATOM      9  C   UNL     1      -5.582  -8.561  -7.310  1.00  0.00     0.035 C 
ENDBRANCH   7   8
ENDBRANCH   1   7
BRANCH   2  10
ATOM     10  O   UNL     1      -1.602  -8.027  -9.517  1.00  0.00    -0.385 OA
ATOM     11  H   UNL     1      -0.634  -8.186  -9.369  1.00  0.00     0.211 HD
ENDBRANCH   2  10
BRANCH   3  12
ATOM     12  O   UNL     1      -0.380  -6.652  -6.914  1.00  0.00    -0.387 OA
ATOM     13  H   UNL     1       0.164  -7.360  -7.350  1.00  0.00     0.211 HD
ENDBRANCH   3  12
BRANCH   5  14
ATOM     14  C   UNL     1      -4.778  -4.450  -7.425  1.00  0.00     0.191 C 
BRANCH  14  15
ATOM     15  O   UNL     1      -4.404  -3.613  -6.366  1.00  0.00    -0.394 OA
ATOM     16  H   UNL     1      -4.430  -2.688  -6.723  1.00  0.00     0.210 HD
ENDBRANCH  14  15
ENDBRANCH   5  14
BRANCH   4  17
ATOM     17  O   UNL     1      -1.729  -4.164  -6.785  1.00  0.00    -0.387 OA
ATOM     18  H   UNL     1      -0.784  -4.400  -6.596  1.00  0.00     0.211 HD
ENDBRANCH   4  17
TORSDOF 7
ENDMDL
MODEL 8
REMARK VINA RESULT:    -3.406      2.194      5.350
REMARK INTER + INTRA:          -4.838
REMARK INTER:                  -4.386
REMARK INTRA:                  -0.451
REMARK UNBOUND:                -0.436
REMARK SMILES CCO[C@@H]1O[C@@H](CO)[C@H](O)[C@@H](O)[C@@H]1O
REMARK SMILES IDX 4 1 13 2 11 3 9 4 6 5 5 6 3 7 2 8 1 9 14 10 12 12 7 14 8 15
REMARK SMILES IDX 10 17
REMARK H PARENT 14 11 12 13 8 16 10 18
REMARK Flexibility Score: inf
ROOT
ATOM      1  C   UNL     1       6.758  -8.983   1.728  1.00  0.00     0.281 C 
ATOM      2  C   UNL     1       5.470  -9.027   0.868  1.00  0.00     0.202 C 
ATOM      3  C   UNL     1       5.756  -8.658  -0.611  1.00  0.00     0.179 C 
ATOM      4  C   UNL     1       7.243  -8.843  -0.945  1.00  0.00     0.177 C 
ATOM      5  C   UNL     1       8.092  -7.986   0.038  1.00  0.00     0.178 C 
ATOM      6  O   UNL     1       7.554  -7.872   1.354  1.00  0.00    -0.341 OA
ENDROOT
BRANCH   1   7
ATOM      7  O   UNL     1       6.425  -8.838   3.100  1.00  0.00    -0.350 OA
BRANCH   7   8
ATOM      8  C   UNL     1       7.371  -8.041   3.792  1.00  0.00     0.160 C 
ATOM      9  C   UNL     1       6.693  -7.280   4.926  1.00  0.00     0.035 C 
ENDBRANCH   7   8
ENDBRANCH   1   7
BRANCH   2  10
ATOM     10  O   UNL     1       4.514  -8.144   1.399  1.00  0.00    -0.385 OA
ATOM     11  H   UNL     1       3.727  -8.692   1.651  1.00  0.00     0.211 HD
ENDBRANCH   2  10
BRANCH   3  12
ATOM     12  O   UNL     1       4.980  -9.456  -1.468  1.00  0.00    -0.387 OA
ATOM     13  H   UNL     1       5.615  -9.947  -2.053  1.00  0.00     0.211 HD
ENDBRANCH   3  12
BRANCH   5  14
ATOM     14  C   UNL     1       9.560  -8.435   0.090  1.00  0.00     0.191 C 
BRANCH  14  15
ATOM     15  O   UNL     1       9.748  -9.618  -0.637  1.00  0.00    -0.394 OA
ATOM     16  H   UNL     1       9.254 -10.325  -0.146  1.00  0.00     0.210 HD
ENDBRANCH  14  15
ENDBRANCH   5  14
BRANCH   4  17
ATOM     17  O   UNL     1       7.499  -8.433  -2.264  1.00  0.00    -0.387 OA
ATOM     18  H   UNL     1       6.941  -7.629  -2.432  1.00  0.00     0.211 HD
ENDBRANCH   4  17
TORSDOF 7
ENDMDL
MODEL 9
REMARK VINA RESULT:    -3.352     13.401     15.129
REMARK INTER + INTRA:          -4.769
REMARK INTER:                  -4.368
REMARK INTRA:                  -0.400
REMARK UNBOUND:                -0.436
REMARK SMILES CCO[C@@H]1O[C@@H](CO)[C@H](O)[C@@H](O)[C@@H]1O
REMARK SMILES IDX 4 1 13 2 11 3 9 4 6 5 5 6 3 7 2 8 1 9 14 10 12 12 7 14 8 15
REMARK SMILES IDX 10 17
REMARK H PARENT 14 11 12 13 8 16 10 18
REMARK Flexibility Score: inf
ROOT
ATOM      1  C   UNL     1       9.552   5.407   4.892  1.00  0.00     0.281 C 
ATOM      2  C   UNL     1       9.853   5.043   3.416  1.00  0.00     0.202 C 
ATOM      3  C   UNL     1       9.210   6.056   2.433  1.00  0.00     0.179 C 
ATOM      4  C   UNL     1       8.900   7.383   3.140  1.00  0.00     0.177 C 
ATOM      5  C   UNL     1       7.978   7.101   4.361  1.00  0.00     0.178 C 
ATOM      6  O   UNL     1       8.214   5.857   5.019  1.00  0.00    -0.341 OA
ENDROOT
BRANCH   1   7
ATOM      7  O   UNL     1       9.707   4.264   5.718  1.00  0.00    -0.350 OA
BRANCH   7   8
ATOM      8  C   UNL     1       8.839   4.300   6.838  1.00  0.00     0.160 C 
ATOM      9  C   UNL     1       9.637   4.500   8.121  1.00  0.00     0.035 C 
ENDBRANCH   7   8
ENDBRANCH   1   7
BRANCH   2  10
ATOM     10  O   UNL     1       9.375   3.750   3.139  1.00  0.00    -0.385 OA
ATOM     11  H   UNL     1       9.687   3.165   3.877  1.00  0.00     0.211 HD
ENDBRANCH   2  10
BRANCH   3  12
ATOM     12  O   UNL     1      10.073   6.293   1.350  1.00  0.00    -0.387 OA
ATOM     13  H   UNL     1      10.358   5.404   1.012  1.00  0.00     0.211 HD
ENDBRANCH   3  12
BRANCH   5  14
ATOM     14  C   UNL     1       7.977   8.256   5.375  1.00  0.00     0.191 C 
BRANCH  14  15
ATOM     15  O   UNL     1       7.875   9.492   4.725  1.00  0.00    -0.394 OA
ATOM     16  H   UNL     1       8.672  10.015   5.000  1.00  0.00     0.210 HD
ENDBRANCH  14  15
ENDBRANCH   5  14
BRANCH   4  17
ATOM     17  O   UNL     1       8.250   8.263   2.258  1.00  0.00    -0.387 OA
ATOM     18  H   UNL     1       8.955   8.806   1.818  1.00  0.00     0.211 HD
ENDBRANCH   4  17
TORSDOF 7
ENDMDL
