MODEL 1
REMARK VINA RESULT:    -4.302      0.000      0.000
REMARK INTER + INTRA:          -6.699
REMARK INTER:                  -6.062
REMARK INTRA:                  -0.638
REMARK UNBOUND:                -0.638
REMARK SMILES C=CCCCCCCC(=O)[O-]
REMARK SMILES IDX 6 1 7 2 8 3 9 4 10 5 11 6 5 7 4 8 3 9 2 10 1 11
REMARK H PARENT
REMARK Flexibility Score: inf
ROOT
ATOM      1  C   UNL     1       7.591  44.789  22.977  1.00  0.00     0.000 C 
ENDROOT
BRANCH   1   2
ATOM      2  C   UNL     1       8.493  45.954  23.412  1.00  0.00     0.006 C 
BRANCH   2   3
ATOM      3  C   UNL     1       8.711  45.941  24.928  1.00  0.00     0.053 C 
BRANCH   3   4
ATOM      4  C   UNL     1       9.223  47.267  25.396  1.00  0.00     0.041 C 
ATOM      5  O   UNL     1       8.496  48.014  26.100  1.00  0.00    -0.550 OA
ATOM      6  O   UNL     1      10.522  47.654  25.094  1.00  0.00    -0.550 OA
ENDBRANCH   3   4
ENDBRANCH   2   3
ENDBRANCH   1   2
BRANCH   1   7
ATOM      7  C   UNL     1       6.127  45.213  22.784  1.00  0.00     0.000 C 
BRANCH   7   8
ATOM      8  C   UNL     1       5.134  44.202  23.377  1.00  0.00     0.004 C 
BRANCH   8   9
ATOM      9  C   UNL     1       4.220  44.873  24.410  1.00  0.00     0.027 C 
BRANCH   9  10
ATOM     10  C   UNL     1       4.833  46.138  24.942  1.00  0.00    -0.035 C 
ATOM     11  C   UNL     1       5.167  46.271  26.229  1.00  0.00     0.004 C 
ENDBRANCH   9  10
ENDBRANCH   8   9
ENDBRANCH   7   8
ENDBRANCH   1   7
TORSDOF 7
ENDMDL
MODEL 2
REMARK VINA RESULT:    -4.202      2.454      3.265
REMARK INTER + INTRA:          -6.559
REMARK INTER:                  -5.691
REMARK INTRA:                  -0.868
REMARK UNBOUND:                -0.638
REMARK SMILES C=CCCCCCCC(=O)[O-]
REMARK SMILES IDX 6 1 7 2 8 3 9 4 10 5 11 6 5 7 4 8 3 9 2 10 1 11
REMARK H PARENT
REMARK Flexibility Score: inf
ROOT
ATOM      1  C   UNL     1       8.578  46.499  21.066  1.00  0.00     0.000 C 
ENDROOT
BRANCH   1   2
ATOM      2  C   UNL     1      10.032  46.982  20.952  1.00  0.00     0.006 C 
BRANCH   2   3
ATOM      3  C   UNL     1      10.513  47.587  22.275  1.00  0.00     0.053 C 
BRANCH   3   4
ATOM      4  C   UNL     1       9.890  48.931  22.493  1.00  0.00     0.041 C 
ATOM      5  O   UNL     1       9.596  49.312  23.656  1.00  0.00    -0.550 OA
ATOM      6  O   UNL     1       9.681  49.782  21.416  1.00  0.00    -0.550 OA
ENDBRANCH   3   4
ENDBRANCH   2   3
ENDBRANCH   1   2
BRANCH   1   7
ATOM      7  C   UNL     1       8.476  45.018  21.464  1.00  0.00     0.000 C 
BRANCH   7   8
ATOM      8  C   UNL     1       7.745  44.812  22.800  1.00  0.00     0.004 C 
BRANCH   8   9
ATOM      9  C   UNL     1       7.100  46.119  23.279  1.00  0.00     0.027 C 
BRANCH   9  10
ATOM     10  C   UNL     1       7.604  46.509  24.641  1.00  0.00    -0.035 C 
ATOM     11  C   UNL     1       8.754  46.036  25.128  1.00  0.00     0.004 C 
ENDBRANCH   9  10
ENDBRANCH   8   9
ENDBRANCH   7   8
ENDBRANCH   1   7
TORSDOF 7
ENDMDL
MODEL 3
REMARK VINA RESULT:    -4.179      4.413      6.140
REMARK INTER + INTRA:          -6.527
REMARK INTER:                  -5.672
REMARK INTRA:                  -0.855
REMARK UNBOUND:                -0.638
REMARK SMILES C=CCCCCCCC(=O)[O-]
REMARK SMILES IDX 6 1 7 2 8 3 9 4 10 5 11 6 5 7 4 8 3 9 2 10 1 11
REMARK H PARENT
REMARK Flexibility Score: inf
ROOT
ATOM      1  C   UNL     1       8.234  49.718  23.033  1.00  0.00     0.000 C 
ENDROOT
BRANCH   1   2
ATOM      2  C   UNL     1       9.481  49.153  23.729  1.00  0.00     0.006 C 
BRANCH   2   3
ATOM      3  C   UNL     1      10.412  48.475  22.718  1.00  0.00     0.053 C 
BRANCH   3   4
ATOM      4  C   UNL     1       9.814  47.192  22.233  1.00  0.00     0.041 C 
ATOM      5  O   UNL     1       9.938  46.851  21.028  1.00  0.00    -0.550 OA
ATOM      6  O   UNL     1       9.162  46.350  23.124  1.00  0.00    -0.550 OA
ENDBRANCH   3   4
ENDBRANCH   2   3
ENDBRANCH   1   2
BRANCH   1   7
ATOM      7  C   UNL     1       8.367  51.213  22.701  1.00  0.00     0.000 C 
BRANCH   7   8
ATOM      8  C   UNL     1       8.361  51.488  21.190  1.00  0.00     0.004 C 
BRANCH   8   9
ATOM      9  C   UNL     1       7.962  50.231  20.405  1.00  0.00     0.027 C 
BRANCH   9  10
ATOM     10  C   UNL     1       8.922  49.962  19.280  1.00  0.00    -0.035 C 
ATOM     11  C   UNL     1      10.245  50.047  19.448  1.00  0.00     0.004 C 
ENDBRANCH   9  10
ENDBRANCH   8   9
ENDBRANCH   7   8
ENDBRANCH   1   7
TORSDOF 7
ENDMDL
MODEL 4
REMARK VINA RESULT:    -4.122      3.350      6.028
REMARK INTER + INTRA:          -6.447
REMARK INTER:                  -6.070
REMARK INTRA:                  -0.377
REMARK UNBOUND:                -0.638
REMARK SMILES C=CCCCCCCC(=O)[O-]
REMARK SMILES IDX 6 1 7 2 8 3 9 4 10 5 11 6 5 7 4 8 3 9 2 10 1 11
REMARK H PARENT
REMARK Flexibility Score: inf
ROOT
ATOM      1  C   UNL     1       9.449  47.029  24.742  1.00  0.00     0.000 C 
ENDROOT
BRANCH   1   2
ATOM      2  C   UNL     1       8.468  45.850  24.834  1.00  0.00     0.006 C 
BRANCH   2   3
ATOM      3  C   UNL     1       7.221  46.109  23.981  1.00  0.00     0.053 C 
BRANCH   3   4
ATOM      4  C   UNL     1       7.032  45.011  22.983  1.00  0.00     0.041 C 
ATOM      5  O   UNL     1       7.974  44.682  22.216  1.00  0.00    -0.550 OA
ATOM      6  O   UNL     1       5.830  44.317  22.934  1.00  0.00    -0.550 OA
ENDBRANCH   3   4
ENDBRANCH   2   3
ENDBRANCH   1   2
BRANCH   1   7
ATOM      7  C   UNL     1       9.843  47.362  23.295  1.00  0.00     0.000 C 
BRANCH   7   8
ATOM      8  C   UNL     1      11.193  48.088  23.199  1.00  0.00     0.004 C 
BRANCH   8   9
ATOM      9  C   UNL     1      11.804  48.295  24.591  1.00  0.00     0.027 C 
BRANCH   9  10
ATOM     10  C   UNL     1      13.283  48.028  24.583  1.00  0.00    -0.035 C 
ATOM     11  C   UNL     1      13.975  47.931  23.444  1.00  0.00     0.004 C 
ENDBRANCH   9  10
ENDBRANCH   8   9
ENDBRANCH   7   8
ENDBRANCH   1   7
TORSDOF 7
ENDMDL
MODEL 5
REMARK VINA RESULT:    -4.086      1.742      3.415
REMARK INTER + INTRA:          -6.396
REMARK INTER:                  -5.504
REMARK INTRA:                  -0.892
REMARK UNBOUND:                -0.638
REMARK SMILES C=CCCCCCCC(=O)[O-]
REMARK SMILES IDX 6 1 7 2 8 3 9 4 10 5 11 6 5 7 4 8 3 9 2 10 1 11
REMARK H PARENT
REMARK Flexibility Score: inf
ROOT
ATOM      1  C   UNL     1       4.956  45.721  24.582  1.00  0.00     0.000 C 
ENDROOT
BRANCH   1   2
ATOM      2  C   UNL     1       4.726  47.168  24.119  1.00  0.00     0.006 C 
BRANCH   2   3
ATOM      3  C   UNL     1       5.231  48.165  25.167  1.00  0.00     0.053 C 
BRANCH   3   4
ATOM      4  C   UNL     1       6.445  48.882  24.665  1.00  0.00     0.041 C 
ATOM      5  O   UNL     1       7.267  49.382  25.477  1.00  0.00    -0.550 OA
ATOM      6  O   UNL     1       6.694  48.955  23.301  1.00  0.00    -0.550 OA
ENDBRANCH   3   4
ENDBRANCH   2   3
ENDBRANCH   1   2
BRANCH   1   7
ATOM      7  C   UNL     1       5.427  44.803  23.443  1.00  0.00     0.000 C 
BRANCH   7   8
ATOM      8  C   UNL     1       6.534  45.438  22.589  1.00  0.00     0.004 C 
BRANCH   8   9
ATOM      9  C   UNL     1       7.918  44.944  23.029  1.00  0.00     0.027 C 
BRANCH   9  10
ATOM     10  C   UNL     1       8.654  46.004  23.802  1.00  0.00    -0.035 C 
ATOM     11  C   UNL     1       8.701  45.996  25.137  1.00  0.00     0.004 C 
ENDBRANCH   9  10
ENDBRANCH   8   9
ENDBRANCH   7   8
ENDBRANCH   1   7
TORSDOF 7
ENDMDL
MODEL 6
REMARK VINA RESULT:    -4.071      4.438      5.617
REMARK INTER + INTRA:          -6.374
REMARK INTER:                  -5.580
REMARK INTRA:                  -0.794
REMARK UNBOUND:                -0.638
REMARK SMILES C=CCCCCCCC(=O)[O-]
REMARK SMILES IDX 6 1 7 2 8 3 9 4 10 5 11 6 5 7 4 8 3 9 2 10 1 11
REMARK H PARENT
REMARK Flexibility Score: inf
ROOT
ATOM      1  C   UNL     1      10.227  49.633  19.914  1.00  0.00     0.000 C 
ENDROOT
BRANCH   1   2
ATOM      2  C   UNL     1      10.792  48.308  20.446  1.00  0.00     0.006 C 
BRANCH   2   3
ATOM      3  C   UNL     1      10.713  48.254  21.976  1.00  0.00     0.053 C 
BRANCH   3   4
ATOM      4  C   UNL     1       9.842  47.120  22.416  1.00  0.00     0.041 C 
ATOM      5  O   UNL     1       9.596  46.947  23.638  1.00  0.00    -0.550 OA
ATOM      6  O   UNL     1       9.263  46.282  21.471  1.00  0.00    -0.550 OA
ENDBRANCH   3   4
ENDBRANCH   2   3
ENDBRANCH   1   2
BRANCH   1   7
ATOM      7  C   UNL     1       8.766  49.513  19.454  1.00  0.00     0.000 C 
BRANCH   7   8
ATOM      8  C   UNL     1       7.774  50.093  20.475  1.00  0.00     0.004 C 
BRANCH   8   9
ATOM      9  C   UNL     1       8.296  51.412  21.058  1.00  0.00     0.027 C 
BRANCH   9  10
ATOM     10  C   UNL     1       8.381  51.349  22.558  1.00  0.00    -0.035 C 
ATOM     11  C   UNL     1       7.790  50.376  23.257  1.00  0.00     0.004 C 
ENDBRANCH   9  10
ENDBRANCH   8   9
ENDBRANCH   7   8
ENDBRANCH   1   7
TORSDOF 7
ENDMDL
MODEL 7
REMARK VINA RESULT:    -4.068      6.506      7.787
REMARK INTER + INTRA:          -6.371
REMARK INTER:                  -5.686
REMARK INTRA:                  -0.685
REMARK UNBOUND:                -0.638
REMARK SMILES C=CCCCCCCC(=O)[O-]
REMARK SMILES IDX 6 1 7 2 8 3 9 4 10 5 11 6 5 7 4 8 3 9 2 10 1 11
REMARK H PARENT
REMARK Flexibility Score: inf
ROOT
ATOM      1  C   UNL     1       6.400  49.717  18.303  1.00  0.00     0.000 C 
ENDROOT
BRANCH   1   2
ATOM      2  C   UNL     1       7.394  49.151  17.278  1.00  0.00     0.006 C 
BRANCH   2   3
ATOM      3  C   UNL     1       7.250  47.630  17.159  1.00  0.00     0.053 C 
BRANCH   3   4
ATOM      4  C   UNL     1       8.520  46.951  17.562  1.00  0.00     0.041 C 
ATOM      5  O   UNL     1       8.618  46.408  18.693  1.00  0.00    -0.550 OA
ATOM      6  O   UNL     1       9.581  46.874  16.668  1.00  0.00    -0.550 OA
ENDBRANCH   3   4
ENDBRANCH   2   3
ENDBRANCH   1   2
BRANCH   1   7
ATOM      7  C   UNL     1       6.914  49.611  19.747  1.00  0.00     0.000 C 
BRANCH   7   8
ATOM      8  C   UNL     1       7.586  50.904  20.234  1.00  0.00     0.004 C 
BRANCH   8   9
ATOM      9  C   UNL     1       9.011  50.628  20.729  1.00  0.00     0.027 C 
BRANCH   9  10
ATOM     10  C   UNL     1       9.922  50.255  19.593  1.00  0.00    -0.035 C 
ATOM     11  C   UNL     1      10.639  49.129  19.606  1.00  0.00     0.004 C 
ENDBRANCH   9  10
ENDBRANCH   8   9
ENDBRANCH   7   8
ENDBRANCH   1   7
TORSDOF 7
ENDMDL
MODEL 8
REMARK VINA RESULT:    -4.056      2.221      2.809
REMARK INTER + INTRA:          -6.353
REMARK INTER:                  -5.641
REMARK INTRA:                  -0.712
REMARK UNBOUND:                -0.638
REMARK SMILES C=CCCCCCCC(=O)[O-]
REMARK SMILES IDX 6 1 7 2 8 3 9 4 10 5 11 6 5 7 4 8 3 9 2 10 1 11
REMARK H PARENT
REMARK Flexibility Score: inf
ROOT
ATOM      1  C   UNL     1       8.389  45.080  21.651  1.00  0.00     0.000 C 
ENDROOT
BRANCH   1   2
ATOM      2  C   UNL     1       8.989  46.471  21.397  1.00  0.00     0.006 C 
BRANCH   2   3
ATOM      3  C   UNL     1       9.576  47.056  22.686  1.00  0.00     0.053 C 
BRANCH   3   4
ATOM      4  C   UNL     1      10.946  47.604  22.435  1.00  0.00     0.041 C 
ATOM      5  O   UNL     1      11.459  47.529  21.288  1.00  0.00    -0.550 OA
ATOM      6  O   UNL     1      11.636  48.244  23.457  1.00  0.00    -0.550 OA
ENDBRANCH   3   4
ENDBRANCH   2   3
ENDBRANCH   1   2
BRANCH   1   7
ATOM      7  C   UNL     1       7.719  44.966  23.029  1.00  0.00     0.000 C 
BRANCH   7   8
ATOM      8  C   UNL     1       6.188  44.871  22.939  1.00  0.00     0.004 C 
BRANCH   8   9
ATOM      9  C   UNL     1       5.521  45.977  23.765  1.00  0.00     0.027 C 
BRANCH   9  10
ATOM     10  C   UNL     1       5.736  47.329  23.143  1.00  0.00    -0.035 C 
ATOM     11  C   UNL     1       6.243  48.351  23.838  1.00  0.00     0.004 C 
ENDBRANCH   9  10
ENDBRANCH   8   9
ENDBRANCH   7   8
ENDBRANCH   1   7
TORSDOF 7
ENDMDL
MODEL 9
REMARK VINA RESULT:    -4.005      5.559      6.468
REMARK INTER + INTRA:          -6.281
REMARK INTER:                  -5.636
REMARK INTRA:                  -0.645
REMARK UNBOUND:                -0.638
REMARK SMILES C=CCCCCCCC(=O)[O-]
REMARK SMILES IDX 6 1 7 2 8 3 9 4 10 5 11 6 5 7 4 8 3 9 2 10 1 11
REMARK H PARENT
REMARK Flexibility Score: inf
ROOT
ATOM      1  C   UNL     1       9.270  50.485  20.390  1.00  0.00     0.000 C 
ENDROOT
BRANCH   1   2
ATOM      2  C   UNL     1       8.223  51.361  21.095  1.00  0.00     0.006 C 
BRANCH   2   3
ATOM      3  C   UNL     1       8.409  51.319  22.615  1.00  0.00     0.053 C 
BRANCH   3   4
ATOM      4  C   UNL     1       8.444  49.904  23.100  1.00  0.00     0.041 C 
ATOM      5  O   UNL     1       9.460  49.464  23.699  1.00  0.00    -0.550 OA
ATOM      6  O   UNL     1       7.334  49.086  22.934  1.00  0.00    -0.550 OA
ENDBRANCH   3   4
ENDBRANCH   2   3
ENDBRANCH   1   2
BRANCH   1   7
ATOM      7  C   UNL     1       8.737  49.850  19.097  1.00  0.00     0.000 C 
BRANCH   7   8
ATOM      8  C   UNL     1       7.329  49.257  19.263  1.00  0.00     0.004 C 
BRANCH   8   9
ATOM      9  C   UNL     1       6.404  49.716  18.130  1.00  0.00     0.027 C 
BRANCH   9  10
ATOM     10  C   UNL     1       5.416  50.742  18.613  1.00  0.00    -0.035 C 
ATOM     11  C   UNL     1       5.685  52.050  18.576  1.00  0.00     0.004 C 
ENDBRANCH   9  10
ENDBRANCH   8   9
ENDBRANCH   7   8
ENDBRANCH   1   7
TORSDOF 7
ENDMDL
