MODEL 1
REMARK VINA RESULT:    -4.803      0.000      0.000
REMARK INTER + INTRA:          -5.591
REMARK INTER:                  -5.364
REMARK INTRA:                  -0.227
REMARK UNBOUND:                -0.227
REMARK SMILES O=C([O-])c1ccccc1C(=O)[O-]
REMARK SMILES IDX 4 1 9 2 5 3 8 4 6 5 7 6 2 7 1 8 3 9 10 10 11 11 12 12
REMARK H PARENT
REMARK Flexibility Score: inf
ROOT
ATOM      1  C   UNL     1       9.814   6.668 -20.869  1.00  0.00     0.006 A 
ATOM      2  C   UNL     1       9.478   6.732 -19.488  1.00  0.00     0.006 A 
ATOM      3  C   UNL     1      11.032   6.076 -21.250  1.00  0.00     0.010 A 
ATOM      4  C   UNL     1      10.343   6.145 -18.546  1.00  0.00     0.010 A 
ATOM      5  C   UNL     1      11.885   5.520 -20.296  1.00  0.00     0.001 A 
ATOM      6  C   UNL     1      11.535   5.543 -18.948  1.00  0.00     0.001 A 
ENDROOT
BRANCH   1   7
ATOM      7  C   UNL     1       8.898   7.133 -21.935  1.00  0.00     0.072 C 
ATOM      8  O   UNL     1       9.105   8.233 -22.515  1.00  0.00    -0.545 OA
ATOM      9  O   UNL     1       7.838   6.339 -22.357  1.00  0.00    -0.545 OA
ENDBRANCH   1   7
BRANCH   2  10
ATOM     10  C   UNL     1       8.288   7.459 -18.989  1.00  0.00     0.072 C 
ATOM     11  O   UNL     1       8.353   8.694 -18.751  1.00  0.00    -0.545 OA
ATOM     12  O   UNL     1       7.071   6.806 -18.837  1.00  0.00    -0.545 OA
ENDBRANCH   2  10
TORSDOF 2
ENDMDL
MODEL 2
REMARK VINA RESULT:    -4.799      0.077      2.860
REMARK INTER + INTRA:          -5.586
REMARK INTER:                  -5.369
REMARK INTRA:                  -0.217
REMARK UNBOUND:                -0.227
REMARK SMILES O=C([O-])c1ccccc1C(=O)[O-]
REMARK SMILES IDX 4 1 9 2 5 3 8 4 6 5 7 6 2 7 1 8 3 9 10 10 11 11 12 12
REMARK H PARENT
REMARK Flexibility Score: inf
ROOT
ATOM      1  C   UNL     1       9.475   6.718 -19.549  1.00  0.00     0.006 A 
ATOM      2  C   UNL     1       9.812   6.662 -20.929  1.00  0.00     0.006 A 
ATOM      3  C   UNL     1      10.349   6.144 -18.607  1.00  0.00     0.010 A 
ATOM      4  C   UNL     1      11.040   6.090 -21.311  1.00  0.00     0.010 A 
ATOM      5  C   UNL     1      11.552   5.562 -19.010  1.00  0.00     0.001 A 
ATOM      6  C   UNL     1      11.902   5.547 -20.358  1.00  0.00     0.001 A 
ENDROOT
BRANCH   1   7
ATOM      7  C   UNL     1       8.274   7.425 -19.049  1.00  0.00     0.072 C 
ATOM      8  O   UNL     1       8.331   8.651 -18.766  1.00  0.00    -0.545 OA
ATOM      9  O   UNL     1       7.054   6.766 -18.945  1.00  0.00    -0.545 OA
ENDBRANCH   1   7
BRANCH   2  10
ATOM     10  C   UNL     1       8.889   7.114 -21.996  1.00  0.00     0.072 C 
ATOM     11  O   UNL     1       9.127   8.173 -22.633  1.00  0.00    -0.545 OA
ATOM     12  O   UNL     1       7.787   6.345 -22.352  1.00  0.00    -0.545 OA
ENDBRANCH   2  10
TORSDOF 2
ENDMDL
MODEL 3
REMARK VINA RESULT:    -4.332      1.849      3.506
REMARK INTER + INTRA:          -5.065
REMARK INTER:                  -4.853
REMARK INTRA:                  -0.212
REMARK UNBOUND:                -0.227
REMARK SMILES O=C([O-])c1ccccc1C(=O)[O-]
REMARK SMILES IDX 4 1 9 2 5 3 8 4 6 5 7 6 2 7 1 8 3 9 10 10 11 11 12 12
REMARK H PARENT
REMARK Flexibility Score: inf
ROOT
ATOM      1  C   UNL     1       8.731   7.114 -20.327  1.00  0.00     0.006 A 
ATOM      2  C   UNL     1      10.088   6.707 -20.196  1.00  0.00     0.006 A 
ATOM      3  C   UNL     1       8.247   7.478 -21.597  1.00  0.00     0.010 A 
ATOM      4  C   UNL     1      10.891   6.617 -21.349  1.00  0.00     0.010 A 
ATOM      5  C   UNL     1       9.067   7.404 -22.724  1.00  0.00     0.001 A 
ATOM      6  C   UNL     1      10.382   6.963 -22.601  1.00  0.00     0.001 A 
ENDROOT
BRANCH   1   7
ATOM      7  C   UNL     1       7.780   7.100 -19.193  1.00  0.00     0.072 C 
ATOM      8  O   UNL     1       7.068   6.084 -18.974  1.00  0.00    -0.545 OA
ATOM      9  O   UNL     1       7.704   8.177 -18.317  1.00  0.00    -0.545 OA
ENDBRANCH   1   7
BRANCH   2  10
ATOM     10  C   UNL     1      10.718   6.441 -18.882  1.00  0.00     0.072 C 
ATOM     11  O   UNL     1      10.984   5.261 -18.533  1.00  0.00    -0.545 OA
ATOM     12  O   UNL     1      11.082   7.490 -18.046  1.00  0.00    -0.545 OA
ENDBRANCH   2  10
TORSDOF 2
ENDMDL
MODEL 4
REMARK VINA RESULT:    -4.319      1.882      3.356
REMARK INTER + INTRA:          -5.051
REMARK INTER:                  -4.844
REMARK INTRA:                  -0.208
REMARK UNBOUND:                -0.227
REMARK SMILES O=C([O-])c1ccccc1C(=O)[O-]
REMARK SMILES IDX 4 1 9 2 5 3 8 4 6 5 7 6 2 7 1 8 3 9 10 10 11 11 12 12
REMARK H PARENT
REMARK Flexibility Score: inf
ROOT
ATOM      1  C   UNL     1      10.026   6.749 -20.223  1.00  0.00     0.006 A 
ATOM      2  C   UNL     1       8.661   7.133 -20.330  1.00  0.00     0.006 A 
ATOM      3  C   UNL     1      10.817   6.701 -21.386  1.00  0.00     0.010 A 
ATOM      4  C   UNL     1       8.154   7.515 -21.587  1.00  0.00     0.010 A 
ATOM      5  C   UNL     1      10.288   7.063 -22.625  1.00  0.00     0.001 A 
ATOM      6  C   UNL     1       8.963   7.481 -22.723  1.00  0.00     0.001 A 
ENDROOT
BRANCH   1   7
ATOM      7  C   UNL     1      10.677   6.468 -18.922  1.00  0.00     0.072 C 
ATOM      8  O   UNL     1      10.976   5.286 -18.605  1.00  0.00    -0.545 OA
ATOM      9  O   UNL     1      11.024   7.506 -18.064  1.00  0.00    -0.545 OA
ENDBRANCH   1   7
BRANCH   2  10
ATOM     10  C   UNL     1       7.723   7.077 -19.185  1.00  0.00     0.072 C 
ATOM     11  O   UNL     1       7.019   6.051 -18.992  1.00  0.00    -0.545 OA
ATOM     12  O   UNL     1       7.653   8.124 -18.275  1.00  0.00    -0.545 OA
ENDBRANCH   2  10
TORSDOF 2
ENDMDL
MODEL 5
REMARK VINA RESULT:    -4.114      2.426      3.548
REMARK INTER + INTRA:          -4.821
REMARK INTER:                  -4.606
REMARK INTRA:                  -0.216
REMARK UNBOUND:                -0.227
REMARK SMILES O=C([O-])c1ccccc1C(=O)[O-]
REMARK SMILES IDX 4 1 9 2 5 3 8 4 6 5 7 6 2 7 1 8 3 9 10 10 11 11 12 12
REMARK H PARENT
REMARK Flexibility Score: inf
ROOT
ATOM      1  C   UNL     1       8.468   7.576 -20.664  1.00  0.00     0.006 A 
ATOM      2  C   UNL     1       8.188   8.966 -20.773  1.00  0.00     0.006 A 
ATOM      3  C   UNL     1       9.209   6.946 -21.681  1.00  0.00     0.010 A 
ATOM      4  C   UNL     1       8.713   9.687 -21.862  1.00  0.00     0.010 A 
ATOM      5  C   UNL     1       9.701   7.675 -22.764  1.00  0.00     0.001 A 
ATOM      6  C   UNL     1       9.464   9.045 -22.847  1.00  0.00     0.001 A 
ENDROOT
BRANCH   1   7
ATOM      7  C   UNL     1       8.076   6.773 -19.484  1.00  0.00     0.072 C 
ATOM      8  O   UNL     1       8.899   6.575 -18.549  1.00  0.00    -0.545 OA
ATOM      9  O   UNL     1       6.782   6.282 -19.357  1.00  0.00    -0.545 OA
ENDBRANCH   1   7
BRANCH   2  10
ATOM     10  C   UNL     1       7.300   9.679 -19.825  1.00  0.00     0.072 C 
ATOM     11  O   UNL     1       6.061   9.739 -20.041  1.00  0.00    -0.545 OA
ATOM     12  O   UNL     1       7.810  10.233 -18.657  1.00  0.00    -0.545 OA
ENDBRANCH   2  10
TORSDOF 2
ENDMDL
MODEL 6
REMARK VINA RESULT:    -4.104      2.206      4.362
REMARK INTER + INTRA:          -4.811
REMARK INTER:                  -4.587
REMARK INTRA:                  -0.224
REMARK UNBOUND:                -0.227
REMARK SMILES O=C([O-])c1ccccc1C(=O)[O-]
REMARK SMILES IDX 4 1 9 2 5 3 8 4 6 5 7 6 2 7 1 8 3 9 10 10 11 11 12 12
REMARK H PARENT
REMARK Flexibility Score: inf
ROOT
ATOM      1  C   UNL     1       9.463   6.824 -19.626  1.00  0.00     0.006 A 
ATOM      2  C   UNL     1       9.586   7.110 -21.014  1.00  0.00     0.006 A 
ATOM      3  C   UNL     1       8.179   6.706 -19.063  1.00  0.00     0.010 A 
ATOM      4  C   UNL     1       8.422   7.205 -21.799  1.00  0.00     0.010 A 
ATOM      5  C   UNL     1       7.037   6.825 -19.856  1.00  0.00     0.001 A 
ATOM      6  C   UNL     1       7.159   7.062 -21.223  1.00  0.00     0.001 A 
ENDROOT
BRANCH   1   7
ATOM      7  C   UNL     1      10.635   6.568 -18.757  1.00  0.00     0.072 C 
ATOM      8  O   UNL     1      11.099   5.402 -18.643  1.00  0.00    -0.545 OA
ATOM      9  O   UNL     1      11.278   7.616 -18.107  1.00  0.00    -0.545 OA
ENDBRANCH   1   7
BRANCH   2  10
ATOM     10  C   UNL     1      10.890   7.388 -21.660  1.00  0.00     0.072 C 
ATOM     11  O   UNL     1      11.543   6.455 -22.197  1.00  0.00    -0.545 OA
ATOM     12  O   UNL     1      11.378   8.687 -21.739  1.00  0.00    -0.545 OA
ENDBRANCH   2  10
TORSDOF 2
ENDMDL
MODEL 7
REMARK VINA RESULT:    -4.089     16.816     18.382
REMARK INTER + INTRA:          -4.794
REMARK INTER:                  -4.669
REMARK INTRA:                  -0.125
REMARK UNBOUND:                -0.227
REMARK SMILES O=C([O-])c1ccccc1C(=O)[O-]
REMARK SMILES IDX 4 1 9 2 5 3 8 4 6 5 7 6 2 7 1 8 3 9 10 10 11 11 12 12
REMARK H PARENT
REMARK Flexibility Score: inf
ROOT
ATOM      1  C   UNL     1      19.022  -4.460 -11.050  1.00  0.00     0.006 A 
ATOM      2  C   UNL     1      19.810  -5.642 -10.979  1.00  0.00     0.006 A 
ATOM      3  C   UNL     1      18.984  -3.736 -12.255  1.00  0.00     0.010 A 
ATOM      4  C   UNL     1      20.478  -6.090 -12.134  1.00  0.00     0.010 A 
ATOM      5  C   UNL     1      19.672  -4.186 -13.383  1.00  0.00     0.001 A 
ATOM      6  C   UNL     1      20.407  -5.367 -13.325  1.00  0.00     0.001 A 
ENDROOT
BRANCH   1   7
ATOM      7  C   UNL     1      18.177  -3.996  -9.927  1.00  0.00     0.072 C 
ATOM      8  O   UNL     1      16.935  -4.209  -9.938  1.00  0.00    -0.545 OA
ATOM      9  O   UNL     1      18.745  -3.379  -8.818  1.00  0.00    -0.545 OA
ENDBRANCH   1   7
BRANCH   2  10
ATOM     10  C   UNL     1      20.020  -6.388  -9.716  1.00  0.00     0.072 C 
ATOM     11  O   UNL     1      21.122  -6.314  -9.112  1.00  0.00    -0.545 OA
ATOM     12  O   UNL     1      18.987  -7.125  -9.148  1.00  0.00    -0.545 OA
ENDBRANCH   2  10
TORSDOF 2
ENDMDL
MODEL 8
REMARK VINA RESULT:    -4.084      2.221      3.380
REMARK INTER + INTRA:          -4.789
REMARK INTER:                  -4.614
REMARK INTRA:                  -0.174
REMARK UNBOUND:                -0.227
REMARK SMILES O=C([O-])c1ccccc1C(=O)[O-]
REMARK SMILES IDX 4 1 9 2 5 3 8 4 6 5 7 6 2 7 1 8 3 9 10 10 11 11 12 12
REMARK H PARENT
REMARK Flexibility Score: inf
ROOT
ATOM      1  C   UNL     1       9.616   7.093 -21.072  1.00  0.00     0.006 A 
ATOM      2  C   UNL     1       9.552   6.842 -19.673  1.00  0.00     0.006 A 
ATOM      3  C   UNL     1       8.420   7.161 -21.810  1.00  0.00     0.010 A 
ATOM      4  C   UNL     1       8.292   6.732 -19.054  1.00  0.00     0.010 A 
ATOM      5  C   UNL     1       7.182   7.027 -21.179  1.00  0.00     0.001 A 
ATOM      6  C   UNL     1       7.119   6.825 -19.803  1.00  0.00     0.001 A 
ENDROOT
BRANCH   1   7
ATOM      7  C   UNL     1      10.889   7.362 -21.777  1.00  0.00     0.072 C 
ATOM      8  O   UNL     1      11.644   6.410 -22.109  1.00  0.00    -0.545 OA
ATOM      9  O   UNL     1      11.239   8.658 -22.140  1.00  0.00    -0.545 OA
ENDBRANCH   1   7
BRANCH   2  10
ATOM     10  C   UNL     1      10.760   6.616 -18.847  1.00  0.00     0.072 C 
ATOM     11  O   UNL     1      11.251   5.461 -18.745  1.00  0.00    -0.545 OA
ATOM     12  O   UNL     1      11.403   7.680 -18.226  1.00  0.00    -0.545 OA
ENDBRANCH   2  10
TORSDOF 2
ENDMDL
MODEL 9
REMARK VINA RESULT:    -4.067      2.439      3.541
REMARK INTER + INTRA:          -4.770
REMARK INTER:                  -4.556
REMARK INTRA:                  -0.214
REMARK UNBOUND:                -0.227
REMARK SMILES O=C([O-])c1ccccc1C(=O)[O-]
REMARK SMILES IDX 4 1 9 2 5 3 8 4 6 5 7 6 2 7 1 8 3 9 10 10 11 11 12 12
REMARK H PARENT
REMARK Flexibility Score: inf
ROOT
ATOM      1  C   UNL     1       8.219   8.999 -20.723  1.00  0.00     0.006 A 
ATOM      2  C   UNL     1       8.484   7.603 -20.647  1.00  0.00     0.006 A 
ATOM      3  C   UNL     1       8.748   9.738 -21.796  1.00  0.00     0.010 A 
ATOM      4  C   UNL     1       9.213   6.988 -21.682  1.00  0.00     0.010 A 
ATOM      5  C   UNL     1       9.488   9.112 -22.800  1.00  0.00     0.001 A 
ATOM      6  C   UNL     1       9.709   7.738 -22.749  1.00  0.00     0.001 A 
ENDROOT
BRANCH   1   7
ATOM      7  C   UNL     1       7.344   9.698 -19.755  1.00  0.00     0.072 C 
ATOM      8  O   UNL     1       7.838  10.240 -18.729  1.00  0.00    -0.545 OA
ATOM      9  O   UNL     1       5.981   9.825 -19.993  1.00  0.00    -0.545 OA
ENDBRANCH   1   7
BRANCH   2  10
ATOM     10  C   UNL     1       8.087   6.777 -19.484  1.00  0.00     0.072 C 
ATOM     11  O   UNL     1       8.897   6.581 -18.540  1.00  0.00    -0.545 OA
ATOM     12  O   UNL     1       6.800   6.261 -19.387  1.00  0.00    -0.545 OA
ENDBRANCH   2  10
TORSDOF 2
ENDMDL
