MODEL 1
REMARK VINA RESULT:    -3.119      0.000      0.000
REMARK INTER + INTRA:          -4.443
REMARK INTER:                  -3.848
REMARK INTRA:                  -0.595
REMARK UNBOUND:                -0.595
REMARK SMILES CC(C)=CCC[C@@H](C)c1ccc(C)cc1
REMARK SMILES IDX 6 1 7 2 8 3 9 4 13 5 12 6 11 7 14 8 10 9 15 10 5 11 4 12
REMARK SMILES IDX 2 13 1 14 3 15
REMARK H PARENT
REMARK Flexibility Score: inf
ROOT
ATOM      1  C   UNL     1      -2.162 -10.696  -1.371  1.00  0.00     0.012 C 
ENDROOT
BRANCH   1   2
ATOM      2  C   UNL     1      -0.694 -11.021  -0.998  1.00  0.00     0.016 C 
ATOM      3  C   UNL     1       0.043 -11.763  -2.125  1.00  0.00     0.013 C 
BRANCH   2   4
ATOM      4  C   UNL     1       0.051  -9.749  -0.633  1.00  0.00    -0.045 A 
ATOM      5  C   UNL     1       2.120  -6.101   0.403  1.00  0.00     0.044 C 
ATOM      6  C   UNL     1       1.420  -7.383   0.061  1.00  0.00    -0.051 A 
ATOM      7  C   UNL     1       0.293  -7.789   0.790  1.00  0.00     0.004 A 
ATOM      8  C   UNL     1       1.844  -8.151  -1.033  1.00  0.00     0.004 A 
ATOM      9  C   UNL     1      -0.383  -8.964   0.450  1.00  0.00     0.004 A 
ATOM     10  C   UNL     1       1.170  -9.326  -1.375  1.00  0.00     0.004 A 
ENDBRANCH   2   4
ENDBRANCH   1   2
BRANCH   1  11
ATOM     11  C   UNL     1      -2.880 -11.834  -2.117  1.00  0.00     0.028 C 
BRANCH  11  12
ATOM     12  C   UNL     1      -3.935 -12.503  -1.267  1.00  0.00    -0.028 C 
ATOM     13  C   UNL     1      -4.030 -13.844  -1.135  1.00  0.00    -0.080 C 
ATOM     14  C   UNL     1      -3.076 -14.778  -1.835  1.00  0.00     0.039 C 
ATOM     15  C   UNL     1      -5.114 -14.443  -0.277  1.00  0.00     0.039 C 
ENDBRANCH  11  12
ENDBRANCH   1  11
TORSDOF 4
ENDMDL
MODEL 2
REMARK VINA RESULT:    -2.864      0.315      1.287
REMARK INTER + INTRA:          -4.128
REMARK INTER:                  -3.452
REMARK INTRA:                  -0.676
REMARK UNBOUND:                -0.595
REMARK SMILES CC(C)=CCC[C@@H](C)c1ccc(C)cc1
REMARK SMILES IDX 6 1 7 2 8 3 9 4 13 5 12 6 11 7 14 8 10 9 15 10 5 11 4 12
REMARK SMILES IDX 2 13 1 14 3 15
REMARK H PARENT
REMARK Flexibility Score: inf
ROOT
ATOM      1  C   UNL     1      -2.275 -10.578  -0.897  1.00  0.00     0.012 C 
ENDROOT
BRANCH   1   2
ATOM      2  C   UNL     1      -0.747 -10.827  -0.832  1.00  0.00     0.016 C 
ATOM      3  C   UNL     1      -0.207 -11.471  -2.119  1.00  0.00     0.013 C 
BRANCH   2   4
ATOM      4  C   UNL     1      -0.014  -9.529  -0.546  1.00  0.00    -0.045 A 
ATOM      5  C   UNL     1       2.125  -5.864   0.265  1.00  0.00     0.044 C 
ATOM      6  C   UNL     1       1.362  -7.121  -0.033  1.00  0.00    -0.051 A 
ATOM      7  C   UNL     1       1.717  -7.920  -1.130  1.00  0.00     0.004 A 
ATOM      8  C   UNL     1       0.335  -7.545   0.822  1.00  0.00     0.004 A 
ATOM      9  C   UNL     1       1.032  -9.110  -1.388  1.00  0.00     0.004 A 
ATOM     10  C   UNL     1      -0.352  -8.734   0.566  1.00  0.00     0.004 A 
ENDBRANCH   2   4
ENDBRANCH   1   2
BRANCH   1  11
ATOM     11  C   UNL     1      -3.012 -11.491  -1.892  1.00  0.00     0.028 C 
BRANCH  11  12
ATOM     12  C   UNL     1      -4.022 -12.386  -1.213  1.00  0.00    -0.028 C 
ATOM     13  C   UNL     1      -3.940 -13.734  -1.232  1.00  0.00    -0.080 C 
ATOM     14  C   UNL     1      -2.817 -14.448  -1.941  1.00  0.00     0.039 C 
ATOM     15  C   UNL     1      -4.989 -14.565  -0.540  1.00  0.00     0.039 C 
ENDBRANCH  11  12
ENDBRANCH   1  11
TORSDOF 4
ENDMDL
MODEL 3
REMARK VINA RESULT:    -2.213      1.390      2.189
REMARK INTER + INTRA:          -3.325
REMARK INTER:                  -2.731
REMARK INTRA:                  -0.594
REMARK UNBOUND:                -0.595
REMARK SMILES CC(C)=CCC[C@@H](C)c1ccc(C)cc1
REMARK SMILES IDX 6 1 7 2 8 3 9 4 13 5 12 6 11 7 14 8 10 9 15 10 5 11 4 12
REMARK SMILES IDX 2 13 1 14 3 15
REMARK H PARENT
REMARK Flexibility Score: inf
ROOT
ATOM      1  C   UNL     1      -2.934 -10.387  -1.933  1.00  0.00     0.012 C 
ENDROOT
BRANCH   1   2
ATOM      2  C   UNL     1      -1.839 -11.176  -1.173  1.00  0.00     0.016 C 
ATOM      3  C   UNL     1      -0.913 -11.951  -2.125  1.00  0.00     0.013 C 
BRANCH   2   4
ATOM      4  C   UNL     1      -1.026 -10.240  -0.297  1.00  0.00    -0.045 A 
ATOM      5  C   UNL     1       1.329  -7.614   2.197  1.00  0.00     0.044 C 
ATOM      6  C   UNL     1       0.500  -8.502   1.317  1.00  0.00    -0.051 A 
ATOM      7  C   UNL     1       1.038  -9.022   0.130  1.00  0.00     0.004 A 
ATOM      8  C   UNL     1      -0.794  -8.876   1.707  1.00  0.00     0.004 A 
ATOM      9  C   UNL     1       0.280  -9.879  -0.672  1.00  0.00     0.004 A 
ATOM     10  C   UNL     1      -1.553  -9.732   0.906  1.00  0.00     0.004 A 
ENDBRANCH   2   4
ENDBRANCH   1   2
BRANCH   1  11
ATOM     11  C   UNL     1      -4.244 -11.169  -2.125  1.00  0.00     0.028 C 
BRANCH  11  12
ATOM     12  C   UNL     1      -4.185 -12.550  -1.514  1.00  0.00    -0.028 C 
ATOM     13  C   UNL     1      -5.098 -13.001  -0.626  1.00  0.00    -0.080 C 
ATOM     14  C   UNL     1      -6.257 -12.146  -0.180  1.00  0.00     0.039 C 
ATOM     15  C   UNL     1      -4.971 -14.387  -0.050  1.00  0.00     0.039 C 
ENDBRANCH  11  12
ENDBRANCH   1  11
TORSDOF 4
ENDMDL
MODEL 4
REMARK VINA RESULT:    -2.100      1.491      1.882
REMARK INTER + INTRA:          -3.186
REMARK INTER:                  -2.678
REMARK INTRA:                  -0.508
REMARK UNBOUND:                -0.595
REMARK SMILES CC(C)=CCC[C@@H](C)c1ccc(C)cc1
REMARK SMILES IDX 6 1 7 2 8 3 9 4 13 5 12 6 11 7 14 8 10 9 15 10 5 11 4 12
REMARK SMILES IDX 2 13 1 14 3 15
REMARK H PARENT
REMARK Flexibility Score: inf
ROOT
ATOM      1  C   UNL     1      -1.525 -10.445  -1.314  1.00  0.00     0.012 C 
ENDROOT
BRANCH   1   2
ATOM      2  C   UNL     1      -0.009 -10.419  -0.996  1.00  0.00     0.016 C 
ATOM      3  C   UNL     1       0.812  -9.776  -2.125  1.00  0.00     0.013 C 
BRANCH   2   4
ATOM      4  C   UNL     1       0.242  -9.694   0.314  1.00  0.00    -0.045 A 
ATOM      5  C   UNL     1       0.919  -7.591   4.027  1.00  0.00     0.044 C 
ATOM      6  C   UNL     1       0.687  -8.348   2.752  1.00  0.00    -0.051 A 
ATOM      7  C   UNL     1      -0.615  -8.691   2.360  1.00  0.00     0.004 A 
ATOM      8  C   UNL     1       1.763  -8.656   1.908  1.00  0.00     0.004 A 
ATOM      9  C   UNL     1      -0.835  -9.363   1.155  1.00  0.00     0.004 A 
ATOM     10  C   UNL     1       1.545  -9.329   0.703  1.00  0.00     0.004 A 
ENDBRANCH   2   4
ENDBRANCH   1   2
BRANCH   1  11
ATOM     11  C   UNL     1      -1.990 -11.729  -2.023  1.00  0.00     0.028 C 
BRANCH  11  12
ATOM     12  C   UNL     1      -3.265 -12.283  -1.432  1.00  0.00    -0.028 C 
ATOM     13  C   UNL     1      -3.577 -13.597  -1.459  1.00  0.00    -0.080 C 
ATOM     14  C   UNL     1      -2.659 -14.616  -2.086  1.00  0.00     0.039 C 
ATOM     15  C   UNL     1      -4.872 -14.079  -0.858  1.00  0.00     0.039 C 
ENDBRANCH  11  12
ENDBRANCH   1  11
TORSDOF 4
ENDMDL
MODEL 5
REMARK VINA RESULT:    -1.856      1.245      6.603
REMARK INTER + INTRA:          -2.885
REMARK INTER:                  -2.327
REMARK INTRA:                  -0.557
REMARK UNBOUND:                -0.595
REMARK SMILES CC(C)=CCC[C@@H](C)c1ccc(C)cc1
REMARK SMILES IDX 6 1 7 2 8 3 9 4 13 5 12 6 11 7 14 8 10 9 15 10 5 11 4 12
REMARK SMILES IDX 2 13 1 14 3 15
REMARK H PARENT
REMARK Flexibility Score: inf
ROOT
ATOM      1  C   UNL     1      -0.276  -9.937  -1.101  1.00  0.00     0.012 C 
ENDROOT
BRANCH   1   2
ATOM      2  C   UNL     1      -0.358 -11.098  -2.124  1.00  0.00     0.016 C 
ATOM      3  C   UNL     1       0.910 -11.967  -2.122  1.00  0.00     0.013 C 
BRANCH   2   4
ATOM      4  C   UNL     1      -1.582 -11.954  -1.853  1.00  0.00    -0.045 A 
ATOM      5  C   UNL     1      -5.066 -14.371  -1.026  1.00  0.00     0.044 C 
ATOM      6  C   UNL     1      -3.866 -13.527  -1.341  1.00  0.00    -0.051 A 
ATOM      7  C   UNL     1      -3.882 -12.149  -1.079  1.00  0.00     0.004 A 
ATOM      8  C   UNL     1      -2.695 -14.120  -1.834  1.00  0.00     0.004 A 
ATOM      9  C   UNL     1      -2.752 -11.369  -1.337  1.00  0.00     0.004 A 
ATOM     10  C   UNL     1      -1.564 -13.341  -2.094  1.00  0.00     0.004 A 
ENDBRANCH   2   4
ENDBRANCH   1   2
BRANCH   1  11
ATOM     11  C   UNL     1       1.135  -9.345  -0.944  1.00  0.00     0.028 C 
BRANCH  11  12
ATOM     12  C   UNL     1       1.603  -9.344   0.493  1.00  0.00    -0.028 C 
ATOM     13  C   UNL     1       1.455  -8.281   1.312  1.00  0.00    -0.080 C 
ATOM     14  C   UNL     1       0.803  -7.005   0.844  1.00  0.00     0.039 C 
ATOM     15  C   UNL     1       1.954  -8.347   2.733  1.00  0.00     0.039 C 
ENDBRANCH  11  12
ENDBRANCH   1  11
TORSDOF 4
ENDMDL
MODEL 6
REMARK VINA RESULT:    -1.734      1.148      6.794
REMARK INTER + INTRA:          -2.734
REMARK INTER:                  -2.204
REMARK INTRA:                  -0.530
REMARK UNBOUND:                -0.595
REMARK SMILES CC(C)=CCC[C@@H](C)c1ccc(C)cc1
REMARK SMILES IDX 6 1 7 2 8 3 9 4 13 5 12 6 11 7 14 8 10 9 15 10 5 11 4 12
REMARK SMILES IDX 2 13 1 14 3 15
REMARK H PARENT
REMARK Flexibility Score: inf
ROOT
ATOM      1  C   UNL     1      -0.755  -9.922  -0.957  1.00  0.00     0.012 C 
ENDROOT
BRANCH   1   2
ATOM      2  C   UNL     1      -0.737 -11.018  -2.053  1.00  0.00     0.016 C 
ATOM      3  C   UNL     1       0.615 -11.748  -2.124  1.00  0.00     0.013 C 
BRANCH   2   4
ATOM      4  C   UNL     1      -1.859 -12.014  -1.820  1.00  0.00    -0.045 A 
ATOM      5  C   UNL     1      -5.048 -14.864  -1.215  1.00  0.00     0.044 C 
ATOM      6  C   UNL     1      -3.931 -13.879  -1.397  1.00  0.00    -0.051 A 
ATOM      7  C   UNL     1      -2.698 -14.296  -1.919  1.00  0.00     0.004 A 
ATOM      8  C   UNL     1      -4.133 -12.521  -1.112  1.00  0.00     0.004 A 
ATOM      9  C   UNL     1      -1.670 -13.373  -2.125  1.00  0.00     0.004 A 
ATOM     10  C   UNL     1      -3.105 -11.596  -1.316  1.00  0.00     0.004 A 
ENDBRANCH   2   4
ENDBRANCH   1   2
BRANCH   1  11
ATOM     11  C   UNL     1       0.627  -9.313  -0.665  1.00  0.00     0.028 C 
BRANCH  11  12
ATOM     12  C   UNL     1       0.903  -9.195   0.816  1.00  0.00    -0.028 C 
ATOM     13  C   UNL     1       1.113  -8.012   1.433  1.00  0.00    -0.080 C 
ATOM     14  C   UNL     1       1.085  -6.709   0.676  1.00  0.00     0.039 C 
ATOM     15  C   UNL     1       1.392  -7.971   2.913  1.00  0.00     0.039 C 
ENDBRANCH  11  12
ENDBRANCH   1  11
TORSDOF 4
ENDMDL
MODEL 7
REMARK VINA RESULT:    -1.431      1.510      2.065
REMARK INTER + INTRA:          -2.360
REMARK INTER:                  -2.696
REMARK INTRA:                   0.336
REMARK UNBOUND:                -0.595
REMARK SMILES CC(C)=CCC[C@@H](C)c1ccc(C)cc1
REMARK SMILES IDX 6 1 7 2 8 3 9 4 13 5 12 6 11 7 14 8 10 9 15 10 5 11 4 12
REMARK SMILES IDX 2 13 1 14 3 15
REMARK H PARENT
REMARK Flexibility Score: inf
ROOT
ATOM      1  C   UNL     1      -2.015 -12.407  -1.591  1.00  0.00     0.012 C 
ENDROOT
BRANCH   1   2
ATOM      2  C   UNL     1      -1.822 -10.902  -1.902  1.00  0.00     0.016 C 
ATOM      3  C   UNL     1      -3.159 -10.176  -2.125  1.00  0.00     0.013 C 
BRANCH   2   4
ATOM      4  C   UNL     1      -1.040 -10.230  -0.787  1.00  0.00    -0.045 A 
ATOM      5  C   UNL     1       1.146  -8.275   2.385  1.00  0.00     0.044 C 
ATOM      6  C   UNL     1       0.394  -8.980   1.295  1.00  0.00    -0.051 A 
ATOM      7  C   UNL     1      -0.981  -9.225   1.430  1.00  0.00     0.004 A 
ATOM      8  C   UNL     1       1.043  -9.338   0.105  1.00  0.00     0.004 A 
ATOM      9  C   UNL     1      -1.691  -9.849   0.400  1.00  0.00     0.004 A 
ATOM     10  C   UNL     1       0.335  -9.963  -0.925  1.00  0.00     0.004 A 
ENDBRANCH   2   4
ENDBRANCH   1   2
BRANCH   1  11
ATOM     11  C   UNL     1      -3.363 -12.973  -2.071  1.00  0.00     0.028 C 
BRANCH  11  12
ATOM     12  C   UNL     1      -4.539 -12.320  -1.383  1.00  0.00    -0.028 C 
ATOM     13  C   UNL     1      -5.344 -12.977  -0.520  1.00  0.00    -0.080 C 
ATOM     14  C   UNL     1      -5.119 -14.428  -0.178  1.00  0.00     0.039 C 
ATOM     15  C   UNL     1      -6.506 -12.264   0.122  1.00  0.00     0.039 C 
ENDBRANCH  11  12
ENDBRANCH   1  11
TORSDOF 4
ENDMDL
MODEL 8
REMARK VINA RESULT:    -0.624      1.287      2.457
REMARK INTER + INTRA:          -1.366
REMARK INTER:                  -0.959
REMARK INTRA:                  -0.407
REMARK UNBOUND:                -0.595
REMARK SMILES CC(C)=CCC[C@@H](C)c1ccc(C)cc1
REMARK SMILES IDX 6 1 7 2 8 3 9 4 13 5 12 6 11 7 14 8 10 9 15 10 5 11 4 12
REMARK SMILES IDX 2 13 1 14 3 15
REMARK H PARENT
REMARK Flexibility Score: inf
ROOT
ATOM      1  C   UNL     1      -2.990 -12.047  -0.938  1.00  0.00     0.012 C 
ENDROOT
BRANCH   1   2
ATOM      2  C   UNL     1      -2.364 -10.885  -1.748  1.00  0.00     0.016 C 
ATOM      3  C   UNL     1      -3.399  -9.813  -2.125  1.00  0.00     0.013 C 
BRANCH   2   4
ATOM      4  C   UNL     1      -1.219 -10.258  -0.971  1.00  0.00    -0.045 A 
ATOM      5  C   UNL     1       2.064  -8.527   1.240  1.00  0.00     0.044 C 
ATOM      6  C   UNL     1       0.920  -9.103   0.457  1.00  0.00    -0.051 A 
ATOM      7  C   UNL     1       1.163  -9.825  -0.721  1.00  0.00     0.004 A 
ATOM      8  C   UNL     1      -0.393  -8.983   0.932  1.00  0.00     0.004 A 
ATOM      9  C   UNL     1       0.102 -10.394  -1.431  1.00  0.00     0.004 A 
ATOM     10  C   UNL     1      -1.455  -9.550   0.222  1.00  0.00     0.004 A 
ENDBRANCH   2   4
ENDBRANCH   1   2
BRANCH   1  11
ATOM     11  C   UNL     1      -3.420 -13.246  -1.801  1.00  0.00     0.028 C 
BRANCH  11  12
ATOM     12  C   UNL     1      -3.233 -14.565  -1.088  1.00  0.00    -0.028 C 
ATOM     13  C   UNL     1      -4.131 -15.057  -0.207  1.00  0.00    -0.080 C 
ATOM     14  C   UNL     1      -5.399 -14.315   0.129  1.00  0.00     0.039 C 
ATOM     15  C   UNL     1      -3.875 -16.376   0.475  1.00  0.00     0.039 C 
ENDBRANCH  11  12
ENDBRANCH   1  11
TORSDOF 4
ENDMDL
