MODEL 1
REMARK VINA RESULT:    -4.003      0.000      0.000
REMARK INTER + INTRA:          -6.364
REMARK INTER:                  -6.110
REMARK INTRA:                  -0.254
REMARK UNBOUND:                -0.254
REMARK SMILES CC1=CCC[C@@H](C)C(=O)C[C@@H](C(C)C)C(=O)C1
REMARK SMILES IDX 8 1 9 2 6 3 7 4 5 5 4 6 3 7 2 8 1 9 10 11 11 12 15 13 16 14
REMARK SMILES IDX 17 15 12 17 13 18 14 19
REMARK H PARENT
REMARK Flexibility Score: 70.00
ROOT
ATOM      1  C   UNL     1      15.438   2.993  56.299  1.00  0.00     0.136 C 
ATOM      2  O   UNL     1      16.654   3.043  56.174  1.00  0.00    -0.299 OA
ENDROOT
BRANCH   1   3
ATOM      3  C   UNL     1      14.553   3.935  55.497  1.00  0.00     0.053 C 
ATOM      4  C   UNL     1      15.354   4.606  54.371  1.00  0.00     0.016 C 
BRANCH   3   5
ATOM      5  C   UNL     1      13.902   4.995  56.419  1.00  0.00     0.015 C 
BRANCH   5   6
ATOM      6  C   UNL     1      12.365   5.024  56.288  1.00  0.00     0.028 C 
BRANCH   6   7
ATOM      7  C   UNL     1      11.696   4.963  57.637  1.00  0.00    -0.028 C 
ATOM      8  C   UNL     1      11.206   3.831  58.200  1.00  0.00    -0.070 CG0
ATOM      9  C   UNL     1      10.583   3.897  59.572  1.00  0.00     0.039 C 
ATOM     10  G   UNL     1      11.219   2.482  57.499  1.00  0.00     0.000 G0
ENDBRANCH   6   7
ENDBRANCH   5   6
ENDBRANCH   3   5
ENDBRANCH   1   3
BRANCH   1  11
ATOM     11  C   UNL     1      14.838   2.002  57.270  1.00  0.00     0.087 C 
BRANCH  11  12
ATOM     12  C   UNL     1      13.494   1.379  56.794  1.00  0.00     0.066 C 
BRANCH  12  13
ATOM     13  C   UNL     1      12.399   1.620  57.823  1.00  0.00     0.140 C 
ATOM     14  O   UNL     1      12.469   1.084  58.921  1.00  0.00    -0.299 OA
BRANCH  13  15
ATOM     15  C   UNL     1      11.193   2.460  57.485  1.00  0.00     0.106 CG0
ATOM     16  G   UNL     1      11.212   3.807  58.190  1.00  0.00     0.000 G0
ENDBRANCH  13  15
ENDBRANCH  12  13
BRANCH  12  17
ATOM     17  C   UNL     1      13.581  -0.134  56.397  1.00  0.00    -0.006 C 
ATOM     18  C   UNL     1      14.951  -0.757  56.723  1.00  0.00     0.008 C 
ATOM     19  C   UNL     1      13.299  -0.322  54.893  1.00  0.00     0.008 C 
ENDBRANCH  12  17
ENDBRANCH  11  12
ENDBRANCH   1  11
TORSDOF 1
ENDMDL
MODEL 2
REMARK VINA RESULT:    -3.974      2.149      4.095
REMARK INTER + INTRA:          -6.319
REMARK INTER:                  -5.950
REMARK INTRA:                  -0.369
REMARK UNBOUND:                -0.254
REMARK SMILES CC1=CCC[C@@H](C)C(=O)C[C@@H](C(C)C)C(=O)C1
REMARK SMILES IDX 8 1 9 2 6 3 7 4 5 5 4 6 3 7 2 8 1 9 10 11 11 12 15 13 16 14
REMARK SMILES IDX 17 15 12 17 13 18 14 19
REMARK H PARENT
REMARK Flexibility Score: 70.00
ROOT
ATOM      1  C   UNL     1      11.765   4.083  56.259  1.00  0.00     0.136 C 
ATOM      2  O   UNL     1      11.371   4.636  55.241  1.00  0.00    -0.299 OA
ENDROOT
BRANCH   1   3
ATOM      3  C   UNL     1      12.916   4.682  57.051  1.00  0.00     0.053 C 
ATOM      4  C   UNL     1      12.445   5.904  57.854  1.00  0.00     0.016 C 
BRANCH   3   5
ATOM      5  C   UNL     1      14.092   5.056  56.115  1.00  0.00     0.015 C 
BRANCH   5   6
ATOM      6  C   UNL     1      14.726   3.821  55.444  1.00  0.00     0.028 C 
BRANCH   6   7
ATOM      7  C   UNL     1      15.372   2.914  56.460  1.00  0.00    -0.028 C 
ATOM      8  C   UNL     1      14.963   1.650  56.731  1.00  0.00    -0.070 CG0
ATOM      9  C   UNL     1      15.713   0.832  57.751  1.00  0.00     0.039 C 
ATOM     10  G   UNL     1      13.748   1.012  56.076  1.00  0.00     0.000 G0
ENDBRANCH   6   7
ENDBRANCH   5   6
ENDBRANCH   3   5
ENDBRANCH   1   3
BRANCH   1  11
ATOM     11  C   UNL     1      11.107   2.796  56.699  1.00  0.00     0.087 C 
BRANCH  11  12
ATOM     12  C   UNL     1      11.945   1.967  57.714  1.00  0.00     0.066 C 
BRANCH  12  13
ATOM     13  C   UNL     1      12.601   0.780  57.022  1.00  0.00     0.140 C 
ATOM     14  O   UNL     1      12.224  -0.356  57.278  1.00  0.00    -0.299 OA
BRANCH  13  15
ATOM     15  C   UNL     1      13.755   0.981  56.073  1.00  0.00     0.106 CG0
ATOM     16  G   UNL     1      14.949   1.639  56.746  1.00  0.00     0.000 G0
ENDBRANCH  13  15
ENDBRANCH  12  13
BRANCH  12  17
ATOM     17  C   UNL     1      11.163   1.520  58.995  1.00  0.00    -0.006 C 
ATOM     18  C   UNL     1       9.886   2.348  59.232  1.00  0.00     0.008 C 
ATOM     19  C   UNL     1      12.057   1.622  60.246  1.00  0.00     0.008 C 
ENDBRANCH  12  17
ENDBRANCH  11  12
ENDBRANCH   1  11
TORSDOF 1
ENDMDL
MODEL 3
REMARK VINA RESULT:    -3.964     15.333     16.995
REMARK INTER + INTRA:          -6.303
REMARK INTER:                  -6.138
REMARK INTRA:                  -0.166
REMARK UNBOUND:                -0.254
REMARK SMILES CC1=CCC[C@@H](C)C(=O)C[C@@H](C(C)C)C(=O)C1
REMARK SMILES IDX 8 1 9 2 6 3 7 4 5 5 4 6 3 7 2 8 1 9 10 11 11 12 15 13 16 14
REMARK SMILES IDX 17 15 12 17 13 18 14 19
REMARK H PARENT
REMARK Flexibility Score: 70.00
ROOT
ATOM      1  C   UNL     1      19.594  -9.754  65.983  1.00  0.00     0.136 C 
ATOM      2  O   UNL     1      20.428  -8.961  66.396  1.00  0.00    -0.299 OA
ENDROOT
BRANCH   1   3
ATOM      3  C   UNL     1      19.647 -10.228  64.540  1.00  0.00     0.053 C 
ATOM      4  C   UNL     1      20.990  -9.854  63.894  1.00  0.00     0.016 C 
BRANCH   3   5
ATOM      5  C   UNL     1      18.464  -9.650  63.726  1.00  0.00     0.015 C 
BRANCH   5   6
ATOM      6  C   UNL     1      17.614 -10.750  63.059  1.00  0.00     0.028 C 
BRANCH   6   7
ATOM      7  C   UNL     1      16.140 -10.505  63.258  1.00  0.00    -0.028 C 
ATOM      8  C   UNL     1      15.373 -11.140  64.178  1.00  0.00    -0.070 CG0
ATOM      9  C   UNL     1      13.913 -10.783  64.298  1.00  0.00     0.039 C 
ATOM     10  G   UNL     1      15.905 -12.234  65.090  1.00  0.00     0.000 G0
ENDBRANCH   6   7
ENDBRANCH   5   6
ENDBRANCH   3   5
ENDBRANCH   1   3
BRANCH   1  11
ATOM     11  C   UNL     1      18.507 -10.233  66.918  1.00  0.00     0.087 C 
BRANCH  11  12
ATOM     12  C   UNL     1      18.002 -11.674  66.622  1.00  0.00     0.066 C 
BRANCH  12  13
ATOM     13  C   UNL     1      16.499 -11.675  66.385  1.00  0.00     0.140 C 
ATOM     14  O   UNL     1      15.746 -11.267  67.260  1.00  0.00    -0.299 OA
BRANCH  13  15
ATOM     15  C   UNL     1      15.918 -12.234  65.110  1.00  0.00     0.106 CG0
ATOM     16  G   UNL     1      15.390 -11.145  64.190  1.00  0.00     0.000 G0
ENDBRANCH  13  15
ENDBRANCH  12  13
BRANCH  12  17
ATOM     17  C   UNL     1      18.413 -12.741  67.692  1.00  0.00    -0.006 C 
ATOM     18  C   UNL     1      19.418 -12.196  68.722  1.00  0.00     0.008 C 
ATOM     19  C   UNL     1      19.023 -13.986  67.017  1.00  0.00     0.008 C 
ENDBRANCH  12  17
ENDBRANCH  11  12
ENDBRANCH   1  11
TORSDOF 1
ENDMDL
MODEL 4
REMARK VINA RESULT:    -3.919     13.202     16.014
REMARK INTER + INTRA:          -6.235
REMARK INTER:                  -5.890
REMARK INTRA:                  -0.345
REMARK UNBOUND:                -0.254
REMARK SMILES CC1=CCC[C@@H](C)C(=O)C[C@@H](C(C)C)C(=O)C1
REMARK SMILES IDX 8 1 9 2 6 3 7 4 5 5 4 6 3 7 2 8 1 9 10 11 11 12 15 13 16 14
REMARK SMILES IDX 17 15 12 17 13 18 14 19
REMARK H PARENT
REMARK Flexibility Score: 70.00
ROOT
ATOM      1  C   UNL     1      15.636 -12.821  63.312  1.00  0.00     0.136 C 
ATOM      2  O   UNL     1      15.626 -13.076  62.116  1.00  0.00    -0.299 OA
ENDROOT
BRANCH   1   3
ATOM      3  C   UNL     1      14.326 -12.719  64.077  1.00  0.00     0.053 C 
ATOM      4  C   UNL     1      13.636 -14.090  64.160  1.00  0.00     0.016 C 
BRANCH   3   5
ATOM      5  C   UNL     1      13.391 -11.669  63.428  1.00  0.00     0.015 C 
BRANCH   5   6
ATOM      6  C   UNL     1      13.747 -10.228  63.844  1.00  0.00     0.028 C 
BRANCH   6   7
ATOM      7  C   UNL     1      14.308  -9.443  62.685  1.00  0.00    -0.028 C 
ATOM      8  C   UNL     1      15.537  -8.870  62.668  1.00  0.00    -0.070 CG0
ATOM      9  C   UNL     1      15.993  -8.134  61.434  1.00  0.00     0.039 C 
ATOM     10  G   UNL     1      16.483  -8.901  63.858  1.00  0.00     0.000 G0
ENDBRANCH   6   7
ENDBRANCH   5   6
ENDBRANCH   3   5
ENDBRANCH   1   3
BRANCH   1  11
ATOM     11  C   UNL     1      16.959 -12.592  64.005  1.00  0.00     0.087 C 
BRANCH  11  12
ATOM     12  C   UNL     1      17.030 -11.269  64.820  1.00  0.00     0.066 C 
BRANCH  12  13
ATOM     13  C   UNL     1      17.381 -10.100  63.910  1.00  0.00     0.140 C 
ATOM     14  O   UNL     1      18.413 -10.130  63.253  1.00  0.00    -0.299 OA
BRANCH  13  15
ATOM     15  C   UNL     1      16.506  -8.873  63.857  1.00  0.00     0.106 CG0
ATOM     16  G   UNL     1      15.561  -8.889  62.665  1.00  0.00     0.000 G0
ENDBRANCH  13  15
ENDBRANCH  12  13
BRANCH  12  17
ATOM     17  C   UNL     1      17.972 -11.322  66.070  1.00  0.00    -0.006 C 
ATOM     18  C   UNL     1      18.543 -12.729  66.325  1.00  0.00     0.008 C 
ATOM     19  C   UNL     1      17.228 -10.854  67.336  1.00  0.00     0.008 C 
ENDBRANCH  12  17
ENDBRANCH  11  12
ENDBRANCH   1  11
TORSDOF 1
ENDMDL
MODEL 5
REMARK VINA RESULT:    -3.822     12.556     14.838
REMARK INTER + INTRA:          -6.088
REMARK INTER:                  -5.658
REMARK INTRA:                  -0.430
REMARK UNBOUND:                -0.254
REMARK SMILES CC1=CCC[C@@H](C)C(=O)C[C@@H](C(C)C)C(=O)C1
REMARK SMILES IDX 8 1 9 2 6 3 7 4 5 5 4 6 3 7 2 8 1 9 10 11 11 12 15 13 16 14
REMARK SMILES IDX 17 15 12 17 13 18 14 19
REMARK H PARENT
REMARK Flexibility Score: 70.00
ROOT
ATOM      1  C   UNL     1      16.002 -11.102  64.873  1.00  0.00     0.136 C 
ATOM      2  O   UNL     1      16.450 -11.410  65.969  1.00  0.00    -0.299 OA
ENDROOT
BRANCH   1   3
ATOM      3  C   UNL     1      16.911 -10.467  63.833  1.00  0.00     0.053 C 
ATOM      4  C   UNL     1      18.376 -10.858  64.081  1.00  0.00     0.016 C 
BRANCH   3   5
ATOM      5  C   UNL     1      16.745  -8.927  63.824  1.00  0.00     0.015 C 
BRANCH   5   6
ATOM      6  C   UNL     1      16.080  -8.415  62.530  1.00  0.00     0.028 C 
BRANCH   6   7
ATOM      7  C   UNL     1      14.745  -7.773  62.814  1.00  0.00    -0.028 C 
ATOM      8  C   UNL     1      13.548  -8.305  62.466  1.00  0.00    -0.070 CG0
ATOM      9  C   UNL     1      12.280  -7.576  62.833  1.00  0.00     0.039 C 
ATOM     10  G   UNL     1      13.411  -9.601  61.683  1.00  0.00     0.000 G0
ENDBRANCH   6   7
ENDBRANCH   5   6
ENDBRANCH   3   5
ENDBRANCH   1   3
BRANCH   1  11
ATOM     11  C   UNL     1      14.538 -11.342  64.582  1.00  0.00     0.087 C 
BRANCH  11  12
ATOM     12  C   UNL     1      14.232 -11.679  63.095  1.00  0.00     0.066 C 
BRANCH  12  13
ATOM     13  C   UNL     1      13.101 -10.806  62.571  1.00  0.00     0.140 C 
ATOM     14  O   UNL     1      11.940 -11.097  62.828  1.00  0.00    -0.299 OA
BRANCH  13  15
ATOM     15  C   UNL     1      13.388  -9.621  61.684  1.00  0.00     0.106 CG0
ATOM     16  G   UNL     1      13.547  -8.332  62.475  1.00  0.00     0.000 G0
ENDBRANCH  13  15
ENDBRANCH  12  13
BRANCH  12  17
ATOM     17  C   UNL     1      13.960 -13.196  62.813  1.00  0.00    -0.006 C 
ATOM     18  C   UNL     1      13.456 -13.951  64.056  1.00  0.00     0.008 C 
ATOM     19  C   UNL     1      15.233 -13.893  62.294  1.00  0.00     0.008 C 
ENDBRANCH  12  17
ENDBRANCH  11  12
ENDBRANCH   1  11
TORSDOF 1
ENDMDL
MODEL 6
REMARK VINA RESULT:    -3.781      2.149      4.331
REMARK INTER + INTRA:          -6.025
REMARK INTER:                  -5.554
REMARK INTRA:                  -0.470
REMARK UNBOUND:                -0.254
REMARK SMILES CC1=CCC[C@@H](C)C(=O)C[C@@H](C(C)C)C(=O)C1
REMARK SMILES IDX 8 1 9 2 6 3 7 4 5 5 4 6 3 7 2 8 1 9 10 11 11 12 15 13 16 14
REMARK SMILES IDX 17 15 12 17 13 18 14 19
REMARK H PARENT
REMARK Flexibility Score: 70.00
ROOT
ATOM      1  C   UNL     1      11.759   3.850  56.477  1.00  0.00     0.136 C 
ATOM      2  O   UNL     1      11.455   4.269  55.369  1.00  0.00    -0.299 OA
ENDROOT
BRANCH   1   3
ATOM      3  C   UNL     1      13.129   4.164  57.057  1.00  0.00     0.053 C 
ATOM      4  C   UNL     1      13.256   5.662  57.374  1.00  0.00     0.016 C 
BRANCH   3   5
ATOM      5  C   UNL     1      14.252   3.707  56.093  1.00  0.00     0.015 C 
BRANCH   5   6
ATOM      6  C   UNL     1      14.304   2.174  55.934  1.00  0.00     0.028 C 
BRANCH   6   7
ATOM      7  C   UNL     1      14.736   1.502  57.213  1.00  0.00    -0.028 C 
ATOM      8  C   UNL     1      13.943   0.701  57.966  1.00  0.00    -0.070 CG0
ATOM      9  C   UNL     1      14.504   0.063  59.211  1.00  0.00     0.039 C 
ATOM     10  G   UNL     1      12.483   0.431  57.636  1.00  0.00     0.000 G0
ENDBRANCH   6   7
ENDBRANCH   5   6
ENDBRANCH   3   5
ENDBRANCH   1   3
BRANCH   1  11
ATOM     11  C   UNL     1      10.767   3.007  57.243  1.00  0.00     0.087 C 
BRANCH  11  12
ATOM     12  C   UNL     1      11.266   2.552  58.645  1.00  0.00     0.066 C 
BRANCH  12  13
ATOM     13  C   UNL     1      11.531   1.053  58.657  1.00  0.00     0.140 C 
ATOM     14  O   UNL     1      11.026   0.354  59.527  1.00  0.00    -0.299 OA
BRANCH  13  15
ATOM     15  C   UNL     1      12.461   0.426  57.650  1.00  0.00     0.106 CG0
ATOM     16  G   UNL     1      13.923   0.706  57.961  1.00  0.00     0.000 G0
ENDBRANCH  13  15
ENDBRANCH  12  13
BRANCH  12  17
ATOM     17  C   UNL     1      10.342   2.978  59.836  1.00  0.00    -0.006 C 
ATOM     18  C   UNL     1       8.896   3.267  59.393  1.00  0.00     0.008 C 
ATOM     19  C   UNL     1      10.902   4.229  60.542  1.00  0.00     0.008 C 
ENDBRANCH  12  17
ENDBRANCH  11  12
ENDBRANCH   1  11
TORSDOF 1
ENDMDL
MODEL 7
REMARK VINA RESULT:    -3.725      9.508     12.131
REMARK INTER + INTRA:          -5.940
REMARK INTER:                  -5.680
REMARK INTRA:                  -0.259
REMARK UNBOUND:                -0.254
REMARK SMILES CC1=CCC[C@@H](C)C(=O)C[C@@H](C(C)C)C(=O)C1
REMARK SMILES IDX 8 1 9 2 6 3 7 4 5 5 4 6 3 7 2 8 1 9 10 11 11 12 15 13 16 14
REMARK SMILES IDX 17 15 12 17 13 18 14 19
REMARK H PARENT
REMARK Flexibility Score: 70.00
ROOT
ATOM      1  C   UNL     1       8.381  -9.988  56.202  1.00  0.00     0.136 C 
ATOM      2  O   UNL     1       7.312 -10.363  55.741  1.00  0.00    -0.299 OA
ENDROOT
BRANCH   1   3
ATOM      3  C   UNL     1       9.657 -10.156  55.394  1.00  0.00     0.053 C 
ATOM      4  C   UNL     1      10.749 -10.833  56.236  1.00  0.00     0.016 C 
BRANCH   3   5
ATOM      5  C   UNL     1      10.147  -8.791  54.850  1.00  0.00     0.015 C 
BRANCH   5   6
ATOM      6  C   UNL     1      11.553  -8.422  55.364  1.00  0.00     0.028 C 
BRANCH   6   7
ATOM      7  C   UNL     1      11.622  -6.978  55.790  1.00  0.00    -0.028 C 
ATOM      8  C   UNL     1      11.286  -6.523  57.022  1.00  0.00    -0.070 CG0
ATOM      9  C   UNL     1      11.428  -5.054  57.333  1.00  0.00     0.039 C 
ATOM     10  G   UNL     1      10.734  -7.422  58.116  1.00  0.00     0.000 G0
ENDBRANCH   6   7
ENDBRANCH   5   6
ENDBRANCH   3   5
ENDBRANCH   1   3
BRANCH   1  11
ATOM     11  C   UNL     1       8.412  -9.379  57.585  1.00  0.00     0.087 C 
BRANCH  11  12
ATOM     12  C   UNL     1       8.171  -7.843  57.610  1.00  0.00     0.066 C 
BRANCH  12  13
ATOM     13  C   UNL     1       9.262  -7.144  58.410  1.00  0.00     0.140 C 
ATOM     14  O   UNL     1       8.957  -6.313  59.256  1.00  0.00    -0.299 OA
BRANCH  13  15
ATOM     15  C   UNL     1      10.719  -7.414  58.128  1.00  0.00     0.106 CG0
ATOM     16  G   UNL     1      11.267  -6.527  57.022  1.00  0.00     0.000 G0
ENDBRANCH  13  15
ENDBRANCH  12  13
BRANCH  12  17
ATOM     17  C   UNL     1       6.745  -7.414  58.095  1.00  0.00    -0.006 C 
ATOM     18  C   UNL     1       6.030  -8.520  58.892  1.00  0.00     0.008 C 
ATOM     19  C   UNL     1       5.858  -7.016  56.899  1.00  0.00     0.008 C 
ENDBRANCH  12  17
ENDBRANCH  11  12
ENDBRANCH   1  11
TORSDOF 1
ENDMDL
MODEL 8
REMARK VINA RESULT:    -3.707     13.139     16.220
REMARK INTER + INTRA:          -5.912
REMARK INTER:                  -5.859
REMARK INTRA:                  -0.053
REMARK UNBOUND:                -0.254
REMARK SMILES CC1=CCC[C@@H](C)C(=O)C[C@@H](C(C)C)C(=O)C1
REMARK SMILES IDX 8 1 9 2 6 3 7 4 5 5 4 6 3 7 2 8 1 9 10 11 11 12 15 13 16 14
REMARK SMILES IDX 17 15 12 17 13 18 14 19
REMARK H PARENT
REMARK Flexibility Score: 70.00
ROOT
ATOM      1  C   UNL     1      13.294 -11.462  63.155  1.00  0.00     0.136 C 
ATOM      2  O   UNL     1      12.170 -11.815  63.487  1.00  0.00    -0.299 OA
ENDROOT
BRANCH   1   3
ATOM      3  C   UNL     1      14.075 -12.279  62.138  1.00  0.00     0.053 C 
ATOM      4  C   UNL     1      13.218 -12.563  60.894  1.00  0.00     0.016 C 
BRANCH   3   5
ATOM      5  C   UNL     1      14.588 -13.597  62.768  1.00  0.00     0.015 C 
BRANCH   5   6
ATOM      6  C   UNL     1      16.100 -13.804  62.551  1.00  0.00     0.028 C 
BRANCH   6   7
ATOM      7  C   UNL     1      16.868 -13.646  63.839  1.00  0.00    -0.028 C 
ATOM      8  C   UNL     1      17.421 -12.483  64.266  1.00  0.00    -0.070 CG0
ATOM      9  C   UNL     1      18.140 -12.449  65.590  1.00  0.00     0.039 C 
ATOM     10  G   UNL     1      17.382 -11.198  63.454  1.00  0.00     0.000 G0
ENDBRANCH   6   7
ENDBRANCH   5   6
ENDBRANCH   3   5
ENDBRANCH   1   3
BRANCH   1  11
ATOM     11  C   UNL     1      13.893 -10.225  63.782  1.00  0.00     0.087 C 
BRANCH  11  12
ATOM     12  C   UNL     1      15.223  -9.758  63.124  1.00  0.00     0.066 C 
BRANCH  12  13
ATOM     13  C   UNL     1      16.415 -10.186  63.968  1.00  0.00     0.140 C 
ATOM     14  O   UNL     1      16.607  -9.662  65.058  1.00  0.00    -0.299 OA
BRANCH  13  15
ATOM     15  C   UNL     1      17.402 -11.202  63.451  1.00  0.00     0.106 CG0
ATOM     16  G   UNL     1      17.401 -12.479  64.276  1.00  0.00     0.000 G0
ENDBRANCH  13  15
ENDBRANCH  12  13
BRANCH  12  17
ATOM     17  C   UNL     1      15.282  -8.230  62.786  1.00  0.00    -0.006 C 
ATOM     18  C   UNL     1      13.895  -7.560  62.811  1.00  0.00     0.008 C 
ATOM     19  C   UNL     1      15.915  -8.000  61.399  1.00  0.00     0.008 C 
ENDBRANCH  12  17
ENDBRANCH  11  12
ENDBRANCH   1  11
TORSDOF 1
ENDMDL
MODEL 9
REMARK VINA RESULT:    -3.351      8.239     10.831
REMARK INTER + INTRA:          -5.368
REMARK INTER:                  -5.125
REMARK INTRA:                  -0.243
REMARK UNBOUND:                -0.254
REMARK SMILES CC1=CCC[C@@H](C)C(=O)C[C@@H](C(C)C)C(=O)C1
REMARK SMILES IDX 8 1 9 2 6 3 7 4 5 5 4 6 3 7 2 8 1 9 10 11 11 12 15 13 16 14
REMARK SMILES IDX 17 15 12 17 13 18 14 19
REMARK H PARENT
REMARK Flexibility Score: 70.00
ROOT
ATOM      1  C   UNL     1      11.986  -7.070  63.176  1.00  0.00     0.136 C 
ATOM      2  O   UNL     1      11.056  -7.008  63.968  1.00  0.00    -0.299 OA
ENDROOT
BRANCH   1   3
ATOM      3  C   UNL     1      12.357  -8.403  62.545  1.00  0.00     0.053 C 
ATOM      4  C   UNL     1      13.877  -8.620  62.589  1.00  0.00     0.016 C 
BRANCH   3   5
ATOM      5  C   UNL     1      11.829  -8.490  61.092  1.00  0.00     0.015 C 
BRANCH   5   6
ATOM      6  C   UNL     1      12.937  -8.248  60.048  1.00  0.00     0.028 C 
BRANCH   6   7
ATOM      7  C   UNL     1      12.480  -7.297  58.970  1.00  0.00    -0.028 C 
ATOM      8  C   UNL     1      12.842  -5.993  58.893  1.00  0.00    -0.070 CG0
ATOM      9  C   UNL     1      12.339  -5.152  57.747  1.00  0.00     0.039 C 
ATOM     10  G   UNL     1      13.716  -5.311  59.934  1.00  0.00     0.000 G0
ENDBRANCH   6   7
ENDBRANCH   5   6
ENDBRANCH   3   5
ENDBRANCH   1   3
BRANCH   1  11
ATOM     11  C   UNL     1      12.763  -5.815  62.853  1.00  0.00     0.087 C 
BRANCH  11  12
ATOM     12  C   UNL     1      12.025  -4.838  61.893  1.00  0.00     0.066 C 
BRANCH  12  13
ATOM     13  C   UNL     1      12.966  -4.349  60.801  1.00  0.00     0.140 C 
ATOM     14  O   UNL     1      13.071  -3.149  60.582  1.00  0.00    -0.299 OA
BRANCH  13  15
ATOM     15  C   UNL     1      13.724  -5.328  59.940  1.00  0.00     0.106 CG0
ATOM     16  G   UNL     1      12.837  -5.984  58.895  1.00  0.00     0.000 G0
ENDBRANCH  13  15
ENDBRANCH  12  13
BRANCH  12  17
ATOM     17  C   UNL     1      11.307  -3.643  62.605  1.00  0.00    -0.006 C 
ATOM     18  C   UNL     1      11.599  -3.587  64.116  1.00  0.00     0.008 C 
ATOM     19  C   UNL     1       9.781  -3.720  62.400  1.00  0.00     0.008 C 
ENDBRANCH  12  17
ENDBRANCH  11  12
ENDBRANCH   1  11
TORSDOF 1
ENDMDL
