MODEL 1
REMARK VINA RESULT:    -4.239      0.000      0.000
REMARK INTER + INTRA:          -5.152
REMARK INTER:                  -4.983
REMARK INTRA:                  -0.169
REMARK UNBOUND:                -0.169
REMARK SMILES COc1ccc(C=CC(=O)[O-])cc1
REMARK SMILES IDX 6 1 5 2 12 3 4 4 13 5 3 6 7 7 8 8 9 9 10 10 11 11 2 12 1 13
REMARK H PARENT
REMARK Flexibility Score: inf
ROOT
ATOM      1  C   UNL     1      16.142  17.291   9.358  1.00  0.00    -0.025 A 
ATOM      2  C   UNL     1      15.043  17.129  10.216  1.00  0.00     0.012 A 
ATOM      3  C   UNL     1      15.920  17.297   7.966  1.00  0.00     0.012 A 
ATOM      4  C   UNL     1      13.750  17.003   9.702  1.00  0.00     0.047 A 
ATOM      5  C   UNL     1      14.625  17.169   7.454  1.00  0.00     0.047 A 
ATOM      6  C   UNL     1      13.527  17.024   8.322  1.00  0.00     0.118 A 
ENDROOT
BRANCH   1   7
ATOM      7  C   UNL     1      17.496  17.411   9.952  1.00  0.00     0.010 C 
ATOM      8  C   UNL     1      17.920  16.683  10.994  1.00  0.00     0.025 C 
BRANCH   8   9
ATOM      9  C   UNL     1      19.277  16.821  11.549  1.00  0.00     0.064 C 
ATOM     10  O   UNL     1      19.709  17.936  11.947  1.00  0.00    -0.545 OA
ATOM     11  O   UNL     1      20.095  15.702  11.640  1.00  0.00    -0.545 OA
ENDBRANCH   8   9
ENDBRANCH   1   7
BRANCH   6  12
ATOM     12  O   UNL     1      12.211  16.895   7.856  1.00  0.00    -0.497 OA
ATOM     13  C   UNL     1      11.366  15.782   8.132  1.00  0.00     0.278 C 
ENDBRANCH   6  12
TORSDOF 3
ENDMDL
MODEL 2
REMARK VINA RESULT:    -4.182      6.934      8.334
REMARK INTER + INTRA:          -5.085
REMARK INTER:                  -4.923
REMARK INTRA:                  -0.161
REMARK UNBOUND:                -0.169
REMARK SMILES COc1ccc(C=CC(=O)[O-])cc1
REMARK SMILES IDX 6 1 5 2 12 3 4 4 13 5 3 6 7 7 8 8 9 9 10 10 11 11 2 12 1 13
REMARK H PARENT
REMARK Flexibility Score: inf
ROOT
ATOM      1  C   UNL     1      17.225  14.714  17.163  1.00  0.00    -0.025 A 
ATOM      2  C   UNL     1      16.285  15.752  17.249  1.00  0.00     0.012 A 
ATOM      3  C   UNL     1      17.504  14.154  15.900  1.00  0.00     0.012 A 
ATOM      4  C   UNL     1      15.657  16.241  16.101  1.00  0.00     0.047 A 
ATOM      5  C   UNL     1      16.872  14.644  14.753  1.00  0.00     0.047 A 
ATOM      6  C   UNL     1      15.944  15.697  14.846  1.00  0.00     0.118 A 
ENDROOT
BRANCH   1   7
ATOM      7  C   UNL     1      17.858  14.223  18.412  1.00  0.00     0.010 C 
ATOM      8  C   UNL     1      17.885  12.933  18.777  1.00  0.00     0.025 C 
BRANCH   8   9
ATOM      9  C   UNL     1      18.534  12.481  20.019  1.00  0.00     0.064 C 
ATOM     10  O   UNL     1      19.026  11.325  20.116  1.00  0.00    -0.545 OA
ATOM     11  O   UNL     1      18.607  13.345  21.104  1.00  0.00    -0.545 OA
ENDBRANCH   8   9
ENDBRANCH   1   7
BRANCH   6  12
ATOM     12  O   UNL     1      15.288  16.223  13.724  1.00  0.00    -0.497 OA
ATOM     13  C   UNL     1      15.002  17.605  13.533  1.00  0.00     0.278 C 
ENDBRANCH   6  12
TORSDOF 3
ENDMDL
MODEL 3
REMARK VINA RESULT:    -4.134      6.905      8.361
REMARK INTER + INTRA:          -5.028
REMARK INTER:                  -4.863
REMARK INTRA:                  -0.166
REMARK UNBOUND:                -0.169
REMARK SMILES COc1ccc(C=CC(=O)[O-])cc1
REMARK SMILES IDX 6 1 5 2 12 3 4 4 13 5 3 6 7 7 8 8 9 9 10 10 11 11 2 12 1 13
REMARK H PARENT
REMARK Flexibility Score: inf
ROOT
ATOM      1  C   UNL     1      17.178  14.748  17.192  1.00  0.00    -0.025 A 
ATOM      2  C   UNL     1      17.484  14.167  15.951  1.00  0.00     0.012 A 
ATOM      3  C   UNL     1      16.248  15.806  17.235  1.00  0.00     0.012 A 
ATOM      4  C   UNL     1      16.859  14.612  14.784  1.00  0.00     0.047 A 
ATOM      5  C   UNL     1      15.625  16.250  16.065  1.00  0.00     0.047 A 
ATOM      6  C   UNL     1      15.925  15.652  14.827  1.00  0.00     0.118 A 
ENDROOT
BRANCH   1   7
ATOM      7  C   UNL     1      17.876  14.247  18.402  1.00  0.00     0.010 C 
ATOM      8  C   UNL     1      17.909  12.957  18.764  1.00  0.00     0.025 C 
BRANCH   8   9
ATOM      9  C   UNL     1      18.622  12.495  19.966  1.00  0.00     0.064 C 
ATOM     10  O   UNL     1      19.237  11.396  19.979  1.00  0.00    -0.545 OA
ATOM     11  O   UNL     1      18.618  13.287  21.108  1.00  0.00    -0.545 OA
ENDBRANCH   8   9
ENDBRANCH   1   7
BRANCH   6  12
ATOM     12  O   UNL     1      15.325  16.061  13.628  1.00  0.00    -0.497 OA
ATOM     13  C   UNL     1      14.874  17.386  13.365  1.00  0.00     0.278 C 
ENDBRANCH   6  12
TORSDOF 3
ENDMDL
MODEL 4
REMARK VINA RESULT:    -4.130      1.319      6.163
REMARK INTER + INTRA:          -5.024
REMARK INTER:                  -4.870
REMARK INTRA:                  -0.154
REMARK UNBOUND:                -0.169
REMARK SMILES COc1ccc(C=CC(=O)[O-])cc1
REMARK SMILES IDX 6 1 5 2 12 3 4 4 13 5 3 6 7 7 8 8 9 9 10 10 11 11 2 12 1 13
REMARK H PARENT
REMARK Flexibility Score: inf
ROOT
ATOM      1  C   UNL     1      15.576  16.960   8.592  1.00  0.00    -0.025 A 
ATOM      2  C   UNL     1      16.048  17.723   9.670  1.00  0.00     0.012 A 
ATOM      3  C   UNL     1      16.488  16.153   7.881  1.00  0.00     0.012 A 
ATOM      4  C   UNL     1      17.392  17.665  10.050  1.00  0.00     0.047 A 
ATOM      5  C   UNL     1      17.832  16.097   8.263  1.00  0.00     0.047 A 
ATOM      6  C   UNL     1      18.294  16.854   9.356  1.00  0.00     0.118 A 
ENDROOT
BRANCH   1   7
ATOM      7  C   UNL     1      14.143  17.063   8.221  1.00  0.00     0.010 C 
ATOM      8  C   UNL     1      13.169  16.353   8.807  1.00  0.00     0.025 C 
BRANCH   8   9
ATOM      9  C   UNL     1      11.755  16.491   8.420  1.00  0.00     0.064 C 
ATOM     10  O   UNL     1      11.299  15.915   7.396  1.00  0.00    -0.545 OA
ATOM     11  O   UNL     1      10.907  17.268   9.198  1.00  0.00    -0.545 OA
ENDBRANCH   8   9
ENDBRANCH   1   7
BRANCH   6  12
ATOM     12  O   UNL     1      19.631  16.830   9.777  1.00  0.00    -0.497 OA
ATOM     13  C   UNL     1      20.088  16.195  10.967  1.00  0.00     0.278 C 
ENDBRANCH   6  12
TORSDOF 3
ENDMDL
MODEL 5
REMARK VINA RESULT:    -4.044      5.147      7.831
REMARK INTER + INTRA:          -4.922
REMARK INTER:                  -4.771
REMARK INTRA:                  -0.151
REMARK UNBOUND:                -0.169
REMARK SMILES COc1ccc(C=CC(=O)[O-])cc1
REMARK SMILES IDX 6 1 5 2 12 3 4 4 13 5 3 6 7 7 8 8 9 9 10 10 11 11 2 12 1 13
REMARK H PARENT
REMARK Flexibility Score: inf
ROOT
ATOM      1  C   UNL     1      15.939  15.943  14.768  1.00  0.00    -0.025 A 
ATOM      2  C   UNL     1      15.667  16.288  16.100  1.00  0.00     0.012 A 
ATOM      3  C   UNL     1      16.839  14.889  14.509  1.00  0.00     0.012 A 
ATOM      4  C   UNL     1      16.257  15.583  17.153  1.00  0.00     0.047 A 
ATOM      5  C   UNL     1      17.429  14.186  15.565  1.00  0.00     0.047 A 
ATOM      6  C   UNL     1      17.138  14.528  16.899  1.00  0.00     0.118 A 
ENDROOT
BRANCH   1   7
ATOM      7  C   UNL     1      15.296  16.727  13.685  1.00  0.00     0.010 C 
ATOM      8  C   UNL     1      14.455  16.202  12.782  1.00  0.00     0.025 C 
BRANCH   8   9
ATOM      9  C   UNL     1      13.826  17.015  11.728  1.00  0.00     0.064 C 
ATOM     10  O   UNL     1      12.790  17.694  11.958  1.00  0.00    -0.545 OA
ATOM     11  O   UNL     1      14.386  17.037  10.457  1.00  0.00    -0.545 OA
ENDBRANCH   8   9
ENDBRANCH   1   7
BRANCH   6  12
ATOM     12  O   UNL     1      17.702  13.852  17.989  1.00  0.00    -0.497 OA
ATOM     13  C   UNL     1      17.418  12.499  18.332  1.00  0.00     0.278 C 
ENDBRANCH   6  12
TORSDOF 3
ENDMDL
MODEL 6
REMARK VINA RESULT:    -3.973      7.034      9.561
REMARK INTER + INTRA:          -4.840
REMARK INTER:                  -4.670
REMARK INTRA:                  -0.170
REMARK UNBOUND:                -0.169
REMARK SMILES COc1ccc(C=CC(=O)[O-])cc1
REMARK SMILES IDX 6 1 5 2 12 3 4 4 13 5 3 6 7 7 8 8 9 9 10 10 11 11 2 12 1 13
REMARK H PARENT
REMARK Flexibility Score: inf
ROOT
ATOM      1  C   UNL     1      16.667  14.815  17.216  1.00  0.00    -0.025 A 
ATOM      2  C   UNL     1      16.307  13.471  17.031  1.00  0.00     0.012 A 
ATOM      3  C   UNL     1      17.627  15.132  18.199  1.00  0.00     0.012 A 
ATOM      4  C   UNL     1      16.908  12.462  17.789  1.00  0.00     0.047 A 
ATOM      5  C   UNL     1      18.225  14.120  18.957  1.00  0.00     0.047 A 
ATOM      6  C   UNL     1      17.870  12.773  18.754  1.00  0.00     0.118 A 
ENDROOT
BRANCH   1   7
ATOM      7  C   UNL     1      15.994  15.851  16.394  1.00  0.00     0.010 C 
ATOM      8  C   UNL     1      15.989  15.851  15.053  1.00  0.00     0.025 C 
BRANCH   8   9
ATOM      9  C   UNL     1      15.300  16.890  14.270  1.00  0.00     0.064 C 
ATOM     10  O   UNL     1      15.330  18.100  14.621  1.00  0.00    -0.545 OA
ATOM     11  O   UNL     1      14.606  16.532  13.122  1.00  0.00    -0.545 OA
ENDBRANCH   8   9
ENDBRANCH   1   7
BRANCH   6  12
ATOM     12  O   UNL     1      18.444  11.725  19.487  1.00  0.00    -0.497 OA
ATOM     13  C   UNL     1      18.617  10.400  18.996  1.00  0.00     0.278 C 
ENDBRANCH   6  12
TORSDOF 3
ENDMDL
MODEL 7
REMARK VINA RESULT:    -3.942      3.461      6.180
REMARK INTER + INTRA:          -4.802
REMARK INTER:                  -4.643
REMARK INTRA:                  -0.159
REMARK UNBOUND:                -0.169
REMARK SMILES COc1ccc(C=CC(=O)[O-])cc1
REMARK SMILES IDX 6 1 5 2 12 3 4 4 13 5 3 6 7 7 8 8 9 9 10 10 11 11 2 12 1 13
REMARK H PARENT
REMARK Flexibility Score: inf
ROOT
ATOM      1  C   UNL     1      15.175  17.083  12.001  1.00  0.00    -0.025 A 
ATOM      2  C   UNL     1      15.066  18.125  12.935  1.00  0.00     0.012 A 
ATOM      3  C   UNL     1      15.489  15.789  12.462  1.00  0.00     0.012 A 
ATOM      4  C   UNL     1      15.241  17.879  14.300  1.00  0.00     0.047 A 
ATOM      5  C   UNL     1      15.664  15.546  13.828  1.00  0.00     0.047 A 
ATOM      6  C   UNL     1      15.537  16.593  14.760  1.00  0.00     0.118 A 
ENDROOT
BRANCH   1   7
ATOM      7  C   UNL     1      14.991  17.396  10.563  1.00  0.00     0.010 C 
ATOM      8  C   UNL     1      14.210  16.684   9.738  1.00  0.00     0.025 C 
BRANCH   8   9
ATOM      9  C   UNL     1      14.042  17.033   8.318  1.00  0.00     0.064 C 
ATOM     10  O   UNL     1      12.923  17.388   7.860  1.00  0.00    -0.545 OA
ATOM     11  O   UNL     1      15.138  16.972   7.467  1.00  0.00    -0.545 OA
ENDBRANCH   8   9
ENDBRANCH   1   7
BRANCH   6  12
ATOM     12  O   UNL     1      15.701  16.398  16.138  1.00  0.00    -0.497 OA
ATOM     13  C   UNL     1      15.966  15.138  16.747  1.00  0.00     0.278 C 
ENDBRANCH   6  12
TORSDOF 3
ENDMDL
MODEL 8
REMARK VINA RESULT:    -3.858      4.160      4.929
REMARK INTER + INTRA:          -4.703
REMARK INTER:                  -4.550
REMARK INTRA:                  -0.153
REMARK UNBOUND:                -0.169
REMARK SMILES COc1ccc(C=CC(=O)[O-])cc1
REMARK SMILES IDX 6 1 5 2 12 3 4 4 13 5 3 6 7 7 8 8 9 9 10 10 11 11 2 12 1 13
REMARK H PARENT
REMARK Flexibility Score: inf
ROOT
ATOM      1  C   UNL     1      15.660  17.022  13.409  1.00  0.00    -0.025 A 
ATOM      2  C   UNL     1      14.451  17.156  12.709  1.00  0.00     0.012 A 
ATOM      3  C   UNL     1      16.870  17.240  12.720  1.00  0.00     0.012 A 
ATOM      4  C   UNL     1      14.445  17.524  11.362  1.00  0.00     0.047 A 
ATOM      5  C   UNL     1      16.861  17.608  11.370  1.00  0.00     0.047 A 
ATOM      6  C   UNL     1      15.643  17.756  10.681  1.00  0.00     0.118 A 
ENDROOT
BRANCH   1   7
ATOM      7  C   UNL     1      15.615  16.619  14.836  1.00  0.00     0.010 C 
ATOM      8  C   UNL     1      16.053  15.436  15.291  1.00  0.00     0.025 C 
BRANCH   8   9
ATOM      9  C   UNL     1      16.003  15.075  16.717  1.00  0.00     0.064 C 
ATOM     10  O   UNL     1      15.523  13.974  17.096  1.00  0.00    -0.545 OA
ATOM     11  O   UNL     1      16.497  15.964  17.664  1.00  0.00    -0.545 OA
ENDBRANCH   8   9
ENDBRANCH   1   7
BRANCH   6  12
ATOM     12  O   UNL     1      15.584  18.125   9.329  1.00  0.00    -0.497 OA
ATOM     13  C   UNL     1      15.404  17.210   8.253  1.00  0.00     0.278 C 
ENDBRANCH   6  12
TORSDOF 3
ENDMDL
