MODEL 1
REMARK VINA RESULT:    12.395      0.000      0.000
REMARK INTER + INTRA:          13.635
REMARK INTER:                  13.844
REMARK INTRA:                  -0.209
REMARK UNBOUND:                -0.209
REMARK SMILES CC(C)c1ccc(C(=O)[O-])cc1
REMARK SMILES IDX 7 1 6 2 11 3 5 4 12 5 4 6 8 7 9 8 10 9 2 10 1 11 3 12
REMARK H PARENT
REMARK Flexibility Score: inf
ROOT
ATOM      1  C   UNL     1      12.941  12.958  17.043  1.00  0.00    -0.003 A 
ATOM      2  C   UNL     1      12.328  11.771  17.480  1.00  0.00     0.010 A 
ATOM      3  C   UNL     1      12.207  13.849  16.242  1.00  0.00     0.010 A 
ATOM      4  C   UNL     1      11.009  11.482  17.123  1.00  0.00     0.004 A 
ATOM      5  C   UNL     1      10.887  13.559  15.885  1.00  0.00     0.004 A 
ATOM      6  C   UNL     1      10.273  12.373  16.322  1.00  0.00    -0.045 A 
ENDROOT
BRANCH   1   7
ATOM      7  C   UNL     1      14.339  13.269  17.417  1.00  0.00     0.071 C 
ATOM      8  O   UNL     1      15.137  12.347  17.736  1.00  0.00    -0.545 OA
ATOM      9  O   UNL     1      14.791  14.584  17.425  1.00  0.00    -0.545 OA
ENDBRANCH   1   7
BRANCH   6  10
ATOM     10  C   UNL     1       8.839  12.071  15.926  1.00  0.00     0.013 C 
ATOM     11  C   UNL     1       8.696  11.970  14.403  1.00  0.00     0.012 C 
ATOM     12  C   UNL     1       7.875  13.115  16.503  1.00  0.00     0.012 C 
ENDBRANCH   6  10
TORSDOF 2
ENDMDL
MODEL 2
REMARK VINA RESULT:    12.782      3.048      5.074
REMARK INTER + INTRA:          14.068
REMARK INTER:                  14.272
REMARK INTRA:                  -0.205
REMARK UNBOUND:                -0.209
REMARK SMILES CC(C)c1ccc(C(=O)[O-])cc1
REMARK SMILES IDX 7 1 6 2 11 3 5 4 12 5 4 6 8 7 9 8 10 9 2 10 1 11 3 12
REMARK H PARENT
REMARK Flexibility Score: inf
ROOT
ATOM      1  C   UNL     1      10.175  12.577  16.348  1.00  0.00    -0.003 A 
ATOM      2  C   UNL     1      10.714  11.518  17.099  1.00  0.00     0.010 A 
ATOM      3  C   UNL     1      11.009  13.648  15.985  1.00  0.00     0.010 A 
ATOM      4  C   UNL     1      12.059  11.531  17.478  1.00  0.00     0.004 A 
ATOM      5  C   UNL     1      12.354  13.660  16.364  1.00  0.00     0.004 A 
ATOM      6  C   UNL     1      12.895  12.602  17.115  1.00  0.00    -0.045 A 
ENDROOT
BRANCH   1   7
ATOM      7  C   UNL     1       8.752  12.569  15.944  1.00  0.00     0.071 C 
ATOM      8  O   UNL     1       7.875  13.102  16.676  1.00  0.00    -0.545 OA
ATOM      9  O   UNL     1       8.361  11.970  14.752  1.00  0.00    -0.545 OA
ENDBRANCH   1   7
BRANCH   6  10
ATOM     10  C   UNL     1      14.357  12.629  17.520  1.00  0.00     0.013 C 
ATOM     11  C   UNL     1      14.907  14.061  17.509  1.00  0.00     0.012 C 
ATOM     12  C   UNL     1      15.195  11.709  16.626  1.00  0.00     0.012 C 
ENDBRANCH   6  10
TORSDOF 2
ENDMDL
MODEL 3
REMARK VINA RESULT:    12.902      3.059      5.256
REMARK INTER + INTRA:          14.201
REMARK INTER:                  14.404
REMARK INTRA:                  -0.204
REMARK UNBOUND:                -0.209
REMARK SMILES CC(C)c1ccc(C(=O)[O-])cc1
REMARK SMILES IDX 7 1 6 2 11 3 5 4 12 5 4 6 8 7 9 8 10 9 2 10 1 11 3 12
REMARK H PARENT
REMARK Flexibility Score: inf
ROOT
ATOM      1  C   UNL     1      10.166  12.607  16.325  1.00  0.00    -0.003 A 
ATOM      2  C   UNL     1      11.008  13.672  15.958  1.00  0.00     0.010 A 
ATOM      3  C   UNL     1      10.704  11.535  17.056  1.00  0.00     0.010 A 
ATOM      4  C   UNL     1      12.358  13.663  16.315  1.00  0.00     0.004 A 
ATOM      5  C   UNL     1      12.055  11.527  17.414  1.00  0.00     0.004 A 
ATOM      6  C   UNL     1      12.897  12.591  17.048  1.00  0.00    -0.045 A 
ENDROOT
BRANCH   1   7
ATOM      7  C   UNL     1       8.735  12.611  15.948  1.00  0.00     0.071 C 
ATOM      8  O   UNL     1       7.876  13.140  16.702  1.00  0.00    -0.545 OA
ATOM      9  O   UNL     1       8.319  12.030  14.755  1.00  0.00    -0.545 OA
ENDBRANCH   1   7
BRANCH   6  10
ATOM     10  C   UNL     1      14.363  12.568  17.443  1.00  0.00     0.013 C 
ATOM     11  C   UNL     1      14.967  13.978  17.403  1.00  0.00     0.012 C 
ATOM     12  C   UNL     1      15.159  11.602  16.558  1.00  0.00     0.012 C 
ENDBRANCH   6  10
TORSDOF 2
ENDMDL
