MODEL 1
REMARK VINA RESULT:    -6.331      0.000      0.000
REMARK INTER + INTRA:         -10.111
REMARK INTER:                  -8.922
REMARK INTRA:                  -1.189
REMARK UNBOUND:                -1.189
REMARK SMILES OCC1=C[C@@H](O)[C@H]2C=CO[C@@H](O[C@@H]3O[C@@H](CO)[C@@H](O)[C@@H](O)[C@H]3O)[C@@H]12
REMARK SMILES IDX 12 1 11 2 8 3 9 4 7 5 10 6 24 7 5 8 3 9 4 10 6 11 2 13 1 14
REMARK SMILES IDX 13 16 22 17 14 18 20 19 15 20 18 21 23 22 21 24 16 26 17 27
REMARK SMILES IDX 19 29
REMARK H PARENT 6 12 1 15 23 23 21 25 17 28 19 30
REMARK Flexibility Score: inf
ROOT
ATOM      1  O   UNL     1       5.236 -34.904  44.381  1.00  0.00    -0.310 OA
ENDROOT
BRANCH   1   2
ATOM      2  C   UNL     1       6.381 -34.292  44.938  1.00  0.00     0.316 C 
ATOM      3  C   UNL     1       8.441 -32.374  45.253  1.00  0.00     0.018 C 
ATOM      4  C   UNL     1       7.173 -32.048  45.518  1.00  0.00     0.186 C 
ATOM      5  C   UNL     1       8.817 -33.624  44.468  1.00  0.00     0.061 C 
ATOM      6  O   UNL     1       6.131 -32.911  45.182  1.00  0.00    -0.472 OA
ATOM      7  C   UNL     1       7.587 -34.445  43.991  1.00  0.00     0.096 C 
ATOM      8  C   UNL     1       9.538 -33.263  43.148  1.00  0.00     0.145 C 
ATOM      9  C   UNL     1       7.378 -33.954  42.583  1.00  0.00    -0.036 C 
ATOM     10  C   UNL     1       8.456 -33.325  42.129  1.00  0.00     0.007 C 
BRANCH   8  11
ATOM     11  O   UNL     1      10.124 -31.986  43.158  1.00  0.00    -0.388 OA
ATOM     12  H   UNL     1      11.099 -32.129  43.272  1.00  0.00     0.211 HD
ENDBRANCH   8  11
BRANCH   9  13
ATOM     13  C   UNL     1       6.215 -34.314  41.693  1.00  0.00     0.187 C 
BRANCH  13  14
ATOM     14  O   UNL     1       5.198 -33.357  41.808  1.00  0.00    -0.392 OA
ATOM     15  H   UNL     1       5.434 -32.787  42.586  1.00  0.00     0.211 HD
ENDBRANCH  13  14
ENDBRANCH   9  13
ENDBRANCH   1   2
BRANCH   1  16
ATOM     16  C   UNL     1       4.861 -36.055  45.120  1.00  0.00     0.286 C 
ATOM     17  C   UNL     1       3.320 -36.122  45.227  1.00  0.00     0.202 C 
ATOM     18  O   UNL     1       5.388 -37.239  44.536  1.00  0.00    -0.341 OA
ATOM     19  C   UNL     1       2.681 -36.469  43.866  1.00  0.00     0.179 C 
ATOM     20  C   UNL     1       4.921 -37.418  43.207  1.00  0.00     0.178 C 
ATOM     21  C   UNL     1       3.394 -37.658  43.191  1.00  0.00     0.177 C 
BRANCH  17  22
ATOM     22  O   UNL     1       2.910 -37.022  46.232  1.00  0.00    -0.385 OA
ATOM     23  H   UNL     1       2.039 -36.713  46.592  1.00  0.00     0.211 HD
ENDBRANCH  17  22
BRANCH  19  24
ATOM     24  O   UNL     1       1.315 -36.742  44.036  1.00  0.00    -0.387 OA
ATOM     25  H   UNL     1       0.876 -35.880  44.259  1.00  0.00     0.211 HD
ENDBRANCH  19  24
BRANCH  20  26
ATOM     26  C   UNL     1       5.678 -38.584  42.566  1.00  0.00     0.191 C 
BRANCH  26  27
ATOM     27  O   UNL     1       5.800 -39.629  43.493  1.00  0.00    -0.394 OA
ATOM     28  H   UNL     1       6.549 -40.196  43.171  1.00  0.00     0.210 HD
ENDBRANCH  26  27
ENDBRANCH  20  26
BRANCH  21  29
ATOM     29  O   UNL     1       3.069 -38.853  43.858  1.00  0.00    -0.387 OA
ATOM     30  H   UNL     1       3.705 -39.547  43.545  1.00  0.00     0.211 HD
ENDBRANCH  21  29
ENDBRANCH   1  16
TORSDOF 10
ENDMDL
MODEL 2
REMARK VINA RESULT:    -6.019      1.571      6.244
REMARK INTER + INTRA:          -9.670
REMARK INTER:                  -8.572
REMARK INTRA:                  -1.099
REMARK UNBOUND:                -1.189
REMARK SMILES OCC1=C[C@@H](O)[C@H]2C=CO[C@@H](O[C@@H]3O[C@@H](CO)[C@@H](O)[C@@H](O)[C@H]3O)[C@@H]12
REMARK SMILES IDX 12 1 11 2 8 3 9 4 7 5 10 6 24 7 5 8 3 9 4 10 6 11 2 13 1 14
REMARK SMILES IDX 13 16 22 17 14 18 20 19 15 20 18 21 23 22 21 24 16 26 17 27
REMARK SMILES IDX 19 29
REMARK H PARENT 6 12 1 15 23 23 21 25 17 28 19 30
REMARK Flexibility Score: inf
ROOT
ATOM      1  O   UNL     1       6.319 -34.927  43.741  1.00  0.00    -0.310 OA
ENDROOT
BRANCH   1   2
ATOM      2  C   UNL     1       5.461 -35.756  44.498  1.00  0.00     0.316 C 
ATOM      3  C   UNL     1       3.815 -37.982  45.092  1.00  0.00     0.018 C 
ATOM      4  C   UNL     1       5.134 -38.139  44.956  1.00  0.00     0.186 C 
ATOM      5  C   UNL     1       3.087 -36.731  44.617  1.00  0.00     0.061 C 
ATOM      6  O   UNL     1       5.929 -37.101  44.472  1.00  0.00    -0.472 OA
ATOM      7  C   UNL     1       4.024 -35.692  43.943  1.00  0.00     0.096 C 
ATOM      8  C   UNL     1       2.064 -37.062  43.506  1.00  0.00     0.145 C 
ATOM      9  C   UNL     1       3.875 -36.003  42.478  1.00  0.00    -0.036 C 
ATOM     10  C   UNL     1       2.792 -36.738  42.250  1.00  0.00     0.007 C 
BRANCH   8  11
ATOM     11  O   UNL     1       1.657 -38.407  43.498  1.00  0.00    -0.388 OA
ATOM     12  H   UNL     1       2.486 -38.948  43.561  1.00  0.00     0.211 HD
ENDBRANCH   8  11
BRANCH   9  13
ATOM     13  C   UNL     1       4.684 -35.386  41.364  1.00  0.00     0.187 C 
BRANCH  13  14
ATOM     14  O   UNL     1       4.678 -33.988  41.473  1.00  0.00    -0.392 OA
ATOM     15  H   UNL     1       3.990 -33.659  40.837  1.00  0.00     0.211 HD
ENDBRANCH  13  14
ENDBRANCH   9  13
ENDBRANCH   1   2
BRANCH   1  16
ATOM     16  C   UNL     1       6.172 -33.566  44.111  1.00  0.00     0.286 C 
ATOM     17  C   UNL     1       6.634 -33.375  45.575  1.00  0.00     0.202 C 
ATOM     18  O   UNL     1       6.888 -32.710  43.231  1.00  0.00    -0.341 OA
ATOM     19  C   UNL     1       8.166 -33.514  45.699  1.00  0.00     0.179 C 
ATOM     20  C   UNL     1       8.277 -33.002  43.234  1.00  0.00     0.178 C 
ATOM     21  C   UNL     1       8.899 -32.697  44.616  1.00  0.00     0.177 C 
BRANCH  17  22
ATOM     22  O   UNL     1       6.184 -32.149  46.105  1.00  0.00    -0.385 OA
ATOM     23  H   UNL     1       6.767 -31.904  46.868  1.00  0.00     0.211 HD
ENDBRANCH  17  22
BRANCH  19  24
ATOM     24  O   UNL     1       8.578 -33.119  46.981  1.00  0.00    -0.387 OA
ATOM     25  H   UNL     1       8.069 -32.296  47.205  1.00  0.00     0.211 HD
ENDBRANCH  19  24
BRANCH  20  26
ATOM     26  C   UNL     1       8.958 -32.197  42.124  1.00  0.00     0.191 C 
BRANCH  26  27
ATOM     27  O   UNL     1      10.295 -31.957  42.472  1.00  0.00    -0.394 OA
ATOM     28  H   UNL     1      10.781 -32.805  42.297  1.00  0.00     0.210 HD
ENDBRANCH  26  27
ENDBRANCH  20  26
BRANCH  21  29
ATOM     29  O   UNL     1       8.813 -31.324  44.910  1.00  0.00    -0.387 OA
ATOM     30  H   UNL     1       8.639 -30.851  44.057  1.00  0.00     0.211 HD
ENDBRANCH  21  29
ENDBRANCH   1  16
TORSDOF 10
ENDMDL
MODEL 3
REMARK VINA RESULT:    -5.957      9.227     10.739
REMARK INTER + INTRA:          -9.584
REMARK INTER:                  -8.365
REMARK INTRA:                  -1.219
REMARK UNBOUND:                -1.189
REMARK SMILES OCC1=C[C@@H](O)[C@H]2C=CO[C@@H](O[C@@H]3O[C@@H](CO)[C@@H](O)[C@@H](O)[C@H]3O)[C@@H]12
REMARK SMILES IDX 12 1 11 2 8 3 9 4 7 5 10 6 24 7 5 8 3 9 4 10 6 11 2 13 1 14
REMARK SMILES IDX 13 16 22 17 14 18 20 19 15 20 18 21 23 22 21 24 16 26 17 27
REMARK SMILES IDX 19 29
REMARK H PARENT 6 12 1 15 23 23 21 25 17 28 19 30
REMARK Flexibility Score: inf
ROOT
ATOM      1  O   UNL     1       4.813 -27.519  36.576  1.00  0.00    -0.310 OA
ENDROOT
BRANCH   1   2
ATOM      2  C   UNL     1       6.174 -27.839  36.370  1.00  0.00     0.316 C 
ATOM      3  C   UNL     1       8.943 -28.011  36.936  1.00  0.00     0.018 C 
ATOM      4  C   UNL     1       8.068 -28.732  37.640  1.00  0.00     0.186 C 
ATOM      5  C   UNL     1       8.519 -26.839  36.059  1.00  0.00     0.061 C 
ATOM      6  O   UNL     1       6.697 -28.514  37.510  1.00  0.00    -0.472 OA
ATOM      7  C   UNL     1       6.992 -26.562  36.099  1.00  0.00     0.096 C 
ATOM      8  C   UNL     1       9.136 -25.511  36.559  1.00  0.00     0.145 C 
ATOM      9  C   UNL     1       6.871 -25.477  37.135  1.00  0.00    -0.036 C 
ATOM     10  C   UNL     1       8.046 -24.900  37.365  1.00  0.00     0.007 C 
BRANCH   8  11
ATOM     11  O   UNL     1      10.285 -25.686  37.348  1.00  0.00    -0.388 OA
ATOM     12  H   UNL     1      10.068 -25.310  38.240  1.00  0.00     0.211 HD
ENDBRANCH   8  11
BRANCH   9  13
ATOM     13  C   UNL     1       5.577 -24.927  37.683  1.00  0.00     0.187 C 
BRANCH  13  14
ATOM     14  O   UNL     1       4.655 -24.727  36.646  1.00  0.00    -0.392 OA
ATOM     15  H   UNL     1       4.608 -23.746  36.497  1.00  0.00     0.211 HD
ENDBRANCH  13  14
ENDBRANCH   9  13
ENDBRANCH   1   2
BRANCH   1  16
ATOM     16  C   UNL     1       4.141 -28.566  37.258  1.00  0.00     0.286 C 
ATOM     17  C   UNL     1       3.217 -27.966  38.344  1.00  0.00     0.202 C 
ATOM     18  O   UNL     1       3.408 -29.385  36.356  1.00  0.00    -0.341 OA
ATOM     19  C   UNL     1       2.006 -27.248  37.711  1.00  0.00     0.179 C 
ATOM     20  C   UNL     1       2.427 -28.638  35.652  1.00  0.00     0.178 C 
ATOM     21  C   UNL     1       1.342 -28.110  36.619  1.00  0.00     0.177 C 
BRANCH  17  22
ATOM     22  O   UNL     1       2.807 -28.943  39.273  1.00  0.00    -0.385 OA
ATOM     23  H   UNL     1       2.111 -28.547  39.858  1.00  0.00     0.211 HD
ENDBRANCH  17  22
BRANCH  19  24
ATOM     24  O   UNL     1       1.077 -26.911  38.708  1.00  0.00    -0.387 OA
ATOM     25  H   UNL     1       1.086 -27.652  39.370  1.00  0.00     0.211 HD
ENDBRANCH  19  24
BRANCH  20  26
ATOM     26  C   UNL     1       1.820 -29.521  34.558  1.00  0.00     0.191 C 
BRANCH  26  27
ATOM     27  O   UNL     1       1.862 -30.863  34.962  1.00  0.00    -0.394 OA
ATOM     28  H   UNL     1       2.146 -31.381  34.164  1.00  0.00     0.210 HD
ENDBRANCH  26  27
ENDBRANCH  20  26
BRANCH  21  29
ATOM     29  O   UNL     1       0.638 -29.175  37.210  1.00  0.00    -0.387 OA
ATOM     30  H   UNL     1      -0.124 -28.783  37.709  1.00  0.00     0.211 HD
ENDBRANCH  21  29
ENDBRANCH   1  16
TORSDOF 10
ENDMDL
MODEL 4
REMARK VINA RESULT:    -5.939      3.134      6.879
REMARK INTER + INTRA:          -9.557
REMARK INTER:                  -8.463
REMARK INTRA:                  -1.095
REMARK UNBOUND:                -1.189
REMARK SMILES OCC1=C[C@@H](O)[C@H]2C=CO[C@@H](O[C@@H]3O[C@@H](CO)[C@@H](O)[C@@H](O)[C@H]3O)[C@@H]12
REMARK SMILES IDX 12 1 11 2 8 3 9 4 7 5 10 6 24 7 5 8 3 9 4 10 6 11 2 13 1 14
REMARK SMILES IDX 13 16 22 17 14 18 20 19 15 20 18 21 23 22 21 24 16 26 17 27
REMARK SMILES IDX 19 29
REMARK H PARENT 6 12 1 15 23 23 21 25 17 28 19 30
REMARK Flexibility Score: inf
ROOT
ATOM      1  O   UNL     1       3.117 -37.588  42.574  1.00  0.00    -0.310 OA
ENDROOT
BRANCH   1   2
ATOM      2  C   UNL     1       1.893 -37.190  41.991  1.00  0.00     0.316 C 
ATOM      3  C   UNL     1      -0.480 -37.415  40.463  1.00  0.00     0.018 C 
ATOM      4  C   UNL     1      -0.343 -38.108  41.596  1.00  0.00     0.186 C 
ATOM      5  C   UNL     1       0.699 -36.759  39.757  1.00  0.00     0.061 C 
ATOM      6  O   UNL     1       0.886 -38.162  42.253  1.00  0.00    -0.472 OA
ATOM      7  C   UNL     1       2.057 -37.005  40.469  1.00  0.00     0.096 C 
ATOM      8  C   UNL     1       0.920 -37.363  38.350  1.00  0.00     0.145 C 
ATOM      9  C   UNL     1       2.620 -38.187  39.725  1.00  0.00    -0.036 C 
ATOM     10  C   UNL     1       2.002 -38.361  38.563  1.00  0.00     0.007 C 
BRANCH   8  11
ATOM     11  O   UNL     1      -0.221 -37.988  37.821  1.00  0.00    -0.388 OA
ATOM     12  H   UNL     1      -0.027 -38.961  37.815  1.00  0.00     0.211 HD
ENDBRANCH   8  11
BRANCH   9  13
ATOM     13  C   UNL     1       3.870 -38.945  40.100  1.00  0.00     0.187 C 
BRANCH  13  14
ATOM     14  O   UNL     1       3.554 -40.020  40.942  1.00  0.00    -0.392 OA
ATOM     15  H   UNL     1       4.149 -40.770  40.678  1.00  0.00     0.211 HD
ENDBRANCH  13  14
ENDBRANCH   9  13
ENDBRANCH   1   2
BRANCH   1  16
ATOM     16  C   UNL     1       3.278 -37.013  43.861  1.00  0.00     0.286 C 
ATOM     17  C   UNL     1       4.079 -37.981  44.764  1.00  0.00     0.202 C 
ATOM     18  O   UNL     1       3.910 -35.742  43.785  1.00  0.00    -0.341 OA
ATOM     19  C   UNL     1       5.557 -38.058  44.326  1.00  0.00     0.179 C 
ATOM     20  C   UNL     1       5.199 -35.834  43.196  1.00  0.00     0.178 C 
ATOM     21  C   UNL     1       6.153 -36.656  44.093  1.00  0.00     0.177 C 
BRANCH  17  22
ATOM     22  O   UNL     1       3.963 -37.636  46.125  1.00  0.00    -0.385 OA
ATOM     23  H   UNL     1       3.279 -38.221  46.540  1.00  0.00     0.211 HD
ENDBRANCH  17  22
BRANCH  19  24
ATOM     24  O   UNL     1       6.302 -38.760  45.286  1.00  0.00    -0.387 OA
ATOM     25  H   UNL     1       5.878 -38.580  46.165  1.00  0.00     0.211 HD
ENDBRANCH  19  24
BRANCH  20  26
ATOM     26  C   UNL     1       5.737 -34.422  42.952  1.00  0.00     0.191 C 
BRANCH  26  27
ATOM     27  O   UNL     1       5.461 -33.616  44.066  1.00  0.00    -0.394 OA
ATOM     28  H   UNL     1       5.160 -32.742  43.705  1.00  0.00     0.210 HD
ENDBRANCH  26  27
ENDBRANCH  20  26
BRANCH  21  29
ATOM     29  O   UNL     1       6.359 -36.011  45.327  1.00  0.00    -0.387 OA
ATOM     30  H   UNL     1       5.488 -35.627  45.606  1.00  0.00     0.211 HD
ENDBRANCH  21  29
ENDBRANCH   1  16
TORSDOF 10
ENDMDL
MODEL 5
REMARK VINA RESULT:    -5.708      1.765      6.374
REMARK INTER + INTRA:          -9.233
REMARK INTER:                  -8.394
REMARK INTRA:                  -0.839
REMARK UNBOUND:                -1.189
REMARK SMILES OCC1=C[C@@H](O)[C@H]2C=CO[C@@H](O[C@@H]3O[C@@H](CO)[C@@H](O)[C@@H](O)[C@H]3O)[C@@H]12
REMARK SMILES IDX 12 1 11 2 8 3 9 4 7 5 10 6 24 7 5 8 3 9 4 10 6 11 2 13 1 14
REMARK SMILES IDX 13 16 22 17 14 18 20 19 15 20 18 21 23 22 21 24 16 26 17 27
REMARK SMILES IDX 19 29
REMARK H PARENT 6 12 1 15 23 23 21 25 17 28 19 30
REMARK Flexibility Score: inf
ROOT
ATOM      1  O   UNL     1       6.775 -34.915  43.140  1.00  0.00    -0.310 OA
ENDROOT
BRANCH   1   2
ATOM      2  C   UNL     1       5.742 -35.732  42.629  1.00  0.00     0.316 C 
ATOM      3  C   UNL     1       3.584 -37.566  42.668  1.00  0.00     0.018 C 
ATOM      4  C   UNL     1       3.434 -36.341  43.177  1.00  0.00     0.186 C 
ATOM      5  C   UNL     1       4.953 -38.162  42.363  1.00  0.00     0.061 C 
ATOM      6  O   UNL     1       4.533 -35.499  43.344  1.00  0.00    -0.472 OA
ATOM      7  C   UNL     1       6.131 -37.220  42.731  1.00  0.00     0.096 C 
ATOM      8  C   UNL     1       5.221 -39.421  43.220  1.00  0.00     0.145 C 
ATOM      9  C   UNL     1       6.531 -37.697  44.102  1.00  0.00    -0.036 C 
ATOM     10  C   UNL     1       6.041 -38.907  44.350  1.00  0.00     0.007 C 
BRANCH   8  11
ATOM     11  O   UNL     1       4.053 -40.031  43.706  1.00  0.00    -0.388 OA
ATOM     12  H   UNL     1       3.613 -40.452  42.923  1.00  0.00     0.211 HD
ENDBRANCH   8  11
BRANCH   9  13
ATOM     13  C   UNL     1       7.542 -37.032  45.002  1.00  0.00     0.187 C 
BRANCH  13  14
ATOM     14  O   UNL     1       8.593 -37.913  45.289  1.00  0.00    -0.392 OA
ATOM     15  H   UNL     1       8.386 -38.762  44.819  1.00  0.00     0.211 HD
ENDBRANCH  13  14
ENDBRANCH   9  13
ENDBRANCH   1   2
BRANCH   1  16
ATOM     16  C   UNL     1       6.270 -33.659  43.563  1.00  0.00     0.286 C 
ATOM     17  C   UNL     1       6.425 -33.527  45.096  1.00  0.00     0.202 C 
ATOM     18  O   UNL     1       6.918 -32.588  42.888  1.00  0.00    -0.341 OA
ATOM     19  C   UNL     1       7.907 -33.360  45.495  1.00  0.00     0.179 C 
ATOM     20  C   UNL     1       8.317 -32.587  43.132  1.00  0.00     0.178 C 
ATOM     21  C   UNL     1       8.613 -32.304  44.622  1.00  0.00     0.177 C 
BRANCH  17  22
ATOM     22  O   UNL     1       5.633 -32.481  45.609  1.00  0.00    -0.385 OA
ATOM     23  H   UNL     1       4.936 -32.259  44.940  1.00  0.00     0.211 HD
ENDBRANCH  17  22
BRANCH  19  24
ATOM     24  O   UNL     1       7.999 -33.022  46.854  1.00  0.00    -0.387 OA
ATOM     25  H   UNL     1       7.319 -32.318  47.021  1.00  0.00     0.211 HD
ENDBRANCH  19  24
BRANCH  20  26
ATOM     26  C   UNL     1       8.980 -31.550  42.222  1.00  0.00     0.191 C 
BRANCH  26  27
ATOM     27  O   UNL     1      10.168 -31.099  42.814  1.00  0.00    -0.394 OA
ATOM     28  H   UNL     1      10.076 -31.278  43.786  1.00  0.00     0.210 HD
ENDBRANCH  26  27
ENDBRANCH  20  26
BRANCH  21  29
ATOM     29  O   UNL     1       8.178 -31.015  44.982  1.00  0.00    -0.387 OA
ATOM     30  H   UNL     1       8.932 -30.568  45.444  1.00  0.00     0.211 HD
ENDBRANCH  21  29
ENDBRANCH   1  16
TORSDOF 10
ENDMDL
MODEL 6
REMARK VINA RESULT:    -5.650      8.675     11.916
REMARK INTER + INTRA:          -9.151
REMARK INTER:                  -8.032
REMARK INTRA:                  -1.120
REMARK UNBOUND:                -1.189
REMARK SMILES OCC1=C[C@@H](O)[C@H]2C=CO[C@@H](O[C@@H]3O[C@@H](CO)[C@@H](O)[C@@H](O)[C@H]3O)[C@@H]12
REMARK SMILES IDX 12 1 11 2 8 3 9 4 7 5 10 6 24 7 5 8 3 9 4 10 6 11 2 13 1 14
REMARK SMILES IDX 13 16 22 17 14 18 20 19 15 20 18 21 23 22 21 24 16 26 17 27
REMARK SMILES IDX 19 29
REMARK H PARENT 6 12 1 15 23 23 21 25 17 28 19 30
REMARK Flexibility Score: inf
ROOT
ATOM      1  O   UNL     1       7.113 -27.125  37.398  1.00  0.00    -0.310 OA
ENDROOT
BRANCH   1   2
ATOM      2  C   UNL     1       5.795 -26.954  36.919  1.00  0.00     0.316 C 
ATOM      3  C   UNL     1       2.968 -27.116  36.901  1.00  0.00     0.018 C 
ATOM      4  C   UNL     1       3.590 -26.325  37.778  1.00  0.00     0.186 C 
ATOM      5  C   UNL     1       3.697 -28.202  36.119  1.00  0.00     0.061 C 
ATOM      6  O   UNL     1       4.974 -26.382  37.932  1.00  0.00    -0.472 OA
ATOM      7  C   UNL     1       5.206 -28.306  36.471  1.00  0.00     0.096 C 
ATOM      8  C   UNL     1       3.152 -29.607  36.467  1.00  0.00     0.145 C 
ATOM      9  C   UNL     1       5.239 -29.405  37.499  1.00  0.00    -0.036 C 
ATOM     10  C   UNL     1       4.119 -30.118  37.475  1.00  0.00     0.007 C 
BRANCH   8  11
ATOM     11  O   UNL     1       1.854 -29.591  37.003  1.00  0.00    -0.388 OA
ATOM     12  H   UNL     1       1.834 -28.848  37.660  1.00  0.00     0.211 HD
ENDBRANCH   8  11
BRANCH   9  13
ATOM     13  C   UNL     1       6.449 -29.823  38.297  1.00  0.00     0.187 C 
BRANCH  13  14
ATOM     14  O   UNL     1       7.490 -30.206  37.439  1.00  0.00    -0.392 OA
ATOM     15  H   UNL     1       7.141 -30.954  36.888  1.00  0.00     0.211 HD
ENDBRANCH  13  14
ENDBRANCH   9  13
ENDBRANCH   1   2
BRANCH   1  16
ATOM     16  C   UNL     1       8.023 -26.295  36.694  1.00  0.00     0.286 C 
ATOM     17  C   UNL     1       8.587 -25.217  37.648  1.00  0.00     0.202 C 
ATOM     18  O   UNL     1       9.070 -27.058  36.106  1.00  0.00    -0.341 OA
ATOM     19  C   UNL     1       9.548 -25.837  38.684  1.00  0.00     0.179 C 
ATOM     20  C   UNL     1       9.813 -27.767  37.086  1.00  0.00     0.178 C 
ATOM     21  C   UNL     1      10.562 -26.788  38.019  1.00  0.00     0.177 C 
BRANCH  17  22
ATOM     22  O   UNL     1       9.203 -24.167  36.938  1.00  0.00    -0.385 OA
ATOM     23  H   UNL     1       8.693 -23.334  37.106  1.00  0.00     0.211 HD
ENDBRANCH  17  22
BRANCH  19  24
ATOM     24  O   UNL     1      10.211 -24.819  39.388  1.00  0.00    -0.387 OA
ATOM     25  H   UNL     1      11.127 -25.153  39.580  1.00  0.00     0.211 HD
ENDBRANCH  19  24
BRANCH  20  26
ATOM     26  C   UNL     1      10.781 -28.722  36.383  1.00  0.00     0.191 C 
BRANCH  26  27
ATOM     27  O   UNL     1      10.243 -30.017  36.382  1.00  0.00    -0.394 OA
ATOM     28  H   UNL     1      10.797 -30.544  35.748  1.00  0.00     0.210 HD
ENDBRANCH  26  27
ENDBRANCH  20  26
BRANCH  21  29
ATOM     29  O   UNL     1      11.517 -26.046  37.301  1.00  0.00    -0.387 OA
ATOM     30  H   UNL     1      11.669 -26.516  36.441  1.00  0.00     0.211 HD
ENDBRANCH  21  29
ENDBRANCH   1  16
TORSDOF 10
ENDMDL
MODEL 7
REMARK VINA RESULT:    -5.549      8.566     10.783
REMARK INTER + INTRA:          -9.008
REMARK INTER:                  -7.828
REMARK INTRA:                  -1.181
REMARK UNBOUND:                -1.189
REMARK SMILES OCC1=C[C@@H](O)[C@H]2C=CO[C@@H](O[C@@H]3O[C@@H](CO)[C@@H](O)[C@@H](O)[C@H]3O)[C@@H]12
REMARK SMILES IDX 12 1 11 2 8 3 9 4 7 5 10 6 24 7 5 8 3 9 4 10 6 11 2 13 1 14
REMARK SMILES IDX 13 16 22 17 14 18 20 19 15 20 18 21 23 22 21 24 16 26 17 27
REMARK SMILES IDX 19 29
REMARK H PARENT 6 12 1 15 23 23 21 25 17 28 19 30
REMARK Flexibility Score: inf
ROOT
ATOM      1  O   UNL     1       5.005 -28.028  37.172  1.00  0.00    -0.310 OA
ENDROOT
BRANCH   1   2
ATOM      2  C   UNL     1       6.366 -28.291  36.897  1.00  0.00     0.316 C 
ATOM      3  C   UNL     1       9.177 -28.191  37.225  1.00  0.00     0.018 C 
ATOM      4  C   UNL     1       8.419 -28.838  38.114  1.00  0.00     0.186 C 
ATOM      5  C   UNL     1       8.595 -27.212  36.213  1.00  0.00     0.061 C 
ATOM      6  O   UNL     1       7.030 -28.731  38.077  1.00  0.00    -0.472 OA
ATOM      7  C   UNL     1       7.058 -27.028  36.348  1.00  0.00     0.096 C 
ATOM      8  C   UNL     1       9.145 -25.783  36.433  1.00  0.00     0.145 C 
ATOM      9  C   UNL     1       6.938 -25.794  37.202  1.00  0.00    -0.036 C 
ATOM     10  C   UNL     1       8.079 -25.115  37.227  1.00  0.00     0.007 C 
BRANCH   8  11
ATOM     11  O   UNL     1      10.363 -25.750  37.130  1.00  0.00    -0.388 OA
ATOM     12  H   UNL     1      10.605 -26.695  37.312  1.00  0.00     0.211 HD
ENDBRANCH   8  11
BRANCH   9  13
ATOM     13  C   UNL     1       5.654 -25.243  37.770  1.00  0.00     0.187 C 
BRANCH  13  14
ATOM     14  O   UNL     1       4.733 -24.996  36.743  1.00  0.00    -0.392 OA
ATOM     15  H   UNL     1       3.882 -25.431  37.016  1.00  0.00     0.211 HD
ENDBRANCH  13  14
ENDBRANCH   9  13
ENDBRANCH   1   2
BRANCH   1  16
ATOM     16  C   UNL     1       4.157 -28.815  36.352  1.00  0.00     0.286 C 
ATOM     17  C   UNL     1       3.553 -29.968  37.188  1.00  0.00     0.202 C 
ATOM     18  O   UNL     1       3.137 -28.026  35.755  1.00  0.00    -0.341 OA
ATOM     19  C   UNL     1       2.517 -29.438  38.202  1.00  0.00     0.179 C 
ATOM     20  C   UNL     1       2.320 -27.400  36.733  1.00  0.00     0.178 C 
ATOM     21  C   UNL     1       1.530 -28.454  37.543  1.00  0.00     0.177 C 
BRANCH  17  22
ATOM     22  O   UNL     1       3.003 -30.971  36.366  1.00  0.00    -0.385 OA
ATOM     23  H   UNL     1       3.555 -31.043  35.546  1.00  0.00     0.211 HD
ENDBRANCH  17  22
BRANCH  19  24
ATOM     24  O   UNL     1       1.829 -30.514  38.786  1.00  0.00    -0.387 OA
ATOM     25  H   UNL     1       2.350 -30.786  39.586  1.00  0.00     0.211 HD
ENDBRANCH  19  24
BRANCH  20  26
ATOM     26  C   UNL     1       1.382 -26.409  36.039  1.00  0.00     0.191 C 
BRANCH  26  27
ATOM     27  O   UNL     1       2.113 -25.292  35.613  1.00  0.00    -0.394 OA
ATOM     28  H   UNL     1       2.505 -25.539  34.735  1.00  0.00     0.210 HD
ENDBRANCH  26  27
ENDBRANCH  20  26
BRANCH  21  29
ATOM     29  O   UNL     1       0.637 -29.155  36.713  1.00  0.00    -0.387 OA
ATOM     30  H   UNL     1       0.921 -30.105  36.709  1.00  0.00     0.211 HD
ENDBRANCH  21  29
ENDBRANCH   1  16
TORSDOF 10
ENDMDL
MODEL 8
REMARK VINA RESULT:    -5.538      7.169      9.741
REMARK INTER + INTRA:          -8.993
REMARK INTER:                  -7.793
REMARK INTRA:                  -1.200
REMARK UNBOUND:                -1.189
REMARK SMILES OCC1=C[C@@H](O)[C@H]2C=CO[C@@H](O[C@@H]3O[C@@H](CO)[C@@H](O)[C@@H](O)[C@H]3O)[C@@H]12
REMARK SMILES IDX 12 1 11 2 8 3 9 4 7 5 10 6 24 7 5 8 3 9 4 10 6 11 2 13 1 14
REMARK SMILES IDX 13 16 22 17 14 18 20 19 15 20 18 21 23 22 21 24 16 26 17 27
REMARK SMILES IDX 19 29
REMARK H PARENT 6 12 1 15 23 23 21 25 17 28 19 30
REMARK Flexibility Score: inf
ROOT
ATOM      1  O   UNL     1       9.811 -28.745  40.753  1.00  0.00    -0.310 OA
ENDROOT
BRANCH   1   2
ATOM      2  C   UNL     1       9.789 -29.353  42.028  1.00  0.00     0.316 C 
ATOM      3  C   UNL     1       9.201 -29.654  44.782  1.00  0.00     0.018 C 
ATOM      4  C   UNL     1       8.220 -29.699  43.877  1.00  0.00     0.186 C 
ATOM      5  C   UNL     1      10.589 -29.116  44.458  1.00  0.00     0.061 C 
ATOM      6  O   UNL     1       8.462 -29.358  42.547  1.00  0.00    -0.472 OA
ATOM      7  C   UNL     1      10.726 -28.606  42.997  1.00  0.00     0.096 C 
ATOM      8  C   UNL     1      10.919 -27.864  45.305  1.00  0.00     0.145 C 
ATOM      9  C   UNL     1      10.481 -27.126  43.131  1.00  0.00    -0.036 C 
ATOM     10  C   UNL     1      10.606 -26.731  44.393  1.00  0.00     0.007 C 
BRANCH   8  11
ATOM     11  O   UNL     1      10.159 -27.765  46.482  1.00  0.00    -0.388 OA
ATOM     12  H   UNL     1       9.303 -28.232  46.300  1.00  0.00     0.211 HD
ENDBRANCH   8  11
BRANCH   9  13
ATOM     13  C   UNL     1      10.350 -26.152  41.986  1.00  0.00     0.187 C 
BRANCH  13  14
ATOM     14  O   UNL     1       9.006 -26.019  41.612  1.00  0.00    -0.392 OA
ATOM     15  H   UNL     1       8.549 -26.854  41.895  1.00  0.00     0.211 HD
ENDBRANCH  13  14
ENDBRANCH   9  13
ENDBRANCH   1   2
BRANCH   1  16
ATOM     16  C   UNL     1      10.788 -29.345  39.918  1.00  0.00     0.286 C 
ATOM     17  C   UNL     1      10.153 -30.522  39.142  1.00  0.00     0.202 C 
ATOM     18  O   UNL     1      11.364 -28.395  39.030  1.00  0.00    -0.341 OA
ATOM     19  C   UNL     1       9.169 -30.014  38.066  1.00  0.00     0.179 C 
ATOM     20  C   UNL     1      10.385 -27.811  38.185  1.00  0.00     0.178 C 
ATOM     21  C   UNL     1       9.779 -28.869  37.235  1.00  0.00     0.177 C 
BRANCH  17  22
ATOM     22  O   UNL     1      11.136 -31.364  38.583  1.00  0.00    -0.385 OA
ATOM     23  H   UNL     1      11.934 -30.817  38.370  1.00  0.00     0.211 HD
ENDBRANCH  17  22
BRANCH  19  24
ATOM     24  O   UNL     1       8.781 -31.078  37.236  1.00  0.00    -0.387 OA
ATOM     25  H   UNL     1       7.832 -30.918  36.990  1.00  0.00     0.211 HD
ENDBRANCH  19  24
BRANCH  20  26
ATOM     26  C   UNL     1      11.024 -26.659  37.405  1.00  0.00     0.191 C 
BRANCH  26  27
ATOM     27  O   UNL     1      12.366 -26.963  37.137  1.00  0.00    -0.394 OA
ATOM     28  H   UNL     1      12.636 -27.637  37.814  1.00  0.00     0.210 HD
ENDBRANCH  26  27
ENDBRANCH  20  26
BRANCH  21  29
ATOM     29  O   UNL     1      10.759 -29.378  36.364  1.00  0.00    -0.387 OA
ATOM     30  H   UNL     1      11.359 -28.625  36.123  1.00  0.00     0.211 HD
ENDBRANCH  21  29
ENDBRANCH   1  16
TORSDOF 10
ENDMDL
MODEL 9
REMARK VINA RESULT:    -5.509      1.633      3.556
REMARK INTER + INTRA:          -8.952
REMARK INTER:                  -7.648
REMARK INTRA:                  -1.304
REMARK UNBOUND:                -1.189
REMARK SMILES OCC1=C[C@@H](O)[C@H]2C=CO[C@@H](O[C@@H]3O[C@@H](CO)[C@@H](O)[C@@H](O)[C@H]3O)[C@@H]12
REMARK SMILES IDX 12 1 11 2 8 3 9 4 7 5 10 6 24 7 5 8 3 9 4 10 6 11 2 13 1 14
REMARK SMILES IDX 13 16 22 17 14 18 20 19 15 20 18 21 23 22 21 24 16 26 17 27
REMARK SMILES IDX 19 29
REMARK H PARENT 6 12 1 15 23 23 21 25 17 28 19 30
REMARK Flexibility Score: inf
ROOT
ATOM      1  O   UNL     1       6.909 -34.573  43.471  1.00  0.00    -0.310 OA
ENDROOT
BRANCH   1   2
ATOM      2  C   UNL     1       7.827 -33.703  42.841  1.00  0.00     0.316 C 
ATOM      3  C   UNL     1      10.032 -31.943  42.601  1.00  0.00     0.018 C 
ATOM      4  C   UNL     1      10.231 -33.238  42.857  1.00  0.00     0.186 C 
ATOM      5  C   UNL     1       8.671 -31.278  42.759  1.00  0.00     0.061 C 
ATOM      6  O   UNL     1       9.161 -34.075  43.172  1.00  0.00    -0.472 OA
ATOM      7  C   UNL     1       7.569 -32.246  43.270  1.00  0.00     0.096 C 
ATOM      8  C   UNL     1       8.707 -30.174  43.842  1.00  0.00     0.145 C 
ATOM      9  C   UNL     1       7.560 -31.994  44.755  1.00  0.00    -0.036 C 
ATOM     10  C   UNL     1       8.169 -30.852  45.052  1.00  0.00     0.007 C 
BRANCH   8  11
ATOM     11  O   UNL     1       9.995 -29.676  44.095  1.00  0.00    -0.388 OA
ATOM     12  H   UNL     1      10.580 -30.044  43.384  1.00  0.00     0.211 HD
ENDBRANCH   8  11
BRANCH   9  13
ATOM     13  C   UNL     1       6.771 -32.780  45.772  1.00  0.00     0.187 C 
BRANCH  13  14
ATOM     14  O   UNL     1       5.414 -32.810  45.420  1.00  0.00    -0.392 OA
ATOM     15  H   UNL     1       5.292 -32.127  44.710  1.00  0.00     0.211 HD
ENDBRANCH  13  14
ENDBRANCH   9  13
ENDBRANCH   1   2
BRANCH   1  16
ATOM     16  C   UNL     1       5.877 -34.960  42.577  1.00  0.00     0.286 C 
ATOM     17  C   UNL     1       6.178 -36.370  42.018  1.00  0.00     0.202 C 
ATOM     18  O   UNL     1       4.603 -34.918  43.207  1.00  0.00    -0.341 OA
ATOM     19  C   UNL     1       5.999 -37.451  43.105  1.00  0.00     0.179 C 
ATOM     20  C   UNL     1       4.546 -35.792  44.325  1.00  0.00     0.178 C 
ATOM     21  C   UNL     1       4.677 -37.265  43.876  1.00  0.00     0.177 C 
BRANCH  17  22
ATOM     22  O   UNL     1       5.399 -36.653  40.878  1.00  0.00    -0.385 OA
ATOM     23  H   UNL     1       4.981 -35.810  40.567  1.00  0.00     0.211 HD
ENDBRANCH  17  22
BRANCH  19  24
ATOM     24  O   UNL     1       6.058 -38.727  42.523  1.00  0.00    -0.387 OA
ATOM     25  H   UNL     1       6.310 -38.596  41.571  1.00  0.00     0.211 HD
ENDBRANCH  19  24
BRANCH  20  26
ATOM     26  C   UNL     1       3.235 -35.551  45.079  1.00  0.00     0.191 C 
BRANCH  26  27
ATOM     27  O   UNL     1       2.921 -36.682  45.845  1.00  0.00    -0.394 OA
ATOM     28  H   UNL     1       3.230 -37.465  45.318  1.00  0.00     0.210 HD
ENDBRANCH  26  27
ENDBRANCH  20  26
BRANCH  21  29
ATOM     29  O   UNL     1       3.591 -37.638  43.063  1.00  0.00    -0.387 OA
ATOM     30  H   UNL     1       3.185 -38.448  43.468  1.00  0.00     0.211 HD
ENDBRANCH  21  29
ENDBRANCH   1  16
TORSDOF 10
ENDMDL
