MODEL 1
REMARK VINA RESULT:    -4.498      0.000      0.000
REMARK INTER + INTRA:          -4.629
REMARK INTER:                  -4.629
REMARK INTRA:                   0.000
REMARK UNBOUND:                 0.000
REMARK SMILES Nc1ncnc2nc[nH]c12
REMARK SMILES IDX 8 1 7 2 6 3 5 4 4 5 3 6 2 7 10 8 9 9 1 11
REMARK H PARENT 9 10 1 12 1 13
REMARK Flexibility Score: inf
ROOT
ATOM      1  C   UNL     1      -2.836  -3.653   1.769  1.00  0.00     0.199 A 
ATOM      2  N   UNL     1      -3.059  -3.193   3.030  1.00  0.00    -0.217 NA
ATOM      3  C   UNL     1      -3.850  -4.148   3.547  1.00  0.00     0.182 A 
ATOM      4  N   UNL     1      -4.369  -4.179   4.797  1.00  0.00    -0.215 NA
ATOM      5  C   UNL     1      -5.157  -5.243   5.143  1.00  0.00     0.226 A 
ATOM      6  N   UNL     1      -5.408  -6.245   4.240  1.00  0.00    -0.217 NA
ATOM      7  C   UNL     1      -4.885  -6.216   2.978  1.00  0.00     0.152 A 
ATOM      8  C   UNL     1      -4.086  -5.127   2.642  1.00  0.00     0.127 A 
ATOM      9  N   UNL     1      -3.450  -4.833   1.501  1.00  0.00    -0.340 N 
ATOM     10  H   UNL     1      -3.424  -5.375   0.609  1.00  0.00     0.168 HD
ENDROOT
BRANCH   7  11
ATOM     11  N   UNL     1      -5.161  -7.271   2.056  1.00  0.00    -0.382 N 
ATOM     12  H   UNL     1      -4.904  -7.192   1.048  1.00  0.00     0.158 HD
ATOM     13  H   UNL     1      -5.627  -8.144   2.386  1.00  0.00     0.158 HD
ENDBRANCH   7  11
TORSDOF 1
ENDMDL
MODEL 2
REMARK VINA RESULT:    -4.478     10.047     10.836
REMARK INTER + INTRA:          -4.609
REMARK INTER:                  -4.609
REMARK INTRA:                   0.000
REMARK UNBOUND:                 0.000
REMARK SMILES Nc1ncnc2nc[nH]c12
REMARK SMILES IDX 8 1 7 2 6 3 5 4 4 5 3 6 2 7 10 8 9 9 1 11
REMARK H PARENT 9 10 1 12 1 13
REMARK Flexibility Score: inf
ROOT
ATOM      1  C   UNL     1       2.512  -2.787  -3.725  1.00  0.00     0.199 A 
ATOM      2  N   UNL     1       2.121  -3.443  -4.852  1.00  0.00    -0.217 NA
ATOM      3  C   UNL     1       2.748  -4.625  -4.726  1.00  0.00     0.182 A 
ATOM      4  N   UNL     1       2.695  -5.664  -5.592  1.00  0.00    -0.215 NA
ATOM      5  C   UNL     1       3.406  -6.793  -5.290  1.00  0.00     0.226 A 
ATOM      6  N   UNL     1       4.148  -6.861  -4.138  1.00  0.00    -0.217 NA
ATOM      7  C   UNL     1       4.202  -5.814  -3.263  1.00  0.00     0.152 A 
ATOM      8  C   UNL     1       3.474  -4.671  -3.584  1.00  0.00     0.127 A 
ATOM      9  N   UNL     1       3.339  -3.512  -2.930  1.00  0.00    -0.340 N 
ATOM     10  H   UNL     1       3.764  -3.221  -2.022  1.00  0.00     0.168 HD
ENDROOT
BRANCH   7  11
ATOM     11  N   UNL     1       4.982  -5.907  -2.070  1.00  0.00    -0.382 N 
ATOM     12  H   UNL     1       5.100  -6.814  -1.568  1.00  0.00     0.158 HD
ATOM     13  H   UNL     1       5.448  -5.057  -1.684  1.00  0.00     0.158 HD
ENDBRANCH   7  11
TORSDOF 1
ENDMDL
MODEL 3
REMARK VINA RESULT:    -4.450      9.563     10.886
REMARK INTER + INTRA:          -4.580
REMARK INTER:                  -4.580
REMARK INTRA:                   0.000
REMARK UNBOUND:                 0.000
REMARK SMILES Nc1ncnc2nc[nH]c12
REMARK SMILES IDX 8 1 7 2 6 3 5 4 4 5 3 6 2 7 10 8 9 9 1 11
REMARK H PARENT 9 10 1 12 1 13
REMARK Flexibility Score: inf
ROOT
ATOM      1  C   UNL     1       1.253  -6.876  -4.395  1.00  0.00     0.199 A 
ATOM      2  N   UNL     1       2.341  -7.690  -4.478  1.00  0.00    -0.217 NA
ATOM      3  C   UNL     1       3.334  -6.880  -4.073  1.00  0.00     0.182 A 
ATOM      4  N   UNL     1       4.645  -7.200  -3.967  1.00  0.00    -0.215 NA
ATOM      5  C   UNL     1       5.512  -6.236  -3.532  1.00  0.00     0.226 A 
ATOM      6  N   UNL     1       5.055  -4.982  -3.213  1.00  0.00    -0.217 NA
ATOM      7  C   UNL     1       3.732  -4.658  -3.318  1.00  0.00     0.152 A 
ATOM      8  C   UNL     1       2.863  -5.650  -3.763  1.00  0.00     0.127 A 
ATOM      9  N   UNL     1       1.539  -5.623  -3.961  1.00  0.00    -0.340 N 
ATOM     10  H   UNL     1       0.873  -4.831  -3.818  1.00  0.00     0.168 HD
ENDROOT
BRANCH   7  11
ATOM     11  N   UNL     1       3.280  -3.345  -2.980  1.00  0.00    -0.382 N 
ATOM     12  H   UNL     1       3.016  -2.655  -3.717  1.00  0.00     0.158 HD
ATOM     13  H   UNL     1       3.206  -3.061  -1.979  1.00  0.00     0.158 HD
ENDBRANCH   7  11
TORSDOF 1
ENDMDL
MODEL 4
REMARK VINA RESULT:    -4.363      1.948      2.386
REMARK INTER + INTRA:          -4.491
REMARK INTER:                  -4.491
REMARK INTRA:                   0.000
REMARK UNBOUND:                 0.000
REMARK SMILES Nc1ncnc2nc[nH]c12
REMARK SMILES IDX 8 1 7 2 6 3 5 4 4 5 3 6 2 7 10 8 9 9 1 11
REMARK H PARENT 9 10 1 12 1 13
REMARK Flexibility Score: inf
ROOT
ATOM      1  C   UNL     1      -3.772  -1.722   0.645  1.00  0.00     0.199 A 
ATOM      2  N   UNL     1      -2.694  -2.236   1.299  1.00  0.00    -0.217 NA
ATOM      3  C   UNL     1      -3.215  -3.316   1.903  1.00  0.00     0.182 A 
ATOM      4  N   UNL     1      -2.557  -4.196   2.694  1.00  0.00    -0.215 NA
ATOM      5  C   UNL     1      -3.262  -5.243   3.222  1.00  0.00     0.226 A 
ATOM      6  N   UNL     1      -4.600  -5.388   2.951  1.00  0.00    -0.217 NA
ATOM      7  C   UNL     1      -5.265  -4.502   2.153  1.00  0.00     0.152 A 
ATOM      8  C   UNL     1      -4.534  -3.442   1.623  1.00  0.00     0.127 A 
ATOM      9  N   UNL     1      -4.911  -2.437   0.824  1.00  0.00    -0.340 N 
ATOM     10  H   UNL     1      -5.855  -2.240   0.424  1.00  0.00     0.168 HD
ENDROOT
BRANCH   7  11
ATOM     11  N   UNL     1      -6.658  -4.673   1.885  1.00  0.00    -0.382 N 
ATOM     12  H   UNL     1      -7.108  -4.236   1.051  1.00  0.00     0.158 HD
ATOM     13  H   UNL     1      -7.246  -5.247   2.528  1.00  0.00     0.158 HD
ENDBRANCH   7  11
TORSDOF 1
ENDMDL
MODEL 5
REMARK VINA RESULT:    -4.325      1.025      3.595
REMARK INTER + INTRA:          -4.452
REMARK INTER:                  -4.452
REMARK INTRA:                   0.000
REMARK UNBOUND:                 0.000
REMARK SMILES Nc1ncnc2nc[nH]c12
REMARK SMILES IDX 8 1 7 2 6 3 5 4 4 5 3 6 2 7 10 8 9 9 1 11
REMARK H PARENT 9 10 1 12 1 13
REMARK Flexibility Score: inf
ROOT
ATOM      1  C   UNL     1      -5.367  -7.307   3.567  1.00  0.00     0.199 A 
ATOM      2  N   UNL     1      -4.856  -6.785   2.418  1.00  0.00    -0.217 NA
ATOM      3  C   UNL     1      -4.369  -5.603   2.833  1.00  0.00     0.182 A 
ATOM      4  N   UNL     1      -3.743  -4.675   2.072  1.00  0.00    -0.215 NA
ATOM      5  C   UNL     1      -3.313  -3.526   2.678  1.00  0.00     0.226 A 
ATOM      6  N   UNL     1      -3.515  -3.331   4.021  1.00  0.00    -0.217 NA
ATOM      7  C   UNL     1      -4.145  -4.267   4.791  1.00  0.00     0.152 A 
ATOM      8  C   UNL     1      -4.577  -5.430   4.159  1.00  0.00     0.127 A 
ATOM      9  N   UNL     1      -5.211  -6.502   4.648  1.00  0.00    -0.340 N 
ATOM     10  H   UNL     1      -5.520  -6.689   5.629  1.00  0.00     0.168 HD
ENDROOT
BRANCH   7  11
ATOM     11  N   UNL     1      -4.343  -4.042   6.188  1.00  0.00    -0.382 N 
ATOM     12  H   UNL     1      -3.599  -3.612   6.780  1.00  0.00     0.158 HD
ATOM     13  H   UNL     1      -5.247  -4.308   6.636  1.00  0.00     0.158 HD
ENDBRANCH   7  11
TORSDOF 1
ENDMDL
MODEL 6
REMARK VINA RESULT:    -4.303      0.871      2.894
REMARK INTER + INTRA:          -4.429
REMARK INTER:                  -4.429
REMARK INTRA:                   0.000
REMARK UNBOUND:                 0.000
REMARK SMILES Nc1ncnc2nc[nH]c12
REMARK SMILES IDX 8 1 7 2 6 3 5 4 4 5 3 6 2 7 10 8 9 9 1 11
REMARK H PARENT 9 10 1 12 1 13
REMARK Flexibility Score: inf
ROOT
ATOM      1  C   UNL     1      -5.307  -4.625   6.026  1.00  0.00     0.199 A 
ATOM      2  N   UNL     1      -4.454  -3.617   5.699  1.00  0.00    -0.217 NA
ATOM      3  C   UNL     1      -4.082  -3.951   4.451  1.00  0.00     0.182 A 
ATOM      4  N   UNL     1      -3.227  -3.270   3.653  1.00  0.00    -0.215 NA
ATOM      5  C   UNL     1      -2.971  -3.770   2.406  1.00  0.00     0.226 A 
ATOM      6  N   UNL     1      -3.569  -4.931   1.985  1.00  0.00    -0.217 NA
ATOM      7  C   UNL     1      -4.433  -5.619   2.789  1.00  0.00     0.152 A 
ATOM      8  C   UNL     1      -4.683  -5.098   4.055  1.00  0.00     0.127 A 
ATOM      9  N   UNL     1      -5.468  -5.545   5.042  1.00  0.00    -0.340 N 
ATOM     10  H   UNL     1      -6.069  -6.400   5.062  1.00  0.00     0.168 HD
ENDROOT
BRANCH   7  11
ATOM     11  N   UNL     1      -5.044  -6.826   2.329  1.00  0.00    -0.382 N 
ATOM     12  H   UNL     1      -4.816  -7.228   1.394  1.00  0.00     0.158 HD
ATOM     13  H   UNL     1      -5.734  -7.324   2.933  1.00  0.00     0.158 HD
ENDBRANCH   7  11
TORSDOF 1
ENDMDL
MODEL 7
REMARK VINA RESULT:    -4.293     10.176     11.142
REMARK INTER + INTRA:          -4.418
REMARK INTER:                  -4.418
REMARK INTRA:                   0.000
REMARK UNBOUND:                 0.000
REMARK SMILES Nc1ncnc2nc[nH]c12
REMARK SMILES IDX 8 1 7 2 6 3 5 4 4 5 3 6 2 7 10 8 9 9 1 11
REMARK H PARENT 9 10 1 12 1 13
REMARK Flexibility Score: inf
ROOT
ATOM      1  C   UNL     1       5.293  -6.961  -2.645  1.00  0.00     0.199 A 
ATOM      2  N   UNL     1       4.732  -7.566  -3.729  1.00  0.00    -0.217 NA
ATOM      3  C   UNL     1       3.905  -6.613  -4.191  1.00  0.00     0.182 A 
ATOM      4  N   UNL     1       3.096  -6.700  -5.273  1.00  0.00    -0.215 NA
ATOM      5  C   UNL     1       2.322  -5.618  -5.590  1.00  0.00     0.226 A 
ATOM      6  N   UNL     1       2.373  -4.479  -4.826  1.00  0.00    -0.217 NA
ATOM      7  C   UNL     1       3.190  -4.388  -3.735  1.00  0.00     0.152 A 
ATOM      8  C   UNL     1       3.971  -5.499  -3.425  1.00  0.00     0.127 A 
ATOM      9  N   UNL     1       4.848  -5.697  -2.434  1.00  0.00    -0.340 N 
ATOM     10  H   UNL     1       5.132  -5.042  -1.672  1.00  0.00     0.168 HD
ENDROOT
BRANCH   7  11
ATOM     11  N   UNL     1       3.226  -3.192  -2.955  1.00  0.00    -0.382 N 
ATOM     12  H   UNL     1       2.350  -2.696  -2.680  1.00  0.00     0.158 HD
ATOM     13  H   UNL     1       4.142  -2.797  -2.648  1.00  0.00     0.158 HD
ENDBRANCH   7  11
TORSDOF 1
ENDMDL
MODEL 8
REMARK VINA RESULT:    -4.287      1.835      3.550
REMARK INTER + INTRA:          -4.413
REMARK INTER:                  -4.413
REMARK INTRA:                   0.000
REMARK UNBOUND:                 0.000
REMARK SMILES Nc1ncnc2nc[nH]c12
REMARK SMILES IDX 8 1 7 2 6 3 5 4 4 5 3 6 2 7 10 8 9 9 1 11
REMARK H PARENT 9 10 1 12 1 13
REMARK Flexibility Score: inf
ROOT
ATOM      1  C   UNL     1      -6.600  -5.509   2.615  1.00  0.00     0.199 A 
ATOM      2  N   UNL     1      -5.489  -5.980   3.244  1.00  0.00    -0.217 NA
ATOM      3  C   UNL     1      -4.546  -5.109   2.847  1.00  0.00     0.182 A 
ATOM      4  N   UNL     1      -3.237  -5.122   3.192  1.00  0.00    -0.215 NA
ATOM      5  C   UNL     1      -2.425  -4.145   2.684  1.00  0.00     0.226 A 
ATOM      6  N   UNL     1      -2.934  -3.182   1.849  1.00  0.00    -0.217 NA
ATOM      7  C   UNL     1      -4.255  -3.167   1.500  1.00  0.00     0.152 A 
ATOM      8  C   UNL     1      -5.068  -4.168   2.025  1.00  0.00     0.127 A 
ATOM      9  N   UNL     1      -6.375  -4.403   1.863  1.00  0.00    -0.340 N 
ATOM     10  H   UNL     1      -7.069  -3.869   1.294  1.00  0.00     0.168 HD
ENDROOT
BRANCH   7  11
ATOM     11  N   UNL     1      -4.762  -2.155   0.629  1.00  0.00    -0.382 N 
ATOM     12  H   UNL     1      -5.370  -1.386   0.986  1.00  0.00     0.158 HD
ATOM     13  H   UNL     1      -4.525  -2.174  -0.387  1.00  0.00     0.158 HD
ENDBRANCH   7  11
TORSDOF 1
ENDMDL
MODEL 9
REMARK VINA RESULT:    -4.092     10.254     11.084
REMARK INTER + INTRA:          -4.212
REMARK INTER:                  -4.212
REMARK INTRA:                   0.000
REMARK UNBOUND:                 0.000
REMARK SMILES Nc1ncnc2nc[nH]c12
REMARK SMILES IDX 8 1 7 2 6 3 5 4 4 5 3 6 2 7 10 8 9 9 1 11
REMARK H PARENT 9 10 1 12 1 13
REMARK Flexibility Score: inf
ROOT
ATOM      1  C   UNL     1       2.500  -3.236  -4.499  1.00  0.00     0.199 A 
ATOM      2  N   UNL     1       3.047  -3.492  -3.279  1.00  0.00    -0.217 NA
ATOM      3  C   UNL     1       3.657  -4.672  -3.483  1.00  0.00     0.182 A 
ATOM      4  N   UNL     1       4.364  -5.383  -2.574  1.00  0.00    -0.215 NA
ATOM      5  C   UNL     1       4.916  -6.570  -2.970  1.00  0.00     0.226 A 
ATOM      6  N   UNL     1       4.752  -7.018  -4.256  1.00  0.00    -0.217 NA
ATOM      7  C   UNL     1       4.040  -6.302  -5.176  1.00  0.00     0.152 A 
ATOM      8  C   UNL     1       3.484  -5.096  -4.757  1.00  0.00     0.127 A 
ATOM      9  N   UNL     1       2.749  -4.197  -5.423  1.00  0.00    -0.340 N 
ATOM     10  H   UNL     1       2.436  -4.219  -6.419  1.00  0.00     0.168 HD
ENDROOT
BRANCH   7  11
ATOM     11  N   UNL     1       3.883  -6.789  -6.509  1.00  0.00    -0.382 N 
ATOM     12  H   UNL     1       3.793  -6.136  -7.319  1.00  0.00     0.158 HD
ATOM     13  H   UNL     1       3.857  -7.816  -6.690  1.00  0.00     0.158 HD
ENDBRANCH   7  11
TORSDOF 1
ENDMDL
