MODEL 1
REMARK VINA RESULT:    -5.056      0.000      0.000
REMARK INTER + INTRA:          -5.203
REMARK INTER:                  -5.203
REMARK INTRA:                   0.000
REMARK UNBOUND:                 0.000
REMARK SMILES Cc1cccc(O)c1C
REMARK SMILES IDX 1 1 2 2 8 3 6 4 5 5 4 6 3 7 9 8 7 9
REMARK H PARENT 7 10
REMARK Flexibility Score: inf
ROOT
ATOM      1  C   UNL     1      -8.039  -8.481  13.649  1.00  0.00     0.045 C 
ATOM      2  C   UNL     1      -9.048  -7.435  14.049  1.00  0.00    -0.045 A 
ATOM      3  C   UNL     1      -8.903  -6.079  13.658  1.00  0.00    -0.006 A 
ATOM      4  C   UNL     1      -9.866  -5.133  14.077  1.00  0.00     0.118 A 
ATOM      5  C   UNL     1     -10.971  -5.544  14.834  1.00  0.00     0.046 A 
ATOM      6  C   UNL     1     -11.124  -6.883  15.186  1.00  0.00     0.004 A 
ATOM      7  C   UNL     1     -10.171  -7.824  14.798  1.00  0.00     0.004 A 
ATOM      8  C   UNL     1      -7.706  -5.632  12.854  1.00  0.00     0.048 C 
ENDROOT
BRANCH   4   9
ATOM      9  O   UNL     1      -9.724  -3.786  13.744  1.00  0.00    -0.508 OA
ATOM     10  H   UNL     1      -8.826  -3.319  13.782  1.00  0.00     0.293 HD
ENDBRANCH   4   9
TORSDOF 1
ENDMDL
MODEL 2
REMARK VINA RESULT:    -4.954     15.034     16.825
REMARK INTER + INTRA:          -5.099
REMARK INTER:                  -5.099
REMARK INTRA:                   0.000
REMARK UNBOUND:                 0.000
REMARK SMILES Cc1cccc(O)c1C
REMARK SMILES IDX 1 1 2 2 8 3 6 4 5 5 4 6 3 7 9 8 7 9
REMARK H PARENT 7 10
REMARK Flexibility Score: inf
ROOT
ATOM      1  C   UNL     1       2.603   6.025   9.575  1.00  0.00     0.045 C 
ATOM      2  C   UNL     1       2.991   5.193  10.770  1.00  0.00    -0.045 A 
ATOM      3  C   UNL     1       2.085   4.271  11.356  1.00  0.00    -0.006 A 
ATOM      4  C   UNL     1       2.492   3.529  12.489  1.00  0.00     0.118 A 
ATOM      5  C   UNL     1       3.790   3.677  12.996  1.00  0.00     0.046 A 
ATOM      6  C   UNL     1       4.684   4.559  12.395  1.00  0.00     0.004 A 
ATOM      7  C   UNL     1       4.291   5.313  11.290  1.00  0.00     0.004 A 
ATOM      8  C   UNL     1       0.683   4.121  10.819  1.00  0.00     0.048 C 
ENDROOT
BRANCH   4   9
ATOM      9  O   UNL     1       1.607   2.649  13.111  1.00  0.00    -0.508 OA
ATOM     10  H   UNL     1       1.640   2.477  14.109  1.00  0.00     0.293 HD
ENDBRANCH   4   9
TORSDOF 1
ENDMDL
MODEL 3
REMARK VINA RESULT:    -4.905      1.044      2.642
REMARK INTER + INTRA:          -5.048
REMARK INTER:                  -5.048
REMARK INTRA:                   0.000
REMARK UNBOUND:                 0.000
REMARK SMILES Cc1cccc(O)c1C
REMARK SMILES IDX 1 1 2 2 8 3 6 4 5 5 4 6 3 7 9 8 7 9
REMARK H PARENT 7 10
REMARK Flexibility Score: inf
ROOT
ATOM      1  C   UNL     1      -8.170  -8.922  14.685  1.00  0.00     0.045 C 
ATOM      2  C   UNL     1      -8.336  -7.502  14.206  1.00  0.00    -0.045 A 
ATOM      3  C   UNL     1      -9.570  -6.815  14.341  1.00  0.00    -0.006 A 
ATOM      4  C   UNL     1      -9.680  -5.492  13.857  1.00  0.00     0.118 A 
ATOM      5  C   UNL     1      -8.566  -4.856  13.291  1.00  0.00     0.046 A 
ATOM      6  C   UNL     1      -7.348  -5.526  13.193  1.00  0.00     0.004 A 
ATOM      7  C   UNL     1      -7.231  -6.839  13.646  1.00  0.00     0.004 A 
ATOM      8  C   UNL     1     -10.774  -7.503  14.939  1.00  0.00     0.048 C 
ENDROOT
BRANCH   4   9
ATOM      9  O   UNL     1     -10.893  -4.809  13.937  1.00  0.00    -0.508 OA
ATOM     10  H   UNL     1     -11.222  -4.218  13.183  1.00  0.00     0.293 HD
ENDBRANCH   4   9
TORSDOF 1
ENDMDL
MODEL 4
REMARK VINA RESULT:    -4.838     10.444     11.268
REMARK INTER + INTRA:          -4.979
REMARK INTER:                  -4.979
REMARK INTRA:                   0.000
REMARK UNBOUND:                 0.000
REMARK SMILES Cc1cccc(O)c1C
REMARK SMILES IDX 1 1 2 2 8 3 6 4 5 5 4 6 3 7 9 8 7 9
REMARK H PARENT 7 10
REMARK Flexibility Score: inf
ROOT
ATOM      1  C   UNL     1       0.335  -5.279  21.025  1.00  0.00     0.045 C 
ATOM      2  C   UNL     1      -0.368  -6.475  20.435  1.00  0.00    -0.045 A 
ATOM      3  C   UNL     1       0.350  -7.633  20.038  1.00  0.00    -0.006 A 
ATOM      4  C   UNL     1      -0.353  -8.720  19.471  1.00  0.00     0.118 A 
ATOM      5  C   UNL     1      -1.747  -8.665  19.345  1.00  0.00     0.046 A 
ATOM      6  C   UNL     1      -2.449  -7.538  19.768  1.00  0.00     0.004 A 
ATOM      7  C   UNL     1      -1.766  -6.450  20.310  1.00  0.00     0.004 A 
ATOM      8  C   UNL     1       1.854  -7.688  20.161  1.00  0.00     0.048 C 
ENDROOT
BRANCH   4   9
ATOM      9  O   UNL     1       0.333  -9.853  19.032  1.00  0.00    -0.508 OA
ATOM     10  H   UNL     1       0.775  -9.887  18.121  1.00  0.00     0.293 HD
ENDBRANCH   4   9
TORSDOF 1
ENDMDL
MODEL 5
REMARK VINA RESULT:    -4.816     14.931     16.880
REMARK INTER + INTRA:          -4.957
REMARK INTER:                  -4.957
REMARK INTRA:                   0.000
REMARK UNBOUND:                 0.000
REMARK SMILES Cc1cccc(O)c1C
REMARK SMILES IDX 1 1 2 2 8 3 6 4 5 5 4 6 3 7 9 8 7 9
REMARK H PARENT 7 10
REMARK Flexibility Score: inf
ROOT
ATOM      1  C   UNL     1       1.688   1.908  10.929  1.00  0.00     0.045 C 
ATOM      2  C   UNL     1       2.375   3.250  10.943  1.00  0.00    -0.045 A 
ATOM      3  C   UNL     1       3.667   3.414  11.506  1.00  0.00    -0.006 A 
ATOM      4  C   UNL     1       4.259   4.697  11.512  1.00  0.00     0.118 A 
ATOM      5  C   UNL     1       3.590   5.782  10.930  1.00  0.00     0.046 A 
ATOM      6  C   UNL     1       2.336   5.606  10.349  1.00  0.00     0.004 A 
ATOM      7  C   UNL     1       1.730   4.350  10.354  1.00  0.00     0.004 A 
ATOM      8  C   UNL     1       4.383   2.249  12.146  1.00  0.00     0.048 C 
ENDROOT
BRANCH   4   9
ATOM      9  O   UNL     1       5.509   4.896  12.099  1.00  0.00    -0.508 OA
ATOM     10  H   UNL     1       5.763   4.454  12.974  1.00  0.00     0.293 HD
ENDBRANCH   4   9
TORSDOF 1
ENDMDL
MODEL 6
REMARK VINA RESULT:    -4.816     14.677     16.316
REMARK INTER + INTRA:          -4.957
REMARK INTER:                  -4.957
REMARK INTRA:                   0.000
REMARK UNBOUND:                 0.000
REMARK SMILES Cc1cccc(O)c1C
REMARK SMILES IDX 1 1 2 2 8 3 6 4 5 5 4 6 3 7 9 8 7 9
REMARK H PARENT 7 10
REMARK Flexibility Score: inf
ROOT
ATOM      1  C   UNL     1       3.873   3.754  14.397  1.00  0.00     0.045 C 
ATOM      2  C   UNL     1       3.270   3.423  13.056  1.00  0.00    -0.045 A 
ATOM      3  C   UNL     1       3.704   4.069  11.869  1.00  0.00    -0.006 A 
ATOM      4  C   UNL     1       3.091   3.737  10.640  1.00  0.00     0.118 A 
ATOM      5  C   UNL     1       2.098   2.750  10.594  1.00  0.00     0.046 A 
ATOM      6  C   UNL     1       1.701   2.096  11.759  1.00  0.00     0.004 A 
ATOM      7  C   UNL     1       2.281   2.428  12.982  1.00  0.00     0.004 A 
ATOM      8  C   UNL     1       4.764   5.142  11.919  1.00  0.00     0.048 C 
ENDROOT
BRANCH   4   9
ATOM      9  O   UNL     1       3.467   4.388   9.465  1.00  0.00    -0.508 OA
ATOM     10  H   UNL     1       2.917   4.316   8.617  1.00  0.00     0.293 HD
ENDBRANCH   4   9
TORSDOF 1
ENDMDL
MODEL 7
REMARK VINA RESULT:    -4.760     14.797     16.452
REMARK INTER + INTRA:          -4.900
REMARK INTER:                  -4.900
REMARK INTRA:                   0.000
REMARK UNBOUND:                 0.000
REMARK SMILES Cc1cccc(O)c1C
REMARK SMILES IDX 1 1 2 2 8 3 6 4 5 5 4 6 3 7 9 8 7 9
REMARK H PARENT 7 10
REMARK Flexibility Score: inf
ROOT
ATOM      1  C   UNL     1       4.989   5.457  11.863  1.00  0.00     0.045 C 
ATOM      2  C   UNL     1       3.823   4.533  11.619  1.00  0.00    -0.045 A 
ATOM      3  C   UNL     1       3.227   3.800  12.677  1.00  0.00    -0.006 A 
ATOM      4  C   UNL     1       2.149   2.931  12.392  1.00  0.00     0.118 A 
ATOM      5  C   UNL     1       1.653   2.832  11.085  1.00  0.00     0.046 A 
ATOM      6  C   UNL     1       2.222   3.582  10.058  1.00  0.00     0.004 A 
ATOM      7  C   UNL     1       3.300   4.427  10.320  1.00  0.00     0.004 A 
ATOM      8  C   UNL     1       3.769   3.895  14.083  1.00  0.00     0.048 C 
ENDROOT
BRANCH   4   9
ATOM      9  O   UNL     1       1.573   2.164  13.405  1.00  0.00    -0.508 OA
ATOM     10  H   UNL     1       1.979   1.286  13.706  1.00  0.00     0.293 HD
ENDBRANCH   4   9
TORSDOF 1
ENDMDL
MODEL 8
REMARK VINA RESULT:    -4.728     15.616     16.904
REMARK INTER + INTRA:          -4.866
REMARK INTER:                  -4.866
REMARK INTRA:                   0.000
REMARK UNBOUND:                 0.000
REMARK SMILES Cc1cccc(O)c1C
REMARK SMILES IDX 1 1 2 2 8 3 6 4 5 5 4 6 3 7 9 8 7 9
REMARK H PARENT 7 10
REMARK Flexibility Score: inf
ROOT
ATOM      1  C   UNL     1       0.763   4.213  10.689  1.00  0.00     0.045 C 
ATOM      2  C   UNL     1       2.020   4.099  11.514  1.00  0.00    -0.045 A 
ATOM      3  C   UNL     1       3.111   4.986  11.327  1.00  0.00    -0.006 A 
ATOM      4  C   UNL     1       4.275   4.824  12.112  1.00  0.00     0.118 A 
ATOM      5  C   UNL     1       4.327   3.824  13.092  1.00  0.00     0.046 A 
ATOM      6  C   UNL     1       3.239   2.978  13.293  1.00  0.00     0.004 A 
ATOM      7  C   UNL     1       2.092   3.113  12.512  1.00  0.00     0.004 A 
ATOM      8  C   UNL     1       3.062   6.056  10.262  1.00  0.00     0.048 C 
ENDROOT
BRANCH   4   9
ATOM      9  O   UNL     1       5.380   5.654  11.918  1.00  0.00    -0.508 OA
ATOM     10  H   UNL     1       6.179   5.630  12.540  1.00  0.00     0.293 HD
ENDBRANCH   4   9
TORSDOF 1
ENDMDL
MODEL 9
REMARK VINA RESULT:    -4.630     15.345     16.964
REMARK INTER + INTRA:          -4.765
REMARK INTER:                  -4.765
REMARK INTRA:                   0.000
REMARK UNBOUND:                 0.000
REMARK SMILES Cc1cccc(O)c1C
REMARK SMILES IDX 1 1 2 2 8 3 6 4 5 5 4 6 3 7 9 8 7 9
REMARK H PARENT 7 10
REMARK Flexibility Score: inf
ROOT
ATOM      1  C   UNL     1       4.998   6.006  11.736  1.00  0.00     0.045 C 
ATOM      2  C   UNL     1       4.203   4.736  11.568  1.00  0.00    -0.045 A 
ATOM      3  C   UNL     1       3.063   4.683  10.725  1.00  0.00    -0.006 A 
ATOM      4  C   UNL     1       2.340   3.474  10.618  1.00  0.00     0.118 A 
ATOM      5  C   UNL     1       2.774   2.332  11.306  1.00  0.00     0.046 A 
ATOM      6  C   UNL     1       3.914   2.383  12.105  1.00  0.00     0.004 A 
ATOM      7  C   UNL     1       4.625   3.575  12.237  1.00  0.00     0.004 A 
ATOM      8  C   UNL     1       2.586   5.915   9.994  1.00  0.00     0.048 C 
ENDROOT
BRANCH   4   9
ATOM      9  O   UNL     1       1.190   3.405   9.832  1.00  0.00    -0.508 OA
ATOM     10  H   UNL     1       1.236   3.226   8.835  1.00  0.00     0.293 HD
ENDBRANCH   4   9
TORSDOF 1
ENDMDL
