MODEL 1
REMARK VINA RESULT:    -3.781      0.000      0.000
REMARK INTER + INTRA:          -5.619
REMARK INTER:                  -5.329
REMARK INTRA:                  -0.290
REMARK UNBOUND:                -0.290
REMARK SMILES CCCCCCCCC(=O)[O-]
REMARK SMILES IDX 6 1 7 2 8 3 9 4 10 5 11 6 5 7 4 8 3 9 2 10 1 11
REMARK H PARENT
REMARK Flexibility Score: inf
ROOT
ATOM      1  C   UNL     1      26.586 -16.355  25.268  1.00  0.00     0.000 C 
ENDROOT
BRANCH   1   2
ATOM      2  C   UNL     1      25.812 -16.037  26.556  1.00  0.00     0.006 C 
BRANCH   2   3
ATOM      3  C   UNL     1      24.301 -16.099  26.316  1.00  0.00     0.053 C 
BRANCH   3   4
ATOM      4  C   UNL     1      23.697 -14.734  26.416  1.00  0.00     0.041 C 
ATOM      5  O   UNL     1      22.498 -14.545  26.083  1.00  0.00    -0.550 OA
ATOM      6  O   UNL     1      24.474 -13.660  26.832  1.00  0.00    -0.550 OA
ENDBRANCH   3   4
ENDBRANCH   2   3
ENDBRANCH   1   2
BRANCH   1   7
ATOM      7  C   UNL     1      26.412 -17.814  24.820  1.00  0.00     0.000 C 
BRANCH   7   8
ATOM      8  C   UNL     1      27.758 -18.527  24.591  1.00  0.00    -0.000 C 
BRANCH   8   9
ATOM      9  C   UNL     1      28.748 -18.304  25.745  1.00  0.00    -0.000 C 
BRANCH   9  10
ATOM     10  C   UNL     1      29.980 -19.214  25.649  1.00  0.00    -0.003 C 
ATOM     11  C   UNL     1      31.112 -18.526  24.890  1.00  0.00     0.004 C 
ENDBRANCH   9  10
ENDBRANCH   8   9
ENDBRANCH   7   8
ENDBRANCH   1   7
TORSDOF 7
ENDMDL
MODEL 2
REMARK VINA RESULT:    -3.710      3.443      6.205
REMARK INTER + INTRA:          -5.518
REMARK INTER:                  -5.161
REMARK INTRA:                  -0.357
REMARK UNBOUND:                -0.290
REMARK SMILES CCCCCCCCC(=O)[O-]
REMARK SMILES IDX 6 1 7 2 8 3 9 4 10 5 11 6 5 7 4 8 3 9 2 10 1 11
REMARK H PARENT
REMARK Flexibility Score: inf
ROOT
ATOM      1  C   UNL     1      26.524 -17.508  24.470  1.00  0.00     0.000 C 
ENDROOT
BRANCH   1   2
ATOM      2  C   UNL     1      27.311 -18.669  25.098  1.00  0.00     0.006 C 
BRANCH   2   3
ATOM      3  C   UNL     1      28.608 -18.931  24.327  1.00  0.00     0.053 C 
BRANCH   3   4
ATOM      4  C   UNL     1      29.795 -18.730  25.215  1.00  0.00     0.041 C 
ATOM      5  O   UNL     1      29.637 -18.389  26.416  1.00  0.00    -0.550 OA
ATOM      6  O   UNL     1      31.079 -18.872  24.703  1.00  0.00    -0.550 OA
ENDBRANCH   3   4
ENDBRANCH   2   3
ENDBRANCH   1   2
BRANCH   1   7
ATOM      7  C   UNL     1      26.622 -16.215  25.294  1.00  0.00     0.000 C 
BRANCH   7   8
ATOM      8  C   UNL     1      25.539 -16.124  26.385  1.00  0.00    -0.000 C 
BRANCH   8   9
ATOM      9  C   UNL     1      24.886 -14.735  26.453  1.00  0.00    -0.000 C 
BRANCH   9  10
ATOM     10  C   UNL     1      23.354 -14.800  26.372  1.00  0.00    -0.003 C 
ATOM     11  C   UNL     1      22.869 -16.245  26.292  1.00  0.00     0.004 C 
ENDBRANCH   9  10
ENDBRANCH   8   9
ENDBRANCH   7   8
ENDBRANCH   1   7
TORSDOF 7
ENDMDL
MODEL 3
REMARK VINA RESULT:    -3.637      3.267      5.918
REMARK INTER + INTRA:          -5.416
REMARK INTER:                  -4.893
REMARK INTRA:                  -0.523
REMARK UNBOUND:                -0.290
REMARK SMILES CCCCCCCCC(=O)[O-]
REMARK SMILES IDX 6 1 7 2 8 3 9 4 10 5 11 6 5 7 4 8 3 9 2 10 1 11
REMARK H PARENT
REMARK Flexibility Score: inf
ROOT
ATOM      1  C   UNL     1      24.734 -17.559  25.678  1.00  0.00     0.000 C 
ENDROOT
BRANCH   1   2
ATOM      2  C   UNL     1      26.073 -16.817  25.545  1.00  0.00     0.006 C 
BRANCH   2   3
ATOM      3  C   UNL     1      26.887 -17.363  24.368  1.00  0.00     0.053 C 
BRANCH   3   4
ATOM      4  C   UNL     1      27.796 -18.460  24.823  1.00  0.00     0.041 C 
ATOM      5  O   UNL     1      27.615 -19.640  24.423  1.00  0.00    -0.550 OA
ATOM      6  O   UNL     1      28.814 -18.189  25.729  1.00  0.00    -0.550 OA
ENDBRANCH   3   4
ENDBRANCH   2   3
ENDBRANCH   1   2
BRANCH   1   7
ATOM      7  C   UNL     1      23.788 -16.894  26.690  1.00  0.00     0.000 C 
BRANCH   7   8
ATOM      8  C   UNL     1      22.549 -16.272  26.021  1.00  0.00    -0.000 C 
BRANCH   8   9
ATOM      9  C   UNL     1      22.463 -14.753  26.234  1.00  0.00    -0.000 C 
BRANCH   9  10
ATOM     10  C   UNL     1      23.613 -14.212  27.095  1.00  0.00    -0.003 C 
ATOM     11  C   UNL     1      24.541 -13.320  26.275  1.00  0.00     0.004 C 
ENDBRANCH   9  10
ENDBRANCH   8   9
ENDBRANCH   7   8
ENDBRANCH   1   7
TORSDOF 7
ENDMDL
MODEL 4
REMARK VINA RESULT:    -3.552      1.376      2.178
REMARK INTER + INTRA:          -5.297
REMARK INTER:                  -4.638
REMARK INTRA:                  -0.658
REMARK UNBOUND:                -0.290
REMARK SMILES CCCCCCCCC(=O)[O-]
REMARK SMILES IDX 6 1 7 2 8 3 9 4 10 5 11 6 5 7 4 8 3 9 2 10 1 11
REMARK H PARENT
REMARK Flexibility Score: inf
ROOT
ATOM      1  C   UNL     1      26.612 -16.164  25.222  1.00  0.00     0.000 C 
ENDROOT
BRANCH   1   2
ATOM      2  C   UNL     1      25.848 -16.299  26.549  1.00  0.00     0.006 C 
BRANCH   2   3
ATOM      3  C   UNL     1      24.335 -16.307  26.311  1.00  0.00     0.053 C 
BRANCH   3   4
ATOM      4  C   UNL     1      23.777 -14.925  26.442  1.00  0.00     0.041 C 
ATOM      5  O   UNL     1      22.620 -14.666  26.020  1.00  0.00    -0.550 OA
ATOM      6  O   UNL     1      24.554 -13.911  26.986  1.00  0.00    -0.550 OA
ENDBRANCH   3   4
ENDBRANCH   2   3
ENDBRANCH   1   2
BRANCH   1   7
ATOM      7  C   UNL     1      26.561 -17.447  24.378  1.00  0.00     0.000 C 
BRANCH   7   8
ATOM      8  C   UNL     1      27.768 -18.369  24.630  1.00  0.00    -0.000 C 
BRANCH   8   9
ATOM      9  C   UNL     1      27.350 -19.789  25.043  1.00  0.00    -0.000 C 
BRANCH   9  10
ATOM     10  C   UNL     1      27.048 -19.901  26.544  1.00  0.00    -0.003 C 
ATOM     11  C   UNL     1      25.553 -20.087  26.790  1.00  0.00     0.004 C 
ENDBRANCH   9  10
ENDBRANCH   8   9
ENDBRANCH   7   8
ENDBRANCH   1   7
TORSDOF 7
ENDMDL
MODEL 5
REMARK VINA RESULT:    -3.499      4.141      5.918
REMARK INTER + INTRA:          -5.221
REMARK INTER:                  -4.856
REMARK INTRA:                  -0.365
REMARK UNBOUND:                -0.290
REMARK SMILES CCCCCCCCC(=O)[O-]
REMARK SMILES IDX 6 1 7 2 8 3 9 4 10 5 11 6 5 7 4 8 3 9 2 10 1 11
REMARK H PARENT
REMARK Flexibility Score: inf
ROOT
ATOM      1  C   UNL     1      21.985 -16.490  27.991  1.00  0.00     0.000 C 
ENDROOT
BRANCH   1   2
ATOM      2  C   UNL     1      20.958 -16.578  29.130  1.00  0.00     0.006 C 
BRANCH   2   3
ATOM      3  C   UNL     1      20.570 -15.182  29.626  1.00  0.00     0.053 C 
BRANCH   3   4
ATOM      4  C   UNL     1      19.312 -15.243  30.433  1.00  0.00     0.041 C 
ATOM      5  O   UNL     1      19.365 -15.429  31.676  1.00  0.00    -0.550 OA
ATOM      6  O   UNL     1      18.077 -15.143  29.803  1.00  0.00    -0.550 OA
ENDBRANCH   3   4
ENDBRANCH   2   3
ENDBRANCH   1   2
BRANCH   1   7
ATOM      7  C   UNL     1      22.274 -15.041  27.567  1.00  0.00     0.000 C 
BRANCH   7   8
ATOM      8  C   UNL     1      23.188 -14.957  26.331  1.00  0.00    -0.000 C 
BRANCH   8   9
ATOM      9  C   UNL     1      24.662 -14.732  26.702  1.00  0.00    -0.000 C 
BRANCH   9  10
ATOM     10  C   UNL     1      25.607 -15.702  25.977  1.00  0.00    -0.003 C 
ATOM     11  C   UNL     1      25.041 -17.119  25.973  1.00  0.00     0.004 C 
ENDBRANCH   9  10
ENDBRANCH   8   9
ENDBRANCH   7   8
ENDBRANCH   1   7
TORSDOF 7
ENDMDL
MODEL 6
REMARK VINA RESULT:    -3.498      3.287      5.922
REMARK INTER + INTRA:          -5.220
REMARK INTER:                  -4.562
REMARK INTRA:                  -0.658
REMARK UNBOUND:                -0.290
REMARK SMILES CCCCCCCCC(=O)[O-]
REMARK SMILES IDX 6 1 7 2 8 3 9 4 10 5 11 6 5 7 4 8 3 9 2 10 1 11
REMARK H PARENT
REMARK Flexibility Score: inf
ROOT
ATOM      1  C   UNL     1      26.057 -16.603  27.154  1.00  0.00     0.000 C 
ENDROOT
BRANCH   1   2
ATOM      2  C   UNL     1      25.986 -18.054  26.655  1.00  0.00     0.006 C 
BRANCH   2   3
ATOM      3  C   UNL     1      26.319 -18.136  25.162  1.00  0.00     0.053 C 
BRANCH   3   4
ATOM      4  C   UNL     1      27.655 -18.778  24.959  1.00  0.00     0.041 C 
ATOM      5  O   UNL     1      28.705 -18.184  25.317  1.00  0.00    -0.550 OA
ATOM      6  O   UNL     1      27.743 -20.013  24.328  1.00  0.00    -0.550 OA
ENDBRANCH   3   4
ENDBRANCH   2   3
ENDBRANCH   1   2
BRANCH   1   7
ATOM      7  C   UNL     1      25.493 -15.600  26.136  1.00  0.00     0.000 C 
BRANCH   7   8
ATOM      8  C   UNL     1      24.380 -14.717  26.729  1.00  0.00    -0.000 C 
BRANCH   8   9
ATOM      9  C   UNL     1      22.990 -15.069  26.176  1.00  0.00    -0.000 C 
BRANCH   9  10
ATOM     10  C   UNL     1      22.489 -16.435  26.667  1.00  0.00    -0.003 C 
ATOM     11  C   UNL     1      22.386 -17.429  25.513  1.00  0.00     0.004 C 
ENDBRANCH   9  10
ENDBRANCH   8   9
ENDBRANCH   7   8
ENDBRANCH   1   7
TORSDOF 7
ENDMDL
MODEL 7
REMARK VINA RESULT:    -3.460     16.267     17.083
REMARK INTER + INTRA:          -5.166
REMARK INTER:                  -4.944
REMARK INTRA:                  -0.222
REMARK UNBOUND:                -0.290
REMARK SMILES CCCCCCCCC(=O)[O-]
REMARK SMILES IDX 6 1 7 2 8 3 9 4 10 5 11 6 5 7 4 8 3 9 2 10 1 11
REMARK H PARENT
REMARK Flexibility Score: inf
ROOT
ATOM      1  C   UNL     1      13.406  -5.876  23.373  1.00  0.00     0.000 C 
ENDROOT
BRANCH   1   2
ATOM      2  C   UNL     1      12.363  -6.217  24.449  1.00  0.00     0.006 C 
BRANCH   2   3
ATOM      3  C   UNL     1      13.035  -6.460  25.804  1.00  0.00     0.053 C 
BRANCH   3   4
ATOM      4  C   UNL     1      12.091  -7.145  26.741  1.00  0.00     0.041 C 
ATOM      5  O   UNL     1      11.413  -8.131  26.350  1.00  0.00    -0.550 OA
ATOM      6  O   UNL     1      11.923  -6.663  28.033  1.00  0.00    -0.550 OA
ENDBRANCH   3   4
ENDBRANCH   2   3
ENDBRANCH   1   2
BRANCH   1   7
ATOM      7  C   UNL     1      13.140  -6.597  22.043  1.00  0.00     0.000 C 
BRANCH   7   8
ATOM      8  C   UNL     1      13.664  -5.810  20.828  1.00  0.00    -0.000 C 
BRANCH   8   9
ATOM      9  C   UNL     1      15.010  -5.123  21.106  1.00  0.00    -0.000 C 
BRANCH   9  10
ATOM     10  C   UNL     1      16.197  -5.884  20.498  1.00  0.00    -0.003 C 
ATOM     11  C   UNL     1      17.378  -4.949  20.249  1.00  0.00     0.004 C 
ENDBRANCH   9  10
ENDBRANCH   8   9
ENDBRANCH   7   8
ENDBRANCH   1   7
TORSDOF 7
ENDMDL
MODEL 8
REMARK VINA RESULT:    -3.439     16.256     17.554
REMARK INTER + INTRA:          -5.137
REMARK INTER:                  -4.773
REMARK INTRA:                  -0.364
REMARK UNBOUND:                -0.290
REMARK SMILES CCCCCCCCC(=O)[O-]
REMARK SMILES IDX 6 1 7 2 8 3 9 4 10 5 11 6 5 7 4 8 3 9 2 10 1 11
REMARK H PARENT
REMARK Flexibility Score: inf
ROOT
ATOM      1  C   UNL     1      13.878  -5.595  22.356  1.00  0.00     0.000 C 
ENDROOT
BRANCH   1   2
ATOM      2  C   UNL     1      14.559  -5.007  21.111  1.00  0.00     0.006 C 
BRANCH   2   3
ATOM      3  C   UNL     1      15.747  -5.871  20.678  1.00  0.00     0.053 C 
BRANCH   3   4
ATOM      4  C   UNL     1      16.923  -5.011  20.338  1.00  0.00     0.041 C 
ATOM      5  O   UNL     1      17.999  -5.535  19.949  1.00  0.00    -0.550 OA
ATOM      6  O   UNL     1      16.846  -3.633  20.498  1.00  0.00    -0.550 OA
ENDBRANCH   3   4
ENDBRANCH   2   3
ENDBRANCH   1   2
BRANCH   1   7
ATOM      7  C   UNL     1      12.876  -6.708  22.011  1.00  0.00     0.000 C 
BRANCH   7   8
ATOM      8  C   UNL     1      11.783  -6.874  23.083  1.00  0.00    -0.000 C 
BRANCH   8   9
ATOM      9  C   UNL     1      11.924  -5.862  24.231  1.00  0.00    -0.000 C 
BRANCH   9  10
ATOM     10  C   UNL     1      11.842  -6.525  25.614  1.00  0.00    -0.003 C 
ATOM     11  C   UNL     1      13.224  -6.637  26.252  1.00  0.00     0.004 C 
ENDBRANCH   9  10
ENDBRANCH   8   9
ENDBRANCH   7   8
ENDBRANCH   1   7
TORSDOF 7
ENDMDL
MODEL 9
REMARK VINA RESULT:    -3.329      2.134      2.759
REMARK INTER + INTRA:          -4.982
REMARK INTER:                  -4.478
REMARK INTRA:                  -0.504
REMARK UNBOUND:                -0.290
REMARK SMILES CCCCCCCCC(=O)[O-]
REMARK SMILES IDX 6 1 7 2 8 3 9 4 10 5 11 6 5 7 4 8 3 9 2 10 1 11
REMARK H PARENT
REMARK Flexibility Score: inf
ROOT
ATOM      1  C   UNL     1      25.428 -15.791  26.713  1.00  0.00     0.000 C 
ENDROOT
BRANCH   1   2
ATOM      2  C   UNL     1      24.485 -14.619  26.398  1.00  0.00     0.006 C 
BRANCH   2   3
ATOM      3  C   UNL     1      23.142 -14.791  27.114  1.00  0.00     0.053 C 
BRANCH   3   4
ATOM      4  C   UNL     1      22.611 -16.174  26.906  1.00  0.00     0.041 C 
ATOM      5  O   UNL     1      22.409 -16.930  27.892  1.00  0.00    -0.550 OA
ATOM      6  O   UNL     1      22.383 -16.645  25.619  1.00  0.00    -0.550 OA
ENDBRANCH   3   4
ENDBRANCH   2   3
ENDBRANCH   1   2
BRANCH   1   7
ATOM      7  C   UNL     1      26.322 -16.166  25.521  1.00  0.00     0.000 C 
BRANCH   7   8
ATOM      8  C   UNL     1      25.947 -17.526  24.905  1.00  0.00    -0.000 C 
BRANCH   8   9
ATOM      9  C   UNL     1      25.529 -18.559  25.964  1.00  0.00    -0.000 C 
BRANCH   9  10
ATOM     10  C   UNL     1      26.498 -19.746  26.044  1.00  0.00    -0.003 C 
ATOM     11  C   UNL     1      27.478 -19.735  24.874  1.00  0.00     0.004 C 
ENDBRANCH   9  10
ENDBRANCH   8   9
ENDBRANCH   7   8
ENDBRANCH   1   7
TORSDOF 7
ENDMDL
