MODEL 1
REMARK VINA RESULT:    -2.592      0.000      0.000
REMARK INTER + INTRA:          -5.484
REMARK INTER:                  -4.865
REMARK INTRA:                  -0.620
REMARK UNBOUND:                -0.620
REMARK SMILES O=C([O-])CCCCCCCCCCCCCCC(=O)[O-]
REMARK SMILES IDX 10 1 9 2 8 3 7 4 6 5 5 6 4 7 2 8 1 9 3 10 11 11 12 12 13 13
REMARK SMILES IDX 14 14 15 15 16 16 17 17 18 18 19 19 20 20
REMARK H PARENT
REMARK Flexibility Score: inf
ROOT
ATOM      1  C   UNL     1      27.478  65.371  18.749  1.00  0.00     0.000 C 
ENDROOT
BRANCH   1   2
ATOM      2  C   UNL     1      28.786  66.125  19.061  1.00  0.00     0.000 C 
BRANCH   2   3
ATOM      3  C   UNL     1      29.996  65.715  18.203  1.00  0.00     0.000 C 
BRANCH   3   4
ATOM      4  C   UNL     1      31.296  65.609  19.015  1.00  0.00     0.000 C 
BRANCH   4   5
ATOM      5  C   UNL     1      32.401  64.931  18.196  1.00  0.00     0.000 C 
BRANCH   5   6
ATOM      6  C   UNL     1      33.075  63.813  19.000  1.00  0.00     0.006 C 
BRANCH   6   7
ATOM      7  C   UNL     1      32.039  62.826  19.545  1.00  0.00     0.053 C 
BRANCH   7   8
ATOM      8  C   UNL     1      32.474  62.291  20.873  1.00  0.00     0.041 C 
ATOM      9  O   UNL     1      32.849  63.079  21.781  1.00  0.00    -0.550 OA
ATOM     10  O   UNL     1      32.414  60.927  21.126  1.00  0.00    -0.550 OA
ENDBRANCH   7   8
ENDBRANCH   6   7
ENDBRANCH   5   6
ENDBRANCH   4   5
ENDBRANCH   3   4
ENDBRANCH   2   3
ENDBRANCH   1   2
BRANCH   1  11
ATOM     11  C   UNL     1      27.340  64.876  17.298  1.00  0.00     0.000 C 
BRANCH  11  12
ATOM     12  C   UNL     1      26.508  65.822  16.420  1.00  0.00     0.000 C 
BRANCH  12  13
ATOM     13  C   UNL     1      25.192  65.157  15.990  1.00  0.00     0.000 C 
BRANCH  13  14
ATOM     14  C   UNL     1      23.964  66.035  16.278  1.00  0.00     0.000 C 
BRANCH  14  15
ATOM     15  C   UNL     1      22.647  65.240  16.243  1.00  0.00     0.000 C 
BRANCH  15  16
ATOM     16  C   UNL     1      21.435  66.119  15.899  1.00  0.00     0.006 C 
BRANCH  16  17
ATOM     17  C   UNL     1      20.103  65.373  16.051  1.00  0.00     0.053 C 
BRANCH  17  18
ATOM     18  C   UNL     1      19.145  65.794  14.981  1.00  0.00     0.041 C 
ATOM     19  O   UNL     1      17.961  66.101  15.276  1.00  0.00    -0.550 OA
ATOM     20  O   UNL     1      19.548  65.801  13.651  1.00  0.00    -0.550 OA
ENDBRANCH  17  18
ENDBRANCH  16  17
ENDBRANCH  15  16
ENDBRANCH  14  15
ENDBRANCH  13  14
ENDBRANCH  12  13
ENDBRANCH  11  12
ENDBRANCH   1  11
TORSDOF 15
ENDMDL
MODEL 2
REMARK VINA RESULT:    -2.416      5.586      8.300
REMARK INTER + INTRA:          -5.155
REMARK INTER:                  -4.278
REMARK INTRA:                  -0.877
REMARK UNBOUND:                -0.620
REMARK SMILES O=C([O-])CCCCCCCCCCCCCCC(=O)[O-]
REMARK SMILES IDX 10 1 9 2 8 3 7 4 6 5 5 6 4 7 2 8 1 9 3 10 11 11 12 12 13 13
REMARK SMILES IDX 14 14 15 15 16 16 17 17 18 18 19 19 20 20
REMARK H PARENT
REMARK Flexibility Score: inf
ROOT
ATOM      1  C   UNL     1      27.799  64.307  16.327  1.00  0.00     0.000 C 
ENDROOT
BRANCH   1   2
ATOM      2  C   UNL     1      28.792  64.527  15.168  1.00  0.00     0.000 C 
BRANCH   2   3
ATOM      3  C   UNL     1      30.269  64.272  15.516  1.00  0.00     0.000 C 
BRANCH   3   4
ATOM      4  C   UNL     1      30.851  63.051  14.790  1.00  0.00     0.000 C 
BRANCH   4   5
ATOM      5  C   UNL     1      32.336  63.259  14.469  1.00  0.00     0.000 C 
BRANCH   5   6
ATOM      6  C   UNL     1      33.124  63.635  15.730  1.00  0.00     0.006 C 
BRANCH   6   7
ATOM      7  C   UNL     1      33.047  62.523  16.780  1.00  0.00     0.053 C 
BRANCH   7   8
ATOM      8  C   UNL     1      32.760  63.097  18.130  1.00  0.00     0.041 C 
ATOM      9  O   UNL     1      32.815  62.367  19.154  1.00  0.00    -0.550 OA
ATOM     10  O   UNL     1      32.481  64.451  18.265  1.00  0.00    -0.550 OA
ENDBRANCH   7   8
ENDBRANCH   6   7
ENDBRANCH   5   6
ENDBRANCH   4   5
ENDBRANCH   3   4
ENDBRANCH   2   3
ENDBRANCH   1   2
BRANCH   1  11
ATOM     11  C   UNL     1      26.993  65.551  16.741  1.00  0.00     0.000 C 
BRANCH  11  12
ATOM     12  C   UNL     1      27.144  65.892  18.231  1.00  0.00     0.000 C 
BRANCH  12  13
ATOM     13  C   UNL     1      28.601  65.726  18.687  1.00  0.00     0.000 C 
BRANCH  13  14
ATOM     14  C   UNL     1      28.811  66.124  20.156  1.00  0.00     0.000 C 
BRANCH  14  15
ATOM     15  C   UNL     1      30.291  66.091  20.573  1.00  0.00     0.000 C 
BRANCH  15  16
ATOM     16  C   UNL     1      30.474  65.938  22.091  1.00  0.00     0.006 C 
BRANCH  16  17
ATOM     17  C   UNL     1      31.950  65.874  22.504  1.00  0.00     0.053 C 
BRANCH  17  18
ATOM     18  C   UNL     1      32.114  65.018  23.721  1.00  0.00     0.041 C 
ATOM     19  O   UNL     1      31.969  65.515  24.868  1.00  0.00    -0.550 OA
ATOM     20  O   UNL     1      32.475  63.683  23.588  1.00  0.00    -0.550 OA
ENDBRANCH  17  18
ENDBRANCH  16  17
ENDBRANCH  15  16
ENDBRANCH  14  15
ENDBRANCH  13  14
ENDBRANCH  12  13
ENDBRANCH  11  12
ENDBRANCH   1  11
TORSDOF 15
ENDMDL
MODEL 3
REMARK VINA RESULT:    -2.284      5.834      7.616
REMARK INTER + INTRA:          -4.906
REMARK INTER:                  -3.970
REMARK INTRA:                  -0.937
REMARK UNBOUND:                -0.620
REMARK SMILES O=C([O-])CCCCCCCCCCCCCCC(=O)[O-]
REMARK SMILES IDX 10 1 9 2 8 3 7 4 6 5 5 6 4 7 2 8 1 9 3 10 11 11 12 12 13 13
REMARK SMILES IDX 14 14 15 15 16 16 17 17 18 18 19 19 20 20
REMARK H PARENT
REMARK Flexibility Score: inf
ROOT
ATOM      1  C   UNL     1      27.479  65.274  18.401  1.00  0.00     0.000 C 
ENDROOT
BRANCH   1   2
ATOM      2  C   UNL     1      28.372  66.055  19.385  1.00  0.00     0.000 C 
BRANCH   2   3
ATOM      3  C   UNL     1      29.879  65.764  19.271  1.00  0.00     0.000 C 
BRANCH   3   4
ATOM      4  C   UNL     1      30.596  65.785  20.629  1.00  0.00     0.000 C 
BRANCH   4   5
ATOM      5  C   UNL     1      31.568  64.605  20.755  1.00  0.00     0.000 C 
BRANCH   5   6
ATOM      6  C   UNL     1      32.852  65.024  21.481  1.00  0.00     0.006 C 
BRANCH   6   7
ATOM      7  C   UNL     1      33.051  64.208  22.761  1.00  0.00     0.053 C 
BRANCH   7   8
ATOM      8  C   UNL     1      32.470  64.927  23.937  1.00  0.00     0.041 C 
ATOM      9  O   UNL     1      33.125  65.024  25.008  1.00  0.00    -0.550 OA
ATOM     10  O   UNL     1      31.226  65.537  23.833  1.00  0.00    -0.550 OA
ENDBRANCH   7   8
ENDBRANCH   6   7
ENDBRANCH   5   6
ENDBRANCH   4   5
ENDBRANCH   3   4
ENDBRANCH   2   3
ENDBRANCH   1   2
BRANCH   1  11
ATOM     11  C   UNL     1      27.788  65.508  16.912  1.00  0.00     0.000 C 
BRANCH  11  12
ATOM     12  C   UNL     1      27.248  64.391  16.007  1.00  0.00     0.000 C 
BRANCH  12  13
ATOM     13  C   UNL     1      28.370  63.792  15.146  1.00  0.00     0.000 C 
BRANCH  13  14
ATOM     14  C   UNL     1      29.754  64.361  15.496  1.00  0.00     0.000 C 
BRANCH  14  15
ATOM     15  C   UNL     1      30.862  63.839  14.565  1.00  0.00     0.000 C 
BRANCH  15  16
ATOM     16  C   UNL     1      31.763  62.797  15.246  1.00  0.00     0.006 C 
BRANCH  16  17
ATOM     17  C   UNL     1      33.116  63.379  15.676  1.00  0.00     0.053 C 
BRANCH  17  18
ATOM     18  C   UNL     1      33.104  63.702  17.137  1.00  0.00     0.041 C 
ATOM     19  O   UNL     1      33.098  62.776  17.990  1.00  0.00    -0.550 OA
ATOM     20  O   UNL     1      33.050  65.026  17.557  1.00  0.00    -0.550 OA
ENDBRANCH  17  18
ENDBRANCH  16  17
ENDBRANCH  15  16
ENDBRANCH  14  15
ENDBRANCH  13  14
ENDBRANCH  12  13
ENDBRANCH  11  12
ENDBRANCH   1  11
TORSDOF 15
ENDMDL
MODEL 4
REMARK VINA RESULT:    -2.198      1.788     10.542
REMARK INTER + INTRA:          -4.746
REMARK INTER:                  -4.040
REMARK INTRA:                  -0.705
REMARK UNBOUND:                -0.620
REMARK SMILES O=C([O-])CCCCCCCCCCCCCCC(=O)[O-]
REMARK SMILES IDX 10 1 9 2 8 3 7 4 6 5 5 6 4 7 2 8 1 9 3 10 11 11 12 12 13 13
REMARK SMILES IDX 14 14 15 15 16 16 17 17 18 18 19 19 20 20
REMARK H PARENT
REMARK Flexibility Score: inf
ROOT
ATOM      1  C   UNL     1      27.912  64.273  16.134  1.00  0.00     0.000 C 
ENDROOT
BRANCH   1   2
ATOM      2  C   UNL     1      27.171  65.043  17.246  1.00  0.00     0.000 C 
BRANCH   2   3
ATOM      3  C   UNL     1      26.192  66.122  16.751  1.00  0.00     0.000 C 
BRANCH   3   4
ATOM      4  C   UNL     1      24.984  65.536  16.005  1.00  0.00     0.000 C 
BRANCH   4   5
ATOM      5  C   UNL     1      23.669  66.074  16.581  1.00  0.00     0.000 C 
BRANCH   5   6
ATOM      6  C   UNL     1      22.483  65.713  15.679  1.00  0.00     0.006 C 
BRANCH   6   7
ATOM      7  C   UNL     1      21.300  65.198  16.504  1.00  0.00     0.053 C 
BRANCH   7   8
ATOM      8  C   UNL     1      20.019  65.379  15.753  1.00  0.00     0.041 C 
ATOM      9  O   UNL     1      18.925  65.438  16.372  1.00  0.00    -0.550 OA
ATOM     10  O   UNL     1      20.039  65.537  14.373  1.00  0.00    -0.550 OA
ENDBRANCH   7   8
ENDBRANCH   6   7
ENDBRANCH   5   6
ENDBRANCH   4   5
ENDBRANCH   3   4
ENDBRANCH   2   3
ENDBRANCH   1   2
BRANCH   1  11
ATOM     11  C   UNL     1      29.319  64.801  15.801  1.00  0.00     0.000 C 
BRANCH  11  12
ATOM     12  C   UNL     1      30.097  63.874  14.856  1.00  0.00     0.000 C 
BRANCH  12  13
ATOM     13  C   UNL     1      31.509  63.599  15.396  1.00  0.00     0.000 C 
BRANCH  13  14
ATOM     14  C   UNL     1      31.689  64.069  16.847  1.00  0.00     0.000 C 
BRANCH  14  15
ATOM     15  C   UNL     1      32.964  63.505  17.497  1.00  0.00     0.000 C 
BRANCH  15  16
ATOM     16  C   UNL     1      32.891  63.498  19.032  1.00  0.00     0.006 C 
BRANCH  16  17
ATOM     17  C   UNL     1      31.506  63.897  19.558  1.00  0.00     0.053 C 
BRANCH  17  18
ATOM     18  C   UNL     1      31.636  64.681  20.826  1.00  0.00     0.041 C 
ATOM     19  O   UNL     1      32.736  64.721  21.436  1.00  0.00    -0.550 OA
ATOM     20  O   UNL     1      30.528  65.329  21.359  1.00  0.00    -0.550 OA
ENDBRANCH  17  18
ENDBRANCH  16  17
ENDBRANCH  15  16
ENDBRANCH  14  15
ENDBRANCH  13  14
ENDBRANCH  12  13
ENDBRANCH  11  12
ENDBRANCH   1  11
TORSDOF 15
ENDMDL
MODEL 5
REMARK VINA RESULT:    -2.136      5.408      9.258
REMARK INTER + INTRA:          -4.629
REMARK INTER:                  -3.303
REMARK INTRA:                  -1.326
REMARK UNBOUND:                -0.620
REMARK SMILES O=C([O-])CCCCCCCCCCCCCCC(=O)[O-]
REMARK SMILES IDX 10 1 9 2 8 3 7 4 6 5 5 6 4 7 2 8 1 9 3 10 11 11 12 12 13 13
REMARK SMILES IDX 14 14 15 15 16 16 17 17 18 18 19 19 20 20
REMARK H PARENT
REMARK Flexibility Score: inf
ROOT
ATOM      1  C   UNL     1      32.105  61.532  19.758  1.00  0.00     0.000 C 
ENDROOT
BRANCH   1   2
ATOM      2  C   UNL     1      32.625  61.944  18.367  1.00  0.00     0.000 C 
BRANCH   2   3
ATOM      3  C   UNL     1      33.119  63.398  18.259  1.00  0.00     0.000 C 
BRANCH   3   4
ATOM      4  C   UNL     1      32.713  64.070  16.939  1.00  0.00     0.000 C 
BRANCH   4   5
ATOM      5  C   UNL     1      31.882  63.118  16.071  1.00  0.00     0.000 C 
BRANCH   5   6
ATOM      6  C   UNL     1      31.227  63.866  14.904  1.00  0.00     0.006 C 
BRANCH   6   7
ATOM      7  C   UNL     1      29.705  63.698  14.927  1.00  0.00     0.053 C 
BRANCH   7   8
ATOM      8  C   UNL     1      29.081  64.703  15.841  1.00  0.00     0.041 C 
ATOM      9  O   UNL     1      29.737  65.709  16.220  1.00  0.00    -0.550 OA
ATOM     10  O   UNL     1      27.757  64.557  16.234  1.00  0.00    -0.550 OA
ENDBRANCH   7   8
ENDBRANCH   6   7
ENDBRANCH   5   6
ENDBRANCH   4   5
ENDBRANCH   3   4
ENDBRANCH   2   3
ENDBRANCH   1   2
BRANCH   1  11
ATOM     11  C   UNL     1      32.850  62.163  20.948  1.00  0.00     0.000 C 
BRANCH  11  12
ATOM     12  C   UNL     1      32.739  61.330  22.233  1.00  0.00     0.000 C 
BRANCH  12  13
ATOM     13  C   UNL     1      32.968  62.204  23.475  1.00  0.00     0.000 C 
BRANCH  13  14
ATOM     14  C   UNL     1      33.016  63.703  23.144  1.00  0.00     0.000 C 
BRANCH  14  15
ATOM     15  C   UNL     1      31.924  64.505  23.873  1.00  0.00     0.000 C 
BRANCH  15  16
ATOM     16  C   UNL     1      31.578  65.819  23.155  1.00  0.00     0.006 C 
BRANCH  16  17
ATOM     17  C   UNL     1      30.518  65.632  22.061  1.00  0.00     0.053 C 
BRANCH  17  18
ATOM     18  C   UNL     1      31.166  65.571  20.714  1.00  0.00     0.041 C 
ATOM     19  O   UNL     1      32.327  66.028  20.548  1.00  0.00    -0.550 OA
ATOM     20  O   UNL     1      30.468  65.053  19.630  1.00  0.00    -0.550 OA
ENDBRANCH  17  18
ENDBRANCH  16  17
ENDBRANCH  15  16
ENDBRANCH  14  15
ENDBRANCH  13  14
ENDBRANCH  12  13
ENDBRANCH  11  12
ENDBRANCH   1  11
TORSDOF 15
ENDMDL
MODEL 6
REMARK VINA RESULT:    -2.087      2.945     12.340
REMARK INTER + INTRA:          -4.537
REMARK INTER:                  -4.296
REMARK INTRA:                  -0.241
REMARK UNBOUND:                -0.620
REMARK SMILES O=C([O-])CCCCCCCCCCCCCCC(=O)[O-]
REMARK SMILES IDX 10 1 9 2 8 3 7 4 6 5 5 6 4 7 2 8 1 9 3 10 11 11 12 12 13 13
REMARK SMILES IDX 14 14 15 15 16 16 17 17 18 18 19 19 20 20
REMARK H PARENT
REMARK Flexibility Score: inf
ROOT
ATOM      1  C   UNL     1      20.868  65.030  16.028  1.00  0.00     0.000 C 
ENDROOT
BRANCH   1   2
ATOM      2  C   UNL     1      20.306  64.730  14.624  1.00  0.00     0.000 C 
BRANCH   2   3
ATOM      3  C   UNL     1      19.740  65.949  13.873  1.00  0.00     0.000 C 
BRANCH   3   4
ATOM      4  C   UNL     1      18.228  66.125  14.075  1.00  0.00     0.000 C 
BRANCH   4   5
ATOM      5  C   UNL     1      17.830  65.835  15.528  1.00  0.00     0.000 C 
BRANCH   5   6
ATOM      6  C   UNL     1      16.308  65.888  15.703  1.00  0.00     0.006 C 
BRANCH   6   7
ATOM      7  C   UNL     1      15.855  64.988  16.856  1.00  0.00     0.053 C 
BRANCH   7   8
ATOM      8  C   UNL     1      14.380  64.750  16.787  1.00  0.00     0.041 C 
ATOM      9  O   UNL     1      13.870  64.228  15.761  1.00  0.00    -0.550 OA
ATOM     10  O   UNL     1      13.575  65.056  17.877  1.00  0.00    -0.550 OA
ENDBRANCH   7   8
ENDBRANCH   6   7
ENDBRANCH   5   6
ENDBRANCH   4   5
ENDBRANCH   3   4
ENDBRANCH   2   3
ENDBRANCH   1   2
BRANCH   1  11
ATOM     11  C   UNL     1      22.171  65.848  16.049  1.00  0.00     0.000 C 
BRANCH  11  12
ATOM     12  C   UNL     1      23.429  64.968  16.049  1.00  0.00     0.000 C 
BRANCH  12  13
ATOM     13  C   UNL     1      24.702  65.828  16.080  1.00  0.00     0.000 C 
BRANCH  13  14
ATOM     14  C   UNL     1      25.985  64.991  15.962  1.00  0.00     0.000 C 
BRANCH  14  15
ATOM     15  C   UNL     1      27.024  65.347  17.039  1.00  0.00     0.000 C 
BRANCH  15  16
ATOM     16  C   UNL     1      28.343  65.860  16.441  1.00  0.00     0.006 C 
BRANCH  16  17
ATOM     17  C   UNL     1      29.448  66.012  17.494  1.00  0.00     0.053 C 
BRANCH  17  18
ATOM     18  C   UNL     1      30.548  65.029  17.240  1.00  0.00     0.041 C 
ATOM     19  O   UNL     1      31.474  64.883  18.080  1.00  0.00    -0.550 OA
ATOM     20  O   UNL     1      30.575  64.308  16.052  1.00  0.00    -0.550 OA
ENDBRANCH  17  18
ENDBRANCH  16  17
ENDBRANCH  15  16
ENDBRANCH  14  15
ENDBRANCH  13  14
ENDBRANCH  12  13
ENDBRANCH  11  12
ENDBRANCH   1  11
TORSDOF 15
ENDMDL
MODEL 7
REMARK VINA RESULT:    -2.013      1.375      2.296
REMARK INTER + INTRA:          -4.397
REMARK INTER:                  -3.837
REMARK INTRA:                  -0.560
REMARK UNBOUND:                -0.620
REMARK SMILES O=C([O-])CCCCCCCCCCCCCCC(=O)[O-]
REMARK SMILES IDX 10 1 9 2 8 3 7 4 6 5 5 6 4 7 2 8 1 9 3 10 11 11 12 12 13 13
REMARK SMILES IDX 14 14 15 15 16 16 17 17 18 18 19 19 20 20
REMARK H PARENT
REMARK Flexibility Score: inf
ROOT
ATOM      1  C   UNL     1      26.018  65.411  17.245  1.00  0.00     0.000 C 
ENDROOT
BRANCH   1   2
ATOM      2  C   UNL     1      27.390  66.112  17.317  1.00  0.00     0.000 C 
BRANCH   2   3
ATOM      3  C   UNL     1      28.398  65.686  16.236  1.00  0.00     0.000 C 
BRANCH   3   4
ATOM      4  C   UNL     1      29.858  65.887  16.667  1.00  0.00     0.000 C 
BRANCH   4   5
ATOM      5  C   UNL     1      30.325  64.742  17.574  1.00  0.00     0.000 C 
BRANCH   5   6
ATOM      6  C   UNL     1      31.695  65.050  18.190  1.00  0.00     0.006 C 
BRANCH   6   7
ATOM      7  C   UNL     1      32.552  63.785  18.287  1.00  0.00     0.053 C 
BRANCH   7   8
ATOM      8  C   UNL     1      32.350  63.116  19.609  1.00  0.00     0.041 C 
ATOM      9  O   UNL     1      32.042  63.796  20.623  1.00  0.00    -0.550 OA
ATOM     10  O   UNL     1      32.448  61.734  19.710  1.00  0.00    -0.550 OA
ENDBRANCH   7   8
ENDBRANCH   6   7
ENDBRANCH   5   6
ENDBRANCH   4   5
ENDBRANCH   3   4
ENDBRANCH   2   3
ENDBRANCH   1   2
BRANCH   1  11
ATOM     11  C   UNL     1      25.358  65.409  15.855  1.00  0.00     0.000 C 
BRANCH  11  12
ATOM     12  C   UNL     1      23.977  66.080  15.847  1.00  0.00     0.000 C 
BRANCH  12  13
ATOM     13  C   UNL     1      22.868  65.057  16.135  1.00  0.00     0.000 C 
BRANCH  13  14
ATOM     14  C   UNL     1      21.504  65.718  16.385  1.00  0.00     0.000 C 
BRANCH  14  15
ATOM     15  C   UNL     1      20.771  66.076  15.081  1.00  0.00     0.000 C 
BRANCH  15  16
ATOM     16  C   UNL     1      19.315  65.586  15.068  1.00  0.00     0.006 C 
BRANCH  16  17
ATOM     17  C   UNL     1      18.749  65.382  16.479  1.00  0.00     0.053 C 
BRANCH  17  18
ATOM     18  C   UNL     1      17.257  65.497  16.464  1.00  0.00     0.041 C 
ATOM     19  O   UNL     1      16.573  64.996  17.394  1.00  0.00    -0.550 OA
ATOM     20  O   UNL     1      16.618  66.117  15.396  1.00  0.00    -0.550 OA
ENDBRANCH  17  18
ENDBRANCH  16  17
ENDBRANCH  15  16
ENDBRANCH  14  15
ENDBRANCH  13  14
ENDBRANCH  12  13
ENDBRANCH  11  12
ENDBRANCH   1  11
TORSDOF 15
ENDMDL
MODEL 8
REMARK VINA RESULT:    -1.918      0.970     11.430
REMARK INTER + INTRA:          -4.221
REMARK INTER:                  -3.702
REMARK INTRA:                  -0.519
REMARK UNBOUND:                -0.620
REMARK SMILES O=C([O-])CCCCCCCCCCCCCCC(=O)[O-]
REMARK SMILES IDX 10 1 9 2 8 3 7 4 6 5 5 6 4 7 2 8 1 9 3 10 11 11 12 12 13 13
REMARK SMILES IDX 14 14 15 15 16 16 17 17 18 18 19 19 20 20
REMARK H PARENT
REMARK Flexibility Score: inf
ROOT
ATOM      1  C   UNL     1      27.051  65.481  17.819  1.00  0.00     0.000 C 
ENDROOT
BRANCH   1   2
ATOM      2  C   UNL     1      26.096  65.962  16.708  1.00  0.00     0.000 C 
BRANCH   2   3
ATOM      3  C   UNL     1      24.608  65.998  17.098  1.00  0.00     0.000 C 
BRANCH   3   4
ATOM      4  C   UNL     1      23.685  65.492  15.979  1.00  0.00     0.000 C 
BRANCH   4   5
ATOM      5  C   UNL     1      22.213  65.574  16.401  1.00  0.00     0.000 C 
BRANCH   5   6
ATOM      6  C   UNL     1      21.334  66.062  15.244  1.00  0.00     0.006 C 
BRANCH   6   7
ATOM      7  C   UNL     1      19.858  66.096  15.649  1.00  0.00     0.053 C 
BRANCH   7   8
ATOM      8  C   UNL     1      18.981  66.019  14.441  1.00  0.00     0.041 C 
ATOM      9  O   UNL     1      19.478  66.125  13.289  1.00  0.00    -0.550 OA
ATOM     10  O   UNL     1      17.620  65.778  14.584  1.00  0.00    -0.550 OA
ENDBRANCH   7   8
ENDBRANCH   6   7
ENDBRANCH   5   6
ENDBRANCH   4   5
ENDBRANCH   3   4
ENDBRANCH   2   3
ENDBRANCH   1   2
BRANCH   1  11
ATOM     11  C   UNL     1      28.475  66.061  17.750  1.00  0.00     0.000 C 
BRANCH  11  12
ATOM     12  C   UNL     1      29.357  65.359  16.708  1.00  0.00     0.000 C 
BRANCH  12  13
ATOM     13  C   UNL     1      30.780  65.144  17.246  1.00  0.00     0.000 C 
BRANCH  13  14
ATOM     14  C   UNL     1      30.801  64.811  18.746  1.00  0.00     0.000 C 
BRANCH  14  15
ATOM     15  C   UNL     1      32.141  65.166  19.412  1.00  0.00     0.000 C 
BRANCH  15  16
ATOM     16  C   UNL     1      32.568  64.134  20.468  1.00  0.00     0.006 C 
BRANCH  16  17
ATOM     17  C   UNL     1      32.531  62.696  19.934  1.00  0.00     0.053 C 
BRANCH  17  18
ATOM     18  C   UNL     1      32.487  61.720  21.068  1.00  0.00     0.041 C 
ATOM     19  O   UNL     1      32.877  62.063  22.214  1.00  0.00    -0.550 OA
ATOM     20  O   UNL     1      32.060  60.416  20.847  1.00  0.00    -0.550 OA
ENDBRANCH  17  18
ENDBRANCH  16  17
ENDBRANCH  15  16
ENDBRANCH  14  15
ENDBRANCH  13  14
ENDBRANCH  12  13
ENDBRANCH  11  12
ENDBRANCH   1  11
TORSDOF 15
ENDMDL
