MODEL 1
REMARK VINA RESULT:    -0.096      0.000      0.000
REMARK INTER + INTRA:           4.962
REMARK INTER:                  -0.167
REMARK INTRA:                   5.128
REMARK UNBOUND:                 5.128
REMARK SMILES OC[C@@H]1O[C@@H](O[C@H]2[C@@H](O)[C@H](O)[C@@H](O)O[C@H]2CO)[C@@H](O)[C@H](O)[C@@H]1O[C@@H]1O[C@H](CO)[C@H](O)[C@@H](O)[C@H]1O
REMARK SMILES IDX 22 1 3 2 4 3 5 4 18 5 20 6 23 7 24 8 26 9 29 10 25 11 31 12
REMARK SMILES IDX 33 13 27 14 28 15 30 17 32 19 34 21 2 23 1 24 21 26 19 28
REMARK SMILES IDX 6 30 7 31 15 32 8 33 14 34 10 35 12 36 16 37 17 38 9 40
REMARK SMILES IDX 11 42 13 44
REMARK H PARENT 28 16 30 18 32 20 34 22 1 25 21 27 19 29 17 39 9 41 11 43
REMARK H PARENT 13 45
REMARK Flexibility Score: inf
ROOT
ATOM      1  C   UNL     1      10.165  -5.329  -1.620  1.00  0.00     0.184 C 
ATOM      2  C   UNL     1      10.796  -4.003  -2.113  1.00  0.00     0.178 C 
ATOM      3  O   UNL     1      12.127  -4.120  -2.665  1.00  0.00    -0.341 OA
ATOM      4  C   UNL     1      12.842  -5.289  -2.235  1.00  0.00     0.282 C 
ATOM      5  C   UNL     1      12.577  -5.658  -0.760  1.00  0.00     0.202 C 
ATOM      6  C   UNL     1      11.050  -5.867  -0.476  1.00  0.00     0.180 C 
ENDROOT
BRANCH   1   7
ATOM      7  O   UNL     1      10.135  -6.290  -2.659  1.00  0.00    -0.341 OA
BRANCH   7   8
ATOM      8  C   UNL     1       8.834  -6.621  -3.123  1.00  0.00     0.282 C 
ATOM      9  C   UNL     1       6.617  -5.575  -2.912  1.00  0.00     0.178 C 
ATOM     10  C   UNL     1       6.067  -7.014  -2.841  1.00  0.00     0.177 C 
ATOM     11  O   UNL     1       8.031  -5.437  -3.122  1.00  0.00    -0.341 OA
ATOM     12  C   UNL     1       6.886  -7.803  -1.819  1.00  0.00     0.179 C 
ATOM     13  C   UNL     1       8.372  -7.804  -2.212  1.00  0.00     0.202 C 
BRANCH   9  14
ATOM     14  C   UNL     1       6.189  -4.663  -1.734  1.00  0.00     0.191 C 
BRANCH  14  15
ATOM     15  O   UNL     1       6.013  -3.337  -2.172  1.00  0.00    -0.394 OA
ATOM     16  H   UNL     1       6.481  -2.749  -1.516  1.00  0.00     0.210 HD
ENDBRANCH  14  15
ENDBRANCH   9  14
BRANCH  10  17
ATOM     17  O   UNL     1       4.712  -6.998  -2.463  1.00  0.00    -0.387 OA
ATOM     18  H   UNL     1       4.288  -6.266  -2.983  1.00  0.00     0.211 HD
ENDBRANCH  10  17
BRANCH  12  19
ATOM     19  O   UNL     1       6.372  -9.103  -1.628  1.00  0.00    -0.387 OA
ATOM     20  H   UNL     1       5.438  -9.010  -1.305  1.00  0.00     0.211 HD
ENDBRANCH  12  19
BRANCH  13  21
ATOM     21  O   UNL     1       8.753  -9.024  -2.796  1.00  0.00    -0.385 OA
ATOM     22  H   UNL     1       8.280  -9.776  -2.351  1.00  0.00     0.211 HD
ENDBRANCH  13  21
ENDBRANCH   7   8
ENDBRANCH   1   7
BRANCH   2  23
ATOM     23  C   UNL     1       9.879  -3.273  -3.110  1.00  0.00     0.191 C 
BRANCH  23  24
ATOM     24  O   UNL     1       8.661  -2.810  -2.563  1.00  0.00    -0.394 OA
ATOM     25  H   UNL     1       8.485  -3.274  -1.701  1.00  0.00     0.210 HD
ENDBRANCH  23  24
ENDBRANCH   2  23
BRANCH   6  26
ATOM     26  O   UNL     1      10.737  -7.223  -0.246  1.00  0.00    -0.387 OA
ATOM     27  H   UNL     1       9.748  -7.314  -0.399  1.00  0.00     0.211 HD
ENDBRANCH   6  26
BRANCH   5  28
ATOM     28  O   UNL     1      13.075  -4.630   0.065  1.00  0.00    -0.385 OA
ATOM     29  H   UNL     1      12.650  -4.757   0.956  1.00  0.00     0.211 HD
ENDBRANCH   5  28
BRANCH   4  30
ATOM     30  O   UNL     1      14.240  -5.069  -2.411  1.00  0.00    -0.341 OA
BRANCH  30  31
ATOM     31  C   UNL     1      14.940  -6.280  -2.652  1.00  0.00     0.184 C 
ATOM     32  C   UNL     1      13.960  -7.401  -3.125  1.00  0.00     0.178 C 
ATOM     33  C   UNL     1      15.760  -6.656  -1.394  1.00  0.00     0.180 C 
ATOM     34  O   UNL     1      14.505  -8.719  -3.090  1.00  0.00    -0.342 OA
ATOM     35  C   UNL     1      16.249  -8.134  -1.465  1.00  0.00     0.201 C 
ATOM     36  C   UNL     1      15.092  -9.075  -1.844  1.00  0.00     0.279 C 
BRANCH  32  37
ATOM     37  C   UNL     1      12.526  -7.324  -2.549  1.00  0.00     0.191 C 
BRANCH  37  38
ATOM     38  O   UNL     1      11.760  -8.464  -2.839  1.00  0.00    -0.394 OA
ATOM     39  H   UNL     1      11.562  -8.882  -1.965  1.00  0.00     0.210 HD
ENDBRANCH  37  38
ENDBRANCH  32  37
BRANCH  33  40
ATOM     40  O   UNL     1      15.002  -6.485  -0.224  1.00  0.00    -0.387 OA
ATOM     41  H   UNL     1      14.111  -6.130  -0.503  1.00  0.00     0.211 HD
ENDBRANCH  33  40
BRANCH  35  42
ATOM     42  O   UNL     1      17.334  -8.331  -2.358  1.00  0.00    -0.385 OA
ATOM     43  H   UNL     1      18.083  -7.730  -2.095  1.00  0.00     0.211 HD
ENDBRANCH  35  42
BRANCH  36  44
ATOM     44  O   UNL     1      14.109  -9.124  -0.828  1.00  0.00    -0.366 OA
ATOM     45  H   UNL     1      14.380  -8.505  -0.099  1.00  0.00     0.213 HD
ENDBRANCH  36  44
ENDBRANCH  30  31
ENDBRANCH   4  30
TORSDOF 18
ENDMDL
MODEL 2
REMARK VINA RESULT:     1.131      1.617      3.796
REMARK INTER + INTRA:           7.086
REMARK INTER:                   1.332
REMARK INTRA:                   5.755
REMARK UNBOUND:                 5.128
REMARK SMILES OC[C@@H]1O[C@@H](O[C@H]2[C@@H](O)[C@H](O)[C@@H](O)O[C@H]2CO)[C@@H](O)[C@H](O)[C@@H]1O[C@@H]1O[C@H](CO)[C@H](O)[C@@H](O)[C@H]1O
REMARK SMILES IDX 22 1 3 2 4 3 5 4 18 5 20 6 23 7 24 8 26 9 29 10 25 11 31 12
REMARK SMILES IDX 33 13 27 14 28 15 30 17 32 19 34 21 2 23 1 24 21 26 19 28
REMARK SMILES IDX 6 30 7 31 15 32 8 33 14 34 10 35 12 36 16 37 17 38 9 40
REMARK SMILES IDX 11 42 13 44
REMARK H PARENT 28 16 30 18 32 20 34 22 1 25 21 27 19 29 17 39 9 41 11 43
REMARK H PARENT 13 45
REMARK Flexibility Score: inf
ROOT
ATOM      1  C   UNL     1      10.373  -5.608  -2.249  1.00  0.00     0.184 C 
ATOM      2  C   UNL     1      10.237  -7.149  -2.182  1.00  0.00     0.178 C 
ATOM      3  O   UNL     1      11.083  -7.803  -1.209  1.00  0.00    -0.341 OA
ATOM      4  C   UNL     1      12.236  -7.038  -0.823  1.00  0.00     0.282 C 
ATOM      5  C   UNL     1      12.862  -6.247  -1.991  1.00  0.00     0.202 C 
ATOM      6  C   UNL     1      11.824  -5.289  -2.670  1.00  0.00     0.180 C 
ENDROOT
BRANCH   1   7
ATOM      7  O   UNL     1      10.131  -5.024  -0.983  1.00  0.00    -0.341 OA
BRANCH   7   8
ATOM      8  C   UNL     1       8.847  -4.435  -0.838  1.00  0.00     0.282 C 
ATOM      9  C   UNL     1       6.579  -5.057  -1.559  1.00  0.00     0.178 C 
ATOM     10  C   UNL     1       6.348  -3.545  -1.762  1.00  0.00     0.177 C 
ATOM     11  O   UNL     1       7.853  -5.446  -1.023  1.00  0.00    -0.341 OA
ATOM     12  C   UNL     1       7.517  -2.973  -2.566  1.00  0.00     0.179 C 
ATOM     13  C   UNL     1       8.844  -3.232  -1.836  1.00  0.00     0.202 C 
BRANCH   9  14
ATOM     14  C   UNL     1       6.266  -5.928  -2.802  1.00  0.00     0.191 C 
BRANCH  14  15
ATOM     15  O   UNL     1       4.875  -6.055  -2.981  1.00  0.00    -0.394 OA
ATOM     16  H   UNL     1       4.631  -5.494  -3.769  1.00  0.00     0.210 HD
ENDBRANCH  14  15
ENDBRANCH   9  14
BRANCH  10  17
ATOM     17  O   UNL     1       5.140  -3.327  -2.447  1.00  0.00    -0.387 OA
ATOM     18  H   UNL     1       5.213  -2.426  -2.859  1.00  0.00     0.211 HD
ENDBRANCH  10  17
BRANCH  12  19
ATOM     19  O   UNL     1       7.320  -1.611  -2.876  1.00  0.00    -0.387 OA
ATOM     20  H   UNL     1       6.360  -1.491  -3.099  1.00  0.00     0.211 HD
ENDBRANCH  12  19
BRANCH  13  21
ATOM     21  O   UNL     1       9.309  -2.077  -1.182  1.00  0.00    -0.385 OA
ATOM     22  H   UNL     1       8.567  -1.648  -0.681  1.00  0.00     0.211 HD
ENDBRANCH  13  21
ENDBRANCH   7   8
ENDBRANCH   1   7
BRANCH   2  23
ATOM     23  C   UNL     1       8.774  -7.582  -1.977  1.00  0.00     0.191 C 
BRANCH  23  24
ATOM     24  O   UNL     1       8.609  -8.907  -1.516  1.00  0.00    -0.394 OA
ATOM     25  H   UNL     1       8.335  -8.895  -0.560  1.00  0.00     0.210 HD
ENDBRANCH  23  24
ENDBRANCH   2  23
BRANCH   6  26
ATOM     26  O   UNL     1      12.098  -3.933  -2.394  1.00  0.00    -0.387 OA
ATOM     27  H   UNL     1      12.965  -3.917  -1.888  1.00  0.00     0.211 HD
ENDBRANCH   6  26
BRANCH   5  28
ATOM     28  O   UNL     1      13.359  -7.157  -2.945  1.00  0.00    -0.385 OA
ATOM     29  H   UNL     1      13.397  -8.042  -2.493  1.00  0.00     0.211 HD
ENDBRANCH   5  28
BRANCH   4  30
ATOM     30  O   UNL     1      13.219  -7.920  -0.285  1.00  0.00    -0.341 OA
BRANCH  30  31
ATOM     31  C   UNL     1      14.402  -7.935  -1.069  1.00  0.00     0.184 C 
ATOM     32  C   UNL     1      15.439  -8.947  -0.487  1.00  0.00     0.178 C 
ATOM     33  C   UNL     1      14.945  -6.492  -1.206  1.00  0.00     0.180 C 
ATOM     34  O   UNL     1      16.760  -8.811  -1.008  1.00  0.00    -0.342 OA
ATOM     35  C   UNL     1      16.410  -6.493  -1.736  1.00  0.00     0.201 C 
ATOM     36  C   UNL     1      17.278  -7.488  -0.945  1.00  0.00     0.279 C 
BRANCH  32  37
ATOM     37  C   UNL     1      15.411  -9.124   1.050  1.00  0.00     0.191 C 
BRANCH  37  38
ATOM     38  O   UNL     1      16.678  -8.984   1.638  1.00  0.00    -0.394 OA
ATOM     39  H   UNL     1      16.680  -8.090   2.059  1.00  0.00     0.210 HD
ENDBRANCH  37  38
ENDBRANCH  32  37
BRANCH  33  40
ATOM     40  O   UNL     1      14.909  -5.817   0.026  1.00  0.00    -0.387 OA
ATOM     41  H   UNL     1      13.950  -5.612   0.217  1.00  0.00     0.211 HD
ENDBRANCH  33  40
BRANCH  35  42
ATOM     42  O   UNL     1      16.512  -6.772  -3.124  1.00  0.00    -0.385 OA
ATOM     43  H   UNL     1      17.008  -6.033  -3.568  1.00  0.00     0.211 HD
ENDBRANCH  35  42
BRANCH  36  44
ATOM     44  O   UNL     1      17.437  -7.081   0.400  1.00  0.00    -0.366 OA
ATOM     45  H   UNL     1      16.608  -6.614   0.687  1.00  0.00     0.213 HD
ENDBRANCH  36  44
ENDBRANCH  30  31
ENDBRANCH   4  30
TORSDOF 18
ENDMDL
MODEL 3
REMARK VINA RESULT:     1.981      1.775      7.772
REMARK INTER + INTRA:           8.557
REMARK INTER:                   2.853
REMARK INTRA:                   5.704
REMARK UNBOUND:                 5.128
REMARK SMILES OC[C@@H]1O[C@@H](O[C@H]2[C@@H](O)[C@H](O)[C@@H](O)O[C@H]2CO)[C@@H](O)[C@H](O)[C@@H]1O[C@@H]1O[C@H](CO)[C@H](O)[C@@H](O)[C@H]1O
REMARK SMILES IDX 22 1 3 2 4 3 5 4 18 5 20 6 23 7 24 8 26 9 29 10 25 11 31 12
REMARK SMILES IDX 33 13 27 14 28 15 30 17 32 19 34 21 2 23 1 24 21 26 19 28
REMARK SMILES IDX 6 30 7 31 15 32 8 33 14 34 10 35 12 36 16 37 17 38 9 40
REMARK SMILES IDX 11 42 13 44
REMARK H PARENT 28 16 30 18 32 20 34 22 1 25 21 27 19 29 17 39 9 41 11 43
REMARK H PARENT 13 45
REMARK Flexibility Score: inf
ROOT
ATOM      1  C   UNL     1      12.077  -6.946  -0.658  1.00  0.00     0.184 C 
ATOM      2  C   UNL     1      10.731  -7.304  -1.333  1.00  0.00     0.178 C 
ATOM      3  O   UNL     1      10.198  -6.297  -2.224  1.00  0.00    -0.341 OA
ATOM      4  C   UNL     1      10.696  -4.972  -1.981  1.00  0.00     0.282 C 
ATOM      5  C   UNL     1      10.889  -4.660  -0.482  1.00  0.00     0.202 C 
ATOM      6  C   UNL     1      11.841  -5.693   0.212  1.00  0.00     0.180 C 
ENDROOT
BRANCH   1   7
ATOM      7  O   UNL     1      13.063  -6.642  -1.628  1.00  0.00    -0.341 OA
BRANCH   7   8
ATOM      8  C   UNL     1      14.147  -7.558  -1.678  1.00  0.00     0.282 C 
ATOM      9  C   UNL     1      15.261  -8.994  -0.020  1.00  0.00     0.178 C 
ATOM     10  C   UNL     1      16.563  -8.676  -0.783  1.00  0.00     0.177 C 
ATOM     11  O   UNL     1      14.048  -8.448  -0.562  1.00  0.00    -0.341 OA
ATOM     12  C   UNL     1      16.651  -7.165  -0.996  1.00  0.00     0.179 C 
ATOM     13  C   UNL     1      15.424  -6.663  -1.774  1.00  0.00     0.202 C 
BRANCH   9  14
ATOM     14  C   UNL     1      15.315  -8.694   1.500  1.00  0.00     0.191 C 
BRANCH  14  15
ATOM     15  O   UNL     1      16.498  -8.005   1.827  1.00  0.00    -0.394 OA
ATOM     16  H   UNL     1      16.971  -7.815   0.969  1.00  0.00     0.210 HD
ENDBRANCH  14  15
ENDBRANCH   9  14
BRANCH  10  17
ATOM     17  O   UNL     1      17.677  -9.125  -0.050  1.00  0.00    -0.387 OA
ATOM     18  H   UNL     1      18.445  -8.571  -0.347  1.00  0.00     0.211 HD
ENDBRANCH  10  17
BRANCH  12  19
ATOM     19  O   UNL     1      17.870  -6.792  -1.601  1.00  0.00    -0.387 OA
ATOM     20  H   UNL     1      18.604  -7.199  -1.069  1.00  0.00     0.211 HD
ENDBRANCH  12  19
BRANCH  13  21
ATOM     21  O   UNL     1      15.730  -6.422  -3.125  1.00  0.00    -0.385 OA
ATOM     22  H   UNL     1      14.894  -6.301  -3.646  1.00  0.00     0.211 HD
ENDBRANCH  13  21
ENDBRANCH   7   8
ENDBRANCH   1   7
BRANCH   2  23
ATOM     23  C   UNL     1      10.800  -8.660  -2.058  1.00  0.00     0.191 C 
BRANCH  23  24
ATOM     24  O   UNL     1      12.004  -8.894  -2.759  1.00  0.00    -0.394 OA
ATOM     25  H   UNL     1      11.810  -8.990  -3.730  1.00  0.00     0.210 HD
ENDBRANCH  23  24
ENDBRANCH   2  23
BRANCH   6  26
ATOM     26  O   UNL     1      13.086  -5.121   0.548  1.00  0.00    -0.387 OA
ATOM     27  H   UNL     1      13.785  -5.669   0.079  1.00  0.00     0.211 HD
ENDBRANCH   6  26
BRANCH   5  28
ATOM     28  O   UNL     1       9.632  -4.674   0.154  1.00  0.00    -0.385 OA
ATOM     29  H   UNL     1       8.952  -4.705  -0.573  1.00  0.00     0.211 HD
ENDBRANCH   5  28
BRANCH   4  30
ATOM     30  O   UNL     1       9.787  -4.026  -2.536  1.00  0.00    -0.341 OA
BRANCH  30  31
ATOM     31  C   UNL     1       8.550  -4.625  -2.890  1.00  0.00     0.184 C 
ATOM     32  C   UNL     1       7.442  -3.540  -3.077  1.00  0.00     0.178 C 
ATOM     33  C   UNL     1       8.191  -5.713  -1.848  1.00  0.00     0.180 C 
ATOM     34  O   UNL     1       6.111  -4.052  -3.123  1.00  0.00    -0.342 OA
ATOM     35  C   UNL     1       6.698  -6.142  -1.978  1.00  0.00     0.201 C 
ATOM     36  C   UNL     1       5.778  -4.910  -2.039  1.00  0.00     0.279 C 
BRANCH  32  37
ATOM     37  C   UNL     1       7.577  -2.285  -2.182  1.00  0.00     0.191 C 
BRANCH  37  38
ATOM     38  O   UNL     1       8.104  -2.574  -0.913  1.00  0.00    -0.394 OA
ATOM     39  H   UNL     1       8.949  -3.058  -1.079  1.00  0.00     0.210 HD
ENDBRANCH  37  38
ENDBRANCH  32  37
BRANCH  33  40
ATOM     40  O   UNL     1       8.419  -5.257  -0.540  1.00  0.00    -0.387 OA
ATOM     41  H   UNL     1       7.523  -5.118  -0.119  1.00  0.00     0.211 HD
ENDBRANCH  33  40
BRANCH  35  42
ATOM     42  O   UNL     1       6.444  -6.981  -3.094  1.00  0.00    -0.385 OA
ATOM     43  H   UNL     1       7.024  -6.698  -3.852  1.00  0.00     0.211 HD
ENDBRANCH  35  42
BRANCH  36  44
ATOM     44  O   UNL     1       5.788  -4.195  -0.819  1.00  0.00    -0.366 OA
ATOM     45  H   UNL     1       5.144  -4.626  -0.197  1.00  0.00     0.213 HD
ENDBRANCH  36  44
ENDBRANCH  30  31
ENDBRANCH   4  30
TORSDOF 18
ENDMDL
MODEL 4
REMARK VINA RESULT:     2.277      1.606      2.806
REMARK INTER + INTRA:           9.069
REMARK INTER:                   4.273
REMARK INTRA:                   4.796
REMARK UNBOUND:                 5.128
REMARK SMILES OC[C@@H]1O[C@@H](O[C@H]2[C@@H](O)[C@H](O)[C@@H](O)O[C@H]2CO)[C@@H](O)[C@H](O)[C@@H]1O[C@@H]1O[C@H](CO)[C@H](O)[C@@H](O)[C@H]1O
REMARK SMILES IDX 22 1 3 2 4 3 5 4 18 5 20 6 23 7 24 8 26 9 29 10 25 11 31 12
REMARK SMILES IDX 33 13 27 14 28 15 30 17 32 19 34 21 2 23 1 24 21 26 19 28
REMARK SMILES IDX 6 30 7 31 15 32 8 33 14 34 10 35 12 36 16 37 17 38 9 40
REMARK SMILES IDX 11 42 13 44
REMARK H PARENT 28 16 30 18 32 20 34 22 1 25 21 27 19 29 17 39 9 41 11 43
REMARK H PARENT 13 45
REMARK Flexibility Score: inf
ROOT
ATOM      1  C   UNL     1      11.394  -4.787  -1.815  1.00  0.00     0.184 C 
ATOM      2  C   UNL     1      12.942  -4.772  -1.840  1.00  0.00     0.178 C 
ATOM      3  O   UNL     1      13.576  -6.055  -1.635  1.00  0.00    -0.341 OA
ATOM      4  C   UNL     1      12.750  -7.019  -0.964  1.00  0.00     0.282 C 
ATOM      5  C   UNL     1      11.869  -6.402   0.143  1.00  0.00     0.202 C 
ATOM      6  C   UNL     1      10.958  -5.254  -0.409  1.00  0.00     0.180 C 
ENDROOT
BRANCH   1   7
ATOM      7  O   UNL     1      10.882  -5.695  -2.771  1.00  0.00    -0.341 OA
BRANCH   7   8
ATOM      8  C   UNL     1       9.523  -5.480  -3.125  1.00  0.00     0.282 C 
ATOM      9  C   UNL     1       7.862  -3.745  -2.591  1.00  0.00     0.178 C 
ATOM     10  C   UNL     1       6.829  -4.890  -2.593  1.00  0.00     0.177 C 
ATOM     11  O   UNL     1       9.212  -4.097  -2.934  1.00  0.00    -0.341 OA
ATOM     12  C   UNL     1       7.366  -6.038  -1.737  1.00  0.00     0.179 C 
ATOM     13  C   UNL     1       8.719  -6.521  -2.281  1.00  0.00     0.202 C 
BRANCH   9  14
ATOM     14  C   UNL     1       7.876  -2.891  -1.298  1.00  0.00     0.191 C 
BRANCH  14  15
ATOM     15  O   UNL     1       8.722  -1.776  -1.448  1.00  0.00    -0.394 OA
ATOM     16  H   UNL     1       9.355  -1.785  -0.677  1.00  0.00     0.210 HD
ENDBRANCH  14  15
ENDBRANCH   9  14
BRANCH  10  17
ATOM     17  O   UNL     1       5.602  -4.436  -2.075  1.00  0.00    -0.387 OA
ATOM     18  H   UNL     1       5.335  -5.092  -1.379  1.00  0.00     0.211 HD
ENDBRANCH  10  17
BRANCH  12  19
ATOM     19  O   UNL     1       6.424  -7.080  -1.611  1.00  0.00    -0.387 OA
ATOM     20  H   UNL     1       5.781  -6.994  -2.362  1.00  0.00     0.211 HD
ENDBRANCH  12  19
BRANCH  13  21
ATOM     21  O   UNL     1       8.588  -7.717  -3.009  1.00  0.00    -0.385 OA
ATOM     22  H   UNL     1       9.363  -8.310  -2.830  1.00  0.00     0.211 HD
ENDBRANCH  13  21
ENDBRANCH   7   8
ENDBRANCH   1   7
BRANCH   2  23
ATOM     23  C   UNL     1      13.483  -4.120  -3.125  1.00  0.00     0.191 C 
BRANCH  23  24
ATOM     24  O   UNL     1      14.341  -3.018  -2.912  1.00  0.00    -0.394 OA
ATOM     25  H   UNL     1      13.953  -2.207  -3.338  1.00  0.00     0.210 HD
ENDBRANCH  23  24
ENDBRANCH   2  23
BRANCH   6  26
ATOM     26  O   UNL     1       9.598  -5.630  -0.448  1.00  0.00    -0.387 OA
ATOM     27  H   UNL     1       9.161  -5.040  -1.132  1.00  0.00     0.211 HD
ENDBRANCH   6  26
BRANCH   5  28
ATOM     28  O   UNL     1      12.701  -5.897   1.161  1.00  0.00    -0.385 OA
ATOM     29  H   UNL     1      13.637  -6.025   0.847  1.00  0.00     0.211 HD
ENDBRANCH   5  28
BRANCH   4  30
ATOM     30  O   UNL     1      13.584  -8.021  -0.385  1.00  0.00    -0.341 OA
BRANCH  30  31
ATOM     31  C   UNL     1      14.810  -8.159  -1.087  1.00  0.00     0.184 C 
ATOM     32  C   UNL     1      15.775  -9.125  -0.330  1.00  0.00     0.178 C 
ATOM     33  C   UNL     1      15.409  -6.756  -1.353  1.00  0.00     0.180 C 
ATOM     34  O   UNL     1      17.129  -9.085  -0.780  1.00  0.00    -0.342 OA
ATOM     35  C   UNL     1      16.902  -6.858  -1.787  1.00  0.00     0.201 C 
ATOM     36  C   UNL     1      17.687  -7.778  -0.835  1.00  0.00     0.279 C 
BRANCH  32  37
ATOM     37  C   UNL     1      15.651  -9.123   1.212  1.00  0.00     0.191 C 
BRANCH  37  38
ATOM     38  O   UNL     1      15.722  -7.833   1.763  1.00  0.00    -0.394 OA
ATOM     39  H   UNL     1      14.829  -7.434   1.625  1.00  0.00     0.210 HD
ENDBRANCH  37  38
ENDBRANCH  32  37
BRANCH  33  40
ATOM     40  O   UNL     1      15.323  -5.943  -0.210  1.00  0.00    -0.387 OA
ATOM     41  H   UNL     1      14.680  -6.385   0.414  1.00  0.00     0.211 HD
ENDBRANCH  33  40
BRANCH  35  42
ATOM     42  O   UNL     1      17.075  -7.298  -3.125  1.00  0.00    -0.385 OA
ATOM     43  H   UNL     1      16.480  -8.078  -3.289  1.00  0.00     0.211 HD
ENDBRANCH  35  42
BRANCH  36  44
ATOM     44  O   UNL     1      17.780  -7.223   0.463  1.00  0.00    -0.366 OA
ATOM     45  H   UNL     1      17.938  -7.962   1.109  1.00  0.00     0.213 HD
ENDBRANCH  36  44
ENDBRANCH  30  31
ENDBRANCH   4  30
TORSDOF 18
ENDMDL
MODEL 5
REMARK VINA RESULT:     2.795      1.602      7.050
REMARK INTER + INTRA:           9.966
REMARK INTER:                   1.984
REMARK INTRA:                   7.983
REMARK UNBOUND:                 5.128
REMARK SMILES OC[C@@H]1O[C@@H](O[C@H]2[C@@H](O)[C@H](O)[C@@H](O)O[C@H]2CO)[C@@H](O)[C@H](O)[C@@H]1O[C@@H]1O[C@H](CO)[C@H](O)[C@@H](O)[C@H]1O
REMARK SMILES IDX 22 1 3 2 4 3 5 4 18 5 20 6 23 7 24 8 26 9 29 10 25 11 31 12
REMARK SMILES IDX 33 13 27 14 28 15 30 17 32 19 34 21 2 23 1 24 21 26 19 28
REMARK SMILES IDX 6 30 7 31 15 32 8 33 14 34 10 35 12 36 16 37 17 38 9 40
REMARK SMILES IDX 11 42 13 44
REMARK H PARENT 28 16 30 18 32 20 34 22 1 25 21 27 19 29 17 39 9 41 11 43
REMARK H PARENT 13 45
REMARK Flexibility Score: inf
ROOT
ATOM      1  C   UNL     1      10.583  -8.253  -0.950  1.00  0.00     0.184 C 
ATOM      2  C   UNL     1      10.523  -8.320  -2.496  1.00  0.00     0.178 C 
ATOM      3  O   UNL     1       9.647  -7.356  -3.123  1.00  0.00    -0.341 OA
ATOM      4  C   UNL     1       8.621  -6.843  -2.258  1.00  0.00     0.282 C 
ATOM      5  C   UNL     1       8.048  -7.904  -1.296  1.00  0.00     0.202 C 
ATOM      6  C   UNL     1       9.167  -8.561  -0.418  1.00  0.00     0.180 C 
ENDROOT
BRANCH   1   7
ATOM      7  O   UNL     1      10.958  -6.960  -0.515  1.00  0.00    -0.341 OA
BRANCH   7   8
ATOM      8  C   UNL     1      12.342  -6.806  -0.238  1.00  0.00     0.282 C 
ATOM      9  C   UNL     1      14.122  -5.355  -1.121  1.00  0.00     0.178 C 
ATOM     10  C   UNL     1      15.054  -6.569  -0.930  1.00  0.00     0.177 C 
ATOM     11  O   UNL     1      12.761  -5.515  -0.689  1.00  0.00    -0.341 OA
ATOM     12  C   UNL     1      14.390  -7.801  -1.546  1.00  0.00     0.179 C 
ATOM     13  C   UNL     1      13.022  -8.053  -0.892  1.00  0.00     0.202 C 
BRANCH   9  14
ATOM     14  C   UNL     1      14.131  -4.755  -2.550  1.00  0.00     0.191 C 
BRANCH  14  15
ATOM     15  O   UNL     1      13.340  -3.592  -2.604  1.00  0.00    -0.394 OA
ATOM     16  H   UNL     1      13.698  -2.964  -1.916  1.00  0.00     0.210 HD
ENDBRANCH  14  15
ENDBRANCH   9  14
BRANCH  10  17
ATOM     17  O   UNL     1      16.294  -6.330  -1.550  1.00  0.00    -0.387 OA
ATOM     18  H   UNL     1      16.965  -6.284  -0.819  1.00  0.00     0.211 HD
ENDBRANCH  10  17
BRANCH  12  19
ATOM     19  O   UNL     1      15.234  -8.929  -1.497  1.00  0.00    -0.387 OA
ATOM     20  H   UNL     1      15.219  -9.274  -0.566  1.00  0.00     0.211 HD
ENDBRANCH  12  19
BRANCH  13  21
ATOM     21  O   UNL     1      13.080  -9.102   0.042  1.00  0.00    -0.385 OA
ATOM     22  H   UNL     1      12.922  -9.970  -0.412  1.00  0.00     0.211 HD
ENDBRANCH  13  21
ENDBRANCH   7   8
ENDBRANCH   1   7
BRANCH   2  23
ATOM     23  C   UNL     1      11.926  -8.237  -3.123  1.00  0.00     0.191 C 
BRANCH  23  24
ATOM     24  O   UNL     1      12.499  -6.946  -3.123  1.00  0.00    -0.394 OA
ATOM     25  H   UNL     1      13.182  -6.884  -3.843  1.00  0.00     0.210 HD
ENDBRANCH  23  24
ENDBRANCH   2  23
BRANCH   6  26
ATOM     26  O   UNL     1       9.083  -8.160   0.933  1.00  0.00    -0.387 OA
ATOM     27  H   UNL     1       8.686  -8.935   1.433  1.00  0.00     0.211 HD
ENDBRANCH   6  26
BRANCH   5  28
ATOM     28  O   UNL     1       7.393  -8.898  -2.049  1.00  0.00    -0.385 OA
ATOM     29  H   UNL     1       6.696  -8.429  -2.582  1.00  0.00     0.211 HD
ENDBRANCH   5  28
BRANCH   4  30
ATOM     30  O   UNL     1       7.560  -6.321  -3.055  1.00  0.00    -0.341 OA
BRANCH  30  31
ATOM     31  C   UNL     1       7.230  -4.990  -2.690  1.00  0.00     0.184 C 
ATOM     32  C   UNL     1       8.401  -4.015  -3.031  1.00  0.00     0.178 C 
ATOM     33  C   UNL     1       6.802  -4.958  -1.202  1.00  0.00     0.180 C 
ATOM     34  O   UNL     1       8.298  -2.727  -2.426  1.00  0.00    -0.342 OA
ATOM     35  C   UNL     1       6.781  -3.498  -0.657  1.00  0.00     0.201 C 
ATOM     36  C   UNL     1       8.080  -2.759  -1.020  1.00  0.00     0.279 C 
BRANCH  32  37
ATOM     37  C   UNL     1       9.823  -4.617  -2.933  1.00  0.00     0.191 C 
BRANCH  37  38
ATOM     38  O   UNL     1      10.818  -3.640  -2.760  1.00  0.00    -0.394 OA
ATOM     39  H   UNL     1      11.392  -3.701  -3.562  1.00  0.00     0.210 HD
ENDBRANCH  37  38
ENDBRANCH  32  37
BRANCH  33  40
ATOM     40  O   UNL     1       7.670  -5.726  -0.408  1.00  0.00    -0.387 OA
ATOM     41  H   UNL     1       7.915  -5.165   0.382  1.00  0.00     0.211 HD
ENDBRANCH  33  40
BRANCH  35  42
ATOM     42  O   UNL     1       5.664  -2.743  -1.101  1.00  0.00    -0.385 OA
ATOM     43  H   UNL     1       5.873  -2.346  -1.989  1.00  0.00     0.211 HD
ENDBRANCH  35  42
BRANCH  36  44
ATOM     44  O   UNL     1       9.198  -3.319  -0.358  1.00  0.00    -0.366 OA
ATOM     45  H   UNL     1       9.387  -4.209  -0.758  1.00  0.00     0.213 HD
ENDBRANCH  36  44
ENDBRANCH  30  31
ENDBRANCH   4  30
TORSDOF 18
ENDMDL
