MODEL 1
REMARK VINA RESULT:    -3.912      0.000      0.000
REMARK INTER + INTRA:          -5.123
REMARK INTER:                  -5.514
REMARK INTRA:                   0.390
REMARK UNBOUND:                 0.390
REMARK SMILES CC1=CCC(=C(C)C)C(=O)CC(C)=CCC1
REMARK SMILES IDX 12 1 14 2 13 3 15 4 16 5 2 6 1 7 3 8 11 10 9 11 10 12 5 13
REMARK SMILES IDX 6 14 7 15 8 16 4 17
REMARK H PARENT
REMARK Flexibility Score: 60.00
ROOT
ATOM      1  C   UNL     1      -6.583  37.448  -2.730  1.00  0.00    -0.070 C 
ATOM      2  C   UNL     1      -7.392  37.643  -3.798  1.00  0.00    -0.027 C 
ATOM      3  C   UNL     1      -5.181  36.960  -3.000  1.00  0.00     0.039 C 
ENDROOT
BRANCH   2   4
ATOM      4  C   UNL     1      -8.852  38.022  -3.756  1.00  0.00     0.032 C 
BRANCH   4   5
ATOM      5  C   UNL     1      -9.760  36.839  -3.367  1.00  0.00     0.034 C 
BRANCH   5   6
ATOM      6  C   UNL     1     -10.702  37.188  -2.231  1.00  0.00    -0.077 C 
ATOM      7  C   UNL     1     -11.750  38.245  -2.469  1.00  0.00     0.039 C 
ATOM      8  C   UNL     1     -10.672  36.586  -1.021  1.00  0.00    -0.023 CG0
ATOM      9  G   UNL     1      -9.725  35.487  -0.604  1.00  0.00     0.000 G0
ENDBRANCH   5   6
ENDBRANCH   4   5
ENDBRANCH   2   4
BRANCH   1  10
ATOM     10  C   UNL     1      -7.029  37.626  -1.288  1.00  0.00     0.111 C 
BRANCH  10  11
ATOM     11  C   UNL     1      -7.290  36.298  -0.621  1.00  0.00     0.163 C 
ATOM     12  O   UNL     1      -6.399  35.409  -0.699  1.00  0.00    -0.294 OA
BRANCH  11  13
ATOM     13  C   UNL     1      -8.539  36.037   0.161  1.00  0.00    -0.002 C 
ATOM     14  C   UNL     1      -8.593  36.229   1.514  1.00  0.00    -0.069 C 
ATOM     15  C   UNL     1      -7.373  36.642   2.305  1.00  0.00     0.039 C 
ATOM     16  C   UNL     1      -9.870  36.000   2.292  1.00  0.00     0.039 C 
BRANCH  13  17
ATOM     17  C   UNL     1      -9.727  35.479  -0.601  1.00  0.00     0.066 CG0
ATOM     18  G   UNL     1     -10.639  36.606  -1.024  1.00  0.00     0.000 G0
ENDBRANCH  13  17
ENDBRANCH  11  13
ENDBRANCH  10  11
ENDBRANCH   1  10
TORSDOF 0
ENDMDL
MODEL 2
REMARK VINA RESULT:    -3.866      1.777      3.595
REMARK INTER + INTRA:          -5.058
REMARK INTER:                  -5.488
REMARK INTRA:                   0.431
REMARK UNBOUND:                 0.390
REMARK SMILES CC1=CCC(=C(C)C)C(=O)CC(C)=CCC1
REMARK SMILES IDX 12 1 14 2 13 3 15 4 16 5 2 6 1 7 3 8 11 10 9 11 10 12 5 13
REMARK SMILES IDX 6 14 7 15 8 16 4 17
REMARK H PARENT
REMARK Flexibility Score: 60.00
ROOT
ATOM      1  C   UNL     1      -9.225  37.444  -3.440  1.00  0.00    -0.070 C 
ATOM      2  C   UNL     1      -8.039  37.665  -4.057  1.00  0.00    -0.027 C 
ATOM      3  C   UNL     1     -10.405  37.086  -4.310  1.00  0.00     0.039 C 
ENDROOT
BRANCH   2   4
ATOM      4  C   UNL     1      -6.764  38.135  -3.400  1.00  0.00     0.032 C 
BRANCH   4   5
ATOM      5  C   UNL     1      -5.979  36.983  -2.742  1.00  0.00     0.034 C 
BRANCH   5   6
ATOM      6  C   UNL     1      -5.557  37.315  -1.324  1.00  0.00    -0.077 C 
ATOM      7  C   UNL     1      -4.570  38.435  -1.114  1.00  0.00     0.039 C 
ATOM      8  C   UNL     1      -6.036  36.680  -0.231  1.00  0.00    -0.023 CG0
ATOM      9  G   UNL     1      -7.051  35.562  -0.234  1.00  0.00     0.000 G0
ENDBRANCH   5   6
ENDBRANCH   4   5
ENDBRANCH   2   4
BRANCH   1  10
ATOM     10  C   UNL     1      -9.441  37.601  -1.944  1.00  0.00     0.111 C 
BRANCH  10  11
ATOM     11  C   UNL     1      -9.315  36.282  -1.224  1.00  0.00     0.163 C 
ATOM     12  O   UNL     1      -9.935  35.289  -1.691  1.00  0.00    -0.294 OA
BRANCH  11  13
ATOM     13  C   UNL     1      -8.443  36.118  -0.018  1.00  0.00    -0.002 C 
ATOM     14  C   UNL     1      -8.853  36.516   1.224  1.00  0.00    -0.069 C 
ATOM     15  C   UNL     1     -10.179  37.212   1.436  1.00  0.00     0.039 C 
ATOM     16  C   UNL     1      -7.982  36.313   2.444  1.00  0.00     0.039 C 
BRANCH  13  17
ATOM     17  C   UNL     1      -7.050  35.558  -0.244  1.00  0.00     0.066 CG0
ATOM     18  G   UNL     1      -6.039  36.679  -0.229  1.00  0.00     0.000 G0
ENDBRANCH  13  17
ENDBRANCH  11  13
ENDBRANCH  10  11
ENDBRANCH   1  10
TORSDOF 0
ENDMDL
MODEL 3
REMARK VINA RESULT:    -3.831      1.744      4.086
REMARK INTER + INTRA:          -5.008
REMARK INTER:                  -5.333
REMARK INTRA:                   0.324
REMARK UNBOUND:                 0.390
REMARK SMILES CC1=CCC(=C(C)C)C(=O)CC(C)=CCC1
REMARK SMILES IDX 12 1 14 2 13 3 15 4 16 5 2 6 1 7 3 8 11 10 9 11 10 12 5 13
REMARK SMILES IDX 6 14 7 15 8 16 4 17
REMARK H PARENT
REMARK Flexibility Score: 60.00
ROOT
ATOM      1  C   UNL     1      -6.157  37.676  -2.194  1.00  0.00    -0.070 C 
ATOM      2  C   UNL     1      -6.086  36.937  -1.061  1.00  0.00    -0.027 C 
ATOM      3  C   UNL     1      -5.164  38.801  -2.354  1.00  0.00     0.039 C 
ENDROOT
BRANCH   2   4
ATOM      4  C   UNL     1      -7.039  35.841  -0.648  1.00  0.00     0.032 C 
BRANCH   4   5
ATOM      5  C   UNL     1      -8.251  36.376   0.139  1.00  0.00     0.034 C 
BRANCH   5   6
ATOM      6  C   UNL     1      -9.558  35.783  -0.348  1.00  0.00    -0.077 C 
ATOM      7  C   UNL     1      -9.887  34.362   0.036  1.00  0.00     0.039 C 
ATOM      8  C   UNL     1     -10.461  36.464  -1.089  1.00  0.00    -0.023 CG0
ATOM      9  G   UNL     1     -10.330  37.898  -1.542  1.00  0.00     0.000 G0
ENDBRANCH   5   6
ENDBRANCH   4   5
ENDBRANCH   2   4
BRANCH   1  10
ATOM     10  C   UNL     1      -7.216  37.478  -3.266  1.00  0.00     0.111 C 
BRANCH  10  11
ATOM     11  C   UNL     1      -8.364  38.441  -3.096  1.00  0.00     0.163 C 
ATOM     12  O   UNL     1      -8.111  39.676  -3.109  1.00  0.00    -0.294 OA
BRANCH  11  13
ATOM     13  C   UNL     1      -9.779  37.970  -2.965  1.00  0.00    -0.002 C 
ATOM     14  C   UNL     1     -10.541  37.670  -4.060  1.00  0.00    -0.069 C 
ATOM     15  C   UNL     1     -10.020  37.869  -5.467  1.00  0.00     0.039 C 
ATOM     16  C   UNL     1     -11.957  37.158  -3.920  1.00  0.00     0.039 C 
BRANCH  13  17
ATOM     17  C   UNL     1     -10.360  37.910  -1.564  1.00  0.00     0.066 CG0
ATOM     18  G   UNL     1     -10.439  36.474  -1.104  1.00  0.00     0.000 G0
ENDBRANCH  13  17
ENDBRANCH  11  13
ENDBRANCH  10  11
ENDBRANCH   1  10
TORSDOF 0
ENDMDL
MODEL 4
REMARK VINA RESULT:    -3.668      4.371      7.862
REMARK INTER + INTRA:          -4.779
REMARK INTER:                  -5.183
REMARK INTRA:                   0.405
REMARK UNBOUND:                 0.390
REMARK SMILES CC1=CCC(=C(C)C)C(=O)CC(C)=CCC1
REMARK SMILES IDX 12 1 14 2 13 3 15 4 16 5 2 6 1 7 3 8 11 10 9 11 10 12 5 13
REMARK SMILES IDX 6 14 7 15 8 16 4 17
REMARK H PARENT
REMARK Flexibility Score: 60.00
ROOT
ATOM      1  C   UNL     1      -6.038  34.469   4.837  1.00  0.00    -0.070 C 
ATOM      2  C   UNL     1      -5.051  34.540   5.762  1.00  0.00    -0.027 C 
ATOM      3  C   UNL     1      -7.435  34.186   5.330  1.00  0.00     0.039 C 
ENDROOT
BRANCH   2   4
ATOM      4  C   UNL     1      -3.577  34.707   5.486  1.00  0.00     0.032 C 
BRANCH   4   5
ATOM      5  C   UNL     1      -3.221  36.128   5.007  1.00  0.00     0.034 C 
BRANCH   5   6
ATOM      6  C   UNL     1      -2.514  36.120   3.665  1.00  0.00    -0.077 C 
ATOM      7  C   UNL     1      -1.233  35.336   3.536  1.00  0.00     0.039 C 
ATOM      8  C   UNL     1      -2.981  36.756   2.567  1.00  0.00    -0.023 CG0
ATOM      9  G   UNL     1      -4.258  37.558   2.489  1.00  0.00     0.000 G0
ENDBRANCH   5   6
ENDBRANCH   4   5
ENDBRANCH   2   4
BRANCH   1  10
ATOM     10  C   UNL     1      -5.802  34.589   3.340  1.00  0.00     0.111 C 
BRANCH  10  11
ATOM     11  C   UNL     1      -6.213  35.945   2.822  1.00  0.00     0.163 C 
ATOM     12  O   UNL     1      -7.288  36.444   3.251  1.00  0.00    -0.294 OA
BRANCH  11  13
ATOM     13  C   UNL     1      -5.361  36.718   1.864  1.00  0.00    -0.002 C 
ATOM     14  C   UNL     1      -5.525  36.612   0.510  1.00  0.00    -0.069 C 
ATOM     15  C   UNL     1      -6.524  35.652  -0.095  1.00  0.00     0.039 C 
ATOM     16  C   UNL     1      -4.686  37.425  -0.451  1.00  0.00     0.039 C 
BRANCH  13  17
ATOM     17  C   UNL     1      -4.255  37.571   2.457  1.00  0.00     0.066 CG0
ATOM     18  G   UNL     1      -2.988  36.758   2.572  1.00  0.00     0.000 G0
ENDBRANCH  13  17
ENDBRANCH  11  13
ENDBRANCH  10  11
ENDBRANCH   1  10
TORSDOF 0
ENDMDL
MODEL 5
REMARK VINA RESULT:    -3.466      6.799      9.463
REMARK INTER + INTRA:          -4.494
REMARK INTER:                  -5.617
REMARK INTRA:                   1.123
REMARK UNBOUND:                 0.390
REMARK SMILES CC1=CCC(=C(C)C)C(=O)CC(C)=CCC1
REMARK SMILES IDX 12 1 14 2 13 3 15 4 16 5 2 6 1 7 3 8 11 10 9 11 10 12 5 13
REMARK SMILES IDX 6 14 7 15 8 16 4 17
REMARK H PARENT
REMARK Flexibility Score: 60.00
ROOT
ATOM      1  C   UNL     1      -6.147  34.311   5.284  1.00  0.00    -0.070 C 
ATOM      2  C   UNL     1      -5.734  34.182   6.567  1.00  0.00    -0.027 C 
ATOM      3  C   UNL     1      -7.629  34.462   5.042  1.00  0.00     0.039 C 
ENDROOT
BRANCH   2   4
ATOM      4  C   UNL     1      -4.323  33.915   7.030  1.00  0.00     0.032 C 
BRANCH   4   5
ATOM      5  C   UNL     1      -3.883  34.860   8.165  1.00  0.00     0.034 C 
BRANCH   5   6
ATOM      6  C   UNL     1      -3.560  36.252   7.660  1.00  0.00    -0.077 C 
ATOM      7  C   UNL     1      -3.838  37.426   8.564  1.00  0.00     0.039 C 
ATOM      8  C   UNL     1      -3.009  36.502   6.450  1.00  0.00    -0.023 CG0
ATOM      9  G   UNL     1      -2.627  35.463   5.423  1.00  0.00     0.000 G0
ENDBRANCH   5   6
ENDBRANCH   4   5
ENDBRANCH   2   4
BRANCH   1  10
ATOM     10  C   UNL     1      -5.215  34.243   4.086  1.00  0.00     0.111 C 
BRANCH  10  11
ATOM     11  C   UNL     1      -4.612  35.591   3.775  1.00  0.00     0.163 C 
ATOM     12  O   UNL     1      -5.370  36.488   3.316  1.00  0.00    -0.294 OA
BRANCH  11  13
ATOM     13  C   UNL     1      -3.172  35.895   4.045  1.00  0.00    -0.002 C 
ATOM     14  C   UNL     1      -2.366  36.457   3.093  1.00  0.00    -0.069 C 
ATOM     15  C   UNL     1      -2.866  36.733   1.693  1.00  0.00     0.039 C 
ATOM     16  C   UNL     1      -0.921  36.797   3.385  1.00  0.00     0.039 C 
BRANCH  13  17
ATOM     17  C   UNL     1      -2.621  35.485   5.398  1.00  0.00     0.066 CG0
ATOM     18  G   UNL     1      -3.008  36.507   6.439  1.00  0.00     0.000 G0
ENDBRANCH  13  17
ENDBRANCH  11  13
ENDBRANCH  10  11
ENDBRANCH   1  10
TORSDOF 0
ENDMDL
MODEL 6
REMARK VINA RESULT:    -3.406      1.340      4.030
REMARK INTER + INTRA:          -4.409
REMARK INTER:                  -4.847
REMARK INTRA:                   0.438
REMARK UNBOUND:                 0.390
REMARK SMILES CC1=CCC(=C(C)C)C(=O)CC(C)=CCC1
REMARK SMILES IDX 12 1 14 2 13 3 15 4 16 5 2 6 1 7 3 8 11 10 9 11 10 12 5 13
REMARK SMILES IDX 6 14 7 15 8 16 4 17
REMARK H PARENT
REMARK Flexibility Score: 60.00
ROOT
ATOM      1  C   UNL     1      -7.043  36.326   1.940  1.00  0.00    -0.070 C 
ATOM      2  C   UNL     1      -8.176  36.269   2.679  1.00  0.00    -0.027 C 
ATOM      3  C   UNL     1      -5.870  35.495   2.401  1.00  0.00     0.039 C 
ENDROOT
BRANCH   2   4
ATOM      4  C   UNL     1      -9.424  37.091   2.466  1.00  0.00     0.032 C 
BRANCH   4   5
ATOM      5  C   UNL     1     -10.271  36.585   1.282  1.00  0.00     0.034 C 
BRANCH   5   6
ATOM      6  C   UNL     1     -10.476  37.653   0.226  1.00  0.00    -0.077 C 
ATOM      7  C   UNL     1     -11.221  38.906   0.610  1.00  0.00     0.039 C 
ATOM      8  C   UNL     1     -10.004  37.559  -1.038  1.00  0.00    -0.023 CG0
ATOM      9  G   UNL     1      -9.209  36.405  -1.599  1.00  0.00     0.000 G0
ENDBRANCH   5   6
ENDBRANCH   4   5
ENDBRANCH   2   4
BRANCH   1  10
ATOM     10  C   UNL     1      -6.870  37.223   0.726  1.00  0.00     0.111 C 
BRANCH  10  11
ATOM     11  C   UNL     1      -6.854  36.426  -0.555  1.00  0.00     0.163 C 
ATOM     12  O   UNL     1      -6.105  35.414  -0.614  1.00  0.00    -0.294 OA
BRANCH  11  13
ATOM     13  C   UNL     1      -7.731  36.776  -1.716  1.00  0.00    -0.002 C 
ATOM     14  C   UNL     1      -7.252  37.462  -2.797  1.00  0.00    -0.069 C 
ATOM     15  C   UNL     1      -5.829  37.972  -2.846  1.00  0.00     0.039 C 
ATOM     16  C   UNL     1      -8.134  37.780  -3.984  1.00  0.00     0.039 C 
BRANCH  13  17
ATOM     17  C   UNL     1      -9.198  36.400  -1.611  1.00  0.00     0.066 CG0
ATOM     18  G   UNL     1      -9.980  37.552  -1.027  1.00  0.00     0.000 G0
ENDBRANCH  13  17
ENDBRANCH  11  13
ENDBRANCH  10  11
ENDBRANCH   1  10
TORSDOF 0
ENDMDL
MODEL 7
REMARK VINA RESULT:    -3.382      2.120      4.154
REMARK INTER + INTRA:          -4.375
REMARK INTER:                  -4.781
REMARK INTRA:                   0.406
REMARK UNBOUND:                 0.390
REMARK SMILES CC1=CCC(=C(C)C)C(=O)CC(C)=CCC1
REMARK SMILES IDX 12 1 14 2 13 3 15 4 16 5 2 6 1 7 3 8 11 10 9 11 10 12 5 13
REMARK SMILES IDX 6 14 7 15 8 16 4 17
REMARK H PARENT
REMARK Flexibility Score: 60.00
ROOT
ATOM      1  C   UNL     1     -11.211  37.506   0.133  1.00  0.00    -0.070 C 
ATOM      2  C   UNL     1     -12.074  37.955  -0.809  1.00  0.00    -0.027 C 
ATOM      3  C   UNL     1     -11.502  37.862   1.570  1.00  0.00     0.039 C 
ENDROOT
BRANCH   2   4
ATOM      4  C   UNL     1     -11.922  37.810  -2.303  1.00  0.00     0.032 C 
BRANCH   4   5
ATOM      5  C   UNL     1     -10.955  38.849  -2.904  1.00  0.00     0.034 C 
BRANCH   5   6
ATOM      6  C   UNL     1      -9.943  38.217  -3.838  1.00  0.00    -0.077 C 
ATOM      7  C   UNL     1     -10.435  37.630  -5.137  1.00  0.00     0.039 C 
ATOM      8  C   UNL     1      -8.615  38.172  -3.586  1.00  0.00    -0.023 CG0
ATOM      9  G   UNL     1      -7.929  38.734  -2.364  1.00  0.00     0.000 G0
ENDBRANCH   5   6
ENDBRANCH   4   5
ENDBRANCH   2   4
BRANCH   1  10
ATOM     10  C   UNL     1      -9.943  36.731  -0.184  1.00  0.00     0.111 C 
BRANCH  10  11
ATOM     11  C   UNL     1      -8.731  37.630  -0.194  1.00  0.00     0.163 C 
ATOM     12  O   UNL     1      -8.525  38.358   0.813  1.00  0.00    -0.294 OA
BRANCH  11  13
ATOM     13  C   UNL     1      -7.759  37.636  -1.332  1.00  0.00    -0.002 C 
ATOM     14  C   UNL     1      -6.736  36.732  -1.408  1.00  0.00    -0.069 C 
ATOM     15  C   UNL     1      -6.484  35.725  -0.307  1.00  0.00     0.039 C 
ATOM     16  C   UNL     1      -5.780  36.719  -2.580  1.00  0.00     0.039 C 
BRANCH  13  17
ATOM     17  C   UNL     1      -7.913  38.736  -2.366  1.00  0.00     0.066 CG0
ATOM     18  G   UNL     1      -8.599  38.192  -3.595  1.00  0.00     0.000 G0
ENDBRANCH  13  17
ENDBRANCH  11  13
ENDBRANCH  10  11
ENDBRANCH   1  10
TORSDOF 0
ENDMDL
MODEL 8
REMARK VINA RESULT:    -3.333      2.038      5.027
REMARK INTER + INTRA:          -4.307
REMARK INTER:                  -4.892
REMARK INTRA:                   0.585
REMARK UNBOUND:                 0.390
REMARK SMILES CC1=CCC(=C(C)C)C(=O)CC(C)=CCC1
REMARK SMILES IDX 12 1 14 2 13 3 15 4 16 5 2 6 1 7 3 8 11 10 9 11 10 12 5 13
REMARK SMILES IDX 6 14 7 15 8 16 4 17
REMARK H PARENT
REMARK Flexibility Score: 60.00
ROOT
ATOM      1  C   UNL     1      -9.560  36.047   0.584  1.00  0.00    -0.070 C 
ATOM      2  C   UNL     1      -8.212  35.933   0.640  1.00  0.00    -0.027 C 
ATOM      3  C   UNL     1     -10.291  36.304   1.878  1.00  0.00     0.039 C 
ENDROOT
BRANCH   2   4
ATOM      4  C   UNL     1      -7.297  35.573  -0.504  1.00  0.00     0.032 C 
BRANCH   4   5
ATOM      5  C   UNL     1      -6.296  36.697  -0.839  1.00  0.00     0.034 C 
BRANCH   5   6
ATOM      6  C   UNL     1      -6.964  38.057  -0.904  1.00  0.00    -0.077 C 
ATOM      7  C   UNL     1      -6.530  39.116   0.077  1.00  0.00     0.039 C 
ATOM      8  C   UNL     1      -7.910  38.385  -1.812  1.00  0.00    -0.023 CG0
ATOM      9  G   UNL     1      -8.448  37.478  -2.893  1.00  0.00     0.000 G0
ENDBRANCH   5   6
ENDBRANCH   4   5
ENDBRANCH   2   4
BRANCH   1  10
ATOM     10  C   UNL     1     -10.371  35.862  -0.688  1.00  0.00     0.111 C 
BRANCH  10  11
ATOM     11  C   UNL     1     -10.546  37.166  -1.427  1.00  0.00     0.163 C 
ATOM     12  O   UNL     1     -11.161  38.100  -0.846  1.00  0.00    -0.294 OA
BRANCH  11  13
ATOM     13  C   UNL     1      -9.970  37.386  -2.792  1.00  0.00    -0.002 C 
ATOM     14  C   UNL     1     -10.760  37.432  -3.906  1.00  0.00    -0.069 C 
ATOM     15  C   UNL     1     -12.251  37.188  -3.832  1.00  0.00     0.039 C 
ATOM     16  C   UNL     1     -10.176  37.692  -5.277  1.00  0.00     0.039 C 
BRANCH  13  17
ATOM     17  C   UNL     1      -8.459  37.482  -2.896  1.00  0.00     0.066 CG0
ATOM     18  G   UNL     1      -7.927  38.378  -1.802  1.00  0.00     0.000 G0
ENDBRANCH  13  17
ENDBRANCH  11  13
ENDBRANCH  10  11
ENDBRANCH   1  10
TORSDOF 0
ENDMDL
MODEL 9
REMARK VINA RESULT:    -3.307      2.091      4.911
REMARK INTER + INTRA:          -4.270
REMARK INTER:                  -4.851
REMARK INTRA:                   0.581
REMARK UNBOUND:                 0.390
REMARK SMILES CC1=CCC(=C(C)C)C(=O)CC(C)=CCC1
REMARK SMILES IDX 12 1 14 2 13 3 15 4 16 5 2 6 1 7 3 8 11 10 9 11 10 12 5 13
REMARK SMILES IDX 6 14 7 15 8 16 4 17
REMARK H PARENT
REMARK Flexibility Score: 60.00
ROOT
ATOM      1  C   UNL     1      -8.746  35.922  -0.071  1.00  0.00    -0.070 C 
ATOM      2  C   UNL     1      -7.403  35.741  -0.055  1.00  0.00    -0.027 C 
ATOM      3  C   UNL     1      -9.608  34.776   0.397  1.00  0.00     0.039 C 
ENDROOT
BRANCH   2   4
ATOM      4  C   UNL     1      -6.365  36.705  -0.575  1.00  0.00     0.032 C 
BRANCH   4   5
ATOM      5  C   UNL     1      -6.360  36.797  -2.113  1.00  0.00     0.034 C 
BRANCH   5   6
ATOM      6  C   UNL     1      -6.540  38.221  -2.602  1.00  0.00    -0.077 C 
ATOM      7  C   UNL     1      -5.516  39.252  -2.199  1.00  0.00     0.039 C 
ATOM      8  C   UNL     1      -7.556  38.616  -3.403  1.00  0.00    -0.023 CG0
ATOM      9  G   UNL     1      -8.653  37.729  -3.939  1.00  0.00     0.000 G0
ENDBRANCH   5   6
ENDBRANCH   4   5
ENDBRANCH   2   4
BRANCH   1  10
ATOM     10  C   UNL     1      -9.422  37.179  -0.592  1.00  0.00     0.111 C 
BRANCH  10  11
ATOM     11  C   UNL     1     -10.075  36.942  -1.932  1.00  0.00     0.163 C 
ATOM     12  O   UNL     1     -10.821  35.933  -2.058  1.00  0.00    -0.294 OA
BRANCH  11  13
ATOM     13  C   UNL     1      -9.900  37.890  -3.077  1.00  0.00    -0.002 C 
ATOM     14  C   UNL     1     -10.848  38.825  -3.387  1.00  0.00    -0.069 C 
ATOM     15  C   UNL     1     -12.160  38.902  -2.638  1.00  0.00     0.039 C 
ATOM     16  C   UNL     1     -10.647  39.805  -4.522  1.00  0.00     0.039 C 
BRANCH  13  17
ATOM     17  C   UNL     1      -8.654  37.722  -3.928  1.00  0.00     0.066 CG0
ATOM     18  G   UNL     1      -7.551  38.607  -3.400  1.00  0.00     0.000 G0
ENDBRANCH  13  17
ENDBRANCH  11  13
ENDBRANCH  10  11
ENDBRANCH   1  10
TORSDOF 0
ENDMDL
