MODEL 1
REMARK VINA RESULT:    -5.621      0.000      0.000
REMARK INTER + INTRA:          -9.844
REMARK INTER:                  -7.921
REMARK INTRA:                  -1.923
REMARK UNBOUND:                -1.923
REMARK SMILES C=C(CC[C@@H](C(=O)[O-])[C@@H]1[C@@H](O)C[C@]2(C)C3=C(CC[C@@]12C)[C@@]1(C)CC[C@@H](O)C(C)(C)[C@H]1CC3)C(C)C
REMARK SMILES IDX 4 1 5 2 6 3 7 4 8 5 9 6 10 7 19 8 12 9 13 10 18 11 20 12
REMARK SMILES IDX 14 13 15 14 17 15 16 16 32 17 21 18 31 19 30 20 23 21 22 22
REMARK SMILES IDX 27 23 24 24 25 25 28 26 29 27 11 28 26 30 3 32 2 33 1 34
REMARK SMILES IDX 33 35 34 36 35 37
REMARK H PARENT 11 29 26 31
REMARK Flexibility Score: inf
ROOT
ATOM      1  C   UNL     1       2.398  30.621  42.448  1.00  0.00     0.014 C 
ENDROOT
BRANCH   1   2
ATOM      2  C   UNL     1       1.830  30.891  43.869  1.00  0.00     0.042 C 
BRANCH   2   3
ATOM      3  C   UNL     1       2.766  30.377  44.946  1.00  0.00     0.045 C 
ATOM      4  O   UNL     1       2.447  29.354  45.610  1.00  0.00    -0.550 OA
ATOM      5  O   UNL     1       4.006  30.958  45.172  1.00  0.00    -0.550 OA
ENDBRANCH   2   3
BRANCH   2   6
ATOM      6  C   UNL     1       1.253  32.349  44.047  1.00  0.00     0.033 C 
ATOM      7  C   UNL     1       1.509  33.082  45.399  1.00  0.00     0.119 C 
ATOM      8  C   UNL     1      -0.278  32.530  43.825  1.00  0.00    -0.017 C 
ATOM      9  C   UNL     1       0.281  33.997  45.649  1.00  0.00     0.043 C 
ATOM     10  C   UNL     1      -0.524  33.981  44.332  1.00  0.00    -0.003 C 
ATOM     11  C   UNL     1      -0.766  32.458  42.369  1.00  0.00     0.012 C 
ATOM     12  C   UNL     1      -1.068  31.462  44.663  1.00  0.00     0.013 C 
ATOM     13  C   UNL     1       0.033  35.119  43.412  1.00  0.00     0.017 C 
ATOM     14  C   UNL     1      -2.023  34.242  44.400  1.00  0.00    -0.064 C 
ATOM     15  C   UNL     1      -2.252  32.900  42.254  1.00  0.00     0.032 C 
ATOM     16  C   UNL     1      -2.822  33.828  43.362  1.00  0.00    -0.064 C 
ATOM     17  C   UNL     1      -2.583  35.131  45.477  1.00  0.00     0.032 C 
ATOM     18  C   UNL     1      -4.290  34.344  43.223  1.00  0.00    -0.008 C 
ATOM     19  C   UNL     1      -3.989  34.669  45.806  1.00  0.00     0.009 C 
ATOM     20  C   UNL     1      -4.907  34.912  44.590  1.00  0.00     0.007 C 
ATOM     21  C   UNL     1      -5.177  33.203  42.644  1.00  0.00     0.014 C 
ATOM     22  C   UNL     1      -4.228  35.492  42.180  1.00  0.00     0.016 C 
ATOM     23  C   UNL     1      -6.421  34.546  44.894  1.00  0.00    -0.006 C 
ATOM     24  C   UNL     1      -6.684  33.501  42.548  1.00  0.00     0.033 C 
ATOM     25  C   UNL     1      -7.215  34.532  43.559  1.00  0.00     0.120 C 
ATOM     26  C   UNL     1      -7.048  35.641  45.802  1.00  0.00     0.014 C 
ATOM     27  C   UNL     1      -6.581  33.189  45.641  1.00  0.00     0.014 C 
BRANCH   7  28
ATOM     28  O   UNL     1       2.707  33.819  45.393  1.00  0.00    -0.393 OA
ATOM     29  H   UNL     1       2.485  34.778  45.284  1.00  0.00     0.210 HD
ENDBRANCH   7  28
BRANCH  25  30
ATOM     30  O   UNL     1      -8.581  34.295  43.795  1.00  0.00    -0.393 OA
ATOM     31  H   UNL     1      -8.911  33.731  43.047  1.00  0.00     0.210 HD
ENDBRANCH  25  30
ENDBRANCH   2   6
ENDBRANCH   1   2
BRANCH   1  32
ATOM     32  C   UNL     1       2.033  29.256  41.837  1.00  0.00     0.031 C 
BRANCH  32  33
ATOM     33  C   UNL     1       0.888  29.387  40.857  1.00  0.00    -0.075 C 
ATOM     34  C   UNL     1       0.938  30.342  39.911  1.00  0.00     0.008 C 
BRANCH  33  35
ATOM     35  C   UNL     1      -0.297  28.434  40.949  1.00  0.00     0.008 C 
ATOM     36  C   UNL     1       0.161  26.973  41.008  1.00  0.00     0.012 C 
ATOM     37  C   UNL     1      -1.196  28.782  42.143  1.00  0.00     0.012 C 
ENDBRANCH  33  35
ENDBRANCH  32  33
ENDBRANCH   1  32
TORSDOF 8
ENDMDL
MODEL 2
REMARK VINA RESULT:    -5.508      7.375     11.822
REMARK INTER + INTRA:          -9.685
REMARK INTER:                  -7.998
REMARK INTRA:                  -1.686
REMARK UNBOUND:                -1.923
REMARK SMILES C=C(CC[C@@H](C(=O)[O-])[C@@H]1[C@@H](O)C[C@]2(C)C3=C(CC[C@@]12C)[C@@]1(C)CC[C@@H](O)C(C)(C)[C@H]1CC3)C(C)C
REMARK SMILES IDX 4 1 5 2 6 3 7 4 8 5 9 6 10 7 19 8 12 9 13 10 18 11 20 12
REMARK SMILES IDX 14 13 15 14 17 15 16 16 32 17 21 18 31 19 30 20 23 21 22 22
REMARK SMILES IDX 27 23 24 24 25 25 28 26 29 27 11 28 26 30 3 32 2 33 1 34
REMARK SMILES IDX 33 35 34 36 35 37
REMARK H PARENT 11 29 26 31
REMARK Flexibility Score: inf
ROOT
ATOM      1  C   UNL     1      -8.689  31.308  46.862  1.00  0.00     0.014 C 
ENDROOT
BRANCH   1   2
ATOM      2  C   UNL     1      -9.834  30.288  46.616  1.00  0.00     0.042 C 
BRANCH   2   3
ATOM      3  C   UNL     1     -10.972  30.483  47.600  1.00  0.00     0.045 C 
ATOM      4  O   UNL     1     -11.140  29.649  48.529  1.00  0.00    -0.550 OA
ATOM      5  O   UNL     1     -11.792  31.602  47.552  1.00  0.00    -0.550 OA
ENDBRANCH   2   3
BRANCH   2   6
ATOM      6  C   UNL     1     -10.214  30.128  45.092  1.00  0.00     0.033 C 
ATOM      7  C   UNL     1     -11.659  30.513  44.650  1.00  0.00     0.119 C 
ATOM      8  C   UNL     1     -10.010  28.719  44.461  1.00  0.00    -0.017 C 
ATOM      9  C   UNL     1     -12.028  29.577  43.470  1.00  0.00     0.043 C 
ATOM     10  C   UNL     1     -10.717  28.860  43.082  1.00  0.00    -0.003 C 
ATOM     11  C   UNL     1      -8.555  28.298  44.197  1.00  0.00     0.012 C 
ATOM     12  C   UNL     1     -10.682  27.627  45.369  1.00  0.00     0.013 C 
ATOM     13  C   UNL     1      -9.972  29.752  42.033  1.00  0.00     0.017 C 
ATOM     14  C   UNL     1     -10.811  27.490  42.424  1.00  0.00    -0.064 C 
ATOM     15  C   UNL     1      -8.494  26.999  43.346  1.00  0.00     0.032 C 
ATOM     16  C   UNL     1      -9.720  26.657  42.453  1.00  0.00    -0.064 C 
ATOM     17  C   UNL     1     -12.000  27.149  41.567  1.00  0.00     0.032 C 
ATOM     18  C   UNL     1      -9.645  25.397  41.532  1.00  0.00    -0.008 C 
ATOM     19  C   UNL     1     -12.251  25.655  41.657  1.00  0.00     0.009 C 
ATOM     20  C   UNL     1     -11.075  24.898  41.004  1.00  0.00     0.007 C 
ATOM     21  C   UNL     1      -8.904  24.257  42.291  1.00  0.00     0.014 C 
ATOM     22  C   UNL     1      -8.777  25.822  40.318  1.00  0.00     0.016 C 
ATOM     23  C   UNL     1     -11.313  23.329  40.970  1.00  0.00    -0.006 C 
ATOM     24  C   UNL     1      -8.841  22.897  41.573  1.00  0.00     0.033 C 
ATOM     25  C   UNL     1      -9.985  22.625  40.580  1.00  0.00     0.120 C 
ATOM     26  C   UNL     1     -12.364  22.988  39.875  1.00  0.00     0.014 C 
ATOM     27  C   UNL     1     -11.859  22.766  42.315  1.00  0.00     0.014 C 
BRANCH   7  28
ATOM     28  O   UNL     1     -11.765  31.868  44.284  1.00  0.00    -0.393 OA
ATOM     29  H   UNL     1     -10.860  32.208  44.071  1.00  0.00     0.210 HD
ENDBRANCH   7  28
BRANCH  25  30
ATOM     30  O   UNL     1     -10.175  21.237  40.455  1.00  0.00    -0.393 OA
ATOM     31  H   UNL     1     -10.859  21.100  39.748  1.00  0.00     0.210 HD
ENDBRANCH  25  30
ENDBRANCH   2   6
ENDBRANCH   1   2
BRANCH   1  32
ATOM     32  C   UNL     1      -8.597  32.460  45.844  1.00  0.00     0.031 C 
BRANCH  32  33
ATOM     33  C   UNL     1      -7.461  32.235  44.870  1.00  0.00    -0.075 C 
ATOM     34  C   UNL     1      -6.497  31.349  45.178  1.00  0.00     0.008 C 
BRANCH  33  35
ATOM     35  C   UNL     1      -7.431  33.004  43.555  1.00  0.00     0.008 C 
ATOM     36  C   UNL     1      -8.809  33.023  42.884  1.00  0.00     0.012 C 
ATOM     37  C   UNL     1      -6.894  34.426  43.759  1.00  0.00     0.012 C 
ENDBRANCH  33  35
ENDBRANCH  32  33
ENDBRANCH   1  32
TORSDOF 8
ENDMDL
MODEL 3
REMARK VINA RESULT:    -5.441      2.265      4.176
REMARK INTER + INTRA:          -9.591
REMARK INTER:                  -7.784
REMARK INTRA:                  -1.806
REMARK UNBOUND:                -1.923
REMARK SMILES C=C(CC[C@@H](C(=O)[O-])[C@@H]1[C@@H](O)C[C@]2(C)C3=C(CC[C@@]12C)[C@@]1(C)CC[C@@H](O)C(C)(C)[C@H]1CC3)C(C)C
REMARK SMILES IDX 4 1 5 2 6 3 7 4 8 5 9 6 10 7 19 8 12 9 13 10 18 11 20 12
REMARK SMILES IDX 14 13 15 14 17 15 16 16 32 17 21 18 31 19 30 20 23 21 22 22
REMARK SMILES IDX 27 23 24 24 25 25 28 26 29 27 11 28 26 30 3 32 2 33 1 34
REMARK SMILES IDX 33 35 34 36 35 37
REMARK H PARENT 11 29 26 31
REMARK Flexibility Score: inf
ROOT
ATOM      1  C   UNL     1       1.996  29.861  42.767  1.00  0.00     0.014 C 
ENDROOT
BRANCH   1   2
ATOM      2  C   UNL     1       0.500  29.751  42.363  1.00  0.00     0.042 C 
BRANCH   2   3
ATOM      3  C   UNL     1       0.293  28.710  41.280  1.00  0.00     0.045 C 
ATOM      4  O   UNL     1       0.105  29.080  40.090  1.00  0.00    -0.550 OA
ATOM      5  O   UNL     1       0.381  27.351  41.549  1.00  0.00    -0.550 OA
ENDBRANCH   2   3
BRANCH   2   6
ATOM      6  C   UNL     1      -0.481  29.715  43.599  1.00  0.00     0.033 C 
ATOM      7  C   UNL     1      -1.357  28.442  43.806  1.00  0.00     0.119 C 
ATOM      8  C   UNL     1      -1.510  30.880  43.713  1.00  0.00    -0.017 C 
ATOM      9  C   UNL     1      -2.684  28.915  44.455  1.00  0.00     0.043 C 
ATOM     10  C   UNL     1      -2.451  30.389  44.851  1.00  0.00    -0.003 C 
ATOM     11  C   UNL     1      -0.942  32.245  44.136  1.00  0.00     0.012 C 
ATOM     12  C   UNL     1      -2.264  31.060  42.348  1.00  0.00     0.013 C 
ATOM     13  C   UNL     1      -1.835  30.410  46.291  1.00  0.00     0.017 C 
ATOM     14  C   UNL     1      -3.659  31.313  44.937  1.00  0.00    -0.064 C 
ATOM     15  C   UNL     1      -2.085  33.250  44.457  1.00  0.00     0.032 C 
ATOM     16  C   UNL     1      -3.469  32.671  44.863  1.00  0.00    -0.064 C 
ATOM     17  C   UNL     1      -5.004  30.757  45.319  1.00  0.00     0.032 C 
ATOM     18  C   UNL     1      -4.606  33.665  45.264  1.00  0.00    -0.008 C 
ATOM     19  C   UNL     1      -6.081  31.587  44.646  1.00  0.00     0.009 C 
ATOM     20  C   UNL     1      -6.071  33.013  45.237  1.00  0.00     0.007 C 
ATOM     21  C   UNL     1      -4.536  34.916  44.340  1.00  0.00     0.014 C 
ATOM     22  C   UNL     1      -4.276  34.109  46.714  1.00  0.00     0.016 C 
ATOM     23  C   UNL     1      -7.240  33.915  44.653  1.00  0.00    -0.006 C 
ATOM     24  C   UNL     1      -5.661  35.952  44.519  1.00  0.00     0.033 C 
ATOM     25  C   UNL     1      -6.989  35.392  45.059  1.00  0.00     0.120 C 
ATOM     26  C   UNL     1      -8.594  33.479  45.282  1.00  0.00     0.014 C 
ATOM     27  C   UNL     1      -7.395  33.788  43.109  1.00  0.00     0.014 C 
BRANCH   7  28
ATOM     28  O   UNL     1      -0.715  27.471  44.596  1.00  0.00    -0.393 OA
ATOM     29  H   UNL     1       0.053  27.897  45.055  1.00  0.00     0.210 HD
ENDBRANCH   7  28
BRANCH  25  30
ATOM     30  O   UNL     1      -8.049  36.213  44.633  1.00  0.00    -0.393 OA
ATOM     31  H   UNL     1      -8.645  35.650  44.073  1.00  0.00     0.210 HD
ENDBRANCH  25  30
ENDBRANCH   2   6
ENDBRANCH   1   2
BRANCH   1  32
ATOM     32  C   UNL     1       2.402  31.177  43.455  1.00  0.00     0.031 C 
BRANCH  32  33
ATOM     33  C   UNL     1       2.516  30.995  44.952  1.00  0.00    -0.075 C 
ATOM     34  C   UNL     1       2.390  32.066  45.757  1.00  0.00     0.008 C 
BRANCH  33  35
ATOM     35  C   UNL     1       2.761  29.606  45.527  1.00  0.00     0.008 C 
ATOM     36  C   UNL     1       4.187  29.466  46.071  1.00  0.00     0.012 C 
ATOM     37  C   UNL     1       1.721  29.259  46.600  1.00  0.00     0.012 C 
ENDBRANCH  33  35
ENDBRANCH  32  33
ENDBRANCH   1  32
TORSDOF 8
ENDMDL
MODEL 4
REMARK VINA RESULT:    -5.403      5.584      9.426
REMARK INTER + INTRA:          -9.538
REMARK INTER:                  -7.617
REMARK INTRA:                  -1.921
REMARK UNBOUND:                -1.923
REMARK SMILES C=C(CC[C@@H](C(=O)[O-])[C@@H]1[C@@H](O)C[C@]2(C)C3=C(CC[C@@]12C)[C@@]1(C)CC[C@@H](O)C(C)(C)[C@H]1CC3)C(C)C
REMARK SMILES IDX 4 1 5 2 6 3 7 4 8 5 9 6 10 7 19 8 12 9 13 10 18 11 20 12
REMARK SMILES IDX 14 13 15 14 17 15 16 16 32 17 21 18 31 19 30 20 23 21 22 22
REMARK SMILES IDX 27 23 24 24 25 25 28 26 29 27 11 28 26 30 3 32 2 33 1 34
REMARK SMILES IDX 33 35 34 36 35 37
REMARK H PARENT 11 29 26 31
REMARK Flexibility Score: inf
ROOT
ATOM      1  C   UNL     1      -6.004  37.156  43.856  1.00  0.00     0.014 C 
ENDROOT
BRANCH   1   2
ATOM      2  C   UNL     1      -5.236  37.981  44.925  1.00  0.00     0.042 C 
BRANCH   2   3
ATOM      3  C   UNL     1      -5.245  39.461  44.595  1.00  0.00     0.045 C 
ATOM      4  O   UNL     1      -4.177  40.125  44.687  1.00  0.00    -0.550 OA
ATOM      5  O   UNL     1      -6.384  40.094  44.118  1.00  0.00    -0.550 OA
ENDBRANCH   2   3
BRANCH   2   6
ATOM      6  C   UNL     1      -5.587  37.567  46.407  1.00  0.00     0.033 C 
ATOM      7  C   UNL     1      -6.077  38.678  47.385  1.00  0.00     0.119 C 
ATOM      8  C   UNL     1      -4.470  36.844  47.218  1.00  0.00    -0.017 C 
ATOM      9  C   UNL     1      -5.581  38.278  48.799  1.00  0.00     0.043 C 
ATOM     10  C   UNL     1      -5.052  36.834  48.662  1.00  0.00    -0.003 C 
ATOM     11  C   UNL     1      -4.182  35.386  46.823  1.00  0.00     0.012 C 
ATOM     12  C   UNL     1      -3.130  37.656  47.119  1.00  0.00     0.013 C 
ATOM     13  C   UNL     1      -6.253  35.857  48.896  1.00  0.00     0.017 C 
ATOM     14  C   UNL     1      -3.978  36.363  49.633  1.00  0.00    -0.064 C 
ATOM     15  C   UNL     1      -3.241  34.703  47.855  1.00  0.00     0.032 C 
ATOM     16  C   UNL     1      -3.198  35.285  49.296  1.00  0.00    -0.064 C 
ATOM     17  C   UNL     1      -3.925  36.930  51.026  1.00  0.00     0.032 C 
ATOM     18  C   UNL     1      -2.317  34.564  50.367  1.00  0.00    -0.008 C 
ATOM     19  C   UNL     1      -2.483  36.923  51.498  1.00  0.00     0.009 C 
ATOM     20  C   UNL     1      -2.003  35.465  51.656  1.00  0.00     0.007 C 
ATOM     21  C   UNL     1      -1.000  34.075  49.695  1.00  0.00     0.014 C 
ATOM     22  C   UNL     1      -3.134  33.319  50.806  1.00  0.00     0.016 C 
ATOM     23  C   UNL     1      -0.532  35.376  52.244  1.00  0.00    -0.006 C 
ATOM     24  C   UNL     1       0.042  33.442  50.634  1.00  0.00     0.033 C 
ATOM     25  C   UNL     1      -0.016  33.919  52.096  1.00  0.00     0.120 C 
ATOM     26  C   UNL     1      -0.559  35.712  53.763  1.00  0.00     0.014 C 
ATOM     27  C   UNL     1       0.455  36.378  51.576  1.00  0.00     0.014 C 
BRANCH   7  28
ATOM     28  O   UNL     1      -7.475  38.840  47.356  1.00  0.00    -0.393 OA
ATOM     29  H   UNL     1      -7.809  38.532  46.476  1.00  0.00     0.210 HD
ENDBRANCH   7  28
BRANCH  25  30
ATOM     30  O   UNL     1       1.254  33.778  52.684  1.00  0.00    -0.393 OA
ATOM     31  H   UNL     1       1.731  33.069  52.178  1.00  0.00     0.210 HD
ENDBRANCH  25  30
ENDBRANCH   2   6
ENDBRANCH   1   2
BRANCH   1  32
ATOM     32  C   UNL     1      -7.382  36.625  44.294  1.00  0.00     0.031 C 
BRANCH  32  33
ATOM     33  C   UNL     1      -7.360  35.121  44.452  1.00  0.00    -0.075 C 
ATOM     34  C   UNL     1      -7.708  34.578  45.632  1.00  0.00     0.008 C 
BRANCH  33  35
ATOM     35  C   UNL     1      -6.954  34.244  43.274  1.00  0.00     0.008 C 
ATOM     36  C   UNL     1      -5.713  33.406  43.598  1.00  0.00     0.012 C 
ATOM     37  C   UNL     1      -8.119  33.357  42.817  1.00  0.00     0.012 C 
ENDBRANCH  33  35
ENDBRANCH  32  33
ENDBRANCH   1  32
TORSDOF 8
ENDMDL
MODEL 5
REMARK VINA RESULT:    -5.302      2.640      3.840
REMARK INTER + INTRA:          -9.395
REMARK INTER:                  -8.103
REMARK INTRA:                  -1.292
REMARK UNBOUND:                -1.923
REMARK SMILES C=C(CC[C@@H](C(=O)[O-])[C@@H]1[C@@H](O)C[C@]2(C)C3=C(CC[C@@]12C)[C@@]1(C)CC[C@@H](O)C(C)(C)[C@H]1CC3)C(C)C
REMARK SMILES IDX 4 1 5 2 6 3 7 4 8 5 9 6 10 7 19 8 12 9 13 10 18 11 20 12
REMARK SMILES IDX 14 13 15 14 17 15 16 16 32 17 21 18 31 19 30 20 23 21 22 22
REMARK SMILES IDX 27 23 24 24 25 25 28 26 29 27 11 28 26 30 3 32 2 33 1 34
REMARK SMILES IDX 33 35 34 36 35 37
REMARK H PARENT 11 29 26 31
REMARK Flexibility Score: inf
ROOT
ATOM      1  C   UNL     1      -1.224  28.512  43.360  1.00  0.00     0.014 C 
ENDROOT
BRANCH   1   2
ATOM      2  C   UNL     1      -2.426  29.154  44.106  1.00  0.00     0.042 C 
BRANCH   2   3
ATOM      3  C   UNL     1      -3.246  28.109  44.839  1.00  0.00     0.045 C 
ATOM      4  O   UNL     1      -4.503  28.194  44.840  1.00  0.00    -0.550 OA
ATOM      5  O   UNL     1      -2.651  27.012  45.447  1.00  0.00    -0.550 OA
ENDBRANCH   2   3
BRANCH   2   6
ATOM      6  C   UNL     1      -2.044  30.462  44.900  1.00  0.00     0.033 C 
ATOM      7  C   UNL     1      -2.397  30.532  46.417  1.00  0.00     0.119 C 
ATOM      8  C   UNL     1      -2.595  31.809  44.343  1.00  0.00    -0.017 C 
ATOM      9  C   UNL     1      -2.697  32.020  46.738  1.00  0.00     0.043 C 
ATOM     10  C   UNL     1      -2.261  32.811  45.486  1.00  0.00    -0.003 C 
ATOM     11  C   UNL     1      -1.932  32.332  43.058  1.00  0.00     0.012 C 
ATOM     12  C   UNL     1      -4.140  31.687  44.087  1.00  0.00     0.013 C 
ATOM     13  C   UNL     1      -0.745  33.168  45.646  1.00  0.00     0.017 C 
ATOM     14  C   UNL     1      -2.941  34.143  45.201  1.00  0.00    -0.064 C 
ATOM     15  C   UNL     1      -2.387  33.786  42.746  1.00  0.00     0.032 C 
ATOM     16  C   UNL     1      -2.902  34.655  43.927  1.00  0.00    -0.064 C 
ATOM     17  C   UNL     1      -3.451  34.985  46.339  1.00  0.00     0.032 C 
ATOM     18  C   UNL     1      -3.290  36.143  43.646  1.00  0.00    -0.008 C 
ATOM     19  C   UNL     1      -4.651  35.777  45.857  1.00  0.00     0.009 C 
ATOM     20  C   UNL     1      -4.196  36.800  44.794  1.00  0.00     0.007 C 
ATOM     21  C   UNL     1      -3.996  36.231  42.262  1.00  0.00     0.014 C 
ATOM     22  C   UNL     1      -1.945  36.913  43.560  1.00  0.00     0.016 C 
ATOM     23  C   UNL     1      -5.383  37.739  44.314  1.00  0.00    -0.006 C 
ATOM     24  C   UNL     1      -4.553  37.612  41.874  1.00  0.00     0.033 C 
ATOM     25  C   UNL     1      -4.927  38.525  43.055  1.00  0.00     0.120 C 
ATOM     26  C   UNL     1      -5.705  38.778  45.425  1.00  0.00     0.014 C 
ATOM     27  C   UNL     1      -6.699  36.958  44.028  1.00  0.00     0.014 C 
BRANCH   7  28
ATOM     28  O   UNL     1      -1.367  30.028  47.233  1.00  0.00    -0.393 OA
ATOM     29  H   UNL     1      -1.643  30.118  48.180  1.00  0.00     0.210 HD
ENDBRANCH   7  28
BRANCH  25  30
ATOM     30  O   UNL     1      -5.922  39.432  42.647  1.00  0.00    -0.393 OA
ATOM     31  H   UNL     1      -5.637  39.800  41.770  1.00  0.00     0.210 HD
ENDBRANCH  25  30
ENDBRANCH   2   6
ENDBRANCH   1   2
BRANCH   1  32
ATOM     32  C   UNL     1      -1.106  28.864  41.866  1.00  0.00     0.031 C 
BRANCH  32  33
ATOM     33  C   UNL     1       0.155  28.281  41.268  1.00  0.00    -0.075 C 
ATOM     34  C   UNL     1       0.229  26.955  41.053  1.00  0.00     0.008 C 
BRANCH  33  35
ATOM     35  C   UNL     1       1.316  29.201  40.910  1.00  0.00     0.008 C 
ATOM     36  C   UNL     1       0.864  30.347  39.999  1.00  0.00     0.012 C 
ATOM     37  C   UNL     1       2.008  29.734  42.171  1.00  0.00     0.012 C 
ENDBRANCH  33  35
ENDBRANCH  32  33
ENDBRANCH   1  32
TORSDOF 8
ENDMDL
MODEL 6
REMARK VINA RESULT:    -5.296      4.826      8.163
REMARK INTER + INTRA:          -9.387
REMARK INTER:                  -7.302
REMARK INTRA:                  -2.084
REMARK UNBOUND:                -1.923
REMARK SMILES C=C(CC[C@@H](C(=O)[O-])[C@@H]1[C@@H](O)C[C@]2(C)C3=C(CC[C@@]12C)[C@@]1(C)CC[C@@H](O)C(C)(C)[C@H]1CC3)C(C)C
REMARK SMILES IDX 4 1 5 2 6 3 7 4 8 5 9 6 10 7 19 8 12 9 13 10 18 11 20 12
REMARK SMILES IDX 14 13 15 14 17 15 16 16 32 17 21 18 31 19 30 20 23 21 22 22
REMARK SMILES IDX 27 23 24 24 25 25 28 26 29 27 11 28 26 30 3 32 2 33 1 34
REMARK SMILES IDX 33 35 34 36 35 37
REMARK H PARENT 11 29 26 31
REMARK Flexibility Score: inf
ROOT
ATOM      1  C   UNL     1      -4.822  37.695  43.029  1.00  0.00     0.014 C 
ENDROOT
BRANCH   1   2
ATOM      2  C   UNL     1      -4.581  36.204  42.663  1.00  0.00     0.042 C 
BRANCH   2   3
ATOM      3  C   UNL     1      -3.350  36.040  41.792  1.00  0.00     0.045 C 
ATOM      4  O   UNL     1      -3.405  35.303  40.771  1.00  0.00    -0.550 OA
ATOM      5  O   UNL     1      -2.179  36.742  42.045  1.00  0.00    -0.550 OA
ENDBRANCH   2   3
BRANCH   2   6
ATOM      6  C   UNL     1      -4.735  35.225  43.891  1.00  0.00     0.033 C 
ATOM      7  C   UNL     1      -3.556  34.258  44.213  1.00  0.00     0.119 C 
ATOM      8  C   UNL     1      -5.978  34.286  43.889  1.00  0.00    -0.017 C 
ATOM      9  C   UNL     1      -4.186  32.970  44.808  1.00  0.00     0.043 C 
ATOM     10  C   UNL     1      -5.669  33.312  45.063  1.00  0.00    -0.003 C 
ATOM     11  C   UNL     1      -7.332  34.954  44.184  1.00  0.00     0.012 C 
ATOM     12  C   UNL     1      -6.083  33.545  42.509  1.00  0.00     0.013 C 
ATOM     13  C   UNL     1      -5.781  33.930  46.497  1.00  0.00     0.017 C 
ATOM     14  C   UNL     1      -6.683  32.177  45.054  1.00  0.00    -0.064 C 
ATOM     15  C   UNL     1      -8.444  33.890  44.402  1.00  0.00     0.032 C 
ATOM     16  C   UNL     1      -8.010  32.467  44.853  1.00  0.00    -0.064 C 
ATOM     17  C   UNL     1      -6.267  30.795  45.479  1.00  0.00     0.032 C 
ATOM     18  C   UNL     1      -9.119  31.407  45.151  1.00  0.00    -0.008 C 
ATOM     19  C   UNL     1      -7.108  29.781  44.725  1.00  0.00     0.009 C 
ATOM     20  C   UNL     1      -8.579  29.898  45.178  1.00  0.00     0.007 C 
ATOM     21  C   UNL     1     -10.269  31.568  44.113  1.00  0.00     0.014 C 
ATOM     22  C   UNL     1      -9.673  31.771  46.555  1.00  0.00     0.016 C 
ATOM     23  C   UNL     1      -9.505  28.798  44.505  1.00  0.00    -0.006 C 
ATOM     24  C   UNL     1     -11.397  30.524  44.187  1.00  0.00     0.033 C 
ATOM     25  C   UNL     1     -10.991  29.159  44.770  1.00  0.00     0.120 C 
ATOM     26  C   UNL     1      -9.232  27.416  45.164  1.00  0.00     0.014 C 
ATOM     27  C   UNL     1      -9.244  28.633  42.979  1.00  0.00     0.014 C 
BRANCH   7  28
ATOM     28  O   UNL     1      -2.619  34.827  45.096  1.00  0.00    -0.393 OA
ATOM     29  H   UNL     1      -3.093  35.104  45.921  1.00  0.00     0.210 HD
ENDBRANCH   7  28
BRANCH  25  30
ATOM     30  O   UNL     1     -11.844  28.162  44.263  1.00  0.00    -0.393 OA
ATOM     31  H   UNL     1     -12.685  28.205  44.788  1.00  0.00     0.210 HD
ENDBRANCH  25  30
ENDBRANCH   2   6
ENDBRANCH   1   2
BRANCH   1  32
ATOM     32  C   UNL     1      -5.156  37.968  44.507  1.00  0.00     0.031 C 
BRANCH  32  33
ATOM     33  C   UNL     1      -6.489  38.673  44.642  1.00  0.00    -0.075 C 
ATOM     34  C   UNL     1      -6.920  39.461  43.641  1.00  0.00     0.008 C 
BRANCH  33  35
ATOM     35  C   UNL     1      -7.324  38.472  45.900  1.00  0.00     0.008 C 
ATOM     36  C   UNL     1      -8.743  38.001  45.563  1.00  0.00     0.012 C 
ATOM     37  C   UNL     1      -6.636  37.506  46.873  1.00  0.00     0.012 C 
ENDBRANCH  33  35
ENDBRANCH  32  33
ENDBRANCH   1  32
TORSDOF 8
ENDMDL
MODEL 7
REMARK VINA RESULT:    -5.211      2.576      8.646
REMARK INTER + INTRA:          -9.266
REMARK INTER:                  -7.497
REMARK INTRA:                  -1.769
REMARK UNBOUND:                -1.923
REMARK SMILES C=C(CC[C@@H](C(=O)[O-])[C@@H]1[C@@H](O)C[C@]2(C)C3=C(CC[C@@]12C)[C@@]1(C)CC[C@@H](O)C(C)(C)[C@H]1CC3)C(C)C
REMARK SMILES IDX 4 1 5 2 6 3 7 4 8 5 9 6 10 7 19 8 12 9 13 10 18 11 20 12
REMARK SMILES IDX 14 13 15 14 17 15 16 16 32 17 21 18 31 19 30 20 23 21 22 22
REMARK SMILES IDX 27 23 24 24 25 25 28 26 29 27 11 28 26 30 3 32 2 33 1 34
REMARK SMILES IDX 33 35 34 36 35 37
REMARK H PARENT 11 29 26 31
REMARK Flexibility Score: inf
ROOT
ATOM      1  C   UNL     1      -6.928  36.506  44.003  1.00  0.00     0.014 C 
ENDROOT
BRANCH   1   2
ATOM      2  C   UNL     1      -5.493  36.671  43.431  1.00  0.00     0.042 C 
BRANCH   2   3
ATOM      3  C   UNL     1      -5.251  38.085  42.939  1.00  0.00     0.045 C 
ATOM      4  O   UNL     1      -4.638  38.270  41.854  1.00  0.00    -0.550 OA
ATOM      5  O   UNL     1      -5.757  39.188  43.615  1.00  0.00    -0.550 OA
ENDBRANCH   2   3
BRANCH   2   6
ATOM      6  C   UNL     1      -4.378  36.019  44.338  1.00  0.00     0.033 C 
ATOM      7  C   UNL     1      -3.112  36.867  44.671  1.00  0.00     0.119 C 
ATOM      8  C   UNL     1      -3.783  34.663  43.855  1.00  0.00    -0.017 C 
ATOM      9  C   UNL     1      -1.931  35.870  44.804  1.00  0.00     0.043 C 
ATOM     10  C   UNL     1      -2.570  34.465  44.810  1.00  0.00    -0.003 C 
ATOM     11  C   UNL     1      -4.695  33.433  44.000  1.00  0.00     0.012 C 
ATOM     12  C   UNL     1      -3.347  34.778  42.350  1.00  0.00     0.013 C 
ATOM     13  C   UNL     1      -2.932  34.107  46.291  1.00  0.00     0.017 C 
ATOM     14  C   UNL     1      -1.734  33.289  44.323  1.00  0.00    -0.064 C 
ATOM     15  C   UNL     1      -3.910  32.119  43.725  1.00  0.00     0.032 C 
ATOM     16  C   UNL     1      -2.368  32.141  43.917  1.00  0.00    -0.064 C 
ATOM     17  C   UNL     1      -0.240  33.308  44.497  1.00  0.00     0.032 C 
ATOM     18  C   UNL     1      -1.572  30.810  43.720  1.00  0.00    -0.008 C 
ATOM     19  C   UNL     1       0.389  32.513  43.368  1.00  0.00     0.009 C 
ATOM     20  C   UNL     1       0.003  31.026  43.512  1.00  0.00     0.007 C 
ATOM     21  C   UNL     1      -2.188  30.021  42.527  1.00  0.00     0.014 C 
ATOM     22  C   UNL     1      -1.804  29.992  45.019  1.00  0.00     0.016 C 
ATOM     23  C   UNL     1       0.708  30.112  42.422  1.00  0.00    -0.006 C 
ATOM     24  C   UNL     1      -1.452  28.734  42.116  1.00  0.00     0.033 C 
ATOM     25  C   UNL     1       0.052  28.705  42.441  1.00  0.00     0.120 C 
ATOM     26  C   UNL     1       2.210  29.934  42.787  1.00  0.00     0.014 C 
ATOM     27  C   UNL     1       0.658  30.722  40.990  1.00  0.00     0.014 C 
BRANCH   7  28
ATOM     28  O   UNL     1      -3.272  37.634  45.839  1.00  0.00    -0.393 OA
ATOM     29  H   UNL     1      -3.352  37.018  46.611  1.00  0.00     0.210 HD
ENDBRANCH   7  28
BRANCH  25  30
ATOM     30  O   UNL     1       0.706  27.838  41.547  1.00  0.00    -0.393 OA
ATOM     31  H   UNL     1       0.924  27.012  42.052  1.00  0.00     0.210 HD
ENDBRANCH  25  30
ENDBRANCH   2   6
ENDBRANCH   1   2
BRANCH   1  32
ATOM     32  C   UNL     1      -7.011  36.252  45.519  1.00  0.00     0.031 C 
BRANCH  32  33
ATOM     33  C   UNL     1      -7.557  37.463  46.244  1.00  0.00    -0.075 C 
ATOM     34  C   UNL     1      -8.668  38.061  45.780  1.00  0.00     0.008 C 
BRANCH  33  35
ATOM     35  C   UNL     1      -6.848  37.979  47.489  1.00  0.00     0.008 C 
ATOM     36  C   UNL     1      -5.927  36.914  48.094  1.00  0.00     0.012 C 
ATOM     37  C   UNL     1      -6.079  39.273  47.192  1.00  0.00     0.012 C 
ENDBRANCH  33  35
ENDBRANCH  32  33
ENDBRANCH   1  32
TORSDOF 8
ENDMDL
MODEL 8
REMARK VINA RESULT:    -5.103      5.452      9.323
REMARK INTER + INTRA:          -9.114
REMARK INTER:                  -7.263
REMARK INTRA:                  -1.851
REMARK UNBOUND:                -1.923
REMARK SMILES C=C(CC[C@@H](C(=O)[O-])[C@@H]1[C@@H](O)C[C@]2(C)C3=C(CC[C@@]12C)[C@@]1(C)CC[C@@H](O)C(C)(C)[C@H]1CC3)C(C)C
REMARK SMILES IDX 4 1 5 2 6 3 7 4 8 5 9 6 10 7 19 8 12 9 13 10 18 11 20 12
REMARK SMILES IDX 14 13 15 14 17 15 16 16 32 17 21 18 31 19 30 20 23 21 22 22
REMARK SMILES IDX 27 23 24 24 25 25 28 26 29 27 11 28 26 30 3 32 2 33 1 34
REMARK SMILES IDX 33 35 34 36 35 37
REMARK H PARENT 11 29 26 31
REMARK Flexibility Score: inf
ROOT
ATOM      1  C   UNL     1      -7.729  36.268  45.491  1.00  0.00     0.014 C 
ENDROOT
BRANCH   1   2
ATOM      2  C   UNL     1      -6.318  36.874  45.254  1.00  0.00     0.042 C 
BRANCH   2   3
ATOM      3  C   UNL     1      -6.239  37.591  43.920  1.00  0.00     0.045 C 
ATOM      4  O   UNL     1      -5.465  37.157  43.026  1.00  0.00    -0.550 OA
ATOM      5  O   UNL     1      -7.057  38.674  43.626  1.00  0.00    -0.550 OA
ENDBRANCH   2   3
BRANCH   2   6
ATOM      6  C   UNL     1      -5.739  37.624  46.516  1.00  0.00     0.033 C 
ATOM      7  C   UNL     1      -5.040  39.001  46.296  1.00  0.00     0.119 C 
ATOM      8  C   UNL     1      -4.717  36.840  47.392  1.00  0.00    -0.017 C 
ATOM      9  C   UNL     1      -3.930  39.114  47.374  1.00  0.00     0.043 C 
ATOM     10  C   UNL     1      -4.175  37.943  48.348  1.00  0.00    -0.003 C 
ATOM     11  C   UNL     1      -5.296  35.713  48.263  1.00  0.00     0.012 C 
ATOM     12  C   UNL     1      -3.591  36.232  46.482  1.00  0.00     0.013 C 
ATOM     13  C   UNL     1      -5.177  38.431  49.447  1.00  0.00     0.017 C 
ATOM     14  C   UNL     1      -2.988  37.391  49.128  1.00  0.00    -0.064 C 
ATOM     15  C   UNL     1      -4.235  35.181  49.267  1.00  0.00     0.032 C 
ATOM     16  C   UNL     1      -3.064  36.127  49.657  1.00  0.00    -0.064 C 
ATOM     17  C   UNL     1      -1.848  38.299  49.499  1.00  0.00     0.032 C 
ATOM     18  C   UNL     1      -2.032  35.637  50.722  1.00  0.00    -0.008 C 
ATOM     19  C   UNL     1      -0.573  37.478  49.558  1.00  0.00     0.009 C 
ATOM     20  C   UNL     1      -0.664  36.475  50.727  1.00  0.00     0.007 C 
ATOM     21  C   UNL     1      -1.755  34.121  50.503  1.00  0.00     0.014 C 
ATOM     22  C   UNL     1      -2.737  35.812  52.094  1.00  0.00     0.016 C 
ATOM     23  C   UNL     1       0.677  35.647  50.916  1.00  0.00    -0.006 C 
ATOM     24  C   UNL     1      -0.668  33.497  51.396  1.00  0.00     0.033 C 
ATOM     25  C   UNL     1       0.411  34.473  51.897  1.00  0.00     0.120 C 
ATOM     26  C   UNL     1       1.763  36.557  51.557  1.00  0.00     0.014 C 
ATOM     27  C   UNL     1       1.261  35.119  49.573  1.00  0.00     0.014 C 
BRANCH   7  28
ATOM     28  O   UNL     1      -5.942  40.079  46.371  1.00  0.00    -0.393 OA
ATOM     29  H   UNL     1      -6.128  40.396  45.451  1.00  0.00     0.210 HD
ENDBRANCH   7  28
BRANCH  25  30
ATOM     30  O   UNL     1       1.598  33.763  52.158  1.00  0.00    -0.393 OA
ATOM     31  H   UNL     1       1.479  33.311  53.033  1.00  0.00     0.210 HD
ENDBRANCH  25  30
ENDBRANCH   2   6
ENDBRANCH   1   2
BRANCH   1  32
ATOM     32  C   UNL     1      -7.758  34.765  45.823  1.00  0.00     0.031 C 
BRANCH  32  33
ATOM     33  C   UNL     1      -6.895  33.979  44.860  1.00  0.00    -0.075 C 
ATOM     34  C   UNL     1      -5.851  33.277  45.336  1.00  0.00     0.008 C 
BRANCH  33  35
ATOM     35  C   UNL     1      -7.225  33.987  43.373  1.00  0.00     0.008 C 
ATOM     36  C   UNL     1      -5.999  33.634  42.524  1.00  0.00     0.012 C 
ATOM     37  C   UNL     1      -8.402  33.054  43.062  1.00  0.00     0.012 C 
ENDBRANCH  33  35
ENDBRANCH  32  33
ENDBRANCH   1  32
TORSDOF 8
ENDMDL
MODEL 9
REMARK VINA RESULT:    -4.310      4.121      7.851
REMARK INTER + INTRA:          -7.997
REMARK INTER:                  -6.028
REMARK INTRA:                  -1.969
REMARK UNBOUND:                -1.923
REMARK SMILES C=C(CC[C@@H](C(=O)[O-])[C@@H]1[C@@H](O)C[C@]2(C)C3=C(CC[C@@]12C)[C@@]1(C)CC[C@@H](O)C(C)(C)[C@H]1CC3)C(C)C
REMARK SMILES IDX 4 1 5 2 6 3 7 4 8 5 9 6 10 7 19 8 12 9 13 10 18 11 20 12
REMARK SMILES IDX 14 13 15 14 17 15 16 16 32 17 21 18 31 19 30 20 23 21 22 22
REMARK SMILES IDX 27 23 24 24 25 25 28 26 29 27 11 28 26 30 3 32 2 33 1 34
REMARK SMILES IDX 33 35 34 36 35 37
REMARK H PARENT 11 29 26 31
REMARK Flexibility Score: inf
ROOT
ATOM      1  C   UNL     1      -4.748  37.971  42.048  1.00  0.00     0.014 C 
ENDROOT
BRANCH   1   2
ATOM      2  C   UNL     1      -5.243  38.036  43.519  1.00  0.00     0.042 C 
BRANCH   2   3
ATOM      3  C   UNL     1      -5.703  39.434  43.887  1.00  0.00     0.045 C 
ATOM      4  O   UNL     1      -5.014  40.125  44.684  1.00  0.00    -0.550 OA
ATOM      5  O   UNL     1      -6.828  40.007  43.310  1.00  0.00    -0.550 OA
ENDBRANCH   2   3
BRANCH   2   6
ATOM      6  C   UNL     1      -6.187  36.835  43.915  1.00  0.00     0.033 C 
ATOM      7  C   UNL     1      -7.308  37.097  44.967  1.00  0.00     0.119 C 
ATOM      8  C   UNL     1      -5.495  35.543  44.444  1.00  0.00    -0.017 C 
ATOM      9  C   UNL     1      -7.504  35.771  45.748  1.00  0.00     0.043 C 
ATOM     10  C   UNL     1      -6.697  34.708  44.973  1.00  0.00    -0.003 C 
ATOM     11  C   UNL     1      -4.762  34.690  43.396  1.00  0.00     0.012 C 
ATOM     12  C   UNL     1      -4.476  35.912  45.581  1.00  0.00     0.013 C 
ATOM     13  C   UNL     1      -7.631  34.101  43.873  1.00  0.00     0.017 C 
ATOM     14  C   UNL     1      -6.171  33.501  45.739  1.00  0.00    -0.064 C 
ATOM     15  C   UNL     1      -4.335  33.318  43.991  1.00  0.00     0.032 C 
ATOM     16  C   UNL     1      -5.127  32.779  45.215  1.00  0.00    -0.064 C 
ATOM     17  C   UNL     1      -6.927  32.981  46.932  1.00  0.00     0.032 C 
ATOM     18  C   UNL     1      -4.762  31.368  45.778  1.00  0.00    -0.008 C 
ATOM     19  C   UNL     1      -5.937  32.361  47.900  1.00  0.00     0.009 C 
ATOM     20  C   UNL     1      -5.314  31.103  47.260  1.00  0.00     0.007 C 
ATOM     21  C   UNL     1      -3.218  31.179  45.717  1.00  0.00     0.014 C 
ATOM     22  C   UNL     1      -5.418  30.352  44.804  1.00  0.00     0.016 C 
ATOM     23  C   UNL     1      -4.341  30.340  48.255  1.00  0.00    -0.006 C 
ATOM     24  C   UNL     1      -2.670  29.884  46.341  1.00  0.00     0.033 C 
ATOM     25  C   UNL     1      -3.536  29.276  47.459  1.00  0.00     0.120 C 
ATOM     26  C   UNL     1      -5.180  29.587  49.327  1.00  0.00     0.014 C 
ATOM     27  C   UNL     1      -3.379  31.296  49.020  1.00  0.00     0.014 C 
BRANCH   7  28
ATOM     28  O   UNL     1      -8.510  37.527  44.375  1.00  0.00    -0.393 OA
ATOM     29  H   UNL     1      -8.396  38.466  44.081  1.00  0.00     0.210 HD
ENDBRANCH   7  28
BRANCH  25  30
ATOM     30  O   UNL     1      -2.722  28.519  48.321  1.00  0.00    -0.393 OA
ATOM     31  H   UNL     1      -2.514  29.094  49.103  1.00  0.00     0.210 HD
ENDBRANCH  25  30
ENDBRANCH   2   6
ENDBRANCH   1   2
BRANCH   1  32
ATOM     32  C   UNL     1      -3.244  37.694  41.867  1.00  0.00     0.031 C 
BRANCH  32  33
ATOM     33  C   UNL     1      -3.013  36.554  40.900  1.00  0.00    -0.075 C 
ATOM     34  C   UNL     1      -3.871  36.373  39.879  1.00  0.00     0.008 C 
BRANCH  33  35
ATOM     35  C   UNL     1      -1.813  35.636  41.089  1.00  0.00     0.008 C 
ATOM     36  C   UNL     1      -1.301  35.671  42.533  1.00  0.00     0.012 C 
ATOM     37  C   UNL     1      -2.138  34.202  40.651  1.00  0.00     0.012 C 
ENDBRANCH  33  35
ENDBRANCH  32  33
ENDBRANCH   1  32
TORSDOF 8
ENDMDL
