MODEL 1
REMARK VINA RESULT:    -3.637      0.000      0.000
REMARK INTER + INTRA:          -5.895
REMARK INTER:                  -5.125
REMARK INTRA:                  -0.770
REMARK UNBOUND:                -0.770
REMARK SMILES CCCCCCCCC(=O)[O-]
REMARK SMILES IDX 6 1 7 2 8 3 9 4 10 5 11 6 5 7 4 8 3 9 2 10 1 11
REMARK H PARENT
REMARK Flexibility Score: inf
ROOT
ATOM      1  C   UNL     1     -11.187   3.711  16.010  1.00  0.00     0.000 C 
ENDROOT
BRANCH   1   2
ATOM      2  C   UNL     1     -10.020   2.791  15.624  1.00  0.00     0.006 C 
BRANCH   2   3
ATOM      3  C   UNL     1     -10.388   1.307  15.738  1.00  0.00     0.053 C 
BRANCH   3   4
ATOM      4  C   UNL     1     -10.404   0.634  14.399  1.00  0.00     0.041 C 
ATOM      5  O   UNL     1     -11.499   0.328  13.856  1.00  0.00    -0.550 OA
ATOM      6  O   UNL     1      -9.210   0.317  13.766  1.00  0.00    -0.550 OA
ENDBRANCH   3   4
ENDBRANCH   2   3
ENDBRANCH   1   2
BRANCH   1   7
ATOM      7  C   UNL     1     -12.360   2.903  16.576  1.00  0.00     0.000 C 
BRANCH   7   8
ATOM      8  C   UNL     1     -12.986   3.611  17.785  1.00  0.00    -0.000 C 
BRANCH   8   9
ATOM      9  C   UNL     1     -12.091   3.474  19.025  1.00  0.00    -0.000 C 
BRANCH   9  10
ATOM     10  C   UNL     1     -11.590   2.037  19.235  1.00  0.00    -0.003 C 
ATOM     11  C   UNL     1     -10.078   1.962  19.442  1.00  0.00     0.004 C 
ENDBRANCH   9  10
ENDBRANCH   8   9
ENDBRANCH   7   8
ENDBRANCH   1   7
TORSDOF 7
ENDMDL
MODEL 2
REMARK VINA RESULT:    -3.434      1.999      2.503
REMARK INTER + INTRA:          -5.610
REMARK INTER:                  -5.294
REMARK INTRA:                  -0.316
REMARK UNBOUND:                -0.770
REMARK SMILES CCCCCCCCC(=O)[O-]
REMARK SMILES IDX 6 1 7 2 8 3 9 4 10 5 11 6 5 7 4 8 3 9 2 10 1 11
REMARK H PARENT
REMARK Flexibility Score: inf
ROOT
ATOM      1  C   UNL     1      -9.848   2.701  15.764  1.00  0.00     0.000 C 
ENDROOT
BRANCH   1   2
ATOM      2  C   UNL     1      -9.861   1.182  15.538  1.00  0.00     0.006 C 
BRANCH   2   3
ATOM      3  C   UNL     1     -10.505   0.800  14.200  1.00  0.00     0.053 C 
BRANCH   3   4
ATOM      4  C   UNL     1     -11.949   0.434  14.363  1.00  0.00     0.041 C 
ATOM      5  O   UNL     1     -12.578   0.780  15.398  1.00  0.00    -0.550 OA
ATOM      6  O   UNL     1     -12.590  -0.318  13.387  1.00  0.00    -0.550 OA
ENDBRANCH   3   4
ENDBRANCH   2   3
ENDBRANCH   1   2
BRANCH   1   7
ATOM      7  C   UNL     1      -9.957   3.036  17.256  1.00  0.00     0.000 C 
BRANCH   7   8
ATOM      8  C   UNL     1     -10.307   1.789  18.078  1.00  0.00    -0.000 C 
BRANCH   8   9
ATOM      9  C   UNL     1      -9.304   1.587  19.224  1.00  0.00    -0.000 C 
BRANCH   9  10
ATOM     10  C   UNL     1      -9.881   0.743  20.370  1.00  0.00    -0.003 C 
ATOM     11  C   UNL     1      -9.199  -0.616  20.507  1.00  0.00     0.004 C 
ENDBRANCH   9  10
ENDBRANCH   8   9
ENDBRANCH   7   8
ENDBRANCH   1   7
TORSDOF 7
ENDMDL
MODEL 3
REMARK VINA RESULT:    -3.427      1.606      2.236
REMARK INTER + INTRA:          -5.600
REMARK INTER:                  -5.169
REMARK INTRA:                  -0.431
REMARK UNBOUND:                -0.770
REMARK SMILES CCCCCCCCC(=O)[O-]
REMARK SMILES IDX 6 1 7 2 8 3 9 4 10 5 11 6 5 7 4 8 3 9 2 10 1 11
REMARK H PARENT
REMARK Flexibility Score: inf
ROOT
ATOM      1  C   UNL     1      -9.616   2.447  15.444  1.00  0.00     0.000 C 
ENDROOT
BRANCH   1   2
ATOM      2  C   UNL     1     -10.168   1.016  15.527  1.00  0.00     0.006 C 
BRANCH   2   3
ATOM      3  C   UNL     1     -10.640   0.496  14.164  1.00  0.00     0.053 C 
BRANCH   3   4
ATOM      4  C   UNL     1     -12.086   0.105  14.189  1.00  0.00     0.041 C 
ATOM      5  O   UNL     1     -12.880   0.660  14.994  1.00  0.00    -0.550 OA
ATOM      6  O   UNL     1     -12.550  -0.896  13.346  1.00  0.00    -0.550 OA
ENDBRANCH   3   4
ENDBRANCH   2   3
ENDBRANCH   1   2
BRANCH   1   7
ATOM      7  C   UNL     1     -10.615   3.457  16.020  1.00  0.00     0.000 C 
BRANCH   7   8
ATOM      8  C   UNL     1     -11.488   2.813  17.104  1.00  0.00    -0.000 C 
BRANCH   8   9
ATOM      9  C   UNL     1     -12.873   3.474  17.159  1.00  0.00    -0.000 C 
BRANCH   9  10
ATOM     10  C   UNL     1     -13.261   3.913  18.580  1.00  0.00    -0.003 C 
ATOM     11  C   UNL     1     -12.190   3.577  19.616  1.00  0.00     0.004 C 
ENDBRANCH   9  10
ENDBRANCH   8   9
ENDBRANCH   7   8
ENDBRANCH   1   7
TORSDOF 7
ENDMDL
MODEL 4
REMARK VINA RESULT:    -3.418      1.474      2.458
REMARK INTER + INTRA:          -5.587
REMARK INTER:                  -5.149
REMARK INTRA:                  -0.437
REMARK UNBOUND:                -0.770
REMARK SMILES CCCCCCCCC(=O)[O-]
REMARK SMILES IDX 6 1 7 2 8 3 9 4 10 5 11 6 5 7 4 8 3 9 2 10 1 11
REMARK H PARENT
REMARK Flexibility Score: inf
ROOT
ATOM      1  C   UNL     1      -9.857   2.593  15.606  1.00  0.00     0.000 C 
ENDROOT
BRANCH   1   2
ATOM      2  C   UNL     1      -9.860   1.066  15.436  1.00  0.00     0.006 C 
BRANCH   2   3
ATOM      3  C   UNL     1     -10.495   0.631  14.110  1.00  0.00     0.053 C 
BRANCH   3   4
ATOM      4  C   UNL     1     -11.941   0.277  14.276  1.00  0.00     0.041 C 
ATOM      5  O   UNL     1     -12.547  -0.358  13.374  1.00  0.00    -0.550 OA
ATOM      6  O   UNL     1     -12.628   0.677  15.416  1.00  0.00    -0.550 OA
ENDBRANCH   3   4
ENDBRANCH   2   3
ENDBRANCH   1   2
BRANCH   1   7
ATOM      7  C   UNL     1      -9.712   2.982  17.082  1.00  0.00     0.000 C 
BRANCH   7   8
ATOM      8  C   UNL     1     -10.349   1.927  17.996  1.00  0.00    -0.000 C 
BRANCH   8   9
ATOM      9  C   UNL     1     -11.415   2.558  18.904  1.00  0.00    -0.000 C 
BRANCH   9  10
ATOM     10  C   UNL     1     -12.507   3.290  18.109  1.00  0.00    -0.003 C 
ATOM     11  C   UNL     1     -13.504   4.020  19.008  1.00  0.00     0.004 C 
ENDBRANCH   9  10
ENDBRANCH   8   9
ENDBRANCH   7   8
ENDBRANCH   1   7
TORSDOF 7
ENDMDL
MODEL 5
REMARK VINA RESULT:    -3.391      3.069      5.269
REMARK INTER + INTRA:          -5.549
REMARK INTER:                  -5.289
REMARK INTRA:                  -0.260
REMARK UNBOUND:                -0.770
REMARK SMILES CCCCCCCCC(=O)[O-]
REMARK SMILES IDX 6 1 7 2 8 3 9 4 10 5 11 6 5 7 4 8 3 9 2 10 1 11
REMARK H PARENT
REMARK Flexibility Score: inf
ROOT
ATOM      1  C   UNL     1      -9.879   1.505  15.801  1.00  0.00     0.000 C 
ENDROOT
BRANCH   1   2
ATOM      2  C   UNL     1      -9.833   2.962  16.286  1.00  0.00     0.006 C 
BRANCH   2   3
ATOM      3  C   UNL     1     -11.157   3.696  16.045  1.00  0.00     0.053 C 
BRANCH   3   4
ATOM      4  C   UNL     1     -11.848   4.031  17.332  1.00  0.00     0.041 C 
ATOM      5  O   UNL     1     -11.214   4.588  18.266  1.00  0.00    -0.550 OA
ATOM      6  O   UNL     1     -13.184   3.696  17.511  1.00  0.00    -0.550 OA
ENDBRANCH   3   4
ENDBRANCH   2   3
ENDBRANCH   1   2
BRANCH   1   7
ATOM      7  C   UNL     1     -11.268   1.151  15.256  1.00  0.00     0.000 C 
BRANCH   7   8
ATOM      8  C   UNL     1     -11.167   0.150  14.098  1.00  0.00    -0.000 C 
BRANCH   8   9
ATOM      9  C   UNL     1     -12.548  -0.120  13.483  1.00  0.00    -0.000 C 
BRANCH   9  10
ATOM     10  C   UNL     1     -13.045  -1.549  13.754  1.00  0.00    -0.003 C 
ATOM     11  C   UNL     1     -12.238  -2.607  13.004  1.00  0.00     0.004 C 
ENDBRANCH   9  10
ENDBRANCH   8   9
ENDBRANCH   7   8
ENDBRANCH   1   7
TORSDOF 7
ENDMDL
MODEL 6
REMARK VINA RESULT:    -3.315      2.551      4.335
REMARK INTER + INTRA:          -5.441
REMARK INTER:                  -4.808
REMARK INTRA:                  -0.633
REMARK UNBOUND:                -0.770
REMARK SMILES CCCCCCCCC(=O)[O-]
REMARK SMILES IDX 6 1 7 2 8 3 9 4 10 5 11 6 5 7 4 8 3 9 2 10 1 11
REMARK H PARENT
REMARK Flexibility Score: inf
ROOT
ATOM      1  C   UNL     1     -12.899   3.493  17.593  1.00  0.00     0.000 C 
ENDROOT
BRANCH   1   2
ATOM      2  C   UNL     1     -11.860   3.681  18.708  1.00  0.00     0.006 C 
BRANCH   2   3
ATOM      3  C   UNL     1     -11.452   2.350  19.352  1.00  0.00     0.053 C 
BRANCH   3   4
ATOM      4  C   UNL     1      -9.970   2.136  19.291  1.00  0.00     0.041 C 
ATOM      5  O   UNL     1      -9.500   0.971  19.206  1.00  0.00    -0.550 OA
ATOM      6  O   UNL     1      -9.107   3.223  19.363  1.00  0.00    -0.550 OA
ENDBRANCH   3   4
ENDBRANCH   2   3
ENDBRANCH   1   2
BRANCH   1   7
ATOM      7  C   UNL     1     -12.272   2.824  16.364  1.00  0.00     0.000 C 
BRANCH   7   8
ATOM      8  C   UNL     1     -10.996   3.555  15.929  1.00  0.00    -0.000 C 
BRANCH   8   9
ATOM      9  C   UNL     1      -9.863   2.559  15.640  1.00  0.00    -0.000 C 
BRANCH   9  10
ATOM     10  C   UNL     1     -10.387   1.166  15.256  1.00  0.00    -0.003 C 
ATOM     11  C   UNL     1      -9.557   0.504  14.158  1.00  0.00     0.004 C 
ENDBRANCH   9  10
ENDBRANCH   8   9
ENDBRANCH   7   8
ENDBRANCH   1   7
TORSDOF 7
ENDMDL
MODEL 7
REMARK VINA RESULT:    -3.307      2.065      2.848
REMARK INTER + INTRA:          -5.430
REMARK INTER:                  -5.033
REMARK INTRA:                  -0.397
REMARK UNBOUND:                -0.770
REMARK SMILES CCCCCCCCC(=O)[O-]
REMARK SMILES IDX 6 1 7 2 8 3 9 4 10 5 11 6 5 7 4 8 3 9 2 10 1 11
REMARK H PARENT
REMARK Flexibility Score: inf
ROOT
ATOM      1  C   UNL     1      -9.899   2.697  15.476  1.00  0.00     0.000 C 
ENDROOT
BRANCH   1   2
ATOM      2  C   UNL     1      -9.972   1.163  15.474  1.00  0.00     0.006 C 
BRANCH   2   3
ATOM      3  C   UNL     1     -10.576   0.612  14.176  1.00  0.00     0.053 C 
BRANCH   3   4
ATOM      4  C   UNL     1     -12.023   0.264  14.342  1.00  0.00     0.041 C 
ATOM      5  O   UNL     1     -12.665   0.680  15.342  1.00  0.00    -0.550 OA
ATOM      6  O   UNL     1     -12.654  -0.549  13.409  1.00  0.00    -0.550 OA
ENDBRANCH   3   4
ENDBRANCH   2   3
ENDBRANCH   1   2
BRANCH   1   7
ATOM      7  C   UNL     1     -10.134   3.257  16.883  1.00  0.00     0.000 C 
BRANCH   7   8
ATOM      8  C   UNL     1      -9.808   2.210  17.956  1.00  0.00    -0.000 C 
BRANCH   8   9
ATOM      9  C   UNL     1      -8.533   2.588  18.723  1.00  0.00    -0.000 C 
BRANCH   9  10
ATOM     10  C   UNL     1      -8.157   4.068  18.549  1.00  0.00    -0.003 C 
ATOM     11  C   UNL     1      -7.446   4.646  19.771  1.00  0.00     0.004 C 
ENDBRANCH   9  10
ENDBRANCH   8   9
ENDBRANCH   7   8
ENDBRANCH   1   7
TORSDOF 7
ENDMDL
MODEL 8
REMARK VINA RESULT:    -3.271      1.093      2.404
REMARK INTER + INTRA:          -5.379
REMARK INTER:                  -4.641
REMARK INTRA:                  -0.738
REMARK UNBOUND:                -0.770
REMARK SMILES CCCCCCCCC(=O)[O-]
REMARK SMILES IDX 6 1 7 2 8 3 9 4 10 5 11 6 5 7 4 8 3 9 2 10 1 11
REMARK H PARENT
REMARK Flexibility Score: inf
ROOT
ATOM      1  C   UNL     1      -9.092   2.867  17.466  1.00  0.00     0.000 C 
ENDROOT
BRANCH   1   2
ATOM      2  C   UNL     1      -9.858   2.822  16.136  1.00  0.00     0.006 C 
BRANCH   2   3
ATOM      3  C   UNL     1      -9.806   1.436  15.483  1.00  0.00     0.053 C 
BRANCH   3   4
ATOM      4  C   UNL     1     -11.161   0.987  15.025  1.00  0.00     0.041 C 
ATOM      5  O   UNL     1     -12.186   1.286  15.691  1.00  0.00    -0.550 OA
ATOM      6  O   UNL     1     -11.285   0.209  13.881  1.00  0.00    -0.550 OA
ENDBRANCH   3   4
ENDBRANCH   2   3
ENDBRANCH   1   2
BRANCH   1   7
ATOM      7  C   UNL     1      -9.384   1.622  18.312  1.00  0.00     0.000 C 
BRANCH   7   8
ATOM      8  C   UNL     1     -10.128   1.993  19.601  1.00  0.00    -0.000 C 
BRANCH   8   9
ATOM      9  C   UNL     1     -11.648   1.984  19.380  1.00  0.00    -0.000 C 
BRANCH   9  10
ATOM     10  C   UNL     1     -12.256   3.395  19.412  1.00  0.00    -0.003 C 
ATOM     11  C   UNL     1     -12.857   3.811  18.071  1.00  0.00     0.004 C 
ENDBRANCH   9  10
ENDBRANCH   8   9
ENDBRANCH   7   8
ENDBRANCH   1   7
TORSDOF 7
ENDMDL
MODEL 9
REMARK VINA RESULT:    -3.261      3.393      5.290
REMARK INTER + INTRA:          -5.365
REMARK INTER:                  -4.851
REMARK INTRA:                  -0.514
REMARK UNBOUND:                -0.770
REMARK SMILES CCCCCCCCC(=O)[O-]
REMARK SMILES IDX 6 1 7 2 8 3 9 4 10 5 11 6 5 7 4 8 3 9 2 10 1 11
REMARK H PARENT
REMARK Flexibility Score: inf
ROOT
ATOM      1  C   UNL     1     -10.657   2.424  17.858  1.00  0.00     0.000 C 
ENDROOT
BRANCH   1   2
ATOM      2  C   UNL     1     -11.408   3.505  17.066  1.00  0.00     0.006 C 
BRANCH   2   3
ATOM      3  C   UNL     1     -12.888   3.589  17.459  1.00  0.00     0.053 C 
BRANCH   3   4
ATOM      4  C   UNL     1     -13.081   4.353  18.733  1.00  0.00     0.041 C 
ATOM      5  O   UNL     1     -12.326   5.321  19.012  1.00  0.00    -0.550 OA
ATOM      6  O   UNL     1     -14.075   3.975  19.626  1.00  0.00    -0.550 OA
ENDBRANCH   3   4
ENDBRANCH   2   3
ENDBRANCH   1   2
BRANCH   1   7
ATOM      7  C   UNL     1      -9.887   1.488  16.918  1.00  0.00     0.000 C 
BRANCH   7   8
ATOM      8  C   UNL     1      -9.942   1.993  15.470  1.00  0.00    -0.000 C 
BRANCH   8   9
ATOM      9  C   UNL     1     -10.504   0.914  14.533  1.00  0.00    -0.000 C 
BRANCH   9  10
ATOM     10  C   UNL     1     -11.982   0.601  14.813  1.00  0.00    -0.003 C 
ATOM     11  C   UNL     1     -12.590  -0.352  13.786  1.00  0.00     0.004 C 
ENDBRANCH   9  10
ENDBRANCH   8   9
ENDBRANCH   7   8
ENDBRANCH   1   7
TORSDOF 7
ENDMDL
