MODEL 1
REMARK VINA RESULT:    -3.362      0.000      0.000
REMARK INTER + INTRA:          -6.246
REMARK INTER:                  -5.720
REMARK INTRA:                  -0.525
REMARK UNBOUND:                -0.525
REMARK SMILES CCCCCCCCCCCCCC(=O)[O-]
REMARK SMILES IDX 8 1 9 2 10 3 11 4 12 5 13 6 14 7 15 8 16 9 7 10 6 11 5 12
REMARK SMILES IDX 4 13 3 14 2 15 1 16
REMARK H PARENT
REMARK Flexibility Score: inf
ROOT
ATOM      1  C   UNL     1      43.623  12.448 -35.943  1.00  0.00     0.000 C 
ENDROOT
BRANCH   1   2
ATOM      2  C   UNL     1      42.114  12.329 -35.648  1.00  0.00     0.000 C 
BRANCH   2   3
ATOM      3  C   UNL     1      41.213  13.299 -36.437  1.00  0.00     0.000 C 
BRANCH   3   4
ATOM      4  C   UNL     1      39.952  13.772 -35.690  1.00  0.00     0.000 C 
BRANCH   4   5
ATOM      5  C   UNL     1      38.719  13.867 -36.604  1.00  0.00     0.006 C 
BRANCH   5   6
ATOM      6  C   UNL     1      37.427  13.474 -35.875  1.00  0.00     0.053 C 
BRANCH   6   7
ATOM      7  C   UNL     1      37.369  14.050 -34.493  1.00  0.00     0.041 C 
ATOM      8  O   UNL     1      37.229  13.294 -33.497  1.00  0.00    -0.550 OA
ATOM      9  O   UNL     1      37.497  15.420 -34.305  1.00  0.00    -0.550 OA
ENDBRANCH   6   7
ENDBRANCH   5   6
ENDBRANCH   4   5
ENDBRANCH   3   4
ENDBRANCH   2   3
ENDBRANCH   1   2
BRANCH   1  10
ATOM     10  C   UNL     1      44.546  11.939 -34.821  1.00  0.00     0.000 C 
BRANCH  10  11
ATOM     11  C   UNL     1      44.015  12.264 -33.418  1.00  0.00    -0.000 C 
BRANCH  11  12
ATOM     12  C   UNL     1      45.044  13.069 -32.614  1.00  0.00    -0.000 C 
BRANCH  12  13
ATOM     13  C   UNL     1      46.425  12.399 -32.664  1.00  0.00    -0.000 C 
BRANCH  13  14
ATOM     14  C   UNL     1      46.660  11.425 -31.495  1.00  0.00    -0.000 C 
BRANCH  14  15
ATOM     15  C   UNL     1      46.024  11.851 -30.161  1.00  0.00    -0.003 C 
ATOM     16  C   UNL     1      46.457  10.976 -28.984  1.00  0.00     0.004 C 
ENDBRANCH  14  15
ENDBRANCH  13  14
ENDBRANCH  12  13
ENDBRANCH  11  12
ENDBRANCH  10  11
ENDBRANCH   1  10
TORSDOF 12
ENDMDL
MODEL 2
REMARK VINA RESULT:    -3.335      3.758      7.705
REMARK INTER + INTRA:          -6.200
REMARK INTER:                  -5.860
REMARK INTRA:                  -0.340
REMARK UNBOUND:                -0.525
REMARK SMILES CCCCCCCCCCCCCC(=O)[O-]
REMARK SMILES IDX 8 1 9 2 10 3 11 4 12 5 13 6 14 7 15 8 16 9 7 10 6 11 5 12
REMARK SMILES IDX 4 13 3 14 2 15 1 16
REMARK H PARENT
REMARK Flexibility Score: inf
ROOT
ATOM      1  C   UNL     1      40.964  12.605 -36.049  1.00  0.00     0.000 C 
ENDROOT
BRANCH   1   2
ATOM      2  C   UNL     1      42.500  12.735 -36.082  1.00  0.00     0.000 C 
BRANCH   2   3
ATOM      3  C   UNL     1      43.259  11.783 -35.137  1.00  0.00     0.000 C 
BRANCH   3   4
ATOM      4  C   UNL     1      44.579  12.339 -34.574  1.00  0.00     0.000 C 
BRANCH   4   5
ATOM      5  C   UNL     1      44.565  12.470 -33.041  1.00  0.00     0.006 C 
BRANCH   5   6
ATOM      6  C   UNL     1      45.968  12.713 -32.468  1.00  0.00     0.053 C 
BRANCH   6   7
ATOM      7  C   UNL     1      46.134  12.091 -31.115  1.00  0.00     0.041 C 
ATOM      8  O   UNL     1      46.833  11.054 -30.976  1.00  0.00    -0.550 OA
ATOM      9  O   UNL     1      45.538  12.674 -30.004  1.00  0.00    -0.550 OA
ENDBRANCH   6   7
ENDBRANCH   5   6
ENDBRANCH   4   5
ENDBRANCH   3   4
ENDBRANCH   2   3
ENDBRANCH   1   2
BRANCH   1  10
ATOM     10  C   UNL     1      40.209  13.905 -35.716  1.00  0.00     0.000 C 
BRANCH  10  11
ATOM     11  C   UNL     1      38.696  13.795 -35.957  1.00  0.00    -0.000 C 
BRANCH  11  12
ATOM     12  C   UNL     1      37.911  14.501 -34.844  1.00  0.00    -0.000 C 
BRANCH  12  13
ATOM     13  C   UNL     1      37.135  13.486 -33.992  1.00  0.00    -0.000 C 
BRANCH  13  14
ATOM     14  C   UNL     1      36.879  13.982 -32.557  1.00  0.00    -0.000 C 
BRANCH  14  15
ATOM     15  C   UNL     1      37.130  12.936 -31.457  1.00  0.00    -0.003 C 
ATOM     16  C   UNL     1      37.050  13.519 -30.046  1.00  0.00     0.004 C 
ENDBRANCH  14  15
ENDBRANCH  13  14
ENDBRANCH  12  13
ENDBRANCH  11  12
ENDBRANCH  10  11
ENDBRANCH   1  10
TORSDOF 12
ENDMDL
MODEL 3
REMARK VINA RESULT:    -2.820      1.732      3.010
REMARK INTER + INTRA:          -5.325
REMARK INTER:                  -4.844
REMARK INTRA:                  -0.480
REMARK UNBOUND:                -0.525
REMARK SMILES CCCCCCCCCCCCCC(=O)[O-]
REMARK SMILES IDX 8 1 9 2 10 3 11 4 12 5 13 6 14 7 15 8 16 9 7 10 6 11 5 12
REMARK SMILES IDX 4 13 3 14 2 15 1 16
REMARK H PARENT
REMARK Flexibility Score: inf
ROOT
ATOM      1  C   UNL     1      40.570  13.289 -36.339  1.00  0.00     0.000 C 
ENDROOT
BRANCH   1   2
ATOM      2  C   UNL     1      40.114  14.555 -35.586  1.00  0.00     0.000 C 
BRANCH   2   3
ATOM      3  C   UNL     1      38.588  14.760 -35.513  1.00  0.00     0.000 C 
BRANCH   3   4
ATOM      4  C   UNL     1      37.806  13.609 -34.852  1.00  0.00     0.000 C 
BRANCH   4   5
ATOM      5  C   UNL     1      37.199  14.004 -33.495  1.00  0.00     0.006 C 
BRANCH   5   6
ATOM      6  C   UNL     1      36.883  12.780 -32.625  1.00  0.00     0.053 C 
BRANCH   6   7
ATOM      7  C   UNL     1      37.137  13.046 -31.173  1.00  0.00     0.041 C 
ATOM      8  O   UNL     1      37.182  14.228 -30.744  1.00  0.00    -0.550 OA
ATOM      9  O   UNL     1      37.297  11.987 -30.289  1.00  0.00    -0.550 OA
ENDBRANCH   6   7
ENDBRANCH   5   6
ENDBRANCH   4   5
ENDBRANCH   3   4
ENDBRANCH   2   3
ENDBRANCH   1   2
BRANCH   1  10
ATOM     10  C   UNL     1      42.056  12.927 -36.160  1.00  0.00     0.000 C 
BRANCH  10  11
ATOM     11  C   UNL     1      42.303  11.999 -34.961  1.00  0.00    -0.000 C 
BRANCH  11  12
ATOM     12  C   UNL     1      43.804  11.744 -34.765  1.00  0.00    -0.000 C 
BRANCH  12  13
ATOM     13  C   UNL     1      44.442  12.855 -33.918  1.00  0.00    -0.000 C 
BRANCH  13  14
ATOM     14  C   UNL     1      45.453  12.316 -32.889  1.00  0.00    -0.000 C 
BRANCH  14  15
ATOM     15  C   UNL     1      44.980  12.375 -31.426  1.00  0.00    -0.003 C 
ATOM     16  C   UNL     1      46.117  12.189 -30.421  1.00  0.00     0.004 C 
ENDBRANCH  14  15
ENDBRANCH  13  14
ENDBRANCH  12  13
ENDBRANCH  11  12
ENDBRANCH  10  11
ENDBRANCH   1  10
TORSDOF 12
ENDMDL
MODEL 4
REMARK VINA RESULT:    -2.640     19.711     21.343
REMARK INTER + INTRA:          -5.017
REMARK INTER:                  -4.981
REMARK INTRA:                  -0.037
REMARK UNBOUND:                -0.525
REMARK SMILES CCCCCCCCCCCCCC(=O)[O-]
REMARK SMILES IDX 8 1 9 2 10 3 11 4 12 5 13 6 14 7 15 8 16 9 7 10 6 11 5 12
REMARK SMILES IDX 4 13 3 14 2 15 1 16
REMARK H PARENT
REMARK Flexibility Score: inf
ROOT
ATOM      1  C   UNL     1      57.005  26.723 -34.246  1.00  0.00     0.000 C 
ENDROOT
BRANCH   1   2
ATOM      2  C   UNL     1      55.562  26.304 -34.594  1.00  0.00     0.000 C 
BRANCH   2   3
ATOM      3  C   UNL     1      55.264  26.168 -36.100  1.00  0.00     0.000 C 
BRANCH   3   4
ATOM      4  C   UNL     1      55.301  27.487 -36.894  1.00  0.00     0.000 C 
BRANCH   4   5
ATOM      5  C   UNL     1      54.626  27.372 -38.271  1.00  0.00     0.006 C 
BRANCH   5   6
ATOM      6  C   UNL     1      54.436  28.741 -38.938  1.00  0.00     0.053 C 
BRANCH   6   7
ATOM      7  C   UNL     1      54.695  29.867 -37.984  1.00  0.00     0.041 C 
ATOM      8  O   UNL     1      55.812  29.969 -37.413  1.00  0.00    -0.550 OA
ATOM      9  O   UNL     1      53.712  30.819 -37.748  1.00  0.00    -0.550 OA
ENDBRANCH   6   7
ENDBRANCH   5   6
ENDBRANCH   4   5
ENDBRANCH   3   4
ENDBRANCH   2   3
ENDBRANCH   1   2
BRANCH   1  10
ATOM     10  C   UNL     1      57.120  27.947 -33.320  1.00  0.00     0.000 C 
BRANCH  10  11
ATOM     11  C   UNL     1      56.632  29.244 -33.983  1.00  0.00    -0.000 C 
BRANCH  11  12
ATOM     12  C   UNL     1      56.122  30.239 -32.932  1.00  0.00    -0.000 C 
BRANCH  12  13
ATOM     13  C   UNL     1      57.123  30.376 -31.775  1.00  0.00    -0.000 C 
BRANCH  13  14
ATOM     14  C   UNL     1      56.444  30.698 -30.431  1.00  0.00    -0.000 C 
BRANCH  14  15
ATOM     15  C   UNL     1      57.006  29.928 -29.223  1.00  0.00    -0.003 C 
ATOM     16  C   UNL     1      57.059  28.417 -29.448  1.00  0.00     0.004 C 
ENDBRANCH  14  15
ENDBRANCH  13  14
ENDBRANCH  12  13
ENDBRANCH  11  12
ENDBRANCH  10  11
ENDBRANCH   1  10
TORSDOF 12
ENDMDL
MODEL 5
REMARK VINA RESULT:    -1.426      3.815      8.160
REMARK INTER + INTRA:          -2.951
REMARK INTER:                  -2.302
REMARK INTRA:                  -0.650
REMARK UNBOUND:                -0.525
REMARK SMILES CCCCCCCCCCCCCC(=O)[O-]
REMARK SMILES IDX 8 1 9 2 10 3 11 4 12 5 13 6 14 7 15 8 16 9 7 10 6 11 5 12
REMARK SMILES IDX 4 13 3 14 2 15 1 16
REMARK H PARENT
REMARK Flexibility Score: inf
ROOT
ATOM      1  C   UNL     1      42.810  11.629 -35.308  1.00  0.00     0.000 C 
ENDROOT
BRANCH   1   2
ATOM      2  C   UNL     1      43.307  12.266 -33.995  1.00  0.00     0.000 C 
BRANCH   2   3
ATOM      3  C   UNL     1      44.839  12.342 -33.842  1.00  0.00     0.000 C 
BRANCH   3   4
ATOM      4  C   UNL     1      45.334  12.874 -32.485  1.00  0.00     0.000 C 
BRANCH   4   5
ATOM      5  C   UNL     1      46.619  12.178 -32.004  1.00  0.00     0.006 C 
BRANCH   5   6
ATOM      6  C   UNL     1      46.320  10.941 -31.147  1.00  0.00     0.053 C 
BRANCH   6   7
ATOM      7  C   UNL     1      46.512  11.215 -29.686  1.00  0.00     0.041 C 
ATOM      8  O   UNL     1      47.580  10.875 -29.113  1.00  0.00    -0.550 OA
ATOM      9  O   UNL     1      45.522  11.871 -28.965  1.00  0.00    -0.550 OA
ENDBRANCH   6   7
ENDBRANCH   5   6
ENDBRANCH   4   5
ENDBRANCH   3   4
ENDBRANCH   2   3
ENDBRANCH   1   2
BRANCH   1  10
ATOM     10  C   UNL     1      41.804  12.481 -36.103  1.00  0.00     0.000 C 
BRANCH  10  11
ATOM     11  C   UNL     1      41.760  13.943 -35.634  1.00  0.00    -0.000 C 
BRANCH  11  12
ATOM     12  C   UNL     1      40.343  14.518 -35.761  1.00  0.00    -0.000 C 
BRANCH  12  13
ATOM     13  C   UNL     1      39.406  13.519 -36.456  1.00  0.00    -0.000 C 
BRANCH  13  14
ATOM     14  C   UNL     1      37.924  13.926 -36.366  1.00  0.00    -0.000 C 
BRANCH  14  15
ATOM     15  C   UNL     1      37.084  13.093 -35.383  1.00  0.00    -0.003 C 
ATOM     16  C   UNL     1      37.260  13.527 -33.927  1.00  0.00     0.004 C 
ENDBRANCH  14  15
ENDBRANCH  13  14
ENDBRANCH  12  13
ENDBRANCH  11  12
ENDBRANCH  10  11
ENDBRANCH   1  10
TORSDOF 12
ENDMDL
MODEL 6
REMARK VINA RESULT:    -1.086      3.404      7.164
REMARK INTER + INTRA:          -2.374
REMARK INTER:                  -1.728
REMARK INTRA:                  -0.645
REMARK UNBOUND:                -0.525
REMARK SMILES CCCCCCCCCCCCCC(=O)[O-]
REMARK SMILES IDX 8 1 9 2 10 3 11 4 12 5 13 6 14 7 15 8 16 9 7 10 6 11 5 12
REMARK SMILES IDX 4 13 3 14 2 15 1 16
REMARK H PARENT
REMARK Flexibility Score: inf
ROOT
ATOM      1  C   UNL     1      40.492  14.616 -35.458  1.00  0.00     0.000 C 
ENDROOT
BRANCH   1   2
ATOM      2  C   UNL     1      41.515  14.158 -36.517  1.00  0.00     0.000 C 
BRANCH   2   3
ATOM      3  C   UNL     1      42.723  13.375 -35.966  1.00  0.00     0.000 C 
BRANCH   3   4
ATOM      4  C   UNL     1      42.397  11.976 -35.413  1.00  0.00     0.000 C 
BRANCH   4   5
ATOM      5  C   UNL     1      43.249  11.605 -34.188  1.00  0.00     0.006 C 
BRANCH   5   6
ATOM      6  C   UNL     1      44.621  12.294 -34.208  1.00  0.00     0.053 C 
BRANCH   6   7
ATOM      7  C   UNL     1      45.044  12.734 -32.840  1.00  0.00     0.041 C 
ATOM      8  O   UNL     1      44.409  12.346 -31.825  1.00  0.00    -0.550 OA
ATOM      9  O   UNL     1      46.157  13.551 -32.685  1.00  0.00    -0.550 OA
ENDBRANCH   6   7
ENDBRANCH   5   6
ENDBRANCH   4   5
ENDBRANCH   3   4
ENDBRANCH   2   3
ENDBRANCH   1   2
BRANCH   1  10
ATOM     10  C   UNL     1      39.338  13.629 -35.201  1.00  0.00     0.000 C 
BRANCH  10  11
ATOM     11  C   UNL     1      37.954  14.270 -35.379  1.00  0.00    -0.000 C 
BRANCH  11  12
ATOM     12  C   UNL     1      36.879  13.471 -34.631  1.00  0.00    -0.000 C 
BRANCH  12  13
ATOM     13  C   UNL     1      37.332  13.146 -33.201  1.00  0.00    -0.000 C 
BRANCH  13  14
ATOM     14  C   UNL     1      36.889  14.207 -32.177  1.00  0.00    -0.000 C 
BRANCH  14  15
ATOM     15  C   UNL     1      37.079  13.804 -30.704  1.00  0.00    -0.003 C 
ATOM     16  C   UNL     1      37.404  12.320 -30.527  1.00  0.00     0.004 C 
ENDBRANCH  14  15
ENDBRANCH  13  14
ENDBRANCH  12  13
ENDBRANCH  11  12
ENDBRANCH  10  11
ENDBRANCH   1  10
TORSDOF 12
ENDMDL
MODEL 7
REMARK VINA RESULT:    -0.964      1.221      2.050
REMARK INTER + INTRA:          -2.165
REMARK INTER:                  -1.775
REMARK INTRA:                  -0.391
REMARK UNBOUND:                -0.525
REMARK SMILES CCCCCCCCCCCCCC(=O)[O-]
REMARK SMILES IDX 8 1 9 2 10 3 11 4 12 5 13 6 14 7 15 8 16 9 7 10 6 11 5 12
REMARK SMILES IDX 4 13 3 14 2 15 1 16
REMARK H PARENT
REMARK Flexibility Score: inf
ROOT
ATOM      1  C   UNL     1      42.062  13.246 -36.013  1.00  0.00     0.000 C 
ENDROOT
BRANCH   1   2
ATOM      2  C   UNL     1      40.570  13.280 -36.402  1.00  0.00     0.000 C 
BRANCH   2   3
ATOM      3  C   UNL     1      39.664  14.094 -35.456  1.00  0.00     0.000 C 
BRANCH   3   4
ATOM      4  C   UNL     1      38.155  13.976 -35.736  1.00  0.00     0.000 C 
BRANCH   4   5
ATOM      5  C   UNL     1      37.293  14.297 -34.503  1.00  0.00     0.006 C 
BRANCH   5   6
ATOM      6  C   UNL     1      37.153  13.091 -33.565  1.00  0.00     0.053 C 
BRANCH   6   7
ATOM      7  C   UNL     1      37.055  13.509 -32.130  1.00  0.00     0.041 C 
ATOM      8  O   UNL     1      36.875  14.719 -31.833  1.00  0.00    -0.550 OA
ATOM      9  O   UNL     1      37.135  12.557 -31.121  1.00  0.00    -0.550 OA
ENDBRANCH   6   7
ENDBRANCH   5   6
ENDBRANCH   4   5
ENDBRANCH   3   4
ENDBRANCH   2   3
ENDBRANCH   1   2
BRANCH   1  10
ATOM     10  C   UNL     1      42.540  11.922 -35.392  1.00  0.00     0.000 C 
BRANCH  10  11
ATOM     11  C   UNL     1      43.989  11.990 -34.886  1.00  0.00    -0.000 C 
BRANCH  11  12
ATOM     12  C   UNL     1      44.030  12.292 -33.382  1.00  0.00    -0.000 C 
BRANCH  12  13
ATOM     13  C   UNL     1      45.419  12.794 -32.961  1.00  0.00    -0.000 C 
BRANCH  13  14
ATOM     14  C   UNL     1      46.122  11.848 -31.970  1.00  0.00    -0.000 C 
BRANCH  14  15
ATOM     15  C   UNL     1      46.177  12.356 -30.519  1.00  0.00    -0.003 C 
ATOM     16  C   UNL     1      46.330  11.231 -29.496  1.00  0.00     0.004 C 
ENDBRANCH  14  15
ENDBRANCH  13  14
ENDBRANCH  12  13
ENDBRANCH  11  12
ENDBRANCH  10  11
ENDBRANCH   1  10
TORSDOF 12
ENDMDL
