MODEL 1
REMARK VINA RESULT:    -4.356      0.000      0.000
REMARK INTER + INTRA:          -4.948
REMARK INTER:                  -4.738
REMARK INTRA:                  -0.210
REMARK UNBOUND:                -0.210
REMARK SMILES O=C([O-])c1ccccc1O
REMARK SMILES IDX 4 1 9 2 5 3 8 4 6 5 7 6 2 7 1 8 3 9 10 10
REMARK H PARENT 10 11
REMARK Flexibility Score: inf
ROOT
ATOM      1  C   UNL     1      66.157  40.521  27.085  1.00  0.00     0.039 A 
ATOM      2  C   UNL     1      66.809  40.993  28.248  1.00  0.00     0.124 A 
ATOM      3  C   UNL     1      66.742  39.461  26.363  1.00  0.00     0.014 A 
ATOM      4  C   UNL     1      68.015  40.407  28.662  1.00  0.00     0.047 A 
ATOM      5  C   UNL     1      67.943  38.886  26.787  1.00  0.00     0.001 A 
ATOM      6  C   UNL     1      68.578  39.358  27.934  1.00  0.00     0.004 A 
ENDROOT
BRANCH   1   7
ATOM      7  C   UNL     1      64.879  41.112  26.610  1.00  0.00     0.075 C 
ATOM      8  O   UNL     1      64.117  40.454  25.852  1.00  0.00    -0.545 OA
ATOM      9  O   UNL     1      64.497  42.394  26.986  1.00  0.00    -0.545 OA
ENDBRANCH   1   7
BRANCH   2  10
ATOM     10  O   UNL     1      66.267  42.040  28.994  1.00  0.00    -0.507 OA
ATOM     11  H   UNL     1      66.013  42.924  28.568  1.00  0.00     0.293 HD
ENDBRANCH   2  10
TORSDOF 2
ENDMDL
MODEL 2
REMARK VINA RESULT:    -4.189     13.674     14.438
REMARK INTER + INTRA:          -4.766
REMARK INTER:                  -4.517
REMARK INTRA:                  -0.250
REMARK UNBOUND:                -0.210
REMARK SMILES O=C([O-])c1ccccc1O
REMARK SMILES IDX 4 1 9 2 5 3 8 4 6 5 7 6 2 7 1 8 3 9 10 10
REMARK H PARENT 10 11
REMARK Flexibility Score: inf
ROOT
ATOM      1  C   UNL     1      67.789  51.921  18.724  1.00  0.00     0.039 A 
ATOM      2  C   UNL     1      68.796  51.837  19.714  1.00  0.00     0.124 A 
ATOM      3  C   UNL     1      68.090  52.556  17.502  1.00  0.00     0.014 A 
ATOM      4  C   UNL     1      70.066  52.382  19.469  1.00  0.00     0.047 A 
ATOM      5  C   UNL     1      69.360  53.094  17.271  1.00  0.00     0.001 A 
ATOM      6  C   UNL     1      70.345  53.007  18.253  1.00  0.00     0.004 A 
ENDROOT
BRANCH   1   7
ATOM      7  C   UNL     1      66.431  51.359  18.940  1.00  0.00     0.075 C 
ATOM      8  O   UNL     1      66.291  50.202  19.421  1.00  0.00    -0.545 OA
ATOM      9  O   UNL     1      65.292  52.087  18.621  1.00  0.00    -0.545 OA
ENDBRANCH   1   7
BRANCH   2  10
ATOM     10  O   UNL     1      68.544  51.218  20.938  1.00  0.00    -0.507 OA
ATOM     11  H   UNL     1      68.463  50.211  21.020  1.00  0.00     0.293 HD
ENDBRANCH   2  10
TORSDOF 2
ENDMDL
MODEL 3
REMARK VINA RESULT:    -4.132     10.015     11.196
REMARK INTER + INTRA:          -4.705
REMARK INTER:                  -4.468
REMARK INTRA:                  -0.237
REMARK UNBOUND:                -0.210
REMARK SMILES O=C([O-])c1ccccc1O
REMARK SMILES IDX 4 1 9 2 5 3 8 4 6 5 7 6 2 7 1 8 3 9 10 10
REMARK H PARENT 10 11
REMARK Flexibility Score: inf
ROOT
ATOM      1  C   UNL     1      60.541  49.164  26.994  1.00  0.00     0.039 A 
ATOM      2  C   UNL     1      59.351  49.349  26.252  1.00  0.00     0.124 A 
ATOM      3  C   UNL     1      60.456  48.599  28.282  1.00  0.00     0.014 A 
ATOM      4  C   UNL     1      58.116  48.972  26.803  1.00  0.00     0.047 A 
ATOM      5  C   UNL     1      59.220  48.227  28.818  1.00  0.00     0.001 A 
ATOM      6  C   UNL     1      58.052  48.414  28.081  1.00  0.00     0.004 A 
ENDROOT
BRANCH   1   7
ATOM      7  C   UNL     1      61.869  49.548  26.450  1.00  0.00     0.075 C 
ATOM      8  O   UNL     1      61.992  50.589  25.749  1.00  0.00    -0.545 OA
ATOM      9  O   UNL     1      62.997  48.776  26.697  1.00  0.00    -0.545 OA
ENDBRANCH   1   7
BRANCH   2  10
ATOM     10  O   UNL     1      59.386  49.905  24.973  1.00  0.00    -0.507 OA
ATOM     11  H   UNL     1      59.827  49.427  24.196  1.00  0.00     0.293 HD
ENDBRANCH   2  10
TORSDOF 2
ENDMDL
MODEL 4
REMARK VINA RESULT:    -4.130     10.746     11.222
REMARK INTER + INTRA:          -4.703
REMARK INTER:                  -4.482
REMARK INTRA:                  -0.221
REMARK UNBOUND:                -0.210
REMARK SMILES O=C([O-])c1ccccc1O
REMARK SMILES IDX 4 1 9 2 5 3 8 4 6 5 7 6 2 7 1 8 3 9 10 10
REMARK H PARENT 10 11
REMARK Flexibility Score: inf
ROOT
ATOM      1  C   UNL     1      59.731  49.341  26.794  1.00  0.00     0.039 A 
ATOM      2  C   UNL     1      60.708  50.242  26.310  1.00  0.00     0.124 A 
ATOM      3  C   UNL     1      59.926  48.740  28.053  1.00  0.00     0.014 A 
ATOM      4  C   UNL     1      61.847  50.521  27.082  1.00  0.00     0.047 A 
ATOM      5  C   UNL     1      61.065  49.027  28.812  1.00  0.00     0.001 A 
ATOM      6  C   UNL     1      62.023  49.916  28.327  1.00  0.00     0.004 A 
ENDROOT
BRANCH   1   7
ATOM      7  C   UNL     1      58.511  49.018  26.010  1.00  0.00     0.075 C 
ATOM      8  O   UNL     1      58.541  49.033  24.750  1.00  0.00    -0.545 OA
ATOM      9  O   UNL     1      57.316  48.694  26.642  1.00  0.00    -0.545 OA
ENDBRANCH   1   7
BRANCH   2  10
ATOM     10  O   UNL     1      60.557  50.861  25.069  1.00  0.00    -0.507 OA
ATOM     11  H   UNL     1      61.119  50.596  24.269  1.00  0.00     0.293 HD
ENDBRANCH   2  10
TORSDOF 2
ENDMDL
MODEL 5
REMARK VINA RESULT:    -4.107      1.642      3.429
REMARK INTER + INTRA:          -4.677
REMARK INTER:                  -4.443
REMARK INTRA:                  -0.234
REMARK UNBOUND:                -0.210
REMARK SMILES O=C([O-])c1ccccc1O
REMARK SMILES IDX 4 1 9 2 5 3 8 4 6 5 7 6 2 7 1 8 3 9 10 10
REMARK H PARENT 10 11
REMARK Flexibility Score: inf
ROOT
ATOM      1  C   UNL     1      66.692  40.184  27.182  1.00  0.00     0.039 A 
ATOM      2  C   UNL     1      65.648  41.139  27.204  1.00  0.00     0.124 A 
ATOM      3  C   UNL     1      66.609  39.108  26.275  1.00  0.00     0.014 A 
ATOM      4  C   UNL     1      64.556  41.002  26.333  1.00  0.00     0.047 A 
ATOM      5  C   UNL     1      65.515  38.985  25.413  1.00  0.00     0.001 A 
ATOM      6  C   UNL     1      64.491  39.930  25.442  1.00  0.00     0.004 A 
ENDROOT
BRANCH   1   7
ATOM      7  C   UNL     1      67.867  40.289  28.086  1.00  0.00     0.075 C 
ATOM      8  O   UNL     1      67.727  40.716  29.264  1.00  0.00    -0.545 OA
ATOM      9  O   UNL     1      69.137  39.925  27.658  1.00  0.00    -0.545 OA
ENDBRANCH   1   7
BRANCH   2  10
ATOM     10  O   UNL     1      65.688  42.220  28.085  1.00  0.00    -0.507 OA
ATOM     11  H   UNL     1      64.891  42.833  28.212  1.00  0.00     0.293 HD
ENDBRANCH   2  10
TORSDOF 2
ENDMDL
MODEL 6
REMARK VINA RESULT:    -4.024     13.474     14.470
REMARK INTER + INTRA:          -4.587
REMARK INTER:                  -4.338
REMARK INTRA:                  -0.249
REMARK UNBOUND:                -0.210
REMARK SMILES O=C([O-])c1ccccc1O
REMARK SMILES IDX 4 1 9 2 5 3 8 4 6 5 7 6 2 7 1 8 3 9 10 10
REMARK H PARENT 10 11
REMARK Flexibility Score: inf
ROOT
ATOM      1  C   UNL     1      68.963  51.709  19.832  1.00  0.00     0.039 A 
ATOM      2  C   UNL     1      69.546  52.105  18.606  1.00  0.00     0.124 A 
ATOM      3  C   UNL     1      67.558  51.690  19.940  1.00  0.00     0.014 A 
ATOM      4  C   UNL     1      68.727  52.471  17.526  1.00  0.00     0.047 A 
ATOM      5  C   UNL     1      66.754  52.056  18.856  1.00  0.00     0.001 A 
ATOM      6  C   UNL     1      67.337  52.446  17.652  1.00  0.00     0.004 A 
ENDROOT
BRANCH   1   7
ATOM      7  C   UNL     1      69.792  51.314  21.000  1.00  0.00     0.075 C 
ATOM      8  O   UNL     1      70.681  52.090  21.440  1.00  0.00    -0.545 OA
ATOM      9  O   UNL     1      69.608  50.089  21.630  1.00  0.00    -0.545 OA
ENDBRANCH   1   7
BRANCH   2  10
ATOM     10  O   UNL     1      70.932  52.139  18.453  1.00  0.00    -0.507 OA
ATOM     11  H   UNL     1      71.378  51.893  17.576  1.00  0.00     0.293 HD
ENDBRANCH   2  10
TORSDOF 2
ENDMDL
MODEL 7
REMARK VINA RESULT:    -4.005     10.314     10.947
REMARK INTER + INTRA:          -4.567
REMARK INTER:                  -4.344
REMARK INTRA:                  -0.223
REMARK UNBOUND:                -0.210
REMARK SMILES O=C([O-])c1ccccc1O
REMARK SMILES IDX 4 1 9 2 5 3 8 4 6 5 7 6 2 7 1 8 3 9 10 10
REMARK H PARENT 10 11
REMARK Flexibility Score: inf
ROOT
ATOM      1  C   UNL     1      59.880  49.351  26.742  1.00  0.00     0.039 A 
ATOM      2  C   UNL     1      60.192  48.862  28.032  1.00  0.00     0.124 A 
ATOM      3  C   UNL     1      60.818  50.168  26.081  1.00  0.00     0.014 A 
ATOM      4  C   UNL     1      61.418  49.195  28.629  1.00  0.00     0.047 A 
ATOM      5  C   UNL     1      62.036  50.491  26.687  1.00  0.00     0.001 A 
ATOM      6  C   UNL     1      62.335  50.005  27.959  1.00  0.00     0.004 A 
ENDROOT
BRANCH   1   7
ATOM      7  C   UNL     1      58.594  49.024  26.072  1.00  0.00     0.075 C 
ATOM      8  O   UNL     1      58.517  49.013  24.814  1.00  0.00    -0.545 OA
ATOM      9  O   UNL     1      57.456  48.725  26.810  1.00  0.00    -0.545 OA
ENDBRANCH   1   7
BRANCH   2  10
ATOM     10  O   UNL     1      59.294  48.050  28.725  1.00  0.00    -0.507 OA
ATOM     11  H   UNL     1      59.042  47.127  28.391  1.00  0.00     0.293 HD
ENDBRANCH   2  10
TORSDOF 2
ENDMDL
MODEL 8
REMARK VINA RESULT:    -3.940     14.771     15.581
REMARK INTER + INTRA:          -4.496
REMARK INTER:                  -4.252
REMARK INTRA:                  -0.244
REMARK UNBOUND:                -0.210
REMARK SMILES O=C([O-])c1ccccc1O
REMARK SMILES IDX 4 1 9 2 5 3 8 4 6 5 7 6 2 7 1 8 3 9 10 10
REMARK H PARENT 10 11
REMARK Flexibility Score: inf
ROOT
ATOM      1  C   UNL     1      69.432  52.775  18.136  1.00  0.00     0.039 A 
ATOM      2  C   UNL     1      69.570  52.433  19.501  1.00  0.00     0.124 A 
ATOM      3  C   UNL     1      68.211  52.500  17.488  1.00  0.00     0.014 A 
ATOM      4  C   UNL     1      68.502  51.830  20.184  1.00  0.00     0.047 A 
ATOM      5  C   UNL     1      67.155  51.900  18.180  1.00  0.00     0.001 A 
ATOM      6  C   UNL     1      67.301  51.565  19.525  1.00  0.00     0.004 A 
ENDROOT
BRANCH   1   7
ATOM      7  C   UNL     1      70.536  53.415  17.375  1.00  0.00     0.075 C 
ATOM      8  O   UNL     1      70.283  54.280  16.493  1.00  0.00    -0.545 OA
ATOM      9  O   UNL     1      71.863  53.078  17.613  1.00  0.00    -0.545 OA
ENDBRANCH   1   7
BRANCH   2  10
ATOM     10  O   UNL     1      70.761  52.686  20.184  1.00  0.00    -0.507 OA
ATOM     11  H   UNL     1      70.840  53.442  20.854  1.00  0.00     0.293 HD
ENDBRANCH   2  10
TORSDOF 2
ENDMDL
MODEL 9
REMARK VINA RESULT:    -3.890     13.236     14.179
REMARK INTER + INTRA:          -4.441
REMARK INTER:                  -4.208
REMARK INTRA:                  -0.234
REMARK UNBOUND:                -0.210
REMARK SMILES O=C([O-])c1ccccc1O
REMARK SMILES IDX 4 1 9 2 5 3 8 4 6 5 7 6 2 7 1 8 3 9 10 10
REMARK H PARENT 10 11
REMARK Flexibility Score: inf
ROOT
ATOM      1  C   UNL     1      68.945  51.661  19.930  1.00  0.00     0.039 A 
ATOM      2  C   UNL     1      67.774  51.796  19.148  1.00  0.00     0.124 A 
ATOM      3  C   UNL     1      70.176  52.081  19.387  1.00  0.00     0.014 A 
ATOM      4  C   UNL     1      67.853  52.340  17.857  1.00  0.00     0.047 A 
ATOM      5  C   UNL     1      70.240  52.621  18.100  1.00  0.00     0.001 A 
ATOM      6  C   UNL     1      69.081  52.750  17.336  1.00  0.00     0.004 A 
ENDROOT
BRANCH   1   7
ATOM      7  C   UNL     1      68.907  51.090  21.302  1.00  0.00     0.075 C 
ATOM      8  O   UNL     1      69.316  51.767  22.283  1.00  0.00    -0.545 OA
ATOM      9  O   UNL     1      68.426  49.808  21.534  1.00  0.00    -0.545 OA
ENDBRANCH   1   7
BRANCH   2  10
ATOM     10  O   UNL     1      66.534  51.394  19.645  1.00  0.00    -0.507 OA
ATOM     11  H   UNL     1      65.668  51.805  19.314  1.00  0.00     0.293 HD
ENDBRANCH   2  10
TORSDOF 2
ENDMDL
