MODEL 1
REMARK VINA RESULT:    -1.415      0.000      0.000
REMARK INTER + INTRA:          -5.099
REMARK INTER:                  -1.952
REMARK INTRA:                  -3.147
REMARK UNBOUND:                -3.147
REMARK SMILES CC[C@H](CC[C@H](C)[C@@H]1CC[C@H]2[C@@H]3CC=C4C[C@@H](O)CC[C@@]4(C)[C@H]3CC[C@@]21C)C(C)C
REMARK SMILES IDX 5 1 4 2 3 3 2 4 1 5 28 6 29 7 30 8 6 9 7 10 8 11 9 12 26 13
REMARK SMILES IDX 10 14 11 15 25 16 27 17 12 18 24 19 23 20 13 21 21 22 14 23
REMARK SMILES IDX 15 24 20 25 22 26 16 27 19 28 17 29 18 30
REMARK H PARENT 18 31
REMARK Flexibility Score: inf
ROOT
ATOM      1  C   UNL     1     -22.705 -16.636  82.988  1.00  0.00     0.004 C 
ENDROOT
BRANCH   1   2
ATOM      2  C   UNL     1     -23.019 -15.212  83.522  1.00  0.00     0.004 C 
BRANCH   2   3
ATOM      3  C   UNL     1     -22.082 -14.094  82.982  1.00  0.00    -0.009 C 
BRANCH   3   4
ATOM      4  C   UNL     1     -22.803 -13.221  81.916  1.00  0.00     0.000 C 
ATOM      5  C   UNL     1     -22.045 -13.148  80.592  1.00  0.00     0.004 C 
ENDBRANCH   3   4
BRANCH   3   6
ATOM      6  C   UNL     1     -21.353 -13.316  84.138  1.00  0.00    -0.014 C 
ATOM      7  C   UNL     1     -21.065 -14.218  85.347  1.00  0.00     0.007 C 
ATOM      8  C   UNL     1     -20.072 -12.570  83.711  1.00  0.00     0.007 C 
ENDBRANCH   3   6
ENDBRANCH   2   3
ENDBRANCH   1   2
BRANCH   1   9
ATOM      9  C   UNL     1     -21.964 -16.674  81.607  1.00  0.00    -0.011 C 
ATOM     10  C   UNL     1     -22.942 -17.188  80.526  1.00  0.00     0.008 C 
BRANCH   9  11
ATOM     11  C   UNL     1     -20.575 -17.425  81.723  1.00  0.00    -0.002 C 
ATOM     12  C   UNL     1     -20.460 -18.077  83.141  1.00  0.00     0.005 C 
ATOM     13  C   UNL     1     -19.198 -16.664  81.606  1.00  0.00    -0.026 C 
ATOM     14  C   UNL     1     -19.373 -17.321  83.926  1.00  0.00     0.005 C 
ATOM     15  C   UNL     1     -18.987 -16.151  83.035  1.00  0.00    -0.001 C 
ATOM     16  C   UNL     1     -19.060 -15.443  80.656  1.00  0.00     0.007 C 
ATOM     17  C   UNL     1     -18.133 -17.740  81.185  1.00  0.00     0.012 C 
ATOM     18  C   UNL     1     -17.587 -15.520  83.271  1.00  0.00     0.000 C 
ATOM     19  C   UNL     1     -17.673 -14.774  80.784  1.00  0.00     0.005 C 
ATOM     20  C   UNL     1     -17.340 -14.361  82.258  1.00  0.00     0.003 C 
ATOM     21  C   UNL     1     -17.507 -14.933  84.687  1.00  0.00     0.031 C 
ATOM     22  C   UNL     1     -15.906 -13.712  82.443  1.00  0.00    -0.008 C 
ATOM     23  C   UNL     1     -16.186 -14.263  84.909  1.00  0.00    -0.027 C 
ATOM     24  C   UNL     1     -15.479 -13.671  83.924  1.00  0.00    -0.065 C 
ATOM     25  C   UNL     1     -14.810 -14.511  81.659  1.00  0.00     0.014 C 
ATOM     26  C   UNL     1     -15.962 -12.255  81.906  1.00  0.00     0.016 C 
ATOM     27  C   UNL     1     -14.070 -13.213  84.239  1.00  0.00     0.063 C 
ATOM     28  C   UNL     1     -13.359 -14.106  81.989  1.00  0.00     0.033 C 
ATOM     29  C   UNL     1     -13.072 -14.119  83.497  1.00  0.00     0.118 C 
BRANCH  29  30
ATOM     30  O   UNL     1     -13.161 -15.437  83.980  1.00  0.00    -0.393 OA
ATOM     31  H   UNL     1     -12.308 -15.888  83.757  1.00  0.00     0.210 HD
ENDBRANCH  29  30
ENDBRANCH   9  11
ENDBRANCH   1   9
TORSDOF 7
ENDMDL
MODEL 2
REMARK VINA RESULT:    -1.187      1.116      1.492
REMARK INTER + INTRA:          -4.785
REMARK INTER:                  -1.770
REMARK INTRA:                  -3.015
REMARK UNBOUND:                -3.147
REMARK SMILES CC[C@H](CC[C@H](C)[C@@H]1CC[C@H]2[C@@H]3CC=C4C[C@@H](O)CC[C@@]4(C)[C@H]3CC[C@@]21C)C(C)C
REMARK SMILES IDX 5 1 4 2 3 3 2 4 1 5 28 6 29 7 30 8 6 9 7 10 8 11 9 12 26 13
REMARK SMILES IDX 10 14 11 15 25 16 27 17 12 18 24 19 23 20 13 21 21 22 14 23
REMARK SMILES IDX 15 24 20 25 22 26 16 27 19 28 17 29 18 30
REMARK H PARENT 18 31
REMARK Flexibility Score: inf
ROOT
ATOM      1  C   UNL     1     -22.041 -16.019  81.494  1.00  0.00     0.004 C 
ENDROOT
BRANCH   1   2
ATOM      2  C   UNL     1     -22.178 -14.837  82.492  1.00  0.00     0.004 C 
BRANCH   2   3
ATOM      3  C   UNL     1     -21.500 -13.516  82.031  1.00  0.00    -0.009 C 
BRANCH   3   4
ATOM      4  C   UNL     1     -22.551 -12.495  81.511  1.00  0.00     0.000 C 
ATOM      5  C   UNL     1     -22.448 -12.245  80.008  1.00  0.00     0.004 C 
ENDBRANCH   3   4
BRANCH   3   6
ATOM      6  C   UNL     1     -20.470 -12.973  83.088  1.00  0.00    -0.014 C 
ATOM      7  C   UNL     1     -19.998 -11.550  82.754  1.00  0.00     0.007 C 
ATOM      8  C   UNL     1     -20.944 -13.047  84.554  1.00  0.00     0.007 C 
ENDBRANCH   3   6
ENDBRANCH   2   3
ENDBRANCH   1   2
BRANCH   1   9
ATOM      9  C   UNL     1     -21.104 -15.743  80.268  1.00  0.00    -0.011 C 
ATOM     10  C   UNL     1     -21.877 -16.051  78.965  1.00  0.00     0.008 C 
BRANCH   9  11
ATOM     11  C   UNL     1     -19.701 -16.455  80.447  1.00  0.00    -0.002 C 
ATOM     12  C   UNL     1     -19.796 -17.489  81.618  1.00  0.00     0.005 C 
ATOM     13  C   UNL     1     -18.397 -15.654  80.830  1.00  0.00    -0.026 C 
ATOM     14  C   UNL     1     -18.943 -16.966  82.787  1.00  0.00     0.005 C 
ATOM     15  C   UNL     1     -18.500 -15.575  82.358  1.00  0.00    -0.001 C 
ATOM     16  C   UNL     1     -18.191 -14.205  80.311  1.00  0.00     0.007 C 
ATOM     17  C   UNL     1     -17.184 -16.529  80.349  1.00  0.00     0.012 C 
ATOM     18  C   UNL     1     -17.228 -15.002  83.040  1.00  0.00     0.000 C 
ATOM     19  C   UNL     1     -16.915 -13.563  80.900  1.00  0.00     0.005 C 
ATOM     20  C   UNL     1     -16.898 -13.590  82.466  1.00  0.00     0.003 C 
ATOM     21  C   UNL     1     -17.463 -14.852  84.550  1.00  0.00     0.031 C 
ATOM     22  C   UNL     1     -15.584 -12.984  83.112  1.00  0.00    -0.008 C 
ATOM     23  C   UNL     1     -16.269 -14.240  85.215  1.00  0.00    -0.027 C 
ATOM     24  C   UNL     1     -15.444 -13.365  84.600  1.00  0.00    -0.065 C 
ATOM     25  C   UNL     1     -14.298 -13.486  82.375  1.00  0.00     0.014 C 
ATOM     26  C   UNL     1     -15.665 -11.435  83.007  1.00  0.00     0.016 C 
ATOM     27  C   UNL     1     -14.163 -12.980  85.310  1.00  0.00     0.063 C 
ATOM     28  C   UNL     1     -12.973 -13.155  83.092  1.00  0.00     0.033 C 
ATOM     29  C   UNL     1     -12.971 -13.600  84.561  1.00  0.00     0.118 C 
BRANCH  29  30
ATOM     30  O   UNL     1     -13.035 -15.004  84.626  1.00  0.00    -0.393 OA
ATOM     31  H   UNL     1     -12.873 -15.346  83.710  1.00  0.00     0.210 HD
ENDBRANCH  29  30
ENDBRANCH   9  11
ENDBRANCH   1   9
TORSDOF 7
ENDMDL
MODEL 3
REMARK VINA RESULT:    -1.185      5.845      8.580
REMARK INTER + INTRA:          -4.782
REMARK INTER:                  -1.707
REMARK INTRA:                  -3.074
REMARK UNBOUND:                -3.147
REMARK SMILES CC[C@H](CC[C@H](C)[C@@H]1CC[C@H]2[C@@H]3CC=C4C[C@@H](O)CC[C@@]4(C)[C@H]3CC[C@@]21C)C(C)C
REMARK SMILES IDX 5 1 4 2 3 3 2 4 1 5 28 6 29 7 30 8 6 9 7 10 8 11 9 12 26 13
REMARK SMILES IDX 10 14 11 15 25 16 27 17 12 18 24 19 23 20 13 21 21 22 14 23
REMARK SMILES IDX 15 24 20 25 22 26 16 27 19 28 17 29 18 30
REMARK H PARENT 18 31
REMARK Flexibility Score: inf
ROOT
ATOM      1  C   UNL     1     -22.143 -21.113  79.350  1.00  0.00     0.004 C 
ENDROOT
BRANCH   1   2
ATOM      2  C   UNL     1     -21.700 -22.477  78.754  1.00  0.00     0.004 C 
BRANCH   2   3
ATOM      3  C   UNL     1     -21.460 -23.598  79.805  1.00  0.00    -0.009 C 
BRANCH   3   4
ATOM      4  C   UNL     1     -22.737 -24.459  80.013  1.00  0.00     0.000 C 
ATOM      5  C   UNL     1     -23.104 -24.637  81.485  1.00  0.00     0.004 C 
ENDBRANCH   3   4
BRANCH   3   6
ATOM      6  C   UNL     1     -20.126 -24.388  79.540  1.00  0.00    -0.014 C 
ATOM      7  C   UNL     1     -19.121 -23.564  78.723  1.00  0.00     0.007 C 
ATOM      8  C   UNL     1     -19.447 -24.958  80.803  1.00  0.00     0.007 C 
ENDBRANCH   3   6
ENDBRANCH   2   3
ENDBRANCH   1   2
BRANCH   1   9
ATOM      9  C   UNL     1     -22.295 -21.092  80.910  1.00  0.00    -0.011 C 
ATOM     10  C   UNL     1     -23.761 -20.752  81.268  1.00  0.00     0.008 C 
BRANCH   9  11
ATOM     11  C   UNL     1     -21.175 -20.200  81.584  1.00  0.00    -0.002 C 
ATOM     12  C   UNL     1     -20.251 -19.607  80.468  1.00  0.00     0.005 C 
ATOM     13  C   UNL     1     -20.119 -20.798  82.591  1.00  0.00    -0.026 C 
ATOM     14  C   UNL     1     -18.870 -20.275  80.589  1.00  0.00     0.005 C 
ATOM     15  C   UNL     1     -19.046 -21.352  81.648  1.00  0.00    -0.001 C 
ATOM     16  C   UNL     1     -20.523 -21.950  83.552  1.00  0.00     0.007 C 
ATOM     17  C   UNL     1     -19.602 -19.593  83.457  1.00  0.00     0.012 C 
ATOM     18  C   UNL     1     -17.762 -21.835  82.378  1.00  0.00     0.000 C 
ATOM     19  C   UNL     1     -19.315 -22.468  84.363  1.00  0.00     0.005 C 
ATOM     20  C   UNL     1     -18.123 -22.911  83.447  1.00  0.00     0.003 C 
ATOM     21  C   UNL     1     -16.795 -22.477  81.373  1.00  0.00     0.031 C 
ATOM     22  C   UNL     1     -16.844 -23.406  84.240  1.00  0.00    -0.008 C 
ATOM     23  C   UNL     1     -15.581 -23.007  82.070  1.00  0.00    -0.027 C 
ATOM     24  C   UNL     1     -15.595 -23.470  83.338  1.00  0.00    -0.065 C 
ATOM     25  C   UNL     1     -16.509 -22.456  85.439  1.00  0.00     0.014 C 
ATOM     26  C   UNL     1     -17.133 -24.834  84.782  1.00  0.00     0.016 C 
ATOM     27  C   UNL     1     -14.266 -23.784  83.993  1.00  0.00     0.063 C 
ATOM     28  C   UNL     1     -15.140 -22.713  86.103  1.00  0.00     0.033 C 
ATOM     29  C   UNL     1     -13.990 -22.741  85.088  1.00  0.00     0.118 C 
BRANCH  29  30
ATOM     30  O   UNL     1     -13.839 -21.465  84.515  1.00  0.00    -0.393 OA
ATOM     31  H   UNL     1     -13.030 -21.494  83.944  1.00  0.00     0.210 HD
ENDBRANCH  29  30
ENDBRANCH   9  11
ENDBRANCH   1   9
TORSDOF 7
ENDMDL
MODEL 4
REMARK VINA RESULT:    -1.155      4.920      8.018
REMARK INTER + INTRA:          -4.741
REMARK INTER:                  -1.605
REMARK INTRA:                  -3.136
REMARK UNBOUND:                -3.147
REMARK SMILES CC[C@H](CC[C@H](C)[C@@H]1CC[C@H]2[C@@H]3CC=C4C[C@@H](O)CC[C@@]4(C)[C@H]3CC[C@@]21C)C(C)C
REMARK SMILES IDX 5 1 4 2 3 3 2 4 1 5 28 6 29 7 30 8 6 9 7 10 8 11 9 12 26 13
REMARK SMILES IDX 10 14 11 15 25 16 27 17 12 18 24 19 23 20 13 21 21 22 14 23
REMARK SMILES IDX 15 24 20 25 22 26 16 27 19 28 17 29 18 30
REMARK H PARENT 18 31
REMARK Flexibility Score: inf
ROOT
ATOM      1  C   UNL     1     -18.391 -17.139  76.972  1.00  0.00     0.004 C 
ENDROOT
BRANCH   1   2
ATOM      2  C   UNL     1     -17.392 -17.810  75.990  1.00  0.00     0.004 C 
BRANCH   2   3
ATOM      3  C   UNL     1     -17.146 -19.324  76.247  1.00  0.00    -0.009 C 
BRANCH   3   4
ATOM      4  C   UNL     1     -17.943 -20.203  75.242  1.00  0.00     0.000 C 
ATOM      5  C   UNL     1     -18.815 -21.252  75.928  1.00  0.00     0.004 C 
ENDBRANCH   3   4
BRANCH   3   6
ATOM      6  C   UNL     1     -15.618 -19.662  76.404  1.00  0.00    -0.014 C 
ATOM      7  C   UNL     1     -14.835 -18.504  77.040  1.00  0.00     0.007 C 
ATOM      8  C   UNL     1     -15.318 -20.980  77.147  1.00  0.00     0.007 C 
ENDBRANCH   3   6
ENDBRANCH   2   3
ENDBRANCH   1   2
BRANCH   1   9
ATOM      9  C   UNL     1     -19.358 -18.129  77.709  1.00  0.00    -0.011 C 
ATOM     10  C   UNL     1     -20.798 -17.901  77.193  1.00  0.00     0.008 C 
BRANCH   9  11
ATOM     11  C   UNL     1     -19.149 -18.075  79.277  1.00  0.00    -0.002 C 
ATOM     12  C   UNL     1     -18.131 -16.937  79.620  1.00  0.00     0.005 C 
ATOM     13  C   UNL     1     -18.554 -19.292  80.085  1.00  0.00    -0.026 C 
ATOM     14  C   UNL     1     -16.835 -17.592  80.128  1.00  0.00     0.005 C 
ATOM     15  C   UNL     1     -17.044 -19.085  79.923  1.00  0.00    -0.001 C 
ATOM     16  C   UNL     1     -18.866 -20.749  79.645  1.00  0.00     0.007 C 
ATOM     17  C   UNL     1     -19.035 -19.112  81.571  1.00  0.00     0.012 C 
ATOM     18  C   UNL     1     -16.186 -20.041  80.796  1.00  0.00     0.000 C 
ATOM     19  C   UNL     1     -18.091 -21.781  80.493  1.00  0.00     0.005 C 
ATOM     20  C   UNL     1     -16.546 -21.525  80.484  1.00  0.00     0.003 C 
ATOM     21  C   UNL     1     -14.696 -19.842  80.485  1.00  0.00     0.031 C 
ATOM     22  C   UNL     1     -15.715 -22.534  81.380  1.00  0.00    -0.008 C 
ATOM     23  C   UNL     1     -13.857 -20.802  81.270  1.00  0.00    -0.027 C 
ATOM     24  C   UNL     1     -14.281 -22.029  81.640  1.00  0.00    -0.065 C 
ATOM     25  C   UNL     1     -16.394 -22.756  82.774  1.00  0.00     0.014 C 
ATOM     26  C   UNL     1     -15.630 -23.891  80.628  1.00  0.00     0.016 C 
ATOM     27  C   UNL     1     -13.418 -22.817  82.603  1.00  0.00     0.063 C 
ATOM     28  C   UNL     1     -15.527 -23.514  83.800  1.00  0.00     0.033 C 
ATOM     29  C   UNL     1     -14.132 -22.895  83.963  1.00  0.00     0.118 C 
BRANCH  29  30
ATOM     30  O   UNL     1     -14.252 -21.610  84.523  1.00  0.00    -0.393 OA
ATOM     31  H   UNL     1     -13.400 -21.415  84.991  1.00  0.00     0.210 HD
ENDBRANCH  29  30
ENDBRANCH   9  11
ENDBRANCH   1   9
TORSDOF 7
ENDMDL
MODEL 5
REMARK VINA RESULT:    -1.147      6.933      9.290
REMARK INTER + INTRA:          -4.730
REMARK INTER:                  -1.831
REMARK INTRA:                  -2.899
REMARK UNBOUND:                -3.147
REMARK SMILES CC[C@H](CC[C@H](C)[C@@H]1CC[C@H]2[C@@H]3CC=C4C[C@@H](O)CC[C@@]4(C)[C@H]3CC[C@@]21C)C(C)C
REMARK SMILES IDX 5 1 4 2 3 3 2 4 1 5 28 6 29 7 30 8 6 9 7 10 8 11 9 12 26 13
REMARK SMILES IDX 10 14 11 15 25 16 27 17 12 18 24 19 23 20 13 21 21 22 14 23
REMARK SMILES IDX 15 24 20 25 22 26 16 27 19 28 17 29 18 30
REMARK H PARENT 18 31
REMARK Flexibility Score: inf
ROOT
ATOM      1  C   UNL     1     -22.864 -23.502  83.544  1.00  0.00     0.004 C 
ENDROOT
BRANCH   1   2
ATOM      2  C   UNL     1     -22.515 -24.884  82.928  1.00  0.00     0.004 C 
BRANCH   2   3
ATOM      3  C   UNL     1     -21.038 -25.035  82.464  1.00  0.00    -0.009 C 
BRANCH   3   4
ATOM      4  C   UNL     1     -20.260 -26.026  83.374  1.00  0.00     0.000 C 
ATOM      5  C   UNL     1     -18.860 -26.343  82.851  1.00  0.00     0.004 C 
ENDBRANCH   3   4
BRANCH   3   6
ATOM      6  C   UNL     1     -20.921 -25.278  80.914  1.00  0.00    -0.014 C 
ATOM      7  C   UNL     1     -22.240 -25.781  80.309  1.00  0.00     0.007 C 
ATOM      8  C   UNL     1     -20.388 -24.076  80.107  1.00  0.00     0.007 C 
ENDBRANCH   3   6
ENDBRANCH   2   3
ENDBRANCH   1   2
BRANCH   1   9
ATOM      9  C   UNL     1     -22.277 -23.250  84.975  1.00  0.00    -0.011 C 
ATOM     10  C   UNL     1     -23.439 -23.202  85.994  1.00  0.00     0.008 C 
BRANCH   9  11
ATOM     11  C   UNL     1     -21.279 -22.022  84.978  1.00  0.00    -0.002 C 
ATOM     12  C   UNL     1     -21.389 -21.268  83.610  1.00  0.00     0.005 C 
ATOM     13  C   UNL     1     -19.719 -22.209  85.117  1.00  0.00    -0.026 C 
ATOM     14  C   UNL     1     -20.078 -21.491  82.836  1.00  0.00     0.005 C 
ATOM     15  C   UNL     1     -19.294 -22.492  83.672  1.00  0.00    -0.001 C 
ATOM     16  C   UNL     1     -19.146 -23.354  85.996  1.00  0.00     0.007 C 
ATOM     17  C   UNL     1     -19.158 -20.844  85.658  1.00  0.00     0.012 C 
ATOM     18  C   UNL     1     -17.754 -22.522  83.469  1.00  0.00     0.000 C 
ATOM     19  C   UNL     1     -17.606 -23.434  85.898  1.00  0.00     0.005 C 
ATOM     20  C   UNL     1     -17.106 -23.575  84.420  1.00  0.00     0.003 C 
ATOM     21  C   UNL     1     -17.422 -22.924  82.026  1.00  0.00     0.031 C 
ATOM     22  C   UNL     1     -15.529 -23.613  84.268  1.00  0.00    -0.008 C 
ATOM     23  C   UNL     1     -15.940 -23.023  81.830  1.00  0.00    -0.027 C 
ATOM     24  C   UNL     1     -15.083 -23.375  82.811  1.00  0.00    -0.065 C 
ATOM     25  C   UNL     1     -14.841 -22.521  85.155  1.00  0.00     0.014 C 
ATOM     26  C   UNL     1     -15.035 -25.019  84.710  1.00  0.00     0.016 C 
ATOM     27  C   UNL     1     -13.600 -23.237  82.541  1.00  0.00     0.063 C 
ATOM     28  C   UNL     1     -13.338 -22.316  84.875  1.00  0.00     0.033 C 
ATOM     29  C   UNL     1     -13.043 -22.080  83.388  1.00  0.00     0.118 C 
BRANCH  29  30
ATOM     30  O   UNL     1     -13.619 -20.862  82.983  1.00  0.00    -0.393 OA
ATOM     31  H   UNL     1     -13.708 -20.298  83.794  1.00  0.00     0.210 HD
ENDBRANCH  29  30
ENDBRANCH   9  11
ENDBRANCH   1   9
TORSDOF 7
ENDMDL
MODEL 6
REMARK VINA RESULT:    -1.127      4.756      7.714
REMARK INTER + INTRA:          -4.703
REMARK INTER:                  -1.572
REMARK INTRA:                  -3.131
REMARK UNBOUND:                -3.147
REMARK SMILES CC[C@H](CC[C@H](C)[C@@H]1CC[C@H]2[C@@H]3CC=C4C[C@@H](O)CC[C@@]4(C)[C@H]3CC[C@@]21C)C(C)C
REMARK SMILES IDX 5 1 4 2 3 3 2 4 1 5 28 6 29 7 30 8 6 9 7 10 8 11 9 12 26 13
REMARK SMILES IDX 10 14 11 15 25 16 27 17 12 18 24 19 23 20 13 21 21 22 14 23
REMARK SMILES IDX 15 24 20 25 22 26 16 27 19 28 17 29 18 30
REMARK H PARENT 18 31
REMARK Flexibility Score: inf
ROOT
ATOM      1  C   UNL     1     -20.049 -17.724  77.764  1.00  0.00     0.004 C 
ENDROOT
BRANCH   1   2
ATOM      2  C   UNL     1     -19.190 -18.333  76.623  1.00  0.00     0.004 C 
BRANCH   2   3
ATOM      3  C   UNL     1     -18.848 -19.840  76.800  1.00  0.00    -0.009 C 
BRANCH   3   4
ATOM      4  C   UNL     1     -19.790 -20.735  75.946  1.00  0.00     0.000 C 
ATOM      5  C   UNL     1     -20.453 -21.847  76.757  1.00  0.00     0.004 C 
ENDBRANCH   3   4
BRANCH   3   6
ATOM      6  C   UNL     1     -17.308 -20.123  76.659  1.00  0.00    -0.014 C 
ATOM      7  C   UNL     1     -16.460 -18.910  77.072  1.00  0.00     0.007 C 
ATOM      8  C   UNL     1     -16.812 -21.391  77.383  1.00  0.00     0.007 C 
ENDBRANCH   3   6
ENDBRANCH   2   3
ENDBRANCH   1   2
BRANCH   1   9
ATOM      9  C   UNL     1     -20.726 -18.774  78.713  1.00  0.00    -0.011 C 
ATOM     10  C   UNL     1     -22.258 -18.713  78.517  1.00  0.00     0.008 C 
BRANCH   9  11
ATOM     11  C   UNL     1     -20.193 -18.632  80.197  1.00  0.00    -0.002 C 
ATOM     12  C   UNL     1     -19.240 -17.394  80.285  1.00  0.00     0.005 C 
ATOM     13  C   UNL     1     -19.327 -19.755  80.888  1.00  0.00    -0.026 C 
ATOM     14  C   UNL     1     -17.809 -17.910  80.516  1.00  0.00     0.005 C 
ATOM     15  C   UNL     1     -17.913 -19.423  80.398  1.00  0.00    -0.001 C 
ATOM     16  C   UNL     1     -19.585 -21.251  80.561  1.00  0.00     0.007 C 
ATOM     17  C   UNL     1     -19.495 -19.552  82.437  1.00  0.00     0.012 C 
ATOM     18  C   UNL     1     -16.801 -20.259  81.088  1.00  0.00     0.000 C 
ATOM     19  C   UNL     1     -18.552 -22.173  81.247  1.00  0.00     0.005 C 
ATOM     20  C   UNL     1     -17.075 -21.782  80.898  1.00  0.00     0.003 C 
ATOM     21  C   UNL     1     -15.437 -19.944  80.457  1.00  0.00     0.031 C 
ATOM     22  C   UNL     1     -15.980 -22.673  81.618  1.00  0.00    -0.008 C 
ATOM     23  C   UNL     1     -14.362 -20.790  81.067  1.00  0.00    -0.027 C 
ATOM     24  C   UNL     1     -14.579 -22.032  81.549  1.00  0.00    -0.065 C 
ATOM     25  C   UNL     1     -16.323 -22.892  83.130  1.00  0.00     0.014 C 
ATOM     26  C   UNL     1     -15.927 -24.049  80.899  1.00  0.00     0.016 C 
ATOM     27  C   UNL     1     -13.460 -22.698  82.322  1.00  0.00     0.063 C 
ATOM     28  C   UNL     1     -15.189 -23.524  83.963  1.00  0.00     0.033 C 
ATOM     29  C   UNL     1     -13.857 -22.778  83.806  1.00  0.00     0.118 C 
BRANCH  29  30
ATOM     30  O   UNL     1     -13.977 -21.485  84.347  1.00  0.00    -0.393 OA
ATOM     31  H   UNL     1     -13.523 -20.864  83.722  1.00  0.00     0.210 HD
ENDBRANCH  29  30
ENDBRANCH   9  11
ENDBRANCH   1   9
TORSDOF 7
ENDMDL
MODEL 7
REMARK VINA RESULT:    -1.125      6.728      9.358
REMARK INTER + INTRA:          -4.699
REMARK INTER:                  -2.012
REMARK INTRA:                  -2.687
REMARK UNBOUND:                -3.147
REMARK SMILES CC[C@H](CC[C@H](C)[C@@H]1CC[C@H]2[C@@H]3CC=C4C[C@@H](O)CC[C@@]4(C)[C@H]3CC[C@@]21C)C(C)C
REMARK SMILES IDX 5 1 4 2 3 3 2 4 1 5 28 6 29 7 30 8 6 9 7 10 8 11 9 12 26 13
REMARK SMILES IDX 10 14 11 15 25 16 27 17 12 18 24 19 23 20 13 21 21 22 14 23
REMARK SMILES IDX 15 24 20 25 22 26 16 27 19 28 17 29 18 30
REMARK H PARENT 18 31
REMARK Flexibility Score: inf
ROOT
ATOM      1  C   UNL     1     -16.866 -20.326  76.604  1.00  0.00     0.004 C 
ENDROOT
BRANCH   1   2
ATOM      2  C   UNL     1     -15.361 -20.435  76.240  1.00  0.00     0.004 C 
BRANCH   2   3
ATOM      3  C   UNL     1     -14.390 -20.318  77.449  1.00  0.00    -0.009 C 
BRANCH   3   4
ATOM      4  C   UNL     1     -13.268 -21.392  77.377  1.00  0.00     0.000 C 
ATOM      5  C   UNL     1     -13.699 -22.743  77.945  1.00  0.00     0.004 C 
ENDBRANCH   3   4
BRANCH   3   6
ATOM      6  C   UNL     1     -13.917 -18.838  77.693  1.00  0.00    -0.014 C 
ATOM      7  C   UNL     1     -13.087 -18.703  78.979  1.00  0.00     0.007 C 
ATOM      8  C   UNL     1     -13.173 -18.190  76.507  1.00  0.00     0.007 C 
ENDBRANCH   3   6
ENDBRANCH   2   3
ENDBRANCH   1   2
BRANCH   1   9
ATOM      9  C   UNL     1     -17.506 -21.642  77.168  1.00  0.00    -0.011 C 
ATOM     10  C   UNL     1     -18.533 -22.180  76.145  1.00  0.00     0.008 C 
BRANCH   9  11
ATOM     11  C   UNL     1     -18.021 -21.439  78.651  1.00  0.00    -0.002 C 
ATOM     12  C   UNL     1     -17.795 -19.949  79.074  1.00  0.00     0.005 C 
ATOM     13  C   UNL     1     -17.393 -22.219  79.870  1.00  0.00    -0.026 C 
ATOM     14  C   UNL     1     -16.694 -19.921  80.149  1.00  0.00     0.005 C 
ATOM     15  C   UNL     1     -16.180 -21.351  80.222  1.00  0.00    -0.001 C 
ATOM     16  C   UNL     1     -16.879 -23.673  79.685  1.00  0.00     0.007 C 
ATOM     17  C   UNL     1     -18.485 -22.222  81.001  1.00  0.00     0.012 C 
ATOM     18  C   UNL     1     -15.470 -21.775  81.537  1.00  0.00     0.000 C 
ATOM     19  C   UNL     1     -16.195 -24.204  80.964  1.00  0.00     0.005 C 
ATOM     20  C   UNL     1     -15.037 -23.271  81.457  1.00  0.00     0.003 C 
ATOM     21  C   UNL     1     -14.206 -20.931  81.748  1.00  0.00     0.031 C 
ATOM     22  C   UNL     1     -14.337 -23.755  82.795  1.00  0.00    -0.008 C 
ATOM     23  C   UNL     1     -13.473 -21.371  82.978  1.00  0.00    -0.027 C 
ATOM     24  C   UNL     1     -13.484 -22.641  83.434  1.00  0.00    -0.065 C 
ATOM     25  C   UNL     1     -15.391 -24.210  83.860  1.00  0.00     0.014 C 
ATOM     26  C   UNL     1     -13.407 -24.950  82.449  1.00  0.00     0.016 C 
ATOM     27  C   UNL     1     -12.875 -22.911  84.794  1.00  0.00     0.063 C 
ATOM     28  C   UNL     1     -14.818 -24.448  85.272  1.00  0.00     0.033 C 
ATOM     29  C   UNL     1     -14.000 -23.255  85.785  1.00  0.00     0.118 C 
BRANCH  29  30
ATOM     30  O   UNL     1     -14.848 -22.147  85.961  1.00  0.00    -0.393 OA
ATOM     31  H   UNL     1     -14.443 -21.578  86.665  1.00  0.00     0.210 HD
ENDBRANCH  29  30
ENDBRANCH   9  11
ENDBRANCH   1   9
TORSDOF 7
ENDMDL
MODEL 8
REMARK VINA RESULT:    -1.117      1.903      4.565
REMARK INTER + INTRA:          -4.689
REMARK INTER:                  -1.584
REMARK INTRA:                  -3.104
REMARK UNBOUND:                -3.147
REMARK SMILES CC[C@H](CC[C@H](C)[C@@H]1CC[C@H]2[C@@H]3CC=C4C[C@@H](O)CC[C@@]4(C)[C@H]3CC[C@@]21C)C(C)C
REMARK SMILES IDX 5 1 4 2 3 3 2 4 1 5 28 6 29 7 30 8 6 9 7 10 8 11 9 12 26 13
REMARK SMILES IDX 10 14 11 15 25 16 27 17 12 18 24 19 23 20 13 21 21 22 14 23
REMARK SMILES IDX 15 24 20 25 22 26 16 27 19 28 17 29 18 30
REMARK H PARENT 18 31
REMARK Flexibility Score: inf
ROOT
ATOM      1  C   UNL     1     -20.686 -15.677  79.855  1.00  0.00     0.004 C 
ENDROOT
BRANCH   1   2
ATOM      2  C   UNL     1     -19.515 -16.136  78.945  1.00  0.00     0.004 C 
BRANCH   2   3
ATOM      3  C   UNL     1     -18.249 -16.619  79.709  1.00  0.00    -0.009 C 
BRANCH   3   4
ATOM      4  C   UNL     1     -18.223 -18.169  79.832  1.00  0.00     0.000 C 
ATOM      5  C   UNL     1     -18.019 -18.650  81.267  1.00  0.00     0.004 C 
ENDBRANCH   3   4
BRANCH   3   6
ATOM      6  C   UNL     1     -16.934 -15.944  79.172  1.00  0.00    -0.014 C 
ATOM      7  C   UNL     1     -17.204 -14.559  78.565  1.00  0.00     0.007 C 
ATOM      8  C   UNL     1     -15.782 -15.862  80.195  1.00  0.00     0.007 C 
ENDBRANCH   3   6
ENDBRANCH   2   3
ENDBRANCH   1   2
BRANCH   1   9
ATOM      9  C   UNL     1     -20.500 -15.992  81.380  1.00  0.00    -0.011 C 
ATOM     10  C   UNL     1     -21.581 -17.006  81.819  1.00  0.00     0.008 C 
BRANCH   9  11
ATOM     11  C   UNL     1     -20.387 -14.662  82.230  1.00  0.00    -0.002 C 
ATOM     12  C   UNL     1     -20.520 -13.429  81.276  1.00  0.00     0.005 C 
ATOM     13  C   UNL     1     -19.088 -14.297  83.048  1.00  0.00    -0.026 C 
ATOM     14  C   UNL     1     -19.152 -12.727  81.210  1.00  0.00     0.005 C 
ATOM     15  C   UNL     1     -18.207 -13.636  81.982  1.00  0.00    -0.001 C 
ATOM     16  C   UNL     1     -18.241 -15.419  83.709  1.00  0.00     0.007 C 
ATOM     17  C   UNL     1     -19.539 -13.293  84.169  1.00  0.00     0.012 C 
ATOM     18  C   UNL     1     -16.918 -12.984  82.553  1.00  0.00     0.000 C 
ATOM     19  C   UNL     1     -16.953 -14.859  84.352  1.00  0.00     0.005 C 
ATOM     20  C   UNL     1     -16.083 -14.042  83.338  1.00  0.00     0.003 C 
ATOM     21  C   UNL     1     -16.046 -12.451  81.408  1.00  0.00     0.031 C 
ATOM     22  C   UNL     1     -14.773 -13.409  83.968  1.00  0.00    -0.008 C 
ATOM     23  C   UNL     1     -14.767 -11.878  81.938  1.00  0.00    -0.027 C 
ATOM     24  C   UNL     1     -14.160 -12.326  83.057  1.00  0.00    -0.065 C 
ATOM     25  C   UNL     1     -15.068 -12.744  85.355  1.00  0.00     0.014 C 
ATOM     26  C   UNL     1     -13.729 -14.544  84.154  1.00  0.00     0.016 C 
ATOM     27  C   UNL     1     -12.990 -11.530  83.596  1.00  0.00     0.063 C 
ATOM     28  C   UNL     1     -13.917 -11.884  85.915  1.00  0.00     0.033 C 
ATOM     29  C   UNL     1     -13.413 -10.844  84.905  1.00  0.00     0.118 C 
BRANCH  29  30
ATOM     30  O   UNL     1     -14.429  -9.904  84.654  1.00  0.00    -0.393 OA
ATOM     31  H   UNL     1     -14.439  -9.274  85.419  1.00  0.00     0.210 HD
ENDBRANCH  29  30
ENDBRANCH   9  11
ENDBRANCH   1   9
TORSDOF 7
ENDMDL
MODEL 9
REMARK VINA RESULT:    -1.095      1.303      1.980
REMARK INTER + INTRA:          -4.658
REMARK INTER:                  -1.747
REMARK INTRA:                  -2.911
REMARK UNBOUND:                -3.147
REMARK SMILES CC[C@H](CC[C@H](C)[C@@H]1CC[C@H]2[C@@H]3CC=C4C[C@@H](O)CC[C@@]4(C)[C@H]3CC[C@@]21C)C(C)C
REMARK SMILES IDX 5 1 4 2 3 3 2 4 1 5 28 6 29 7 30 8 6 9 7 10 8 11 9 12 26 13
REMARK SMILES IDX 10 14 11 15 25 16 27 17 12 18 24 19 23 20 13 21 21 22 14 23
REMARK SMILES IDX 15 24 20 25 22 26 16 27 19 28 17 29 18 30
REMARK H PARENT 18 31
REMARK Flexibility Score: inf
ROOT
ATOM      1  C   UNL     1     -22.262 -15.105  80.884  1.00  0.00     0.004 C 
ENDROOT
BRANCH   1   2
ATOM      2  C   UNL     1     -22.493 -13.931  81.874  1.00  0.00     0.004 C 
BRANCH   2   3
ATOM      3  C   UNL     1     -21.257 -13.558  82.740  1.00  0.00    -0.009 C 
BRANCH   3   4
ATOM      4  C   UNL     1     -20.735 -12.134  82.395  1.00  0.00     0.000 C 
ATOM      5  C   UNL     1     -19.702 -11.619  83.394  1.00  0.00     0.004 C 
ENDBRANCH   3   4
BRANCH   3   6
ATOM      6  C   UNL     1     -21.484 -13.861  84.267  1.00  0.00    -0.014 C 
ATOM      7  C   UNL     1     -22.850 -13.358  84.757  1.00  0.00     0.007 C 
ATOM      8  C   UNL     1     -21.282 -15.336  84.673  1.00  0.00     0.007 C 
ENDBRANCH   3   6
ENDBRANCH   2   3
ENDBRANCH   1   2
BRANCH   1   9
ATOM      9  C   UNL     1     -21.333 -14.769  79.667  1.00  0.00    -0.011 C 
ATOM     10  C   UNL     1     -22.170 -14.814  78.368  1.00  0.00     0.008 C 
BRANCH   9  11
ATOM     11  C   UNL     1     -20.015 -15.646  79.693  1.00  0.00    -0.002 C 
ATOM     12  C   UNL     1     -20.205 -16.829  80.700  1.00  0.00     0.005 C 
ATOM     13  C   UNL     1     -18.625 -15.057  80.148  1.00  0.00    -0.026 C 
ATOM     14  C   UNL     1     -19.281 -16.583  81.905  1.00  0.00     0.005 C 
ATOM     15  C   UNL     1     -18.694 -15.199  81.673  1.00  0.00    -0.001 C 
ATOM     16  C   UNL     1     -18.267 -13.577  79.842  1.00  0.00     0.007 C 
ATOM     17  C   UNL     1     -17.524 -15.975  79.503  1.00  0.00     0.012 C 
ATOM     18  C   UNL     1     -17.355 -14.875  82.391  1.00  0.00     0.000 C 
ATOM     19  C   UNL     1     -16.918 -13.172  80.478  1.00  0.00     0.005 C 
ATOM     20  C   UNL     1     -16.879 -13.437  82.021  1.00  0.00     0.003 C 
ATOM     21  C   UNL     1     -17.547 -14.930  83.913  1.00  0.00     0.031 C 
ATOM     22  C   UNL     1     -15.496 -13.079  82.708  1.00  0.00    -0.008 C 
ATOM     23  C   UNL     1     -16.283 -14.556  84.622  1.00  0.00    -0.027 C 
ATOM     24  C   UNL     1     -15.376 -13.693  84.117  1.00  0.00    -0.065 C 
ATOM     25  C   UNL     1     -14.285 -13.599  81.862  1.00  0.00     0.014 C 
ATOM     26  C   UNL     1     -15.406 -11.533  82.836  1.00  0.00     0.016 C 
ATOM     27  C   UNL     1     -14.049 -13.559  84.834  1.00  0.00     0.063 C 
ATOM     28  C   UNL     1     -12.921 -13.525  82.578  1.00  0.00     0.033 C 
ATOM     29  C   UNL     1     -12.945 -14.183  83.963  1.00  0.00     0.118 C 
BRANCH  29  30
ATOM     30  O   UNL     1     -13.163 -15.566  83.821  1.00  0.00    -0.393 OA
ATOM     31  H   UNL     1     -12.513 -16.026  84.412  1.00  0.00     0.210 HD
ENDBRANCH  29  30
ENDBRANCH   9  11
ENDBRANCH   1   9
TORSDOF 7
ENDMDL
