MODEL 1
REMARK VINA RESULT:    -3.828      0.000      0.000
REMARK INTER + INTRA:          -4.843
REMARK INTER:                  -4.723
REMARK INTRA:                  -0.120
REMARK UNBOUND:                -0.120
REMARK SMILES CCCCCC(=O)[O-]
REMARK SMILES IDX 4 1 5 2 6 3 7 4 8 5 3 6 2 7 1 8
REMARK H PARENT
REMARK Flexibility Score: inf
ROOT
ATOM      1  C   UNL     1      24.318 -14.381  14.021  1.00  0.00     0.006 C 
ENDROOT
BRANCH   1   2
ATOM      2  C   UNL     1      23.699 -15.468  14.909  1.00  0.00     0.053 C 
BRANCH   2   3
ATOM      3  C   UNL     1      24.749 -16.105  15.763  1.00  0.00     0.041 C 
ATOM      4  O   UNL     1      24.630 -17.307  16.122  1.00  0.00    -0.550 OA
ATOM      5  O   UNL     1      25.882 -15.388  16.124  1.00  0.00    -0.550 OA
ENDBRANCH   2   3
ENDBRANCH   1   2
BRANCH   1   6
ATOM      6  C   UNL     1      24.308 -14.752  12.527  1.00  0.00     0.000 C 
BRANCH   6   7
ATOM      7  C   UNL     1      23.210 -15.748  12.115  1.00  0.00    -0.003 C 
ATOM      8  C   UNL     1      23.247 -16.098  10.628  1.00  0.00     0.004 C 
ENDBRANCH   6   7
ENDBRANCH   1   6
TORSDOF 4
ENDMDL
MODEL 2
REMARK VINA RESULT:    -3.727      0.196      1.156
REMARK INTER + INTRA:          -4.719
REMARK INTER:                  -4.592
REMARK INTRA:                  -0.127
REMARK UNBOUND:                -0.120
REMARK SMILES CCCCCC(=O)[O-]
REMARK SMILES IDX 4 1 5 2 6 3 7 4 8 5 3 6 2 7 1 8
REMARK H PARENT
REMARK Flexibility Score: inf
ROOT
ATOM      1  C   UNL     1      24.018 -14.367  13.984  1.00  0.00     0.006 C 
ENDROOT
BRANCH   1   2
ATOM      2  C   UNL     1      23.587 -15.420  15.012  1.00  0.00     0.053 C 
BRANCH   2   3
ATOM      3  C   UNL     1      24.782 -15.992  15.706  1.00  0.00     0.041 C 
ATOM      4  O   UNL     1      25.781 -15.265  15.952  1.00  0.00    -0.550 OA
ATOM      5  O   UNL     1      24.776 -17.317  16.124  1.00  0.00    -0.550 OA
ENDBRANCH   2   3
ENDBRANCH   1   2
BRANCH   1   6
ATOM      6  C   UNL     1      24.298 -14.965  12.593  1.00  0.00     0.000 C 
BRANCH   6   7
ATOM      7  C   UNL     1      23.218 -15.933  12.078  1.00  0.00    -0.003 C 
ATOM      8  C   UNL     1      23.192 -16.043  10.554  1.00  0.00     0.004 C 
ENDBRANCH   6   7
ENDBRANCH   1   6
TORSDOF 4
ENDMDL
MODEL 3
REMARK VINA RESULT:    -3.443      3.257      4.580
REMARK INTER + INTRA:          -4.368
REMARK INTER:                  -4.265
REMARK INTRA:                  -0.103
REMARK UNBOUND:                -0.120
REMARK SMILES CCCCCC(=O)[O-]
REMARK SMILES IDX 4 1 5 2 6 3 7 4 8 5 3 6 2 7 1 8
REMARK H PARENT
REMARK Flexibility Score: inf
ROOT
ATOM      1  C   UNL     1      24.239 -14.620  12.766  1.00  0.00     0.006 C 
ENDROOT
BRANCH   1   2
ATOM      2  C   UNL     1      23.348 -15.770  12.281  1.00  0.00     0.053 C 
BRANCH   2   3
ATOM      3  C   UNL     1      23.208 -15.730  10.792  1.00  0.00     0.041 C 
ATOM      4  O   UNL     1      24.123 -16.187  10.057  1.00  0.00    -0.550 OA
ATOM      5  O   UNL     1      22.047 -15.231  10.216  1.00  0.00    -0.550 OA
ENDBRANCH   2   3
ENDBRANCH   1   2
BRANCH   1   6
ATOM      6  C   UNL     1      24.322 -14.532  14.301  1.00  0.00     0.000 C 
BRANCH   6   7
ATOM      7  C   UNL     1      23.630 -15.683  15.052  1.00  0.00    -0.003 C 
ATOM      8  C   UNL     1      24.515 -16.315  16.125  1.00  0.00     0.004 C 
ENDBRANCH   6   7
ENDBRANCH   1   6
TORSDOF 4
ENDMDL
MODEL 4
REMARK VINA RESULT:    -3.299     15.064     16.092
REMARK INTER + INTRA:          -4.191
REMARK INTER:                  -4.055
REMARK INTRA:                  -0.136
REMARK UNBOUND:                -0.120
REMARK SMILES CCCCCC(=O)[O-]
REMARK SMILES IDX 4 1 5 2 6 3 7 4 8 5 3 6 2 7 1 8
REMARK H PARENT
REMARK Flexibility Score: inf
ROOT
ATOM      1  C   UNL     1      24.381 -14.151  -2.431  1.00  0.00     0.006 C 
ENDROOT
BRANCH   1   2
ATOM      2  C   UNL     1      24.841 -13.497  -1.122  1.00  0.00     0.053 C 
BRANCH   2   3
ATOM      3  C   UNL     1      26.310 -13.701  -0.925  1.00  0.00     0.041 C 
ATOM      4  O   UNL     1      27.040 -14.033  -1.897  1.00  0.00    -0.550 OA
ATOM      5  O   UNL     1      26.882 -13.478   0.321  1.00  0.00    -0.550 OA
ENDBRANCH   2   3
ENDBRANCH   1   2
BRANCH   1   6
ATOM      6  C   UNL     1      23.204 -15.123  -2.233  1.00  0.00     0.000 C 
BRANCH   6   7
ATOM      7  C   UNL     1      23.324 -16.448  -3.007  1.00  0.00    -0.003 C 
ATOM      8  C   UNL     1      24.667 -16.607  -3.718  1.00  0.00     0.004 C 
ENDBRANCH   6   7
ENDBRANCH   1   6
TORSDOF 4
ENDMDL
MODEL 5
REMARK VINA RESULT:    -3.281     14.969     16.290
REMARK INTER + INTRA:          -4.168
REMARK INTER:                  -4.056
REMARK INTRA:                  -0.112
REMARK UNBOUND:                -0.120
REMARK SMILES CCCCCC(=O)[O-]
REMARK SMILES IDX 4 1 5 2 6 3 7 4 8 5 3 6 2 7 1 8
REMARK H PARENT
REMARK Flexibility Score: inf
ROOT
ATOM      1  C   UNL     1      24.323 -13.508  -1.255  1.00  0.00     0.006 C 
ENDROOT
BRANCH   1   2
ATOM      2  C   UNL     1      24.758 -14.253  -2.523  1.00  0.00     0.053 C 
BRANCH   2   3
ATOM      3  C   UNL     1      23.724 -15.260  -2.916  1.00  0.00     0.041 C 
ATOM      4  O   UNL     1      23.741 -15.768  -4.069  1.00  0.00    -0.550 OA
ATOM      5  O   UNL     1      22.770 -15.674  -1.996  1.00  0.00    -0.550 OA
ENDBRANCH   2   3
ENDBRANCH   1   2
BRANCH   1   6
ATOM      6  C   UNL     1      25.511 -13.074  -0.377  1.00  0.00     0.000 C 
BRANCH   6   7
ATOM      7  C   UNL     1      26.862 -13.703  -0.763  1.00  0.00    -0.003 C 
ATOM      8  C   UNL     1      27.760 -13.977   0.442  1.00  0.00     0.004 C 
ENDBRANCH   6   7
ENDBRANCH   1   6
TORSDOF 4
ENDMDL
MODEL 6
REMARK VINA RESULT:    -3.209     14.195     15.059
REMARK INTER + INTRA:          -4.079
REMARK INTER:                  -3.973
REMARK INTRA:                  -0.106
REMARK UNBOUND:                -0.120
REMARK SMILES CCCCCC(=O)[O-]
REMARK SMILES IDX 4 1 5 2 6 3 7 4 8 5 3 6 2 7 1 8
REMARK H PARENT
REMARK Flexibility Score: inf
ROOT
ATOM      1  C   UNL     1      25.679 -13.152  -0.373  1.00  0.00     0.006 C 
ENDROOT
BRANCH   1   2
ATOM      2  C   UNL     1      26.942 -13.872  -0.863  1.00  0.00     0.053 C 
BRANCH   2   3
ATOM      3  C   UNL     1      27.770 -14.320   0.299  1.00  0.00     0.041 C 
ATOM      4  O   UNL     1      27.976 -13.542   1.269  1.00  0.00    -0.550 OA
ATOM      5  O   UNL     1      28.276 -15.613   0.336  1.00  0.00    -0.550 OA
ENDBRANCH   2   3
ENDBRANCH   1   2
BRANCH   1   6
ATOM      6  C   UNL     1      24.417 -13.557  -1.156  1.00  0.00     0.000 C 
BRANCH   6   7
ATOM      7  C   UNL     1      24.686 -14.279  -2.488  1.00  0.00    -0.003 C 
ATOM      8  C   UNL     1      23.578 -15.259  -2.871  1.00  0.00     0.004 C 
ENDBRANCH   6   7
ENDBRANCH   1   6
TORSDOF 4
ENDMDL
MODEL 7
REMARK VINA RESULT:    -3.179     13.859     14.856
REMARK INTER + INTRA:          -4.042
REMARK INTER:                  -3.981
REMARK INTRA:                  -0.062
REMARK UNBOUND:                -0.120
REMARK SMILES CCCCCC(=O)[O-]
REMARK SMILES IDX 4 1 5 2 6 3 7 4 8 5 3 6 2 7 1 8
REMARK H PARENT
REMARK Flexibility Score: inf
ROOT
ATOM      1  C   UNL     1      26.494 -13.792  -1.040  1.00  0.00     0.006 C 
ENDROOT
BRANCH   1   2
ATOM      2  C   UNL     1      27.096 -13.536   0.347  1.00  0.00     0.053 C 
BRANCH   2   3
ATOM      3  C   UNL     1      28.111 -14.584   0.676  1.00  0.00     0.041 C 
ATOM      4  O   UNL     1      28.316 -15.540  -0.119  1.00  0.00    -0.550 OA
ATOM      5  O   UNL     1      28.866 -14.481   1.837  1.00  0.00    -0.550 OA
ENDBRANCH   2   3
ENDBRANCH   1   2
BRANCH   1   6
ATOM      6  C   UNL     1      24.987 -13.480  -1.106  1.00  0.00     0.000 C 
BRANCH   6   7
ATOM      7  C   UNL     1      24.300 -13.886  -2.422  1.00  0.00    -0.003 C 
ATOM      8  C   UNL     1      23.303 -15.030  -2.248  1.00  0.00     0.004 C 
ENDBRANCH   6   7
ENDBRANCH   1   6
TORSDOF 4
ENDMDL
MODEL 8
REMARK VINA RESULT:    -3.136     14.394     15.802
REMARK INTER + INTRA:          -3.990
REMARK INTER:                  -3.946
REMARK INTRA:                  -0.043
REMARK UNBOUND:                -0.120
REMARK SMILES CCCCCC(=O)[O-]
REMARK SMILES IDX 4 1 5 2 6 3 7 4 8 5 3 6 2 7 1 8
REMARK H PARENT
REMARK Flexibility Score: inf
ROOT
ATOM      1  C   UNL     1      26.209 -13.850  -1.259  1.00  0.00     0.006 C 
ENDROOT
BRANCH   1   2
ATOM      2  C   UNL     1      24.739 -13.448  -1.089  1.00  0.00     0.053 C 
BRANCH   2   3
ATOM      3  C   UNL     1      23.913 -14.008  -2.203  1.00  0.00     0.041 C 
ATOM      4  O   UNL     1      23.919 -13.458  -3.336  1.00  0.00    -0.550 OA
ATOM      5  O   UNL     1      23.173 -15.167  -2.005  1.00  0.00    -0.550 OA
ENDBRANCH   2   3
ENDBRANCH   1   2
BRANCH   1   6
ATOM      6  C   UNL     1      27.070 -13.508  -0.028  1.00  0.00     0.000 C 
BRANCH   6   7
ATOM      7  C   UNL     1      28.003 -14.639   0.441  1.00  0.00    -0.003 C 
ATOM      8  C   UNL     1      28.803 -14.274   1.690  1.00  0.00     0.004 C 
ENDBRANCH   6   7
ENDBRANCH   1   6
TORSDOF 4
ENDMDL
MODEL 9
REMARK VINA RESULT:    -2.933     13.787     15.130
REMARK INTER + INTRA:          -3.739
REMARK INTER:                  -3.639
REMARK INTRA:                  -0.099
REMARK UNBOUND:                -0.120
REMARK SMILES CCCCCC(=O)[O-]
REMARK SMILES IDX 4 1 5 2 6 3 7 4 8 5 3 6 2 7 1 8
REMARK H PARENT
REMARK Flexibility Score: inf
ROOT
ATOM      1  C   UNL     1      27.682 -13.476  -0.415  1.00  0.00     0.006 C 
ENDROOT
BRANCH   1   2
ATOM      2  C   UNL     1      26.635 -14.027  -1.390  1.00  0.00     0.053 C 
BRANCH   2   3
ATOM      3  C   UNL     1      25.283 -13.473  -1.072  1.00  0.00     0.041 C 
ATOM      4  O   UNL     1      25.118 -12.750  -0.053  1.00  0.00    -0.550 OA
ATOM      5  O   UNL     1      24.214 -13.714  -1.925  1.00  0.00    -0.550 OA
ENDBRANCH   2   3
ENDBRANCH   1   2
BRANCH   1   6
ATOM      6  C   UNL     1      28.102 -14.500   0.656  1.00  0.00     0.000 C 
BRANCH   6   7
ATOM      7  C   UNL     1      28.832 -13.901   1.872  1.00  0.00    -0.003 C 
ATOM      8  C   UNL     1      29.567 -12.602   1.547  1.00  0.00     0.004 C 
ENDBRANCH   6   7
ENDBRANCH   1   6
TORSDOF 4
ENDMDL
