MODEL 1
REMARK VINA RESULT:    13.647      0.000      0.000
REMARK INTER + INTRA:          16.633
REMARK INTER:                  16.439
REMARK INTRA:                   0.194
REMARK UNBOUND:                 0.194
REMARK SMILES O=c1ccn([C@H]2O[C@@H](CO)[C@H](O)[C@@H]2O)c(=O)[nH]1
REMARK SMILES IDX 6 1 13 2 11 3 8 4 7 5 5 6 3 7 4 8 2 9 17 10 1 11 15 12 16 14
REMARK SMILES IDX 14 15 12 17 9 19 10 20
REMARK H PARENT 17 13 14 16 12 18 10 21
REMARK Flexibility Score: inf
ROOT
ATOM      1  C   UNL     1      -3.867   0.315  31.987  1.00  0.00     0.255 C 
ATOM      2  C   UNL     1      -4.224  -1.079  31.491  1.00  0.00     0.196 C 
ATOM      3  C   UNL     1      -5.432  -0.813  30.628  1.00  0.00     0.179 C 
ATOM      4  C   UNL     1      -5.190   0.625  30.149  1.00  0.00     0.178 C 
ATOM      5  O   UNL     1      -4.257   1.253  31.006  1.00  0.00    -0.347 OA
ENDROOT
BRANCH   1   6
ATOM      6  N   UNL     1      -2.421   0.423  32.269  1.00  0.00    -0.271 N 
ATOM      7  C   UNL     1      -0.292  -0.641  32.580  1.00  0.00     0.090 A 
ATOM      8  C   UNL     1      -1.652  -0.710  32.291  1.00  0.00     0.099 A 
ATOM      9  C   UNL     1       0.268   0.602  32.857  1.00  0.00     0.253 A 
ATOM     10  N   UNL     1      -0.514   1.712  32.847  1.00  0.00    -0.274 N 
ATOM     11  O   UNL     1       1.497   0.694  33.121  1.00  0.00    -0.269 OA
ATOM     12  C   UNL     1      -1.845   1.634  32.564  1.00  0.00     0.330 A 
ATOM     13  H   UNL     1      -0.087   2.642  33.064  1.00  0.00     0.175 HD
ATOM     14  O   UNL     1      -2.537   2.689  32.582  1.00  0.00    -0.248 OA
ENDBRANCH   1   6
BRANCH   2  15
ATOM     15  O   UNL     1      -4.520  -1.949  32.552  1.00  0.00    -0.386 OA
ATOM     16  H   UNL     1      -5.271  -1.536  33.052  1.00  0.00     0.211 HD
ENDBRANCH   2  15
BRANCH   3  17
ATOM     17  O   UNL     1      -6.615  -0.857  31.389  1.00  0.00    -0.387 OA
ATOM     18  H   UNL     1      -7.298  -1.313  30.832  1.00  0.00     0.211 HD
ENDBRANCH   3  17
BRANCH   4  19
ATOM     19  C   UNL     1      -4.656   0.675  28.710  1.00  0.00     0.191 C 
BRANCH  19  20
ATOM     20  O   UNL     1      -5.244  -0.334  27.933  1.00  0.00    -0.394 OA
ATOM     21  H   UNL     1      -4.994  -1.203  28.342  1.00  0.00     0.210 HD
ENDBRANCH  19  20
ENDBRANCH   4  19
TORSDOF 5
ENDMDL
MODEL 2
REMARK VINA RESULT:    14.011      2.196      5.747
REMARK INTER + INTRA:          17.071
REMARK INTER:                  16.281
REMARK INTRA:                   0.790
REMARK UNBOUND:                 0.194
REMARK SMILES O=c1ccn([C@H]2O[C@@H](CO)[C@H](O)[C@@H]2O)c(=O)[nH]1
REMARK SMILES IDX 6 1 13 2 11 3 8 4 7 5 5 6 3 7 4 8 2 9 17 10 1 11 15 12 16 14
REMARK SMILES IDX 14 15 12 17 9 19 10 20
REMARK H PARENT 17 13 14 16 12 18 10 21
REMARK Flexibility Score: inf
ROOT
ATOM      1  C   UNL     1      -4.576   0.894  31.476  1.00  0.00     0.255 C 
ATOM      2  C   UNL     1      -3.676   2.024  30.997  1.00  0.00     0.196 C 
ATOM      3  C   UNL     1      -2.623   2.075  32.076  1.00  0.00     0.179 C 
ATOM      4  C   UNL     1      -2.593   0.626  32.581  1.00  0.00     0.178 C 
ATOM      5  O   UNL     1      -3.791  -0.025  32.204  1.00  0.00    -0.347 OA
ENDROOT
BRANCH   1   6
ATOM      6  N   UNL     1      -5.241   0.227  30.337  1.00  0.00    -0.271 N 
ATOM      7  C   UNL     1      -6.811   0.311  28.524  1.00  0.00     0.090 A 
ATOM      8  C   UNL     1      -6.150   0.922  29.586  1.00  0.00     0.099 A 
ATOM      9  C   UNL     1      -6.536  -1.025  28.248  1.00  0.00     0.253 A 
ATOM     10  N   UNL     1      -5.644  -1.703  29.015  1.00  0.00    -0.274 N 
ATOM     11  O   UNL     1      -7.118  -1.603  27.292  1.00  0.00    -0.269 OA
ATOM     12  C   UNL     1      -5.003  -1.096  30.054  1.00  0.00     0.330 A 
ATOM     13  H   UNL     1      -5.448  -2.708  28.807  1.00  0.00     0.175 HD
ATOM     14  O   UNL     1      -4.193  -1.768  30.751  1.00  0.00    -0.248 OA
ENDBRANCH   1   6
BRANCH   2  15
ATOM     15  O   UNL     1      -4.376   3.237  30.891  1.00  0.00    -0.386 OA
ATOM     16  H   UNL     1      -3.866   3.902  31.423  1.00  0.00     0.211 HD
ENDBRANCH   2  15
BRANCH   3  17
ATOM     17  O   UNL     1      -3.016   2.926  33.125  1.00  0.00    -0.387 OA
ATOM     18  H   UNL     1      -2.771   2.470  33.972  1.00  0.00     0.211 HD
ENDBRANCH   3  17
BRANCH   4  19
ATOM     19  C   UNL     1      -1.400  -0.161  32.018  1.00  0.00     0.191 C 
BRANCH  19  20
ATOM     20  O   UNL     1      -0.192   0.451  32.387  1.00  0.00    -0.394 OA
ATOM     21  H   UNL     1       0.504  -0.256  32.393  1.00  0.00     0.210 HD
ENDBRANCH  19  20
ENDBRANCH   4  19
TORSDOF 5
ENDMDL
