MODEL 1
REMARK VINA RESULT:    -3.836      0.000      0.000
REMARK INTER + INTRA:         -10.127
REMARK INTER:                  -6.975
REMARK INTRA:                  -3.152
REMARK UNBOUND:                -3.152
REMARK SMILES CCCCCC=CCC=CCCCCCCCC(=O)[O-]
REMARK SMILES IDX 11 1 12 2 13 3 14 4 15 5 16 6 17 7 18 8 19 9 20 10 10 11
REMARK SMILES IDX 9 12 8 13 7 14 6 15 5 16 4 17 3 18 2 19 1 20
REMARK H PARENT
REMARK Flexibility Score: inf
ROOT
ATOM      1  C   UNL     1      20.373  13.376  35.191  1.00  0.00     0.027 C 
ENDROOT
BRANCH   1   2
ATOM      2  C   UNL     1      18.938  12.943  34.850  1.00  0.00     0.004 C 
BRANCH   2   3
ATOM      3  C   UNL     1      18.796  12.227  33.492  1.00  0.00     0.000 C 
BRANCH   3   4
ATOM      4  C   UNL     1      17.876  10.989  33.495  1.00  0.00     0.000 C 
BRANCH   4   5
ATOM      5  C   UNL     1      18.439   9.758  32.763  1.00  0.00     0.000 C 
BRANCH   5   6
ATOM      6  C   UNL     1      19.903   9.941  32.329  1.00  0.00     0.006 C 
BRANCH   6   7
ATOM      7  C   UNL     1      20.086   9.756  30.817  1.00  0.00     0.053 C 
BRANCH   7   8
ATOM      8  C   UNL     1      21.281  10.502  30.308  1.00  0.00     0.041 C 
ATOM      9  O   UNL     1      21.579  11.627  30.790  1.00  0.00    -0.550 OA
ATOM     10  O   UNL     1      22.086   9.938  29.326  1.00  0.00    -0.550 OA
ENDBRANCH   7   8
ENDBRANCH   6   7
ENDBRANCH   5   6
ENDBRANCH   4   5
ENDBRANCH   3   4
ENDBRANCH   2   3
ENDBRANCH   1   2
BRANCH   1  11
ATOM     11  C   UNL     1      21.372  12.886  34.172  1.00  0.00    -0.031 C 
ATOM     12  C   UNL     1      22.244  11.882  34.377  1.00  0.00    -0.027 C 
BRANCH  12  13
ATOM     13  C   UNL     1      22.305  11.042  35.628  1.00  0.00     0.054 C 
BRANCH  13  14
ATOM     14  C   UNL     1      21.505   9.777  35.472  1.00  0.00    -0.027 C 
ATOM     15  C   UNL     1      20.311   9.625  36.065  1.00  0.00    -0.031 C 
BRANCH  15  16
ATOM     16  C   UNL     1      19.520   8.354  35.927  1.00  0.00     0.027 C 
BRANCH  16  17
ATOM     17  C   UNL     1      20.358   7.247  35.270  1.00  0.00     0.004 C 
BRANCH  17  18
ATOM     18  C   UNL     1      19.623   6.546  34.113  1.00  0.00     0.000 C 
BRANCH  18  19
ATOM     19  C   UNL     1      20.507   6.189  32.905  1.00  0.00    -0.003 C 
ATOM     20  C   UNL     1      19.720   6.092  31.598  1.00  0.00     0.004 C 
ENDBRANCH  18  19
ENDBRANCH  17  18
ENDBRANCH  16  17
ENDBRANCH  15  16
ENDBRANCH  13  14
ENDBRANCH  12  13
ENDBRANCH   1  11
TORSDOF 14
ENDMDL
MODEL 2
REMARK VINA RESULT:    -3.725     18.189     20.223
REMARK INTER + INTRA:          -9.926
REMARK INTER:                  -8.385
REMARK INTRA:                  -1.541
REMARK UNBOUND:                -3.152
REMARK SMILES CCCCCC=CCC=CCCCCCCCC(=O)[O-]
REMARK SMILES IDX 11 1 12 2 13 3 14 4 15 5 16 6 17 7 18 8 19 9 20 10 10 11
REMARK SMILES IDX 9 12 8 13 7 14 6 15 5 16 4 17 3 18 2 19 1 20
REMARK H PARENT
REMARK Flexibility Score: inf
ROOT
ATOM      1  C   UNL     1      31.470   9.266  48.523  1.00  0.00     0.027 C 
ENDROOT
BRANCH   1   2
ATOM      2  C   UNL     1      30.882   7.957  49.074  1.00  0.00     0.004 C 
BRANCH   2   3
ATOM      3  C   UNL     1      30.334   7.001  47.994  1.00  0.00     0.000 C 
BRANCH   3   4
ATOM      4  C   UNL     1      31.405   6.304  47.131  1.00  0.00     0.000 C 
BRANCH   4   5
ATOM      5  C   UNL     1      32.306   5.312  47.888  1.00  0.00     0.000 C 
BRANCH   5   6
ATOM      6  C   UNL     1      33.767   5.784  47.979  1.00  0.00     0.006 C 
BRANCH   6   7
ATOM      7  C   UNL     1      34.739   4.783  47.343  1.00  0.00     0.053 C 
BRANCH   7   8
ATOM      8  C   UNL     1      34.796   4.937  45.854  1.00  0.00     0.041 C 
ATOM      9  O   UNL     1      34.435   6.016  45.313  1.00  0.00    -0.550 OA
ATOM     10  O   UNL     1      35.280   3.900  45.066  1.00  0.00    -0.550 OA
ENDBRANCH   7   8
ENDBRANCH   6   7
ENDBRANCH   5   6
ENDBRANCH   4   5
ENDBRANCH   3   4
ENDBRANCH   2   3
ENDBRANCH   1   2
BRANCH   1  11
ATOM     11  C   UNL     1      32.890   9.489  48.983  1.00  0.00    -0.031 C 
ATOM     12  C   UNL     1      33.969   9.450  48.180  1.00  0.00    -0.027 C 
BRANCH  12  13
ATOM     13  C   UNL     1      33.919   9.254  46.687  1.00  0.00     0.054 C 
BRANCH  13  14
ATOM     14  C   UNL     1      34.720  10.309  45.973  1.00  0.00    -0.027 C 
ATOM     15  C   UNL     1      35.492  11.178  46.644  1.00  0.00    -0.031 C 
BRANCH  15  16
ATOM     16  C   UNL     1      36.277  12.245  45.934  1.00  0.00     0.027 C 
BRANCH  16  17
ATOM     17  C   UNL     1      36.418  13.503  46.803  1.00  0.00     0.004 C 
BRANCH  17  18
ATOM     18  C   UNL     1      36.599  14.787  45.973  1.00  0.00     0.000 C 
BRANCH  18  19
ATOM     19  C   UNL     1      35.602  15.914  46.297  1.00  0.00    -0.003 C 
ATOM     20  C   UNL     1      36.002  17.258  45.689  1.00  0.00     0.004 C 
ENDBRANCH  18  19
ENDBRANCH  17  18
ENDBRANCH  16  17
ENDBRANCH  15  16
ENDBRANCH  13  14
ENDBRANCH  12  13
ENDBRANCH   1  11
TORSDOF 14
ENDMDL
MODEL 3
REMARK VINA RESULT:    -3.723     17.818     19.704
REMARK INTER + INTRA:          -9.921
REMARK INTER:                  -8.041
REMARK INTRA:                  -1.880
REMARK UNBOUND:                -3.152
REMARK SMILES CCCCCC=CCC=CCCCCCCCC(=O)[O-]
REMARK SMILES IDX 11 1 12 2 13 3 14 4 15 5 16 6 17 7 18 8 19 9 20 10 10 11
REMARK SMILES IDX 9 12 8 13 7 14 6 15 5 16 4 17 3 18 2 19 1 20
REMARK H PARENT
REMARK Flexibility Score: inf
ROOT
ATOM      1  C   UNL     1      32.344   8.880  49.105  1.00  0.00     0.027 C 
ENDROOT
BRANCH   1   2
ATOM      2  C   UNL     1      33.092   9.813  48.139  1.00  0.00     0.004 C 
BRANCH   2   3
ATOM      3  C   UNL     1      33.589  11.125  48.781  1.00  0.00     0.000 C 
BRANCH   3   4
ATOM      4  C   UNL     1      35.032  11.529  48.415  1.00  0.00     0.000 C 
BRANCH   4   5
ATOM      5  C   UNL     1      35.620  10.805  47.190  1.00  0.00     0.000 C 
BRANCH   5   6
ATOM      6  C   UNL     1      36.386  11.751  46.251  1.00  0.00     0.006 C 
BRANCH   6   7
ATOM      7  C   UNL     1      35.614  13.049  45.982  1.00  0.00     0.053 C 
BRANCH   7   8
ATOM      8  C   UNL     1      36.448  14.259  46.273  1.00  0.00     0.041 C 
ATOM      9  O   UNL     1      37.103  14.336  47.346  1.00  0.00    -0.550 OA
ATOM     10  O   UNL     1      36.528  15.288  45.342  1.00  0.00    -0.550 OA
ENDBRANCH   7   8
ENDBRANCH   6   7
ENDBRANCH   5   6
ENDBRANCH   4   5
ENDBRANCH   3   4
ENDBRANCH   2   3
ENDBRANCH   1   2
BRANCH   1  11
ATOM     11  C   UNL     1      30.924   8.622  48.660  1.00  0.00    -0.031 C 
ATOM     12  C   UNL     1      30.432   7.412  48.339  1.00  0.00    -0.027 C 
BRANCH  12  13
ATOM     13  C   UNL     1      31.198   6.118  48.450  1.00  0.00     0.054 C 
BRANCH  13  14
ATOM     14  C   UNL     1      32.070   5.898  47.244  1.00  0.00    -0.027 C 
ATOM     15  C   UNL     1      33.408   5.959  47.325  1.00  0.00    -0.031 C 
BRANCH  15  16
ATOM     16  C   UNL     1      34.280   5.759  46.117  1.00  0.00     0.027 C 
BRANCH  16  17
ATOM     17  C   UNL     1      33.809   6.628  44.942  1.00  0.00     0.004 C 
BRANCH  17  18
ATOM     18  C   UNL     1      34.122   8.123  45.139  1.00  0.00     0.000 C 
BRANCH  18  19
ATOM     19  C   UNL     1      34.574   8.863  43.868  1.00  0.00    -0.003 C 
ATOM     20  C   UNL     1      34.025  10.287  43.780  1.00  0.00     0.004 C 
ENDBRANCH  18  19
ENDBRANCH  17  18
ENDBRANCH  16  17
ENDBRANCH  15  16
ENDBRANCH  13  14
ENDBRANCH  12  13
ENDBRANCH   1  11
TORSDOF 14
ENDMDL
MODEL 4
REMARK VINA RESULT:    -3.669     17.787     19.673
REMARK INTER + INTRA:          -9.824
REMARK INTER:                  -7.705
REMARK INTRA:                  -2.119
REMARK UNBOUND:                -3.152
REMARK SMILES CCCCCC=CCC=CCCCCCCCC(=O)[O-]
REMARK SMILES IDX 11 1 12 2 13 3 14 4 15 5 16 6 17 7 18 8 19 9 20 10 10 11
REMARK SMILES IDX 9 12 8 13 7 14 6 15 5 16 4 17 3 18 2 19 1 20
REMARK H PARENT
REMARK Flexibility Score: inf
ROOT
ATOM      1  C   UNL     1      30.905   6.839  47.557  1.00  0.00     0.027 C 
ENDROOT
BRANCH   1   2
ATOM      2  C   UNL     1      31.723   5.597  47.945  1.00  0.00     0.004 C 
BRANCH   2   3
ATOM      3  C   UNL     1      33.186   5.896  48.333  1.00  0.00     0.000 C 
BRANCH   3   4
ATOM      4  C   UNL     1      34.008   6.647  47.266  1.00  0.00     0.000 C 
BRANCH   4   5
ATOM      5  C   UNL     1      34.088   5.950  45.896  1.00  0.00     0.000 C 
BRANCH   5   6
ATOM      6  C   UNL     1      34.023   6.938  44.720  1.00  0.00     0.006 C 
BRANCH   6   7
ATOM      7  C   UNL     1      33.993   8.397  45.192  1.00  0.00     0.053 C 
BRANCH   7   8
ATOM      8  C   UNL     1      34.480   9.333  44.129  1.00  0.00     0.041 C 
ATOM      9  O   UNL     1      35.563   9.103  43.527  1.00  0.00    -0.550 OA
ATOM     10  O   UNL     1      33.721  10.443  43.779  1.00  0.00    -0.550 OA
ENDBRANCH   7   8
ENDBRANCH   6   7
ENDBRANCH   5   6
ENDBRANCH   4   5
ENDBRANCH   3   4
ENDBRANCH   2   3
ENDBRANCH   1   2
BRANCH   1  11
ATOM     11  C   UNL     1      30.492   7.647  48.764  1.00  0.00    -0.031 C 
ATOM     12  C   UNL     1      30.912   8.898  49.026  1.00  0.00    -0.027 C 
BRANCH  12  13
ATOM     13  C   UNL     1      31.795   9.714  48.116  1.00  0.00     0.054 C 
BRANCH  13  14
ATOM     14  C   UNL     1      33.206   9.770  48.635  1.00  0.00    -0.027 C 
ATOM     15  C   UNL     1      34.089  10.667  48.170  1.00  0.00    -0.031 C 
BRANCH  15  16
ATOM     16  C   UNL     1      35.505  10.711  48.674  1.00  0.00     0.027 C 
BRANCH  16  17
ATOM     17  C   UNL     1      36.450  11.312  47.623  1.00  0.00     0.004 C 
BRANCH  17  18
ATOM     18  C   UNL     1      35.718  11.762  46.346  1.00  0.00     0.000 C 
BRANCH  18  19
ATOM     19  C   UNL     1      35.774  13.274  46.066  1.00  0.00    -0.003 C 
ATOM     20  C   UNL     1      37.194  13.837  46.112  1.00  0.00     0.004 C 
ENDBRANCH  18  19
ENDBRANCH  17  18
ENDBRANCH  16  17
ENDBRANCH  15  16
ENDBRANCH  13  14
ENDBRANCH  12  13
ENDBRANCH   1  11
TORSDOF 14
ENDMDL
MODEL 5
REMARK VINA RESULT:    -3.663     18.023     20.276
REMARK INTER + INTRA:          -9.812
REMARK INTER:                  -8.845
REMARK INTRA:                  -0.966
REMARK UNBOUND:                -3.152
REMARK SMILES CCCCCC=CCC=CCCCCCCCC(=O)[O-]
REMARK SMILES IDX 11 1 12 2 13 3 14 4 15 5 16 6 17 7 18 8 19 9 20 10 10 11
REMARK SMILES IDX 9 12 8 13 7 14 6 15 5 16 4 17 3 18 2 19 1 20
REMARK H PARENT
REMARK Flexibility Score: inf
ROOT
ATOM      1  C   UNL     1      33.997   7.691  45.450  1.00  0.00     0.027 C 
ENDROOT
BRANCH   1   2
ATOM      2  C   UNL     1      34.000   6.220  45.005  1.00  0.00     0.004 C 
BRANCH   2   3
ATOM      3  C   UNL     1      34.739   5.266  45.966  1.00  0.00     0.000 C 
BRANCH   3   4
ATOM      4  C   UNL     1      33.948   4.863  47.227  1.00  0.00     0.000 C 
BRANCH   4   5
ATOM      5  C   UNL     1      34.038   5.858  48.398  1.00  0.00     0.000 C 
BRANCH   5   6
ATOM      6  C   UNL     1      32.703   6.567  48.681  1.00  0.00     0.006 C 
BRANCH   6   7
ATOM      7  C   UNL     1      31.548   5.971  47.867  1.00  0.00     0.053 C 
BRANCH   7   8
ATOM      8  C   UNL     1      30.267   6.713  48.097  1.00  0.00     0.041 C 
ATOM      9  O   UNL     1      30.279   7.840  48.659  1.00  0.00    -0.550 OA
ATOM     10  O   UNL     1      29.064   6.174  47.659  1.00  0.00    -0.550 OA
ENDBRANCH   7   8
ENDBRANCH   6   7
ENDBRANCH   5   6
ENDBRANCH   4   5
ENDBRANCH   3   4
ENDBRANCH   2   3
ENDBRANCH   1   2
BRANCH   1  11
ATOM     11  C   UNL     1      34.395   8.624  44.332  1.00  0.00    -0.031 C 
ATOM     12  C   UNL     1      34.811   9.892  44.505  1.00  0.00    -0.027 C 
BRANCH  12  13
ATOM     13  C   UNL     1      35.018  10.550  45.846  1.00  0.00     0.054 C 
BRANCH  13  14
ATOM     14  C   UNL     1      35.498  11.967  45.688  1.00  0.00    -0.027 C 
ATOM     15  C   UNL     1      36.616  12.400  46.291  1.00  0.00    -0.031 C 
BRANCH  15  16
ATOM     16  C   UNL     1      37.087  13.821  46.150  1.00  0.00     0.027 C 
BRANCH  16  17
ATOM     17  C   UNL     1      35.934  14.750  45.742  1.00  0.00     0.004 C 
BRANCH  17  18
ATOM     18  C   UNL     1      35.379  15.568  46.922  1.00  0.00     0.000 C 
BRANCH  18  19
ATOM     19  C   UNL     1      35.477  17.095  46.754  1.00  0.00    -0.003 C 
ATOM     20  C   UNL     1      36.210  17.509  45.479  1.00  0.00     0.004 C 
ENDBRANCH  18  19
ENDBRANCH  17  18
ENDBRANCH  16  17
ENDBRANCH  15  16
ENDBRANCH  13  14
ENDBRANCH  12  13
ENDBRANCH   1  11
TORSDOF 14
ENDMDL
MODEL 6
REMARK VINA RESULT:    -3.628      1.913      2.805
REMARK INTER + INTRA:          -9.750
REMARK INTER:                  -7.441
REMARK INTRA:                  -2.309
REMARK UNBOUND:                -3.152
REMARK SMILES CCCCCC=CCC=CCCCCCCCC(=O)[O-]
REMARK SMILES IDX 11 1 12 2 13 3 14 4 15 5 16 6 17 7 18 8 19 9 20 10 10 11
REMARK SMILES IDX 9 12 8 13 7 14 6 15 5 16 4 17 3 18 2 19 1 20
REMARK H PARENT
REMARK Flexibility Score: inf
ROOT
ATOM      1  C   UNL     1      19.432  12.889  35.896  1.00  0.00     0.027 C 
ENDROOT
BRANCH   1   2
ATOM      2  C   UNL     1      18.276  13.084  34.902  1.00  0.00     0.004 C 
BRANCH   2   3
ATOM      3  C   UNL     1      17.875  11.807  34.135  1.00  0.00     0.000 C 
BRANCH   3   4
ATOM      4  C   UNL     1      18.529  11.642  32.748  1.00  0.00     0.000 C 
BRANCH   4   5
ATOM      5  C   UNL     1      19.000  12.953  32.091  1.00  0.00     0.000 C 
BRANCH   5   6
ATOM      6  C   UNL     1      20.416  12.847  31.500  1.00  0.00     0.006 C 
BRANCH   6   7
ATOM      7  C   UNL     1      21.269  14.081  31.820  1.00  0.00     0.053 C 
BRANCH   7   8
ATOM      8  C   UNL     1      22.184  14.431  30.687  1.00  0.00     0.041 C 
ATOM      9  O   UNL     1      22.755  15.553  30.656  1.00  0.00    -0.550 OA
ATOM     10  O   UNL     1      22.432  13.504  29.682  1.00  0.00    -0.550 OA
ENDBRANCH   7   8
ENDBRANCH   6   7
ENDBRANCH   5   6
ENDBRANCH   4   5
ENDBRANCH   3   4
ENDBRANCH   2   3
ENDBRANCH   1   2
BRANCH   1  11
ATOM     11  C   UNL     1      20.762  13.295  35.307  1.00  0.00    -0.031 C 
ATOM     12  C   UNL     1      21.844  12.497  35.241  1.00  0.00    -0.027 C 
BRANCH  12  13
ATOM     13  C   UNL     1      21.871  11.053  35.673  1.00  0.00     0.054 C 
BRANCH  13  14
ATOM     14  C   UNL     1      21.506  10.139  34.535  1.00  0.00    -0.027 C 
ATOM     15  C   UNL     1      20.462   9.299  34.618  1.00  0.00    -0.031 C 
BRANCH  15  16
ATOM     16  C   UNL     1      20.107   8.371  33.490  1.00  0.00     0.027 C 
BRANCH  16  17
ATOM     17  C   UNL     1      20.426   6.912  33.849  1.00  0.00     0.004 C 
BRANCH  17  18
ATOM     18  C   UNL     1      20.657   6.703  35.357  1.00  0.00     0.000 C 
BRANCH  18  19
ATOM     19  C   UNL     1      19.382   6.434  36.176  1.00  0.00    -0.003 C 
ATOM     20  C   UNL     1      19.233   7.372  37.373  1.00  0.00     0.004 C 
ENDBRANCH  18  19
ENDBRANCH  17  18
ENDBRANCH  16  17
ENDBRANCH  15  16
ENDBRANCH  13  14
ENDBRANCH  12  13
ENDBRANCH   1  11
TORSDOF 14
ENDMDL
MODEL 7
REMARK VINA RESULT:    -3.594     17.030     19.045
REMARK INTER + INTRA:          -9.687
REMARK INTER:                  -8.234
REMARK INTRA:                  -1.453
REMARK UNBOUND:                -3.152
REMARK SMILES CCCCCC=CCC=CCCCCCCCC(=O)[O-]
REMARK SMILES IDX 11 1 12 2 13 3 14 4 15 5 16 6 17 7 18 8 19 9 20 10 10 11
REMARK SMILES IDX 9 12 8 13 7 14 6 15 5 16 4 17 3 18 2 19 1 20
REMARK H PARENT
REMARK Flexibility Score: inf
ROOT
ATOM      1  C   UNL     1      35.580  11.884  46.079  1.00  0.00     0.027 C 
ENDROOT
BRANCH   1   2
ATOM      2  C   UNL     1      35.374  10.736  45.078  1.00  0.00     0.004 C 
BRANCH   2   3
ATOM      3  C   UNL     1      34.092  10.856  44.228  1.00  0.00     0.000 C 
BRANCH   3   4
ATOM      4  C   UNL     1      33.634   9.553  43.543  1.00  0.00     0.000 C 
BRANCH   4   5
ATOM      5  C   UNL     1      34.484   8.312  43.871  1.00  0.00     0.000 C 
BRANCH   5   6
ATOM      6  C   UNL     1      34.050   7.621  45.174  1.00  0.00     0.006 C 
BRANCH   6   7
ATOM      7  C   UNL     1      33.729   6.136  44.962  1.00  0.00     0.053 C 
BRANCH   7   8
ATOM      8  C   UNL     1      34.580   5.256  45.825  1.00  0.00     0.041 C 
ATOM      9  O   UNL     1      35.223   4.299  45.316  1.00  0.00    -0.550 OA
ATOM     10  O   UNL     1      34.690   5.513  47.185  1.00  0.00    -0.550 OA
ENDBRANCH   7   8
ENDBRANCH   6   7
ENDBRANCH   5   6
ENDBRANCH   4   5
ENDBRANCH   3   4
ENDBRANCH   2   3
ENDBRANCH   1   2
BRANCH   1  11
ATOM     11  C   UNL     1      36.175  11.404  47.381  1.00  0.00    -0.031 C 
ATOM     12  C   UNL     1      35.462  11.103  48.482  1.00  0.00    -0.027 C 
BRANCH  12  13
ATOM     13  C   UNL     1      33.957  11.124  48.560  1.00  0.00     0.054 C 
BRANCH  13  14
ATOM     14  C   UNL     1      33.422   9.830  49.110  1.00  0.00    -0.027 C 
ATOM     15  C   UNL     1      32.926   8.878  48.306  1.00  0.00    -0.031 C 
BRANCH  15  16
ATOM     16  C   UNL     1      32.373   7.592  48.856  1.00  0.00     0.027 C 
BRANCH  16  17
ATOM     17  C   UNL     1      31.428   6.918  47.851  1.00  0.00     0.004 C 
BRANCH  17  18
ATOM     18  C   UNL     1      29.960   6.923  48.314  1.00  0.00     0.000 C 
BRANCH  18  19
ATOM     19  C   UNL     1      29.293   5.537  48.367  1.00  0.00    -0.003 C 
ATOM     20  C   UNL     1      27.991   5.470  47.569  1.00  0.00     0.004 C 
ENDBRANCH  18  19
ENDBRANCH  17  18
ENDBRANCH  16  17
ENDBRANCH  15  16
ENDBRANCH  13  14
ENDBRANCH  12  13
ENDBRANCH   1  11
TORSDOF 14
ENDMDL
MODEL 8
REMARK VINA RESULT:    -3.520      3.514      4.814
REMARK INTER + INTRA:          -9.553
REMARK INTER:                  -7.970
REMARK INTRA:                  -1.583
REMARK UNBOUND:                -3.152
REMARK SMILES CCCCCC=CCC=CCCCCCCCC(=O)[O-]
REMARK SMILES IDX 11 1 12 2 13 3 14 4 15 5 16 6 17 7 18 8 19 9 20 10 10 11
REMARK SMILES IDX 9 12 8 13 7 14 6 15 5 16 4 17 3 18 2 19 1 20
REMARK H PARENT
REMARK Flexibility Score: inf
ROOT
ATOM      1  C   UNL     1      21.241  13.742  33.741  1.00  0.00     0.027 C 
ENDROOT
BRANCH   1   2
ATOM      2  C   UNL     1      20.609  13.069  32.511  1.00  0.00     0.004 C 
BRANCH   2   3
ATOM      3  C   UNL     1      21.620  12.663  31.419  1.00  0.00     0.000 C 
BRANCH   3   4
ATOM      4  C   UNL     1      21.671  13.595  30.192  1.00  0.00     0.000 C 
BRANCH   4   5
ATOM      5  C   UNL     1      22.409  14.927  30.417  1.00  0.00     0.000 C 
BRANCH   5   6
ATOM      6  C   UNL     1      21.453  16.124  30.545  1.00  0.00     0.006 C 
BRANCH   6   7
ATOM      7  C   UNL     1      22.076  17.280  31.337  1.00  0.00     0.053 C 
BRANCH   7   8
ATOM      8  C   UNL     1      23.194  17.930  30.581  1.00  0.00     0.041 C 
ATOM      9  O   UNL     1      22.980  18.449  29.453  1.00  0.00    -0.550 OA
ATOM     10  O   UNL     1      24.465  17.993  31.137  1.00  0.00    -0.550 OA
ENDBRANCH   7   8
ENDBRANCH   6   7
ENDBRANCH   5   6
ENDBRANCH   4   5
ENDBRANCH   3   4
ENDBRANCH   2   3
ENDBRANCH   1   2
BRANCH   1  11
ATOM     11  C   UNL     1      20.525  13.378  35.019  1.00  0.00    -0.031 C 
ATOM     12  C   UNL     1      20.875  12.361  35.828  1.00  0.00    -0.027 C 
BRANCH  12  13
ATOM     13  C   UNL     1      22.080  11.480  35.624  1.00  0.00     0.054 C 
BRANCH  13  14
ATOM     14  C   UNL     1      21.678  10.107  35.157  1.00  0.00    -0.027 C 
ATOM     15  C   UNL     1      20.507   9.892  34.539  1.00  0.00    -0.031 C 
BRANCH  15  16
ATOM     16  C   UNL     1      20.095   8.517  34.090  1.00  0.00     0.027 C 
BRANCH  16  17
ATOM     17  C   UNL     1      20.591   7.441  35.067  1.00  0.00     0.004 C 
BRANCH  17  18
ATOM     18  C   UNL     1      19.485   6.455  35.484  1.00  0.00     0.000 C 
BRANCH  18  19
ATOM     19  C   UNL     1      18.718   6.844  36.760  1.00  0.00    -0.003 C 
ATOM     20  C   UNL     1      19.396   7.965  37.546  1.00  0.00     0.004 C 
ENDBRANCH  18  19
ENDBRANCH  17  18
ENDBRANCH  16  17
ENDBRANCH  15  16
ENDBRANCH  13  14
ENDBRANCH  12  13
ENDBRANCH   1  11
TORSDOF 14
ENDMDL
MODEL 9
REMARK VINA RESULT:    -3.472      1.369      2.202
REMARK INTER + INTRA:          -9.465
REMARK INTER:                  -6.825
REMARK INTRA:                  -2.640
REMARK UNBOUND:                -3.152
REMARK SMILES CCCCCC=CCC=CCCCCCCCC(=O)[O-]
REMARK SMILES IDX 11 1 12 2 13 3 14 4 15 5 16 6 17 7 18 8 19 9 20 10 10 11
REMARK SMILES IDX 9 12 8 13 7 14 6 15 5 16 4 17 3 18 2 19 1 20
REMARK H PARENT
REMARK Flexibility Score: inf
ROOT
ATOM      1  C   UNL     1      21.965  12.278  35.646  1.00  0.00     0.027 C 
ENDROOT
BRANCH   1   2
ATOM      2  C   UNL     1      20.964  13.312  35.105  1.00  0.00     0.004 C 
BRANCH   2   3
ATOM      3  C   UNL     1      19.514  13.108  35.591  1.00  0.00     0.000 C 
BRANCH   3   4
ATOM      4  C   UNL     1      18.461  12.969  34.473  1.00  0.00     0.000 C 
BRANCH   4   5
ATOM      5  C   UNL     1      18.340  11.560  33.864  1.00  0.00     0.000 C 
BRANCH   5   6
ATOM      6  C   UNL     1      18.539  11.552  32.339  1.00  0.00     0.006 C 
BRANCH   6   7
ATOM      7  C   UNL     1      19.414  12.718  31.864  1.00  0.00     0.053 C 
BRANCH   7   8
ATOM      8  C   UNL     1      20.800  12.265  31.519  1.00  0.00     0.041 C 
ATOM      9  O   UNL     1      21.724  13.108  31.368  1.00  0.00    -0.550 OA
ATOM     10  O   UNL     1      21.078  10.909  31.398  1.00  0.00    -0.550 OA
ENDBRANCH   7   8
ENDBRANCH   6   7
ENDBRANCH   5   6
ENDBRANCH   4   5
ENDBRANCH   3   4
ENDBRANCH   2   3
ENDBRANCH   1   2
BRANCH   1  11
ATOM     11  C   UNL     1      22.055  11.058  34.762  1.00  0.00    -0.031 C 
ATOM     12  C   UNL     1      21.431   9.890  35.004  1.00  0.00    -0.027 C 
BRANCH  12  13
ATOM     13  C   UNL     1      20.485   9.647  36.152  1.00  0.00     0.054 C 
BRANCH  13  14
ATOM     14  C   UNL     1      19.438   8.630  35.788  1.00  0.00    -0.027 C 
ATOM     15  C   UNL     1      19.601   7.326  36.064  1.00  0.00    -0.031 C 
BRANCH  15  16
ATOM     16  C   UNL     1      18.565   6.306  35.682  1.00  0.00     0.027 C 
BRANCH  16  17
ATOM     17  C   UNL     1      17.989   6.592  34.288  1.00  0.00     0.004 C 
BRANCH  17  18
ATOM     18  C   UNL     1      18.555   5.657  33.203  1.00  0.00     0.000 C 
BRANCH  18  19
ATOM     19  C   UNL     1      19.811   6.182  32.485  1.00  0.00    -0.003 C 
ATOM     20  C   UNL     1      19.817   7.703  32.329  1.00  0.00     0.004 C 
ENDBRANCH  18  19
ENDBRANCH  17  18
ENDBRANCH  16  17
ENDBRANCH  15  16
ENDBRANCH  13  14
ENDBRANCH  12  13
ENDBRANCH   1  11
TORSDOF 14
ENDMDL
