MODEL 1
REMARK VINA RESULT:    -3.765      0.000      0.000
REMARK INTER + INTRA:          -5.060
REMARK INTER:                  -4.865
REMARK INTRA:                  -0.195
REMARK UNBOUND:                -0.195
REMARK SMILES C=CC(=O)CCCCC
REMARK SMILES IDX 6 1 7 2 8 3 9 4 5 5 3 6 4 7 2 8 1 9
REMARK H PARENT
REMARK Flexibility Score: inf
ROOT
ATOM      1  C   UNL     1      73.137  34.420  54.741  1.00  0.00     0.008 C 
ENDROOT
BRANCH   1   2
ATOM      2  C   UNL     1      71.990  33.505  55.195  1.00  0.00     0.000 C 
BRANCH   2   3
ATOM      3  C   UNL     1      71.500  33.833  56.613  1.00  0.00    -0.003 C 
ATOM      4  C   UNL     1      71.913  32.778  57.640  1.00  0.00     0.004 C 
ENDBRANCH   2   3
ENDBRANCH   1   2
BRANCH   1   5
ATOM      5  C   UNL     1      73.882  33.815  53.548  1.00  0.00     0.080 C 
BRANCH   5   6
ATOM      6  C   UNL     1      74.534  34.891  52.731  1.00  0.00     0.155 C 
ATOM      7  O   UNL     1      75.708  34.717  52.305  1.00  0.00    -0.295 OA
BRANCH   6   8
ATOM      8  C   UNL     1      73.787  36.119  52.394  1.00  0.00     0.039 C 
ATOM      9  C   UNL     1      72.771  36.125  51.534  1.00  0.00     0.012 C 
ENDBRANCH   6   8
ENDBRANCH   5   6
ENDBRANCH   1   5
TORSDOF 5
ENDMDL
MODEL 2
REMARK VINA RESULT:    -3.644      1.884      5.030
REMARK INTER + INTRA:          -4.904
REMARK INTER:                  -4.829
REMARK INTRA:                  -0.075
REMARK UNBOUND:                -0.195
REMARK SMILES C=CC(=O)CCCCC
REMARK SMILES IDX 6 1 7 2 8 3 9 4 5 5 3 6 4 7 2 8 1 9
REMARK H PARENT
REMARK Flexibility Score: inf
ROOT
ATOM      1  C   UNL     1      73.507  35.055  53.308  1.00  0.00     0.008 C 
ENDROOT
BRANCH   1   2
ATOM      2  C   UNL     1      74.751  34.375  52.717  1.00  0.00     0.000 C 
BRANCH   2   3
ATOM      3  C   UNL     1      75.727  35.378  52.083  1.00  0.00    -0.003 C 
ATOM      4  C   UNL     1      77.074  34.749  51.729  1.00  0.00     0.004 C 
ENDBRANCH   2   3
ENDBRANCH   1   2
BRANCH   1   5
ATOM      5  C   UNL     1      73.457  34.881  54.828  1.00  0.00     0.080 C 
BRANCH   5   6
ATOM      6  C   UNL     1      72.465  33.821  55.206  1.00  0.00     0.155 C 
ATOM      7  O   UNL     1      72.394  32.768  54.517  1.00  0.00    -0.295 OA
BRANCH   6   8
ATOM      8  C   UNL     1      71.617  33.994  56.402  1.00  0.00     0.039 C 
ATOM      9  C   UNL     1      71.616  33.125  57.411  1.00  0.00     0.012 C 
ENDBRANCH   6   8
ENDBRANCH   5   6
ENDBRANCH   1   5
TORSDOF 5
ENDMDL
MODEL 3
REMARK VINA RESULT:    -3.545      1.605      4.644
REMARK INTER + INTRA:          -4.776
REMARK INTER:                  -4.689
REMARK INTRA:                  -0.088
REMARK UNBOUND:                -0.195
REMARK SMILES C=CC(=O)CCCCC
REMARK SMILES IDX 6 1 7 2 8 3 9 4 5 5 3 6 4 7 2 8 1 9
REMARK H PARENT
REMARK Flexibility Score: inf
ROOT
ATOM      1  C   UNL     1      73.903  33.719  53.325  1.00  0.00     0.008 C 
ENDROOT
BRANCH   1   2
ATOM      2  C   UNL     1      73.085  34.590  52.359  1.00  0.00     0.000 C 
BRANCH   2   3
ATOM      3  C   UNL     1      73.780  35.919  52.030  1.00  0.00    -0.003 C 
ATOM      4  C   UNL     1      75.277  35.896  52.337  1.00  0.00     0.004 C 
ENDBRANCH   2   3
ENDBRANCH   1   2
BRANCH   1   5
ATOM      5  C   UNL     1      73.008  33.115  54.410  1.00  0.00     0.080 C 
BRANCH   5   6
ATOM      6  C   UNL     1      72.650  34.149  55.436  1.00  0.00     0.155 C 
ATOM      7  O   UNL     1      73.247  35.259  55.428  1.00  0.00    -0.295 OA
BRANCH   6   8
ATOM      8  C   UNL     1      71.576  33.881  56.413  1.00  0.00     0.039 C 
ATOM      9  C   UNL     1      71.708  32.992  57.395  1.00  0.00     0.012 C 
ENDBRANCH   6   8
ENDBRANCH   5   6
ENDBRANCH   1   5
TORSDOF 5
ENDMDL
MODEL 4
REMARK VINA RESULT:    -3.390     15.679     17.061
REMARK INTER + INTRA:          -4.576
REMARK INTER:                  -4.042
REMARK INTRA:                  -0.533
REMARK UNBOUND:                -0.195
REMARK SMILES C=CC(=O)CCCCC
REMARK SMILES IDX 6 1 7 2 8 3 9 4 5 5 3 6 4 7 2 8 1 9
REMARK H PARENT
REMARK Flexibility Score: inf
ROOT
ATOM      1  C   UNL     1      86.037  32.233  64.834  1.00  0.00     0.008 C 
ENDROOT
BRANCH   1   2
ATOM      2  C   UNL     1      86.971  31.086  64.418  1.00  0.00     0.000 C 
BRANCH   2   3
ATOM      3  C   UNL     1      87.375  30.195  65.601  1.00  0.00    -0.003 C 
ATOM      4  C   UNL     1      87.219  30.897  66.950  1.00  0.00     0.004 C 
ENDBRANCH   2   3
ENDBRANCH   1   2
BRANCH   1   5
ATOM      5  C   UNL     1      84.639  32.045  64.239  1.00  0.00     0.080 C 
BRANCH   5   6
ATOM      6  C   UNL     1      83.769  31.257  65.174  1.00  0.00     0.155 C 
ATOM      7  O   UNL     1      83.670  31.620  66.378  1.00  0.00    -0.295 OA
BRANCH   6   8
ATOM      8  C   UNL     1      83.004  30.098  64.674  1.00  0.00     0.039 C 
ATOM      9  C   UNL     1      83.590  28.963  64.300  1.00  0.00     0.012 C 
ENDBRANCH   6   8
ENDBRANCH   5   6
ENDBRANCH   1   5
TORSDOF 5
ENDMDL
MODEL 5
REMARK VINA RESULT:    -3.347      1.713      2.518
REMARK INTER + INTRA:          -4.520
REMARK INTER:                  -4.289
REMARK INTRA:                  -0.231
REMARK UNBOUND:                -0.195
REMARK SMILES C=CC(=O)CCCCC
REMARK SMILES IDX 6 1 7 2 8 3 9 4 5 5 3 6 4 7 2 8 1 9
REMARK H PARENT
REMARK Flexibility Score: inf
ROOT
ATOM      1  C   UNL     1      74.186  35.545  53.684  1.00  0.00     0.008 C 
ENDROOT
BRANCH   1   2
ATOM      2  C   UNL     1      73.413  35.197  54.965  1.00  0.00     0.000 C 
BRANCH   2   3
ATOM      3  C   UNL     1      72.866  33.762  54.952  1.00  0.00    -0.003 C 
ATOM      4  C   UNL     1      71.994  33.450  56.169  1.00  0.00     0.004 C 
ENDBRANCH   2   3
ENDBRANCH   1   2
BRANCH   1   5
ATOM      5  C   UNL     1      74.263  34.339  52.744  1.00  0.00     0.080 C 
BRANCH   5   6
ATOM      6  C   UNL     1      75.683  34.077  52.337  1.00  0.00     0.155 C 
ATOM      7  O   UNL     1      76.124  32.896  52.361  1.00  0.00    -0.295 OA
BRANCH   6   8
ATOM      8  C   UNL     1      76.535  35.188  51.869  1.00  0.00     0.039 C 
ATOM      9  C   UNL     1      77.741  34.991  51.340  1.00  0.00     0.012 C 
ENDBRANCH   6   8
ENDBRANCH   5   6
ENDBRANCH   1   5
TORSDOF 5
ENDMDL
MODEL 6
REMARK VINA RESULT:    -3.298     15.921     17.217
REMARK INTER + INTRA:          -4.457
REMARK INTER:                  -4.027
REMARK INTRA:                  -0.431
REMARK UNBOUND:                -0.195
REMARK SMILES C=CC(=O)CCCCC
REMARK SMILES IDX 6 1 7 2 8 3 9 4 5 5 3 6 4 7 2 8 1 9
REMARK H PARENT
REMARK Flexibility Score: inf
ROOT
ATOM      1  C   UNL     1      84.753  31.791  64.350  1.00  0.00     0.008 C 
ENDROOT
BRANCH   1   2
ATOM      2  C   UNL     1      83.602  31.261  65.219  1.00  0.00     0.000 C 
BRANCH   2   3
ATOM      3  C   UNL     1      82.837  30.111  64.547  1.00  0.00    -0.003 C 
ATOM      4  C   UNL     1      83.683  28.847  64.395  1.00  0.00     0.004 C 
ENDBRANCH   2   3
ENDBRANCH   1   2
BRANCH   1   5
ATOM      5  C   UNL     1      85.900  32.313  65.219  1.00  0.00     0.080 C 
BRANCH   5   6
ATOM      6  C   UNL     1      86.448  31.217  66.084  1.00  0.00     0.155 C 
ATOM      7  O   UNL     1      86.357  31.316  67.338  1.00  0.00    -0.295 OA
BRANCH   6   8
ATOM      8  C   UNL     1      87.046  30.016  65.467  1.00  0.00     0.039 C 
ATOM      9  C   UNL     1      87.987  30.087  64.528  1.00  0.00     0.012 C 
ENDBRANCH   6   8
ENDBRANCH   5   6
ENDBRANCH   1   5
TORSDOF 5
ENDMDL
MODEL 7
REMARK VINA RESULT:    -3.241      4.201      5.929
REMARK INTER + INTRA:          -4.384
REMARK INTER:                  -4.220
REMARK INTRA:                  -0.163
REMARK UNBOUND:                -0.195
REMARK SMILES C=CC(=O)CCCCC
REMARK SMILES IDX 6 1 7 2 8 3 9 4 5 5 3 6 4 7 2 8 1 9
REMARK H PARENT
REMARK Flexibility Score: inf
ROOT
ATOM      1  C   UNL     1      77.203  34.554  51.600  1.00  0.00     0.008 C 
ENDROOT
BRANCH   1   2
ATOM      2  C   UNL     1      75.945  35.313  52.050  1.00  0.00     0.000 C 
BRANCH   2   3
ATOM      3  C   UNL     1      74.876  34.384  52.643  1.00  0.00    -0.003 C 
ATOM      4  C   UNL     1      73.452  34.857  52.348  1.00  0.00     0.004 C 
ENDBRANCH   2   3
ENDBRANCH   1   2
BRANCH   1   5
ATOM      5  C   UNL     1      78.167  35.481  50.856  1.00  0.00     0.080 C 
BRANCH   5   6
ATOM      6  C   UNL     1      79.509  34.830  50.695  1.00  0.00     0.155 C 
ATOM      7  O   UNL     1      80.068  34.839  49.566  1.00  0.00    -0.295 OA
BRANCH   6   8
ATOM      8  C   UNL     1      80.182  34.226  51.862  1.00  0.00     0.039 C 
ATOM      9  C   UNL     1      80.528  32.941  51.902  1.00  0.00     0.012 C 
ENDBRANCH   6   8
ENDBRANCH   5   6
ENDBRANCH   1   5
TORSDOF 5
ENDMDL
MODEL 8
REMARK VINA RESULT:    -3.185     16.095     17.437
REMARK INTER + INTRA:          -4.311
REMARK INTER:                  -3.865
REMARK INTRA:                  -0.446
REMARK UNBOUND:                -0.195
REMARK SMILES C=CC(=O)CCCCC
REMARK SMILES IDX 6 1 7 2 8 3 9 4 5 5 3 6 4 7 2 8 1 9
REMARK H PARENT
REMARK Flexibility Score: inf
ROOT
ATOM      1  C   UNL     1      85.651  32.425  64.106  1.00  0.00     0.008 C 
ENDROOT
BRANCH   1   2
ATOM      2  C   UNL     1      84.230  31.897  64.355  1.00  0.00     0.000 C 
BRANCH   2   3
ATOM      3  C   UNL     1      84.210  30.403  64.712  1.00  0.00    -0.003 C 
ATOM      4  C   UNL     1      82.882  29.730  64.365  1.00  0.00     0.004 C 
ENDBRANCH   2   3
ENDBRANCH   1   2
BRANCH   1   5
ATOM      5  C   UNL     1      86.696  31.514  64.755  1.00  0.00     0.080 C 
BRANCH   5   6
ATOM      6  C   UNL     1      87.214  32.125  66.024  1.00  0.00     0.155 C 
ATOM      7  O   UNL     1      88.014  33.097  65.960  1.00  0.00    -0.295 OA
BRANCH   6   8
ATOM      8  C   UNL     1      86.751  31.618  67.331  1.00  0.00     0.039 C 
ATOM      9  C   UNL     1      85.537  31.879  67.811  1.00  0.00     0.012 C 
ENDBRANCH   6   8
ENDBRANCH   5   6
ENDBRANCH   1   5
TORSDOF 5
ENDMDL
MODEL 9
REMARK VINA RESULT:    -3.172     16.172     17.550
REMARK INTER + INTRA:          -4.293
REMARK INTER:                  -3.681
REMARK INTRA:                  -0.612
REMARK UNBOUND:                -0.195
REMARK SMILES C=CC(=O)CCCCC
REMARK SMILES IDX 6 1 7 2 8 3 9 4 5 5 3 6 4 7 2 8 1 9
REMARK H PARENT
REMARK Flexibility Score: inf
ROOT
ATOM      1  C   UNL     1      86.678  31.867  64.358  1.00  0.00     0.008 C 
ENDROOT
BRANCH   1   2
ATOM      2  C   UNL     1      87.212  32.823  65.435  1.00  0.00     0.000 C 
BRANCH   2   3
ATOM      3  C   UNL     1      87.610  32.093  66.726  1.00  0.00    -0.003 C 
ATOM      4  C   UNL     1      87.789  30.588  66.525  1.00  0.00     0.004 C 
ENDBRANCH   2   3
ENDBRANCH   1   2
BRANCH   1   5
ATOM      5  C   UNL     1      85.177  32.074  64.136  1.00  0.00     0.080 C 
BRANCH   5   6
ATOM      6  C   UNL     1      84.383  31.106  64.963  1.00  0.00     0.155 C 
ATOM      7  O   UNL     1      84.520  29.869  64.767  1.00  0.00    -0.295 OA
BRANCH   6   8
ATOM      8  C   UNL     1      83.487  31.603  66.026  1.00  0.00     0.039 C 
ATOM      9  C   UNL     1      83.848  31.642  67.306  1.00  0.00     0.012 C 
ENDBRANCH   6   8
ENDBRANCH   5   6
ENDBRANCH   1   5
TORSDOF 5
ENDMDL
