MODEL 1
REMARK VINA RESULT:    -4.095      0.000      0.000
REMARK INTER + INTRA:          -4.466
REMARK INTER:                  -4.335
REMARK INTRA:                  -0.132
REMARK UNBOUND:                -0.132
REMARK SMILES C=C(C)[C@H]1CC=C(C)CC1
REMARK SMILES IDX 8 1 7 2 6 3 5 4 4 5 10 6 9 7 2 8 1 9 3 10
REMARK H PARENT
REMARK Flexibility Score: inf
ROOT
ATOM      1  C   UNL     1      29.090   8.821  27.280  1.00  0.00     0.039 C 
ATOM      2  C   UNL     1      29.767   8.681  28.616  1.00  0.00    -0.077 C 
ATOM      3  C   UNL     1      29.791   9.741  29.453  1.00  0.00    -0.027 C 
ATOM      4  C   UNL     1      30.489   9.717  30.790  1.00  0.00     0.035 C 
ATOM      5  C   UNL     1      30.667   8.286  31.328  1.00  0.00     0.018 C 
ATOM      6  C   UNL     1      31.246   7.383  30.227  1.00  0.00     0.013 C 
ATOM      7  C   UNL     1      30.282   7.318  29.036  1.00  0.00     0.031 C 
ENDROOT
BRANCH   5   8
ATOM      8  C   UNL     1      31.533   8.267  32.579  1.00  0.00    -0.077 C 
ATOM      9  C   UNL     1      32.138   9.391  32.997  1.00  0.00     0.008 C 
ATOM     10  C   UNL     1      31.747   7.000  33.370  1.00  0.00     0.039 C 
ENDBRANCH   5   8
TORSDOF 1
ENDMDL
MODEL 2
REMARK VINA RESULT:    -4.059      2.467      5.350
REMARK INTER + INTRA:          -4.428
REMARK INTER:                  -4.299
REMARK INTRA:                  -0.129
REMARK UNBOUND:                -0.132
REMARK SMILES C=C(C)[C@H]1CC=C(C)CC1
REMARK SMILES IDX 8 1 7 2 6 3 5 4 4 5 10 6 9 7 2 8 1 9 3 10
REMARK H PARENT
REMARK Flexibility Score: inf
ROOT
ATOM      1  C   UNL     1      31.253   5.987  36.617  1.00  0.00     0.039 C 
ATOM      2  C   UNL     1      31.271   7.029  35.533  1.00  0.00    -0.077 C 
ATOM      3  C   UNL     1      31.189   8.333  35.877  1.00  0.00    -0.027 C 
ATOM      4  C   UNL     1      31.144   9.449  34.862  1.00  0.00     0.035 C 
ATOM      5  C   UNL     1      31.743   9.028  33.508  1.00  0.00     0.018 C 
ATOM      6  C   UNL     1      31.155   7.676  33.076  1.00  0.00     0.013 C 
ATOM      7  C   UNL     1      31.513   6.593  34.102  1.00  0.00     0.031 C 
ENDROOT
BRANCH   5   8
ATOM      8  C   UNL     1      31.522  10.098  32.447  1.00  0.00    -0.077 C 
ATOM      9  C   UNL     1      30.687   9.867  31.421  1.00  0.00     0.008 C 
ATOM     10  C   UNL     1      32.235  11.427  32.509  1.00  0.00     0.039 C 
ENDBRANCH   5   8
TORSDOF 1
ENDMDL
MODEL 3
REMARK VINA RESULT:    -4.032      1.325      2.391
REMARK INTER + INTRA:          -4.399
REMARK INTER:                  -4.269
REMARK INTRA:                  -0.130
REMARK UNBOUND:                -0.132
REMARK SMILES C=C(C)[C@H]1CC=C(C)CC1
REMARK SMILES IDX 8 1 7 2 6 3 5 4 4 5 10 6 9 7 2 8 1 9 3 10
REMARK H PARENT
REMARK Flexibility Score: inf
ROOT
ATOM      1  C   UNL     1      30.004   7.151  29.364  1.00  0.00     0.039 C 
ATOM      2  C   UNL     1      30.568   7.871  30.559  1.00  0.00    -0.077 C 
ATOM      3  C   UNL     1      30.471   9.216  30.618  1.00  0.00    -0.027 C 
ATOM      4  C   UNL     1      31.052  10.033  31.747  1.00  0.00     0.035 C 
ATOM      5  C   UNL     1      31.247   9.200  33.026  1.00  0.00     0.018 C 
ATOM      6  C   UNL     1      31.959   7.882  32.687  1.00  0.00     0.013 C 
ATOM      7  C   UNL     1      31.105   7.055  31.718  1.00  0.00     0.031 C 
ENDROOT
BRANCH   5   8
ATOM      8  C   UNL     1      32.001   9.986  34.090  1.00  0.00    -0.077 C 
ATOM      9  C   UNL     1      33.033  10.771  33.742  1.00  0.00     0.008 C 
ATOM     10  C   UNL     1      31.626   9.897  35.549  1.00  0.00     0.039 C 
ENDBRANCH   5   8
TORSDOF 1
ENDMDL
MODEL 4
REMARK VINA RESULT:    -4.026      2.155      3.770
REMARK INTER + INTRA:          -4.393
REMARK INTER:                  -4.264
REMARK INTRA:                  -0.129
REMARK UNBOUND:                -0.132
REMARK SMILES C=C(C)[C@H]1CC=C(C)CC1
REMARK SMILES IDX 8 1 7 2 6 3 5 4 4 5 10 6 9 7 2 8 1 9 3 10
REMARK H PARENT
REMARK Flexibility Score: inf
ROOT
ATOM      1  C   UNL     1      30.841   8.119  30.349  1.00  0.00     0.039 C 
ATOM      2  C   UNL     1      31.019   8.021  31.840  1.00  0.00    -0.077 C 
ATOM      3  C   UNL     1      31.434   9.109  32.524  1.00  0.00    -0.027 C 
ATOM      4  C   UNL     1      31.693   9.096  34.010  1.00  0.00     0.035 C 
ATOM      5  C   UNL     1      30.937   7.960  34.722  1.00  0.00     0.018 C 
ATOM      6  C   UNL     1      31.153   6.638  33.970  1.00  0.00     0.013 C 
ATOM      7  C   UNL     1      30.599   6.745  32.544  1.00  0.00     0.031 C 
ENDROOT
BRANCH   5   8
ATOM      8  C   UNL     1      31.354   7.847  36.182  1.00  0.00    -0.077 C 
ATOM      9  C   UNL     1      31.408   6.644  36.776  1.00  0.00     0.008 C 
ATOM     10  C   UNL     1      31.700   9.068  36.999  1.00  0.00     0.039 C 
ENDBRANCH   5   8
TORSDOF 1
ENDMDL
MODEL 5
REMARK VINA RESULT:    -3.986      1.272      2.514
REMARK INTER + INTRA:          -4.351
REMARK INTER:                  -4.221
REMARK INTRA:                  -0.130
REMARK UNBOUND:                -0.132
REMARK SMILES C=C(C)[C@H]1CC=C(C)CC1
REMARK SMILES IDX 8 1 7 2 6 3 5 4 4 5 10 6 9 7 2 8 1 9 3 10
REMARK H PARENT
REMARK Flexibility Score: inf
ROOT
ATOM      1  C   UNL     1      29.718   6.762  28.755  1.00  0.00     0.039 C 
ATOM      2  C   UNL     1      30.245   7.525  29.940  1.00  0.00    -0.077 C 
ATOM      3  C   UNL     1      30.828   6.846  30.951  1.00  0.00    -0.027 C 
ATOM      4  C   UNL     1      31.339   7.514  32.204  1.00  0.00     0.035 C 
ATOM      5  C   UNL     1      31.634   9.009  31.987  1.00  0.00     0.018 C 
ATOM      6  C   UNL     1      30.445   9.678  31.280  1.00  0.00     0.013 C 
ATOM      7  C   UNL     1      30.224   9.041  29.902  1.00  0.00     0.031 C 
ENDROOT
BRANCH   5   8
ATOM      8  C   UNL     1      31.968   9.704  33.299  1.00  0.00    -0.077 C 
ATOM      9  C   UNL     1      31.261   9.428  34.407  1.00  0.00     0.008 C 
ATOM     10  C   UNL     1      33.080  10.721  33.390  1.00  0.00     0.039 C 
ENDBRANCH   5   8
TORSDOF 1
ENDMDL
MODEL 6
REMARK VINA RESULT:    -3.930      3.250      4.671
REMARK INTER + INTRA:          -4.292
REMARK INTER:                  -4.163
REMARK INTRA:                  -0.129
REMARK UNBOUND:                -0.132
REMARK SMILES C=C(C)[C@H]1CC=C(C)CC1
REMARK SMILES IDX 8 1 7 2 6 3 5 4 4 5 10 6 9 7 2 8 1 9 3 10
REMARK H PARENT
REMARK Flexibility Score: inf
ROOT
ATOM      1  C   UNL     1      32.301  11.423  32.625  1.00  0.00     0.039 C 
ATOM      2  C   UNL     1      31.924  10.186  33.393  1.00  0.00    -0.077 C 
ATOM      3  C   UNL     1      31.686  10.286  34.719  1.00  0.00    -0.027 C 
ATOM      4  C   UNL     1      31.354   9.096  35.586  1.00  0.00     0.035 C 
ATOM      5  C   UNL     1      30.783   7.923  34.770  1.00  0.00     0.018 C 
ATOM      6  C   UNL     1      31.671   7.660  33.544  1.00  0.00     0.013 C 
ATOM      7  C   UNL     1      31.693   8.895  32.634  1.00  0.00     0.031 C 
ENDROOT
BRANCH   5   8
ATOM      8  C   UNL     1      30.630   6.674  35.627  1.00  0.00    -0.077 C 
ATOM      9  C   UNL     1      31.649   6.253  36.393  1.00  0.00     0.008 C 
ATOM     10  C   UNL     1      29.349   5.875  35.632  1.00  0.00     0.039 C 
ENDBRANCH   5   8
TORSDOF 1
ENDMDL
MODEL 7
REMARK VINA RESULT:    -3.923      3.559      6.925
REMARK INTER + INTRA:          -4.284
REMARK INTER:                  -4.154
REMARK INTRA:                  -0.129
REMARK UNBOUND:                -0.132
REMARK SMILES C=C(C)[C@H]1CC=C(C)CC1
REMARK SMILES IDX 8 1 7 2 6 3 5 4 4 5 10 6 9 7 2 8 1 9 3 10
REMARK H PARENT
REMARK Flexibility Score: inf
ROOT
ATOM      1  C   UNL     1      30.501   8.511  39.426  1.00  0.00     0.039 C 
ATOM      2  C   UNL     1      30.863   8.511  37.966  1.00  0.00    -0.077 C 
ATOM      3  C   UNL     1      30.880   7.339  37.295  1.00  0.00    -0.027 C 
ATOM      4  C   UNL     1      31.282   7.227  35.845  1.00  0.00     0.035 C 
ATOM      5  C   UNL     1      31.125   8.562  35.094  1.00  0.00     0.018 C 
ATOM      6  C   UNL     1      31.769   9.696  35.906  1.00  0.00     0.013 C 
ATOM      7  C   UNL     1      31.067   9.838  37.263  1.00  0.00     0.031 C 
ENDROOT
BRANCH   5   8
ATOM      8  C   UNL     1      31.707   8.480  33.690  1.00  0.00    -0.077 C 
ATOM      9  C   UNL     1      31.693   7.315  33.022  1.00  0.00     0.008 C 
ATOM     10  C   UNL     1      32.321   9.685  33.020  1.00  0.00     0.039 C 
ENDBRANCH   5   8
TORSDOF 1
ENDMDL
MODEL 8
REMARK VINA RESULT:    -3.913      1.988      5.216
REMARK INTER + INTRA:          -4.274
REMARK INTER:                  -4.142
REMARK INTRA:                  -0.132
REMARK UNBOUND:                -0.132
REMARK SMILES C=C(C)[C@H]1CC=C(C)CC1
REMARK SMILES IDX 8 1 7 2 6 3 5 4 4 5 10 6 9 7 2 8 1 9 3 10
REMARK H PARENT
REMARK Flexibility Score: inf
ROOT
ATOM      1  C   UNL     1      31.547   8.888  37.240  1.00  0.00     0.039 C 
ATOM      2  C   UNL     1      31.380   8.629  35.767  1.00  0.00    -0.077 C 
ATOM      3  C   UNL     1      31.477   9.664  34.905  1.00  0.00    -0.027 C 
ATOM      4  C   UNL     1      31.272   9.516  33.417  1.00  0.00     0.035 C 
ATOM      5  C   UNL     1      31.498   8.071  32.940  1.00  0.00     0.018 C 
ATOM      6  C   UNL     1      30.728   7.096  33.845  1.00  0.00     0.013 C 
ATOM      7  C   UNL     1      31.242   7.198  35.287  1.00  0.00     0.031 C 
ENDROOT
BRANCH   5   8
ATOM      8  C   UNL     1      31.108   7.902  31.478  1.00  0.00    -0.077 C 
ATOM      9  C   UNL     1      30.580   8.933  30.799  1.00  0.00     0.008 C 
ATOM     10  C   UNL     1      31.288   6.586  30.762  1.00  0.00     0.039 C 
ENDBRANCH   5   8
TORSDOF 1
ENDMDL
MODEL 9
REMARK VINA RESULT:    -3.890      2.635      3.891
REMARK INTER + INTRA:          -4.249
REMARK INTER:                  -4.120
REMARK INTRA:                  -0.129
REMARK UNBOUND:                -0.132
REMARK SMILES C=C(C)[C@H]1CC=C(C)CC1
REMARK SMILES IDX 8 1 7 2 6 3 5 4 4 5 10 6 9 7 2 8 1 9 3 10
REMARK H PARENT
REMARK Flexibility Score: inf
ROOT
ATOM      1  C   UNL     1      31.869  12.248  31.138  1.00  0.00     0.039 C 
ATOM      2  C   UNL     1      31.728  11.090  32.088  1.00  0.00    -0.077 C 
ATOM      3  C   UNL     1      32.259  11.191  33.326  1.00  0.00    -0.027 C 
ATOM      4  C   UNL     1      32.217  10.066  34.332  1.00  0.00     0.035 C 
ATOM      5  C   UNL     1      31.083   9.067  34.040  1.00  0.00     0.018 C 
ATOM      6  C   UNL     1      31.109   8.668  32.556  1.00  0.00     0.013 C 
ATOM      7  C   UNL     1      30.882   9.903  31.674  1.00  0.00     0.031 C 
ENDROOT
BRANCH   5   8
ATOM      8  C   UNL     1      31.171   7.848  34.948  1.00  0.00    -0.077 C 
ATOM      9  C   UNL     1      31.258   6.618  34.417  1.00  0.00     0.008 C 
ATOM     10  C   UNL     1      31.150   7.983  36.451  1.00  0.00     0.039 C 
ENDBRANCH   5   8
TORSDOF 1
ENDMDL
