MODEL 1
REMARK VINA RESULT:    -3.300      0.000      0.000
REMARK INTER + INTRA:          -3.218
REMARK INTER:                  -4.072
REMARK INTRA:                   0.854
REMARK UNBOUND:                 0.854
REMARK SMILES CC1=CC=CC(C)(C)CC1=O
REMARK SMILES IDX 1 1 2 2 3 3 10 4 11 5 9 6 4 8 5 9 6 10 7 11 8 12
REMARK H PARENT
REMARK Flexibility Score: 80.00
ROOT
ATOM      1  C   UNL     1      82.929  29.673  64.521  1.00  0.00     0.048 C 
ATOM      2  C   UNL     1      84.339  30.189  64.695  1.00  0.00    -0.008 C 
ATOM      3  C   UNL     1      85.318  29.287  64.920  1.00  0.00     0.007 C 
ENDROOT
BRANCH   2   4
ATOM      4  C   UNL     1      84.536  31.656  64.547  1.00  0.00     0.159 C 
ATOM      5  O   UNL     1      83.523  32.385  64.358  1.00  0.00    -0.295 OA
BRANCH   4   6
ATOM      6  C   UNL     1      85.875  32.331  64.571  1.00  0.00     0.091 CG0
ATOM      7  G   UNL     1      86.754  31.941  65.780  1.00  0.00     0.000 G0
ENDBRANCH   4   6
ENDBRANCH   2   4
BRANCH   3   8
ATOM      8  C   UNL     1      86.767  29.496  65.137  1.00  0.00    -0.003 C 
ATOM      9  C   UNL     1      87.401  30.608  65.529  1.00  0.00    -0.020 C 
BRANCH   9  10
ATOM     10  C   UNL     1      86.764  31.954  65.778  1.00  0.00    -0.010 CG0
ATOM     11  C   UNL     1      87.889  33.009  65.891  1.00  0.00     0.016 C 
ATOM     12  C   UNL     1      85.989  31.942  67.117  1.00  0.00     0.016 C 
ATOM     13  G   UNL     1      85.870  32.332  64.575  1.00  0.00     0.000 G0
ENDBRANCH   9  10
ENDBRANCH   3   8
TORSDOF 0
ENDMDL
MODEL 2
REMARK VINA RESULT:    -2.959      1.489      2.553
REMARK INTER + INTRA:          -2.797
REMARK INTER:                  -3.655
REMARK INTRA:                   0.858
REMARK UNBOUND:                 0.854
REMARK SMILES CC1=CC=CC(C)(C)CC1=O
REMARK SMILES IDX 1 1 2 2 3 3 10 4 11 5 9 6 4 8 5 9 6 10 7 11 8 12
REMARK H PARENT
REMARK Flexibility Score: 80.00
ROOT
ATOM      1  C   UNL     1      83.468  31.998  67.758  1.00  0.00     0.048 C 
ATOM      2  C   UNL     1      84.793  31.658  67.115  1.00  0.00    -0.008 C 
ATOM      3  C   UNL     1      85.920  31.948  67.801  1.00  0.00     0.007 C 
ENDROOT
BRANCH   2   4
ATOM      4  C   UNL     1      84.739  30.977  65.794  1.00  0.00     0.159 C 
ATOM      5  O   UNL     1      83.616  30.832  65.235  1.00  0.00    -0.295 OA
BRANCH   4   6
ATOM      6  C   UNL     1      85.936  30.411  65.091  1.00  0.00     0.091 CG0
ATOM      7  G   UNL     1      87.089  31.421  64.902  1.00  0.00     0.000 G0
ENDBRANCH   4   6
ENDBRANCH   2   4
BRANCH   3   8
ATOM      8  C   UNL     1      87.336  31.743  67.423  1.00  0.00    -0.003 C 
ATOM      9  C   UNL     1      87.857  31.551  66.205  1.00  0.00    -0.020 C 
BRANCH   9  10
ATOM     10  C   UNL     1      87.082  31.429  64.916  1.00  0.00    -0.010 CG0
ATOM     11  C   UNL     1      88.036  30.888  63.827  1.00  0.00     0.016 C 
ATOM     12  C   UNL     1      86.579  32.818  64.458  1.00  0.00     0.016 C 
ATOM     13  G   UNL     1      85.934  30.411  65.099  1.00  0.00     0.000 G0
ENDBRANCH   9  10
ENDBRANCH   3   8
TORSDOF 0
ENDMDL
MODEL 3
REMARK VINA RESULT:    -2.302      1.714      2.596
REMARK INTER + INTRA:          -1.987
REMARK INTER:                  -3.059
REMARK INTRA:                   1.072
REMARK UNBOUND:                 0.854
REMARK SMILES CC1=CC=CC(C)(C)CC1=O
REMARK SMILES IDX 1 1 2 2 3 3 10 4 11 5 9 6 4 8 5 9 6 10 7 11 8 12
REMARK H PARENT
REMARK Flexibility Score: 80.00
ROOT
ATOM      1  C   UNL     1      84.357  27.904  64.761  1.00  0.00     0.048 C 
ATOM      2  C   UNL     1      84.940  29.298  64.735  1.00  0.00    -0.008 C 
ATOM      3  C   UNL     1      84.081  30.340  64.701  1.00  0.00     0.007 C 
ENDROOT
BRANCH   2   4
ATOM      4  C   UNL     1      86.422  29.404  64.803  1.00  0.00     0.159 C 
ATOM      5  O   UNL     1      87.089  28.367  65.072  1.00  0.00    -0.295 OA
BRANCH   4   6
ATOM      6  C   UNL     1      87.183  30.681  64.608  1.00  0.00     0.091 CG0
ATOM      7  G   UNL     1      86.738  31.826  65.545  1.00  0.00     0.000 G0
ENDBRANCH   4   6
ENDBRANCH   2   4
BRANCH   3   8
ATOM      8  C   UNL     1      84.358  31.793  64.659  1.00  0.00    -0.003 C 
ATOM      9  C   UNL     1      85.488  32.438  64.974  1.00  0.00    -0.020 C 
BRANCH   9  10
ATOM     10  C   UNL     1      86.747  31.811  65.524  1.00  0.00    -0.010 CG0
ATOM     11  C   UNL     1      86.428  31.233  66.922  1.00  0.00     0.016 C 
ATOM     12  C   UNL     1      87.850  32.882  65.693  1.00  0.00     0.016 C 
ATOM     13  G   UNL     1      87.183  30.644  64.609  1.00  0.00     0.000 G0
ENDBRANCH   9  10
ENDBRANCH   3   8
TORSDOF 0
ENDMDL
MODEL 4
REMARK VINA RESULT:    -2.108     14.365     15.477
REMARK INTER + INTRA:          -1.747
REMARK INTER:                  -2.587
REMARK INTRA:                   0.839
REMARK UNBOUND:                 0.854
REMARK SMILES CC1=CC=CC(C)(C)CC1=O
REMARK SMILES IDX 1 1 2 2 3 3 10 4 11 5 9 6 4 8 5 9 6 10 7 11 8 12
REMARK H PARENT
REMARK Flexibility Score: 80.00
ROOT
ATOM      1  C   UNL     1      76.777  31.571  51.960  1.00  0.00     0.048 C 
ATOM      2  C   UNL     1      77.500  32.895  52.063  1.00  0.00    -0.008 C 
ATOM      3  C   UNL     1      76.762  34.023  51.997  1.00  0.00     0.007 C 
ENDROOT
BRANCH   2   4
ATOM      4  C   UNL     1      78.970  32.837  52.285  1.00  0.00     0.159 C 
ATOM      5  O   UNL     1      79.536  31.709  52.288  1.00  0.00    -0.295 OA
BRANCH   4   6
ATOM      6  C   UNL     1      79.828  34.039  52.545  1.00  0.00     0.091 CG0
ATOM      7  G   UNL     1      79.661  35.167  51.503  1.00  0.00     0.000 G0
ENDBRANCH   4   6
ENDBRANCH   2   4
BRANCH   3   8
ATOM      8  C   UNL     1      77.190  35.439  52.058  1.00  0.00    -0.003 C 
ATOM      9  C   UNL     1      78.403  35.955  51.827  1.00  0.00    -0.020 C 
BRANCH   9  10
ATOM     10  C   UNL     1      79.657  35.175  51.512  1.00  0.00    -0.010 CG0
ATOM     11  C   UNL     1      80.868  36.125  51.661  1.00  0.00     0.016 C 
ATOM     12  C   UNL     1      79.623  34.675  50.049  1.00  0.00     0.016 C 
ATOM     13  G   UNL     1      79.818  34.025  52.532  1.00  0.00     0.000 G0
ENDBRANCH   9  10
ENDBRANCH   3   8
TORSDOF 0
ENDMDL
MODEL 5
REMARK VINA RESULT:    -2.088      1.728      2.879
REMARK INTER + INTRA:          -1.722
REMARK INTER:                  -2.816
REMARK INTRA:                   1.094
REMARK UNBOUND:                 0.854
REMARK SMILES CC1=CC=CC(C)(C)CC1=O
REMARK SMILES IDX 1 1 2 2 3 3 10 4 11 5 9 6 4 8 5 9 6 10 7 11 8 12
REMARK H PARENT
REMARK Flexibility Score: 80.00
ROOT
ATOM      1  C   UNL     1      85.192  34.232  62.914  1.00  0.00     0.048 C 
ATOM      2  C   UNL     1      85.515  33.150  63.919  1.00  0.00    -0.008 C 
ATOM      3  C   UNL     1      84.745  32.041  63.921  1.00  0.00     0.007 C 
ENDROOT
BRANCH   2   4
ATOM      4  C   UNL     1      86.698  33.380  64.792  1.00  0.00     0.159 C 
ATOM      5  O   UNL     1      87.452  34.360  64.539  1.00  0.00    -0.295 OA
BRANCH   4   6
ATOM      6  C   UNL     1      87.079  32.496  65.940  1.00  0.00     0.091 CG0
ATOM      7  G   UNL     1      87.218  31.004  65.565  1.00  0.00     0.000 G0
ENDBRANCH   4   6
ENDBRANCH   2   4
BRANCH   3   8
ATOM      8  C   UNL     1      84.816  30.841  64.784  1.00  0.00    -0.003 C 
ATOM      9  C   UNL     1      85.845  30.399  65.517  1.00  0.00    -0.020 C 
BRANCH   9  10
ATOM     10  C   UNL     1      87.225  31.008  65.571  1.00  0.00    -0.010 CG0
ATOM     11  C   UNL     1      87.859  30.896  64.166  1.00  0.00     0.016 C 
ATOM     12  C   UNL     1      88.120  30.223  66.559  1.00  0.00     0.016 C 
ATOM     13  G   UNL     1      87.113  32.507  65.931  1.00  0.00     0.000 G0
ENDBRANCH   9  10
ENDBRANCH   3   8
TORSDOF 0
ENDMDL
MODEL 6
REMARK VINA RESULT:    -2.062      1.565      3.365
REMARK INTER + INTRA:          -1.690
REMARK INTER:                  -2.548
REMARK INTRA:                   0.857
REMARK UNBOUND:                 0.854
REMARK SMILES CC1=CC=CC(C)(C)CC1=O
REMARK SMILES IDX 1 1 2 2 3 3 10 4 11 5 9 6 4 8 5 9 6 10 7 11 8 12
REMARK H PARENT
REMARK Flexibility Score: 80.00
ROOT
ATOM      1  C   UNL     1      86.865  34.928  64.198  1.00  0.00     0.048 C 
ATOM      2  C   UNL     1      86.868  33.538  64.793  1.00  0.00    -0.008 C 
ATOM      3  C   UNL     1      87.695  33.300  65.833  1.00  0.00     0.007 C 
ENDROOT
BRANCH   2   4
ATOM      4  C   UNL     1      85.910  32.560  64.210  1.00  0.00     0.159 C 
ATOM      5  O   UNL     1      85.239  32.903  63.198  1.00  0.00    -0.295 OA
BRANCH   4   6
ATOM      6  C   UNL     1      85.659  31.194  64.772  1.00  0.00     0.091 CG0
ATOM      7  G   UNL     1      86.936  30.341  64.946  1.00  0.00     0.000 G0
ENDBRANCH   4   6
ENDBRANCH   2   4
BRANCH   3   8
ATOM      8  C   UNL     1      87.917  32.052  66.598  1.00  0.00    -0.003 C 
ATOM      9  C   UNL     1      87.636  30.793  66.242  1.00  0.00    -0.020 C 
BRANCH   9  10
ATOM     10  C   UNL     1      86.947  30.360  64.971  1.00  0.00    -0.010 CG0
ATOM     11  C   UNL     1      86.535  28.878  65.123  1.00  0.00     0.016 C 
ATOM     12  C   UNL     1      87.919  30.461  63.772  1.00  0.00     0.016 C 
ATOM     13  G   UNL     1      85.664  31.198  64.770  1.00  0.00     0.000 G0
ENDBRANCH   9  10
ENDBRANCH   3   8
TORSDOF 0
ENDMDL
MODEL 7
REMARK VINA RESULT:    -2.024     16.371     16.986
REMARK INTER + INTRA:          -1.643
REMARK INTER:                  -2.503
REMARK INTRA:                   0.860
REMARK UNBOUND:                 0.854
REMARK SMILES CC1=CC=CC(C)(C)CC1=O
REMARK SMILES IDX 1 1 2 2 3 3 10 4 11 5 9 6 4 8 5 9 6 10 7 11 8 12
REMARK H PARENT
REMARK Flexibility Score: 80.00
ROOT
ATOM      1  C   UNL     1      71.727  33.285  55.993  1.00  0.00     0.048 C 
ATOM      2  C   UNL     1      72.819  33.968  55.203  1.00  0.00    -0.008 C 
ATOM      3  C   UNL     1      73.173  35.219  55.567  1.00  0.00     0.007 C 
ENDROOT
BRANCH   2   4
ATOM      4  C   UNL     1      73.453  33.175  54.115  1.00  0.00     0.159 C 
ATOM      5  O   UNL     1      73.011  32.016  53.878  1.00  0.00    -0.295 OA
BRANCH   4   6
ATOM      6  C   UNL     1      74.618  33.648  53.300  1.00  0.00     0.091 CG0
ATOM      7  G   UNL     1      74.422  35.049  52.678  1.00  0.00     0.000 G0
ENDBRANCH   4   6
ENDBRANCH   2   4
BRANCH   3   8
ATOM      8  C   UNL     1      74.186  36.125  54.980  1.00  0.00    -0.003 C 
ATOM      9  C   UNL     1      74.727  36.092  53.756  1.00  0.00    -0.020 C 
BRANCH   9  10
ATOM     10  C   UNL     1      74.464  35.051  52.695  1.00  0.00    -0.010 CG0
ATOM     11  C   UNL     1      75.523  35.217  51.581  1.00  0.00     0.016 C 
ATOM     12  C   UNL     1      73.070  35.271  52.061  1.00  0.00     0.016 C 
ATOM     13  G   UNL     1      74.625  33.641  53.306  1.00  0.00     0.000 G0
ENDBRANCH   9  10
ENDBRANCH   3   8
TORSDOF 0
ENDMDL
MODEL 8
REMARK VINA RESULT:    -2.017     15.023     16.222
REMARK INTER + INTRA:          -1.635
REMARK INTER:                  -2.470
REMARK INTRA:                   0.835
REMARK UNBOUND:                 0.854
REMARK SMILES CC1=CC=CC(C)(C)CC1=O
REMARK SMILES IDX 1 1 2 2 3 3 10 4 11 5 9 6 4 8 5 9 6 10 7 11 8 12
REMARK H PARENT
REMARK Flexibility Score: 80.00
ROOT
ATOM      1  C   UNL     1      75.197  36.009  50.550  1.00  0.00     0.048 C 
ATOM      2  C   UNL     1      76.686  35.990  50.808  1.00  0.00    -0.008 C 
ATOM      3  C   UNL     1      77.512  36.110  49.747  1.00  0.00     0.007 C 
ENDROOT
BRANCH   2   4
ATOM      4  C   UNL     1      77.117  35.894  52.229  1.00  0.00     0.159 C 
ATOM      5  O   UNL     1      76.232  35.770  53.120  1.00  0.00    -0.295 OA
BRANCH   4   6
ATOM      6  C   UNL     1      78.543  35.973  52.682  1.00  0.00     0.091 CG0
ATOM      7  G   UNL     1      79.499  35.031  51.916  1.00  0.00     0.000 G0
ENDBRANCH   4   6
ENDBRANCH   2   4
BRANCH   3   8
ATOM      8  C   UNL     1      78.992  36.113  49.694  1.00  0.00    -0.003 C 
ATOM      9  C   UNL     1      79.860  35.637  50.594  1.00  0.00    -0.020 C 
BRANCH   9  10
ATOM     10  C   UNL     1      79.513  35.035  51.934  1.00  0.00    -0.010 CG0
ATOM     11  C   UNL     1      80.807  34.946  52.775  1.00  0.00     0.016 C 
ATOM     12  C   UNL     1      78.965  33.600  51.752  1.00  0.00     0.016 C 
ATOM     13  G   UNL     1      78.521  35.962  52.673  1.00  0.00     0.000 G0
ENDBRANCH   9  10
ENDBRANCH   3   8
TORSDOF 0
ENDMDL
MODEL 9
REMARK VINA RESULT:    -1.854      1.767      3.610
REMARK INTER + INTRA:          -1.434
REMARK INTER:                  -2.294
REMARK INTRA:                   0.860
REMARK UNBOUND:                 0.854
REMARK SMILES CC1=CC=CC(C)(C)CC1=O
REMARK SMILES IDX 1 1 2 2 3 3 10 4 11 5 9 6 4 8 5 9 6 10 7 11 8 12
REMARK H PARENT
REMARK Flexibility Score: 80.00
ROOT
ATOM      1  C   UNL     1      87.345  32.346  67.735  1.00  0.00     0.048 C 
ATOM      2  C   UNL     1      86.428  31.478  66.905  1.00  0.00    -0.008 C 
ATOM      3  C   UNL     1      86.994  30.602  66.048  1.00  0.00     0.007 C 
ENDROOT
BRANCH   2   4
ATOM      4  C   UNL     1      84.967  31.626  67.147  1.00  0.00     0.159 C 
ATOM      5  O   UNL     1      84.579  32.498  67.973  1.00  0.00    -0.295 OA
BRANCH   4   6
ATOM      6  C   UNL     1      83.918  30.776  66.498  1.00  0.00     0.091 CG0
ATOM      7  G   UNL     1      84.031  30.704  64.959  1.00  0.00     0.000 G0
ENDBRANCH   4   6
ENDBRANCH   2   4
BRANCH   3   8
ATOM      8  C   UNL     1      86.357  29.646  65.114  1.00  0.00    -0.003 C 
ATOM      9  C   UNL     1      85.117  29.669  64.611  1.00  0.00    -0.020 C 
BRANCH   9  10
ATOM     10  C   UNL     1      84.039  30.670  64.951  1.00  0.00    -0.010 CG0
ATOM     11  C   UNL     1      82.696  30.140  64.396  1.00  0.00     0.016 C 
ATOM     12  C   UNL     1      84.332  32.027  64.268  1.00  0.00     0.016 C 
ATOM     13  G   UNL     1      83.912  30.790  66.486  1.00  0.00     0.000 G0
ENDBRANCH   9  10
ENDBRANCH   3   8
TORSDOF 0
ENDMDL
