MODEL 1
REMARK VINA RESULT:    -6.429      0.000      0.000
REMARK INTER + INTRA:          -7.929
REMARK INTER:                  -7.745
REMARK INTRA:                  -0.184
REMARK UNBOUND:                -0.184
REMARK SMILES O=c1c(O)c(-c2ccc(O)c(O)c2)oc2cc(O)cc(O)c12
REMARK SMILES IDX 5 1 3 2 2 3 1 4 22 5 20 6 19 7 17 8 16 9 15 10 14 11 6 12
REMARK SMILES IDX 7 13 8 14 9 15 13 16 11 17 10 18 12 20 4 22 21 24 18 26
REMARK H PARENT 10 19 12 21 4 23 21 25 18 27
REMARK Flexibility Score: inf
ROOT
ATOM      1  C   UNL     1      18.570  -1.559 -17.137  1.00  0.00     0.180 A 
ATOM      2  C   UNL     1      18.011  -0.708 -16.167  1.00  0.00     0.208 A 
ATOM      3  C   UNL     1      17.276  -1.270 -15.110  1.00  0.00     0.238 A 
ATOM      4  O   UNL     1      16.825  -0.507 -14.216  1.00  0.00    -0.285 OA
ATOM      5  C   UNL     1      17.096  -2.672 -15.045  1.00  0.00     0.111 A 
ATOM      6  C   UNL     1      16.336  -3.345 -14.041  1.00  0.00     0.134 A 
ATOM      7  C   UNL     1      16.334  -4.745 -14.000  1.00  0.00     0.093 A 
ATOM      8  C   UNL     1      17.009  -5.495 -14.963  1.00  0.00     0.123 A 
ATOM      9  C   UNL     1      17.705  -4.847 -15.983  1.00  0.00     0.094 A 
ATOM     10  C   UNL     1      17.756  -3.452 -16.030  1.00  0.00     0.146 A 
ATOM     11  O   UNL     1      18.438  -2.875 -17.011  1.00  0.00    -0.452 OA
ENDROOT
BRANCH   1  12
ATOM     12  C   UNL     1      19.335  -1.040 -18.293  1.00  0.00     0.025 A 
ATOM     13  C   UNL     1      18.784  -1.127 -19.581  1.00  0.00     0.016 A 
ATOM     14  C   UNL     1      19.479  -0.625 -20.684  1.00  0.00     0.051 A 
ATOM     15  C   UNL     1      20.728  -0.013 -20.514  1.00  0.00     0.157 A 
ATOM     16  C   UNL     1      20.579  -0.406 -18.124  1.00  0.00     0.062 A 
ATOM     17  C   UNL     1      21.277   0.100 -19.226  1.00  0.00     0.158 A 
BRANCH  15  18
ATOM     18  O   UNL     1      21.420   0.485 -21.617  1.00  0.00    -0.504 OA
ATOM     19  H   UNL     1      21.513  -0.051 -22.471  1.00  0.00     0.293 HD
ENDBRANCH  15  18
BRANCH  17  20
ATOM     20  O   UNL     1      22.511   0.716 -19.021  1.00  0.00    -0.504 OA
ATOM     21  H   UNL     1      23.381   0.295 -19.327  1.00  0.00     0.293 HD
ENDBRANCH  17  20
ENDBRANCH   1  12
BRANCH   2  22
ATOM     22  O   UNL     1      18.220   0.671 -16.239  1.00  0.00    -0.502 OA
ATOM     23  H   UNL     1      17.495   1.317 -16.531  1.00  0.00     0.293 HD
ENDBRANCH   2  22
BRANCH   6  24
ATOM     24  O   UNL     1      15.551  -2.692 -13.086  1.00  0.00    -0.507 OA
ATOM     25  H   UNL     1      14.582  -2.444 -13.213  1.00  0.00     0.293 HD
ENDBRANCH   6  24
BRANCH   8  26
ATOM     26  O   UNL     1      16.972  -6.887 -14.899  1.00  0.00    -0.508 OA
ATOM     27  H   UNL     1      17.783  -7.426 -14.616  1.00  0.00     0.293 HD
ENDBRANCH   8  26
TORSDOF 6
ENDMDL
MODEL 2
REMARK VINA RESULT:    -6.347      1.162      2.826
REMARK INTER + INTRA:          -7.830
REMARK INTER:                  -7.620
REMARK INTRA:                  -0.210
REMARK UNBOUND:                -0.184
REMARK SMILES O=c1c(O)c(-c2ccc(O)c(O)c2)oc2cc(O)cc(O)c12
REMARK SMILES IDX 5 1 3 2 2 3 1 4 22 5 20 6 19 7 17 8 16 9 15 10 14 11 6 12
REMARK SMILES IDX 7 13 8 14 9 15 13 16 11 17 10 18 12 20 4 22 21 24 18 26
REMARK H PARENT 10 19 12 21 4 23 21 25 18 27
REMARK Flexibility Score: inf
ROOT
ATOM      1  C   UNL     1      18.557  -2.319 -17.357  1.00  0.00     0.180 A 
ATOM      2  C   UNL     1      18.425  -3.708 -17.529  1.00  0.00     0.208 A 
ATOM      3  C   UNL     1      17.767  -4.457 -16.541  1.00  0.00     0.238 A 
ATOM      4  O   UNL     1      17.604  -5.692 -16.728  1.00  0.00    -0.285 OA
ATOM      5  C   UNL     1      17.263  -3.812 -15.386  1.00  0.00     0.111 A 
ATOM      6  C   UNL     1      16.615  -4.479 -14.303  1.00  0.00     0.134 A 
ATOM      7  C   UNL     1      16.041  -3.724 -13.273  1.00  0.00     0.093 A 
ATOM      8  C   UNL     1      16.147  -2.334 -13.252  1.00  0.00     0.123 A 
ATOM      9  C   UNL     1      16.831  -1.676 -14.275  1.00  0.00     0.094 A 
ATOM     10  C   UNL     1      17.383  -2.399 -15.335  1.00  0.00     0.146 A 
ATOM     11  O   UNL     1      18.017  -1.734 -16.294  1.00  0.00    -0.452 OA
ENDROOT
BRANCH   1  12
ATOM     12  C   UNL     1      19.260  -1.466 -18.342  1.00  0.00     0.025 A 
ATOM     13  C   UNL     1      18.663  -1.213 -19.587  1.00  0.00     0.016 A 
ATOM     14  C   UNL     1      19.298  -0.394 -20.523  1.00  0.00     0.051 A 
ATOM     15  C   UNL     1      20.534   0.196 -20.224  1.00  0.00     0.157 A 
ATOM     16  C   UNL     1      20.489  -0.854 -18.037  1.00  0.00     0.062 A 
ATOM     17  C   UNL     1      21.128  -0.031 -18.972  1.00  0.00     0.158 A 
BRANCH  15  18
ATOM     18  O   UNL     1      21.166   1.011 -21.162  1.00  0.00    -0.504 OA
ATOM     19  H   UNL     1      20.784   1.911 -21.427  1.00  0.00     0.293 HD
ENDBRANCH  15  18
BRANCH  17  20
ATOM     20  O   UNL     1      22.349   0.553 -18.638  1.00  0.00    -0.504 OA
ATOM     21  H   UNL     1      23.127   0.584 -19.286  1.00  0.00     0.293 HD
ENDBRANCH  17  20
ENDBRANCH   1  12
BRANCH   2  22
ATOM     22  O   UNL     1      18.910  -4.321 -18.687  1.00  0.00    -0.502 OA
ATOM     23  H   UNL     1      18.812  -5.315 -18.859  1.00  0.00     0.293 HD
ENDBRANCH   2  22
BRANCH   6  24
ATOM     24  O   UNL     1      16.532  -5.869 -14.179  1.00  0.00    -0.507 OA
ATOM     25  H   UNL     1      15.904  -6.353 -13.557  1.00  0.00     0.293 HD
ENDBRANCH   6  24
BRANCH   8  26
ATOM     26  O   UNL     1      15.577  -1.617 -12.202  1.00  0.00    -0.508 OA
ATOM     27  H   UNL     1      15.541  -0.603 -12.211  1.00  0.00     0.293 HD
ENDBRANCH   8  26
TORSDOF 6
ENDMDL
MODEL 3
REMARK VINA RESULT:    -6.322     11.710     14.986
REMARK INTER + INTRA:          -7.799
REMARK INTER:                  -7.736
REMARK INTRA:                  -0.064
REMARK UNBOUND:                -0.184
REMARK SMILES O=c1c(O)c(-c2ccc(O)c(O)c2)oc2cc(O)cc(O)c12
REMARK SMILES IDX 5 1 3 2 2 3 1 4 22 5 20 6 19 7 17 8 16 9 15 10 14 11 6 12
REMARK SMILES IDX 7 13 8 14 9 15 13 16 11 17 10 18 12 20 4 22 21 24 18 26
REMARK H PARENT 10 19 12 21 4 23 21 25 18 27
REMARK Flexibility Score: inf
ROOT
ATOM      1  C   UNL     1       9.326  -7.237  -8.381  1.00  0.00     0.180 A 
ATOM      2  C   UNL     1      10.657  -7.206  -8.831  1.00  0.00     0.208 A 
ATOM      3  C   UNL     1      10.938  -7.580 -10.155  1.00  0.00     0.238 A 
ATOM      4  O   UNL     1      12.124  -7.497 -10.568  1.00  0.00    -0.285 OA
ATOM      5  C   UNL     1       9.886  -7.995 -11.007  1.00  0.00     0.111 A 
ATOM      6  C   UNL     1      10.061  -8.433 -12.355  1.00  0.00     0.134 A 
ATOM      7  C   UNL     1       8.936  -8.696 -13.146  1.00  0.00     0.093 A 
ATOM      8  C   UNL     1       7.648  -8.600 -12.621  1.00  0.00     0.123 A 
ATOM      9  C   UNL     1       7.468  -8.230 -11.288  1.00  0.00     0.094 A 
ATOM     10  C   UNL     1       8.569  -7.927 -10.484  1.00  0.00     0.146 A 
ATOM     11  O   UNL     1       8.355  -7.569  -9.224  1.00  0.00    -0.452 OA
ENDROOT
BRANCH   1  12
ATOM     12  C   UNL     1       8.956  -6.882  -6.992  1.00  0.00     0.025 A 
ATOM     13  C   UNL     1       9.268  -5.606  -6.499  1.00  0.00     0.016 A 
ATOM     14  C   UNL     1       8.910  -5.242  -5.199  1.00  0.00     0.051 A 
ATOM     15  C   UNL     1       8.219  -6.143  -4.377  1.00  0.00     0.157 A 
ATOM     16  C   UNL     1       8.243  -7.776  -6.173  1.00  0.00     0.062 A 
ATOM     17  C   UNL     1       7.880  -7.414  -4.870  1.00  0.00     0.158 A 
BRANCH  15  18
ATOM     18  O   UNL     1       7.865  -5.777  -3.079  1.00  0.00    -0.504 OA
ATOM     19  H   UNL     1       6.926  -5.471  -2.852  1.00  0.00     0.293 HD
ENDBRANCH  15  18
BRANCH  17  20
ATOM     20  O   UNL     1       7.180  -8.328  -4.083  1.00  0.00    -0.504 OA
ATOM     21  H   UNL     1       6.411  -8.048  -3.487  1.00  0.00     0.293 HD
ENDBRANCH  17  20
ENDBRANCH   1  12
BRANCH   2  22
ATOM     22  O   UNL     1      11.677  -6.773  -7.979  1.00  0.00    -0.502 OA
ATOM     23  H   UNL     1      12.531  -6.350  -8.323  1.00  0.00     0.293 HD
ENDBRANCH   2  22
BRANCH   6  24
ATOM     24  O   UNL     1      11.307  -8.651 -12.950  1.00  0.00    -0.507 OA
ATOM     25  H   UNL     1      11.668  -9.555 -13.211  1.00  0.00     0.293 HD
ENDBRANCH   6  24
BRANCH   8  26
ATOM     26  O   UNL     1       6.552  -8.884 -13.434  1.00  0.00    -0.508 OA
ATOM     27  H   UNL     1       5.601  -8.740 -13.111  1.00  0.00     0.293 HD
ENDBRANCH   8  26
TORSDOF 6
ENDMDL
MODEL 4
REMARK VINA RESULT:    -6.189      9.959     14.051
REMARK INTER + INTRA:          -7.639
REMARK INTER:                  -8.161
REMARK INTRA:                   0.521
REMARK UNBOUND:                -0.184
REMARK SMILES O=c1c(O)c(-c2ccc(O)c(O)c2)oc2cc(O)cc(O)c12
REMARK SMILES IDX 5 1 3 2 2 3 1 4 22 5 20 6 19 7 17 8 16 9 15 10 14 11 6 12
REMARK SMILES IDX 7 13 8 14 9 15 13 16 11 17 10 18 12 20 4 22 21 24 18 26
REMARK H PARENT 10 19 12 21 4 23 21 25 18 27
REMARK Flexibility Score: inf
ROOT
ATOM      1  C   UNL     1       9.472  -7.471  -9.176  1.00  0.00     0.180 A 
ATOM      2  C   UNL     1       8.513  -8.192  -9.909  1.00  0.00     0.208 A 
ATOM      3  C   UNL     1       8.879  -8.750 -11.145  1.00  0.00     0.238 A 
ATOM      4  O   UNL     1       8.032  -9.440 -11.770  1.00  0.00    -0.285 OA
ATOM      5  C   UNL     1      10.193  -8.567 -11.639  1.00  0.00     0.111 A 
ATOM      6  C   UNL     1      10.660  -9.054 -12.897  1.00  0.00     0.134 A 
ATOM      7  C   UNL     1      12.016  -8.928 -13.225  1.00  0.00     0.093 A 
ATOM      8  C   UNL     1      12.906  -8.276 -12.372  1.00  0.00     0.123 A 
ATOM      9  C   UNL     1      12.447  -7.743 -11.167  1.00  0.00     0.094 A 
ATOM     10  C   UNL     1      11.108  -7.885 -10.796  1.00  0.00     0.146 A 
ATOM     11  O   UNL     1      10.714  -7.373  -9.636  1.00  0.00    -0.452 OA
ENDROOT
BRANCH   1  12
ATOM     12  C   UNL     1       9.155  -6.833  -7.878  1.00  0.00     0.025 A 
ATOM     13  C   UNL     1       7.939  -7.129  -7.242  1.00  0.00     0.016 A 
ATOM     14  C   UNL     1       7.628  -6.555  -6.007  1.00  0.00     0.051 A 
ATOM     15  C   UNL     1       8.534  -5.688  -5.382  1.00  0.00     0.157 A 
ATOM     16  C   UNL     1      10.071  -5.979  -7.238  1.00  0.00     0.062 A 
ATOM     17  C   UNL     1       9.763  -5.403  -5.999  1.00  0.00     0.158 A 
BRANCH  15  18
ATOM     18  O   UNL     1       8.219  -5.114  -4.151  1.00  0.00    -0.504 OA
ATOM     19  H   UNL     1       7.519  -5.519  -3.541  1.00  0.00     0.293 HD
ENDBRANCH  15  18
BRANCH  17  20
ATOM     20  O   UNL     1      10.692  -4.557  -5.397  1.00  0.00    -0.504 OA
ATOM     21  H   UNL     1      11.060  -4.732  -4.470  1.00  0.00     0.293 HD
ENDBRANCH  17  20
ENDBRANCH   1  12
BRANCH   2  22
ATOM     22  O   UNL     1       7.228  -8.378  -9.392  1.00  0.00    -0.502 OA
ATOM     23  H   UNL     1       6.561  -7.621  -9.306  1.00  0.00     0.293 HD
ENDBRANCH   2  22
BRANCH   6  24
ATOM     24  O   UNL     1       9.836  -9.640 -13.862  1.00  0.00    -0.507 OA
ATOM     25  H   UNL     1       9.427  -9.149 -14.642  1.00  0.00     0.293 HD
ENDBRANCH   6  24
BRANCH   8  26
ATOM     26  O   UNL     1      14.244  -8.155 -12.739  1.00  0.00    -0.508 OA
ATOM     27  H   UNL     1      14.596  -8.558 -13.601  1.00  0.00     0.293 HD
ENDBRANCH   8  26
TORSDOF 6
ENDMDL
MODEL 5
REMARK VINA RESULT:    -6.073      9.208     13.033
REMARK INTER + INTRA:          -7.500
REMARK INTER:                  -7.748
REMARK INTRA:                   0.248
REMARK UNBOUND:                -0.184
REMARK SMILES O=c1c(O)c(-c2ccc(O)c(O)c2)oc2cc(O)cc(O)c12
REMARK SMILES IDX 5 1 3 2 2 3 1 4 22 5 20 6 19 7 17 8 16 9 15 10 14 11 6 12
REMARK SMILES IDX 7 13 8 14 9 15 13 16 11 17 10 18 12 20 4 22 21 24 18 26
REMARK H PARENT 10 19 12 21 4 23 21 25 18 27
REMARK Flexibility Score: inf
ROOT
ATOM      1  C   UNL     1      10.670  -8.237  -9.585  1.00  0.00     0.180 A 
ATOM      2  C   UNL     1       9.569  -9.111  -9.559  1.00  0.00     0.208 A 
ATOM      3  C   UNL     1       8.574  -8.924  -8.585  1.00  0.00     0.238 A 
ATOM      4  O   UNL     1       7.564  -9.676  -8.602  1.00  0.00    -0.285 OA
ATOM      5  C   UNL     1       8.700  -7.876  -7.642  1.00  0.00     0.111 A 
ATOM      6  C   UNL     1       7.771  -7.620  -6.588  1.00  0.00     0.134 A 
ATOM      7  C   UNL     1       7.928  -6.477  -5.794  1.00  0.00     0.093 A 
ATOM      8  C   UNL     1       9.012  -5.618  -5.972  1.00  0.00     0.123 A 
ATOM      9  C   UNL     1       9.958  -5.892  -6.961  1.00  0.00     0.094 A 
ATOM     10  C   UNL     1       9.810  -7.005  -7.792  1.00  0.00     0.146 A 
ATOM     11  O   UNL     1      10.726  -7.225  -8.727  1.00  0.00    -0.452 OA
ENDROOT
BRANCH   1  12
ATOM     12  C   UNL     1      11.770  -8.386 -10.564  1.00  0.00     0.025 A 
ATOM     13  C   UNL     1      12.149  -9.671 -10.986  1.00  0.00     0.016 A 
ATOM     14  C   UNL     1      13.170  -9.834 -11.925  1.00  0.00     0.051 A 
ATOM     15  C   UNL     1      13.818  -8.716 -12.468  1.00  0.00     0.157 A 
ATOM     16  C   UNL     1      12.407  -7.266 -11.127  1.00  0.00     0.062 A 
ATOM     17  C   UNL     1      13.430  -7.426 -12.070  1.00  0.00     0.158 A 
BRANCH  15  18
ATOM     18  O   UNL     1      14.839  -8.883 -13.403  1.00  0.00    -0.504 OA
ATOM     19  H   UNL     1      15.175  -8.110 -13.965  1.00  0.00     0.293 HD
ENDBRANCH  15  18
BRANCH  17  20
ATOM     20  O   UNL     1      14.043  -6.293 -12.601  1.00  0.00    -0.504 OA
ATOM     21  H   UNL     1      14.888  -6.349 -13.158  1.00  0.00     0.293 HD
ENDBRANCH  17  20
ENDBRANCH   1  12
BRANCH   2  22
ATOM     22  O   UNL     1       9.454 -10.125 -10.513  1.00  0.00    -0.502 OA
ATOM     23  H   UNL     1      10.083 -10.919 -10.543  1.00  0.00     0.293 HD
ENDBRANCH   2  22
BRANCH   6  24
ATOM     24  O   UNL     1       6.704  -8.463  -6.264  1.00  0.00    -0.507 OA
ATOM     25  H   UNL     1       5.765  -8.151  -6.070  1.00  0.00     0.293 HD
ENDBRANCH   6  24
BRANCH   8  26
ATOM     26  O   UNL     1       9.144  -4.499  -5.153  1.00  0.00    -0.508 OA
ATOM     27  H   UNL     1       9.935  -4.391  -4.527  1.00  0.00     0.293 HD
ENDBRANCH   8  26
TORSDOF 6
ENDMDL
MODEL 6
REMARK VINA RESULT:    -6.020      7.417     11.032
REMARK INTER + INTRA:          -7.435
REMARK INTER:                  -7.140
REMARK INTRA:                  -0.296
REMARK UNBOUND:                -0.184
REMARK SMILES O=c1c(O)c(-c2ccc(O)c(O)c2)oc2cc(O)cc(O)c12
REMARK SMILES IDX 5 1 3 2 2 3 1 4 22 5 20 6 19 7 17 8 16 9 15 10 14 11 6 12
REMARK SMILES IDX 7 13 8 14 9 15 13 16 11 17 10 18 12 20 4 22 21 24 18 26
REMARK H PARENT 10 19 12 21 4 23 21 25 18 27
REMARK Flexibility Score: inf
ROOT
ATOM      1  C   UNL     1      11.258  -6.349 -10.846  1.00  0.00     0.180 A 
ATOM      2  C   UNL     1      11.063  -6.658  -9.489  1.00  0.00     0.208 A 
ATOM      3  C   UNL     1       9.919  -7.379  -9.111  1.00  0.00     0.238 A 
ATOM      4  O   UNL     1       9.778  -7.699  -7.902  1.00  0.00    -0.285 OA
ATOM      5  C   UNL     1       8.976  -7.767 -10.093  1.00  0.00     0.111 A 
ATOM      6  C   UNL     1       7.762  -8.466  -9.818  1.00  0.00     0.134 A 
ATOM      7  C   UNL     1       6.968  -8.914 -10.881  1.00  0.00     0.093 A 
ATOM      8  C   UNL     1       7.309  -8.634 -12.203  1.00  0.00     0.123 A 
ATOM      9  C   UNL     1       8.463  -7.901 -12.481  1.00  0.00     0.094 A 
ATOM     10  C   UNL     1       9.294  -7.470 -11.444  1.00  0.00     0.146 A 
ATOM     11  O   UNL     1      10.388  -6.784 -11.750  1.00  0.00    -0.452 OA
ENDROOT
BRANCH   1  12
ATOM     12  C   UNL     1      12.426  -5.571 -11.317  1.00  0.00     0.025 A 
ATOM     13  C   UNL     1      13.654  -6.222 -11.518  1.00  0.00     0.016 A 
ATOM     14  C   UNL     1      14.764  -5.512 -11.982  1.00  0.00     0.051 A 
ATOM     15  C   UNL     1      14.659  -4.143 -12.268  1.00  0.00     0.157 A 
ATOM     16  C   UNL     1      12.319  -4.203 -11.626  1.00  0.00     0.062 A 
ATOM     17  C   UNL     1      13.429  -3.489 -12.094  1.00  0.00     0.158 A 
BRANCH  15  18
ATOM     18  O   UNL     1      15.769  -3.437 -12.729  1.00  0.00    -0.504 OA
ATOM     19  H   UNL     1      15.948  -2.483 -12.441  1.00  0.00     0.293 HD
ENDBRANCH  15  18
BRANCH  17  20
ATOM     20  O   UNL     1      13.288  -2.132 -12.383  1.00  0.00    -0.504 OA
ATOM     21  H   UNL     1      12.615  -1.793 -13.061  1.00  0.00     0.293 HD
ENDBRANCH  17  20
ENDBRANCH   1  12
BRANCH   2  22
ATOM     22  O   UNL     1      12.018  -6.283  -8.539  1.00  0.00    -0.502 OA
ATOM     23  H   UNL     1      12.035  -5.361  -8.118  1.00  0.00     0.293 HD
ENDBRANCH   2  22
BRANCH   6  24
ATOM     24  O   UNL     1       7.280  -8.718  -8.530  1.00  0.00    -0.507 OA
ATOM     25  H   UNL     1       7.838  -8.679  -7.691  1.00  0.00     0.293 HD
ENDBRANCH   6  24
BRANCH   8  26
ATOM     26  O   UNL     1       6.487  -9.083 -13.235  1.00  0.00    -0.508 OA
ATOM     27  H   UNL     1       6.356 -10.072 -13.415  1.00  0.00     0.293 HD
ENDBRANCH   8  26
TORSDOF 6
ENDMDL
MODEL 7
REMARK VINA RESULT:    -5.981      8.006     11.835
REMARK INTER + INTRA:          -7.388
REMARK INTER:                  -7.054
REMARK INTRA:                  -0.334
REMARK UNBOUND:                -0.184
REMARK SMILES O=c1c(O)c(-c2ccc(O)c(O)c2)oc2cc(O)cc(O)c12
REMARK SMILES IDX 5 1 3 2 2 3 1 4 22 5 20 6 19 7 17 8 16 9 15 10 14 11 6 12
REMARK SMILES IDX 7 13 8 14 9 15 13 16 11 17 10 18 12 20 4 22 21 24 18 26
REMARK H PARENT 10 19 12 21 4 23 21 25 18 27
REMARK Flexibility Score: inf
ROOT
ATOM      1  C   UNL     1      11.444  -6.424  -9.665  1.00  0.00     0.180 A 
ATOM      2  C   UNL     1      11.184  -7.756 -10.030  1.00  0.00     0.208 A 
ATOM      3  C   UNL     1      10.284  -8.510  -9.260  1.00  0.00     0.238 A 
ATOM      4  O   UNL     1      10.014  -9.684  -9.624  1.00  0.00    -0.285 OA
ATOM      5  C   UNL     1       9.668  -7.928  -8.125  1.00  0.00     0.111 A 
ATOM      6  C   UNL     1       8.771  -8.612  -7.250  1.00  0.00     0.134 A 
ATOM      7  C   UNL     1       8.121  -7.900  -6.235  1.00  0.00     0.093 A 
ATOM      8  C   UNL     1       8.382  -6.547  -6.022  1.00  0.00     0.123 A 
ATOM      9  C   UNL     1       9.302  -5.883  -6.834  1.00  0.00     0.094 A 
ATOM     10  C   UNL     1       9.941  -6.558  -7.878  1.00  0.00     0.146 A 
ATOM     11  O   UNL     1      10.801  -5.887  -8.634  1.00  0.00    -0.452 OA
ENDROOT
BRANCH   1  12
ATOM     12  C   UNL     1      12.399  -5.574 -10.412  1.00  0.00     0.025 A 
ATOM     13  C   UNL     1      11.923  -4.727 -11.425  1.00  0.00     0.016 A 
ATOM     14  C   UNL     1      12.803  -3.902 -12.129  1.00  0.00     0.051 A 
ATOM     15  C   UNL     1      14.171  -3.899 -11.820  1.00  0.00     0.157 A 
ATOM     16  C   UNL     1      13.768  -5.553 -10.090  1.00  0.00     0.062 A 
ATOM     17  C   UNL     1      14.653  -4.725 -10.791  1.00  0.00     0.158 A 
BRANCH  15  18
ATOM     18  O   UNL     1      15.047  -3.075 -12.525  1.00  0.00    -0.504 OA
ATOM     19  H   UNL     1      15.957  -3.403 -12.825  1.00  0.00     0.293 HD
ENDBRANCH  15  18
BRANCH  17  20
ATOM     20  O   UNL     1      16.004  -4.735 -10.449  1.00  0.00    -0.504 OA
ATOM     21  H   UNL     1      16.490  -3.899 -10.146  1.00  0.00     0.293 HD
ENDBRANCH  17  20
ENDBRANCH   1  12
BRANCH   2  22
ATOM     22  O   UNL     1      11.786  -8.303 -11.166  1.00  0.00    -0.502 OA
ATOM     23  H   UNL     1      12.659  -7.953 -11.542  1.00  0.00     0.293 HD
ENDBRANCH   2  22
BRANCH   6  24
ATOM     24  O   UNL     1       8.508  -9.984  -7.318  1.00  0.00    -0.507 OA
ATOM     25  H   UNL     1       7.697 -10.433  -6.922  1.00  0.00     0.293 HD
ENDBRANCH   6  24
BRANCH   8  26
ATOM     26  O   UNL     1       7.728  -5.875  -4.992  1.00  0.00    -0.508 OA
ATOM     27  H   UNL     1       7.244  -4.998  -5.155  1.00  0.00     0.293 HD
ENDBRANCH   8  26
TORSDOF 6
ENDMDL
MODEL 8
REMARK VINA RESULT:    -5.905      7.379     12.641
REMARK INTER + INTRA:          -7.298
REMARK INTER:                  -6.985
REMARK INTRA:                  -0.312
REMARK UNBOUND:                -0.184
REMARK SMILES O=c1c(O)c(-c2ccc(O)c(O)c2)oc2cc(O)cc(O)c12
REMARK SMILES IDX 5 1 3 2 2 3 1 4 22 5 20 6 19 7 17 8 16 9 15 10 14 11 6 12
REMARK SMILES IDX 7 13 8 14 9 15 13 16 11 17 10 18 12 20 4 22 21 24 18 26
REMARK H PARENT 10 19 12 21 4 23 21 25 18 27
REMARK Flexibility Score: inf
ROOT
ATOM      1  C   UNL     1      11.223  -6.448  -9.808  1.00  0.00     0.180 A 
ATOM      2  C   UNL     1      11.148  -7.561 -10.664  1.00  0.00     0.208 A 
ATOM      3  C   UNL     1      12.164  -7.760 -11.612  1.00  0.00     0.238 A 
ATOM      4  O   UNL     1      12.120  -8.788 -12.338  1.00  0.00    -0.285 OA
ATOM      5  C   UNL     1      13.234  -6.837 -11.704  1.00  0.00     0.111 A 
ATOM      6  C   UNL     1      14.296  -6.919 -12.654  1.00  0.00     0.134 A 
ATOM      7  C   UNL     1      15.369  -6.024 -12.568  1.00  0.00     0.093 A 
ATOM      8  C   UNL     1      15.388  -5.012 -11.609  1.00  0.00     0.123 A 
ATOM      9  C   UNL     1      14.326  -4.885 -10.714  1.00  0.00     0.094 A 
ATOM     10  C   UNL     1      13.258  -5.785 -10.752  1.00  0.00     0.146 A 
ATOM     11  O   UNL     1      12.272  -5.637  -9.875  1.00  0.00    -0.452 OA
ENDROOT
BRANCH   1  12
ATOM     12  C   UNL     1      10.177  -6.157  -8.801  1.00  0.00     0.025 A 
ATOM     13  C   UNL     1      10.413  -6.466  -7.452  1.00  0.00     0.016 A 
ATOM     14  C   UNL     1       9.449  -6.181  -6.482  1.00  0.00     0.051 A 
ATOM     15  C   UNL     1       8.241  -5.568  -6.843  1.00  0.00     0.157 A 
ATOM     16  C   UNL     1       8.974  -5.523  -9.157  1.00  0.00     0.062 A 
ATOM     17  C   UNL     1       8.006  -5.234  -8.187  1.00  0.00     0.158 A 
BRANCH  15  18
ATOM     18  O   UNL     1       7.281  -5.288  -5.873  1.00  0.00    -0.504 OA
ATOM     19  H   UNL     1       7.539  -4.953  -4.952  1.00  0.00     0.293 HD
ENDBRANCH  15  18
BRANCH  17  20
ATOM     20  O   UNL     1       6.822  -4.611  -8.577  1.00  0.00    -0.504 OA
ATOM     21  H   UNL     1       6.033  -4.510  -7.949  1.00  0.00     0.293 HD
ENDBRANCH  17  20
ENDBRANCH   1  12
BRANCH   2  22
ATOM     22  O   UNL     1      10.095  -8.471 -10.542  1.00  0.00    -0.502 OA
ATOM     23  H   UNL     1       9.598  -8.616  -9.671  1.00  0.00     0.293 HD
ENDBRANCH   2  22
BRANCH   6  24
ATOM     24  O   UNL     1      14.331  -7.836 -13.709  1.00  0.00    -0.507 OA
ATOM     25  H   UNL     1      15.151  -8.053 -14.254  1.00  0.00     0.293 HD
ENDBRANCH   6  24
BRANCH   8  26
ATOM     26  O   UNL     1      16.466  -4.129 -11.563  1.00  0.00    -0.508 OA
ATOM     27  H   UNL     1      16.552  -3.436 -10.828  1.00  0.00     0.293 HD
ENDBRANCH   8  26
TORSDOF 6
ENDMDL
MODEL 9
REMARK VINA RESULT:    -5.760      6.541      9.017
REMARK INTER + INTRA:          -7.122
REMARK INTER:                  -6.831
REMARK INTRA:                  -0.291
REMARK UNBOUND:                -0.184
REMARK SMILES O=c1c(O)c(-c2ccc(O)c(O)c2)oc2cc(O)cc(O)c12
REMARK SMILES IDX 5 1 3 2 2 3 1 4 22 5 20 6 19 7 17 8 16 9 15 10 14 11 6 12
REMARK SMILES IDX 7 13 8 14 9 15 13 16 11 17 10 18 12 20 4 22 21 24 18 26
REMARK H PARENT 10 19 12 21 4 23 21 25 18 27
REMARK Flexibility Score: inf
ROOT
ATOM      1  C   UNL     1      17.885  -2.193  -9.237  1.00  0.00     0.180 A 
ATOM      2  C   UNL     1      17.119  -1.014  -9.220  1.00  0.00     0.208 A 
ATOM      3  C   UNL     1      16.090  -0.857 -10.163  1.00  0.00     0.238 A 
ATOM      4  O   UNL     1      15.373   0.176 -10.108  1.00  0.00    -0.285 OA
ATOM      5  C   UNL     1      15.850  -1.873 -11.120  1.00  0.00     0.111 A 
ATOM      6  C   UNL     1      14.860  -1.801 -12.146  1.00  0.00     0.134 A 
ATOM      7  C   UNL     1      14.623  -2.919 -12.955  1.00  0.00     0.093 A 
ATOM      8  C   UNL     1      15.382  -4.081 -12.819  1.00  0.00     0.123 A 
ATOM      9  C   UNL     1      16.392  -4.140 -11.858  1.00  0.00     0.094 A 
ATOM     10  C   UNL     1      16.629  -3.054 -11.012  1.00  0.00     0.146 A 
ATOM     11  O   UNL     1      17.592  -3.155 -10.105  1.00  0.00    -0.452 OA
ENDROOT
BRANCH   1  12
ATOM     12  C   UNL     1      19.002  -2.420  -8.292  1.00  0.00     0.025 A 
ATOM     13  C   UNL     1      20.319  -2.168  -8.707  1.00  0.00     0.016 A 
ATOM     14  C   UNL     1      21.387  -2.354  -7.826  1.00  0.00     0.051 A 
ATOM     15  C   UNL     1      21.153  -2.780  -6.512  1.00  0.00     0.157 A 
ATOM     16  C   UNL     1      18.769  -2.826  -6.966  1.00  0.00     0.062 A 
ATOM     17  C   UNL     1      19.837  -3.012  -6.079  1.00  0.00     0.158 A 
BRANCH  15  18
ATOM     18  O   UNL     1      22.221  -2.968  -5.636  1.00  0.00    -0.504 OA
ATOM     19  H   UNL     1      23.001  -2.322  -5.604  1.00  0.00     0.293 HD
ENDBRANCH  15  18
BRANCH  17  20
ATOM     20  O   UNL     1      19.569  -3.422  -4.775  1.00  0.00    -0.504 OA
ATOM     21  H   UNL     1      19.723  -4.375  -4.467  1.00  0.00     0.293 HD
ENDBRANCH  17  20
ENDBRANCH   1  12
BRANCH   2  22
ATOM     22  O   UNL     1      17.359  -0.034  -8.254  1.00  0.00    -0.502 OA
ATOM     23  H   UNL     1      17.021   0.917  -8.346  1.00  0.00     0.293 HD
ENDBRANCH   2  22
BRANCH   6  24
ATOM     24  O   UNL     1      14.108  -0.656 -12.427  1.00  0.00    -0.507 OA
ATOM     25  H   UNL     1      14.274   0.253 -12.024  1.00  0.00     0.293 HD
ENDBRANCH   6  24
BRANCH   8  26
ATOM     26  O   UNL     1      15.128  -5.169 -13.652  1.00  0.00    -0.508 OA
ATOM     27  H   UNL     1      14.597  -5.066 -14.509  1.00  0.00     0.293 HD
ENDBRANCH   8  26
TORSDOF 6
ENDMDL
