MODEL 1
REMARK VINA RESULT:    -4.599      0.000      0.000
REMARK INTER + INTRA:          -6.647
REMARK INTER:                  -6.212
REMARK INTRA:                  -0.435
REMARK UNBOUND:                -0.435
REMARK SMILES CCCCCCCC(=O)[O-]
REMARK SMILES IDX 5 1 6 2 7 3 8 4 9 5 10 6 4 7 3 8 2 9 1 10
REMARK H PARENT
REMARK Flexibility Score: inf
ROOT
ATOM      1  C   UNL     1      25.896  11.203  34.546  1.00  0.00     0.000 C 
ENDROOT
BRANCH   1   2
ATOM      2  C   UNL     1      25.041  11.265  35.818  1.00  0.00     0.006 C 
BRANCH   2   3
ATOM      3  C   UNL     1      24.175  12.528  35.837  1.00  0.00     0.053 C 
BRANCH   3   4
ATOM      4  C   UNL     1      22.753  12.194  35.514  1.00  0.00     0.041 C 
ATOM      5  O   UNL     1      22.241  11.124  35.936  1.00  0.00    -0.550 OA
ATOM      6  O   UNL     1      21.977  13.089  34.787  1.00  0.00    -0.550 OA
ENDBRANCH   3   4
ENDBRANCH   2   3
ENDBRANCH   1   2
BRANCH   1   7
ATOM      7  C   UNL     1      27.382  11.385  34.872  1.00  0.00     0.000 C 
BRANCH   7   8
ATOM      8  C   UNL     1      28.055  12.327  33.867  1.00  0.00    -0.000 C 
BRANCH   8   9
ATOM      9  C   UNL     1      27.319  13.669  33.791  1.00  0.00    -0.003 C 
ATOM     10  C   UNL     1      27.425  14.431  35.108  1.00  0.00     0.004 C 
ENDBRANCH   8   9
ENDBRANCH   7   8
ENDBRANCH   1   7
TORSDOF 6
ENDMDL
MODEL 2
REMARK VINA RESULT:    -4.447      3.584      5.285
REMARK INTER + INTRA:          -6.441
REMARK INTER:                  -6.217
REMARK INTRA:                  -0.224
REMARK UNBOUND:                -0.435
REMARK SMILES CCCCCCCC(=O)[O-]
REMARK SMILES IDX 5 1 6 2 7 3 8 4 9 5 10 6 4 7 3 8 2 9 1 10
REMARK H PARENT
REMARK Flexibility Score: inf
ROOT
ATOM      1  C   UNL     1      27.290  11.097  34.765  1.00  0.00     0.000 C 
ENDROOT
BRANCH   1   2
ATOM      2  C   UNL     1      28.371  11.831  33.962  1.00  0.00     0.006 C 
BRANCH   2   3
ATOM      3  C   UNL     1      27.752  12.649  32.826  1.00  0.00     0.053 C 
BRANCH   3   4
ATOM      4  C   UNL     1      28.185  12.113  31.498  1.00  0.00     0.041 C 
ATOM      5  O   UNL     1      27.796  10.979  31.114  1.00  0.00    -0.550 OA
ATOM      6  O   UNL     1      28.978  12.889  30.661  1.00  0.00    -0.550 OA
ENDBRANCH   3   4
ENDBRANCH   2   3
ENDBRANCH   1   2
BRANCH   1   7
ATOM      7  C   UNL     1      25.950  11.837  34.690  1.00  0.00     0.000 C 
BRANCH   7   8
ATOM      8  C   UNL     1      24.945  11.259  35.693  1.00  0.00    -0.000 C 
BRANCH   8   9
ATOM      9  C   UNL     1      23.554  11.872  35.494  1.00  0.00    -0.003 C 
ATOM     10  C   UNL     1      22.457  10.835  35.714  1.00  0.00     0.004 C 
ENDBRANCH   8   9
ENDBRANCH   7   8
ENDBRANCH   1   7
TORSDOF 6
ENDMDL
MODEL 3
REMARK VINA RESULT:    -4.434      3.610      5.382
REMARK INTER + INTRA:          -6.425
REMARK INTER:                  -6.203
REMARK INTRA:                  -0.222
REMARK UNBOUND:                -0.435
REMARK SMILES CCCCCCCC(=O)[O-]
REMARK SMILES IDX 5 1 6 2 7 3 8 4 9 5 10 6 4 7 3 8 2 9 1 10
REMARK H PARENT
REMARK Flexibility Score: inf
ROOT
ATOM      1  C   UNL     1      27.328  11.148  34.623  1.00  0.00     0.000 C 
ENDROOT
BRANCH   1   2
ATOM      2  C   UNL     1      28.359  11.998  33.873  1.00  0.00     0.006 C 
BRANCH   2   3
ATOM      3  C   UNL     1      27.709  12.752  32.709  1.00  0.00     0.053 C 
BRANCH   3   4
ATOM      4  C   UNL     1      28.182  12.205  31.400  1.00  0.00     0.041 C 
ATOM      5  O   UNL     1      29.017  12.847  30.709  1.00  0.00    -0.550 OA
ATOM      6  O   UNL     1      27.740  10.962  30.965  1.00  0.00    -0.550 OA
ENDBRANCH   3   4
ENDBRANCH   2   3
ENDBRANCH   1   2
BRANCH   1   7
ATOM      7  C   UNL     1      25.933  11.777  34.545  1.00  0.00     0.000 C 
BRANCH   7   8
ATOM      8  C   UNL     1      24.980  11.133  35.558  1.00  0.00    -0.000 C 
BRANCH   8   9
ATOM      9  C   UNL     1      23.581  11.753  35.470  1.00  0.00    -0.003 C 
ATOM     10  C   UNL     1      22.500  10.724  35.787  1.00  0.00     0.004 C 
ENDBRANCH   8   9
ENDBRANCH   7   8
ENDBRANCH   1   7
TORSDOF 6
ENDMDL
MODEL 4
REMARK VINA RESULT:    -4.433      2.603      4.560
REMARK INTER + INTRA:          -6.423
REMARK INTER:                  -6.133
REMARK INTRA:                  -0.290
REMARK UNBOUND:                -0.435
REMARK SMILES CCCCCCCC(=O)[O-]
REMARK SMILES IDX 5 1 6 2 7 3 8 4 9 5 10 6 4 7 3 8 2 9 1 10
REMARK H PARENT
REMARK Flexibility Score: inf
ROOT
ATOM      1  C   UNL     1      25.904  11.077  34.550  1.00  0.00     0.000 C 
ENDROOT
BRANCH   1   2
ATOM      2  C   UNL     1      27.399  11.230  34.856  1.00  0.00     0.006 C 
BRANCH   2   3
ATOM      3  C   UNL     1      28.086  12.115  33.812  1.00  0.00     0.053 C 
BRANCH   3   4
ATOM      4  C   UNL     1      27.304  13.370  33.591  1.00  0.00     0.041 C 
ATOM      5  O   UNL     1      27.335  14.295  34.444  1.00  0.00    -0.550 OA
ATOM      6  O   UNL     1      26.579  13.540  32.418  1.00  0.00    -0.550 OA
ENDBRANCH   3   4
ENDBRANCH   2   3
ENDBRANCH   1   2
BRANCH   1   7
ATOM      7  C   UNL     1      25.061  11.256  35.817  1.00  0.00     0.000 C 
BRANCH   7   8
ATOM      8  C   UNL     1      24.147  12.481  35.702  1.00  0.00    -0.000 C 
BRANCH   8   9
ATOM      9  C   UNL     1      22.719  12.069  35.329  1.00  0.00    -0.003 C 
ATOM     10  C   UNL     1      22.434  10.629  35.741  1.00  0.00     0.004 C 
ENDBRANCH   8   9
ENDBRANCH   7   8
ENDBRANCH   1   7
TORSDOF 6
ENDMDL
MODEL 5
REMARK VINA RESULT:    -4.278      2.967      4.855
REMARK INTER + INTRA:          -6.213
REMARK INTER:                  -5.791
REMARK INTRA:                  -0.422
REMARK UNBOUND:                -0.435
REMARK SMILES CCCCCCCC(=O)[O-]
REMARK SMILES IDX 5 1 6 2 7 3 8 4 9 5 10 6 4 7 3 8 2 9 1 10
REMARK H PARENT
REMARK Flexibility Score: inf
ROOT
ATOM      1  C   UNL     1      24.639  12.593  36.136  1.00  0.00     0.000 C 
ENDROOT
BRANCH   1   2
ATOM      2  C   UNL     1      25.947  12.958  35.424  1.00  0.00     0.006 C 
BRANCH   2   3
ATOM      3  C   UNL     1      26.023  12.300  34.043  1.00  0.00     0.053 C 
BRANCH   3   4
ATOM      4  C   UNL     1      27.321  11.577  33.877  1.00  0.00     0.041 C 
ATOM      5  O   UNL     1      27.835  10.964  34.849  1.00  0.00    -0.550 OA
ATOM      6  O   UNL     1      27.941  11.538  32.634  1.00  0.00    -0.550 OA
ENDBRANCH   3   4
ENDBRANCH   2   3
ENDBRANCH   1   2
BRANCH   1   7
ATOM      7  C   UNL     1      24.243  11.140  35.851  1.00  0.00     0.000 C 
BRANCH   7   8
ATOM      8  C   UNL     1      22.737  11.022  35.590  1.00  0.00    -0.000 C 
BRANCH   8   9
ATOM      9  C   UNL     1      22.182  12.308  34.969  1.00  0.00    -0.003 C 
ATOM     10  C   UNL     1      20.839  12.685  35.587  1.00  0.00     0.004 C 
ENDBRANCH   8   9
ENDBRANCH   7   8
ENDBRANCH   1   7
TORSDOF 6
ENDMDL
MODEL 6
REMARK VINA RESULT:    -4.274      2.857      5.019
REMARK INTER + INTRA:          -6.209
REMARK INTER:                  -5.838
REMARK INTRA:                  -0.371
REMARK UNBOUND:                -0.435
REMARK SMILES CCCCCCCC(=O)[O-]
REMARK SMILES IDX 5 1 6 2 7 3 8 4 9 5 10 6 4 7 3 8 2 9 1 10
REMARK H PARENT
REMARK Flexibility Score: inf
ROOT
ATOM      1  C   UNL     1      25.024  11.137  35.781  1.00  0.00     0.000 C 
ENDROOT
BRANCH   1   2
ATOM      2  C   UNL     1      26.332  11.294  34.997  1.00  0.00     0.006 C 
BRANCH   2   3
ATOM      3  C   UNL     1      26.096  12.028  33.674  1.00  0.00     0.053 C 
BRANCH   3   4
ATOM      4  C   UNL     1      27.171  13.040  33.437  1.00  0.00     0.041 C 
ATOM      5  O   UNL     1      27.929  12.939  32.437  1.00  0.00    -0.550 OA
ATOM      6  O   UNL     1      27.305  14.126  34.294  1.00  0.00    -0.550 OA
ENDBRANCH   3   4
ENDBRANCH   2   3
ENDBRANCH   1   2
BRANCH   1   7
ATOM      7  C   UNL     1      24.244  12.455  35.819  1.00  0.00     0.000 C 
BRANCH   7   8
ATOM      8  C   UNL     1      22.757  12.224  35.523  1.00  0.00    -0.000 C 
BRANCH   8   9
ATOM      9  C   UNL     1      22.417  10.730  35.546  1.00  0.00    -0.003 C 
ATOM     10  C   UNL     1      20.909  10.508  35.601  1.00  0.00     0.004 C 
ENDBRANCH   8   9
ENDBRANCH   7   8
ENDBRANCH   1   7
TORSDOF 6
ENDMDL
MODEL 7
REMARK VINA RESULT:    -4.259      1.566      2.246
REMARK INTER + INTRA:          -6.188
REMARK INTER:                  -5.844
REMARK INTRA:                  -0.344
REMARK UNBOUND:                -0.435
REMARK SMILES CCCCCCCC(=O)[O-]
REMARK SMILES IDX 5 1 6 2 7 3 8 4 9 5 10 6 4 7 3 8 2 9 1 10
REMARK H PARENT
REMARK Flexibility Score: inf
ROOT
ATOM      1  C   UNL     1      27.712  11.433  34.836  1.00  0.00     0.000 C 
ENDROOT
BRANCH   1   2
ATOM      2  C   UNL     1      26.274  10.930  35.010  1.00  0.00     0.006 C 
BRANCH   2   3
ATOM      3  C   UNL     1      25.414  11.964  35.740  1.00  0.00     0.053 C 
BRANCH   3   4
ATOM      4  C   UNL     1      24.143  12.212  34.992  1.00  0.00     0.041 C 
ATOM      5  O   UNL     1      23.094  12.529  35.611  1.00  0.00    -0.550 OA
ATOM      6  O   UNL     1      24.128  12.142  33.604  1.00  0.00    -0.550 OA
ENDBRANCH   3   4
ENDBRANCH   2   3
ENDBRANCH   1   2
BRANCH   1   7
ATOM      7  C   UNL     1      27.743  12.952  34.638  1.00  0.00     0.000 C 
BRANCH   7   8
ATOM      8  C   UNL     1      27.559  13.320  33.161  1.00  0.00    -0.000 C 
BRANCH   8   9
ATOM      9  C   UNL     1      28.106  12.218  32.247  1.00  0.00    -0.003 C 
ATOM     10  C   UNL     1      28.671  12.802  30.956  1.00  0.00     0.004 C 
ENDBRANCH   8   9
ENDBRANCH   7   8
ENDBRANCH   1   7
TORSDOF 6
ENDMDL
MODEL 8
REMARK VINA RESULT:    -4.134      2.943      5.168
REMARK INTER + INTRA:          -6.018
REMARK INTER:                  -5.795
REMARK INTRA:                  -0.224
REMARK UNBOUND:                -0.435
REMARK SMILES CCCCCCCC(=O)[O-]
REMARK SMILES IDX 5 1 6 2 7 3 8 4 9 5 10 6 4 7 3 8 2 9 1 10
REMARK H PARENT
REMARK Flexibility Score: inf
ROOT
ATOM      1  C   UNL     1      23.567  11.261  35.023  1.00  0.00     0.000 C 
ENDROOT
BRANCH   1   2
ATOM      2  C   UNL     1      24.743  11.360  36.001  1.00  0.00     0.006 C 
BRANCH   2   3
ATOM      3  C   UNL     1      25.627  12.569  35.680  1.00  0.00     0.053 C 
BRANCH   3   4
ATOM      4  C   UNL     1      26.974  12.124  35.209  1.00  0.00     0.041 C 
ATOM      5  O   UNL     1      27.186  10.910  34.949  1.00  0.00    -0.550 OA
ATOM      6  O   UNL     1      27.984  13.057  35.008  1.00  0.00    -0.550 OA
ENDBRANCH   3   4
ENDBRANCH   2   3
ENDBRANCH   1   2
BRANCH   1   7
ATOM      7  C   UNL     1      22.311  11.921  35.603  1.00  0.00     0.000 C 
BRANCH   7   8
ATOM      8  C   UNL     1      21.720  12.939  34.621  1.00  0.00    -0.000 C 
BRANCH   8   9
ATOM      9  C   UNL     1      20.565  13.716  35.262  1.00  0.00    -0.003 C 
ATOM     10  C   UNL     1      19.632  12.785  36.029  1.00  0.00     0.004 C 
ENDBRANCH   8   9
ENDBRANCH   7   8
ENDBRANCH   1   7
TORSDOF 6
ENDMDL
MODEL 9
REMARK VINA RESULT:    -4.107      1.295      1.813
REMARK INTER + INTRA:          -5.983
REMARK INTER:                  -5.638
REMARK INTRA:                  -0.345
REMARK UNBOUND:                -0.435
REMARK SMILES CCCCCCCC(=O)[O-]
REMARK SMILES IDX 5 1 6 2 7 3 8 4 9 5 10 6 4 7 3 8 2 9 1 10
REMARK H PARENT
REMARK Flexibility Score: inf
ROOT
ATOM      1  C   UNL     1      25.106  11.490  35.894  1.00  0.00     0.000 C 
ENDROOT
BRANCH   1   2
ATOM      2  C   UNL     1      23.775  12.209  35.647  1.00  0.00     0.006 C 
BRANCH   2   3
ATOM      3  C   UNL     1      22.629  11.207  35.486  1.00  0.00     0.053 C 
BRANCH   3   4
ATOM      4  C   UNL     1      22.164  11.165  34.065  1.00  0.00     0.041 C 
ATOM      5  O   UNL     1      21.285  10.337  33.710  1.00  0.00    -0.550 OA
ATOM      6  O   UNL     1      22.666  12.074  33.142  1.00  0.00    -0.550 OA
ENDBRANCH   3   4
ENDBRANCH   2   3
ENDBRANCH   1   2
BRANCH   1   7
ATOM      7  C   UNL     1      25.894  11.325  34.590  1.00  0.00     0.000 C 
BRANCH   7   8
ATOM      8  C   UNL     1      27.404  11.390  34.847  1.00  0.00    -0.000 C 
BRANCH   8   9
ATOM      9  C   UNL     1      27.906  12.838  34.816  1.00  0.00    -0.003 C 
ATOM     10  C   UNL     1      27.251  13.625  33.685  1.00  0.00     0.004 C 
ENDBRANCH   8   9
ENDBRANCH   7   8
ENDBRANCH   1   7
TORSDOF 6
ENDMDL
