MODEL 1
REMARK VINA RESULT:    -4.760      0.000      0.000
REMARK INTER + INTRA:          -7.561
REMARK INTER:                  -6.986
REMARK INTRA:                  -0.574
REMARK UNBOUND:                -0.574
REMARK SMILES O=C([O-])CCCCCCCC(=O)[O-]
REMARK SMILES IDX 7 1 6 2 5 3 4 4 2 5 1 6 3 7 8 8 9 9 10 10 11 11 12 12 13 13
REMARK H PARENT
REMARK Flexibility Score: inf
ROOT
ATOM      1  C   UNL     1      -8.245  -7.439 -10.885  1.00  0.00     0.000 C 
ENDROOT
BRANCH   1   2
ATOM      2  C   UNL     1      -7.190  -8.008 -11.852  1.00  0.00     0.000 C 
BRANCH   2   3
ATOM      3  C   UNL     1      -7.142  -7.328 -13.235  1.00  0.00     0.006 C 
BRANCH   3   4
ATOM      4  C   UNL     1      -8.377  -7.579 -14.114  1.00  0.00     0.053 C 
BRANCH   4   5
ATOM      5  C   UNL     1      -9.097  -6.309 -14.446  1.00  0.00     0.041 C 
ATOM      6  O   UNL     1     -10.272  -6.348 -14.898  1.00  0.00    -0.550 OA
ATOM      7  O   UNL     1      -8.461  -5.085 -14.288  1.00  0.00    -0.550 OA
ENDBRANCH   4   5
ENDBRANCH   3   4
ENDBRANCH   2   3
ENDBRANCH   1   2
BRANCH   1   8
ATOM      8  C   UNL     1      -8.256  -5.900 -10.852  1.00  0.00     0.000 C 
BRANCH   8   9
ATOM      9  C   UNL     1      -6.979  -5.316 -10.228  1.00  0.00     0.006 C 
BRANCH   9  10
ATOM     10  C   UNL     1      -6.893  -3.792 -10.383  1.00  0.00     0.053 C 
BRANCH  10  11
ATOM     11  C   UNL     1      -6.586  -3.428 -11.802  1.00  0.00     0.041 C 
ATOM     12  O   UNL     1      -7.032  -2.357 -12.292  1.00  0.00    -0.550 OA
ATOM     13  O   UNL     1      -5.768  -4.247 -12.568  1.00  0.00    -0.550 OA
ENDBRANCH  10  11
ENDBRANCH   9  10
ENDBRANCH   8   9
ENDBRANCH   1   8
TORSDOF 8
ENDMDL
MODEL 2
REMARK VINA RESULT:    -4.659      0.185      4.239
REMARK INTER + INTRA:          -7.413
REMARK INTER:                  -6.767
REMARK INTRA:                  -0.646
REMARK UNBOUND:                -0.574
REMARK SMILES O=C([O-])CCCCCCCC(=O)[O-]
REMARK SMILES IDX 7 1 6 2 5 3 4 4 2 5 1 6 3 7 8 8 9 9 10 10 11 11 12 12 13 13
REMARK H PARENT
REMARK Flexibility Score: inf
ROOT
ATOM      1  C   UNL     1      -8.266  -7.532 -11.140  1.00  0.00     0.000 C 
ENDROOT
BRANCH   1   2
ATOM      2  C   UNL     1      -8.372  -6.063 -10.690  1.00  0.00     0.000 C 
BRANCH   2   3
ATOM      3  C   UNL     1      -7.039  -5.416 -10.264  1.00  0.00     0.006 C 
BRANCH   3   4
ATOM      4  C   UNL     1      -6.992  -3.888 -10.424  1.00  0.00     0.053 C 
BRANCH   4   5
ATOM      5  C   UNL     1      -6.587  -3.481 -11.807  1.00  0.00     0.041 C 
ATOM      6  O   UNL     1      -5.836  -4.224 -12.491  1.00  0.00    -0.550 OA
ATOM      7  O   UNL     1      -7.012  -2.265 -12.327  1.00  0.00    -0.550 OA
ENDBRANCH   4   5
ENDBRANCH   3   4
ENDBRANCH   2   3
ENDBRANCH   1   2
BRANCH   1   8
ATOM      8  C   UNL     1      -6.995  -7.814 -11.961  1.00  0.00     0.000 C 
BRANCH   8   9
ATOM      9  C   UNL     1      -7.108  -7.320 -13.411  1.00  0.00     0.006 C 
BRANCH   9  10
ATOM     10  C   UNL     1      -8.477  -7.625 -14.032  1.00  0.00     0.053 C 
BRANCH  10  11
ATOM     11  C   UNL     1      -9.181  -6.355 -14.394  1.00  0.00     0.041 C 
ATOM     12  O   UNL     1      -8.577  -5.253 -14.319  1.00  0.00    -0.550 OA
ATOM     13  O   UNL     1     -10.487  -6.394 -14.862  1.00  0.00    -0.550 OA
ENDBRANCH  10  11
ENDBRANCH   9  10
ENDBRANCH   8   9
ENDBRANCH   1   8
TORSDOF 8
ENDMDL
MODEL 3
REMARK VINA RESULT:    -4.547      1.938      4.106
REMARK INTER + INTRA:          -7.248
REMARK INTER:                  -6.408
REMARK INTRA:                  -0.840
REMARK UNBOUND:                -0.574
REMARK SMILES O=C([O-])CCCCCCCC(=O)[O-]
REMARK SMILES IDX 7 1 6 2 5 3 4 4 2 5 1 6 3 7 8 8 9 9 10 10 11 11 12 12 13 13
REMARK H PARENT
REMARK Flexibility Score: inf
ROOT
ATOM      1  C   UNL     1      -7.521  -7.563 -12.158  1.00  0.00     0.000 C 
ENDROOT
BRANCH   1   2
ATOM      2  C   UNL     1      -8.681  -6.957 -11.347  1.00  0.00     0.000 C 
BRANCH   2   3
ATOM      3  C   UNL     1      -8.319  -5.694 -10.539  1.00  0.00     0.006 C 
BRANCH   3   4
ATOM      4  C   UNL     1      -6.867  -5.652 -10.036  1.00  0.00     0.053 C 
BRANCH   4   5
ATOM      5  C   UNL     1      -6.511  -4.316  -9.461  1.00  0.00     0.041 C 
ATOM      6  O   UNL     1      -5.462  -4.181  -8.778  1.00  0.00    -0.550 OA
ATOM      7  O   UNL     1      -7.353  -3.229  -9.650  1.00  0.00    -0.550 OA
ENDBRANCH   4   5
ENDBRANCH   3   4
ENDBRANCH   2   3
ENDBRANCH   1   2
BRANCH   1   8
ATOM      8  C   UNL     1      -7.614  -7.246 -13.661  1.00  0.00     0.000 C 
BRANCH   8   9
ATOM      9  C   UNL     1      -6.733  -6.054 -14.067  1.00  0.00     0.006 C 
BRANCH   9  10
ATOM     10  C   UNL     1      -7.482  -4.716 -13.992  1.00  0.00     0.053 C 
BRANCH  10  11
ATOM     11  C   UNL     1      -6.684  -3.715 -13.218  1.00  0.00     0.041 C 
ATOM     12  O   UNL     1      -5.505  -3.981 -12.863  1.00  0.00    -0.550 OA
ATOM     13  O   UNL     1      -7.223  -2.467 -12.932  1.00  0.00    -0.550 OA
ENDBRANCH  10  11
ENDBRANCH   9  10
ENDBRANCH   8   9
ENDBRANCH   1   8
TORSDOF 8
ENDMDL
MODEL 4
REMARK VINA RESULT:    -4.517      1.683      2.307
REMARK INTER + INTRA:          -7.204
REMARK INTER:                  -6.365
REMARK INTRA:                  -0.839
REMARK UNBOUND:                -0.574
REMARK SMILES O=C([O-])CCCCCCCC(=O)[O-]
REMARK SMILES IDX 7 1 6 2 5 3 4 4 2 5 1 6 3 7 8 8 9 9 10 10 11 11 12 12 13 13
REMARK H PARENT
REMARK Flexibility Score: inf
ROOT
ATOM      1  C   UNL     1      -9.707  -7.129 -11.374  1.00  0.00     0.000 C 
ENDROOT
BRANCH   1   2
ATOM      2  C   UNL     1      -9.870  -7.891 -12.702  1.00  0.00     0.000 C 
BRANCH   2   3
ATOM      3  C   UNL     1      -8.753  -7.642 -13.736  1.00  0.00     0.006 C 
BRANCH   3   4
ATOM      4  C   UNL     1      -8.518  -6.162 -14.077  1.00  0.00     0.053 C 
BRANCH   4   5
ATOM      5  C   UNL     1      -7.065  -5.803 -14.043  1.00  0.00     0.041 C 
ATOM      6  O   UNL     1      -6.650  -4.785 -14.658  1.00  0.00    -0.550 OA
ATOM      7  O   UNL     1      -6.162  -6.609 -13.362  1.00  0.00    -0.550 OA
ENDBRANCH   4   5
ENDBRANCH   3   4
ENDBRANCH   2   3
ENDBRANCH   1   2
BRANCH   1   8
ATOM      8  C   UNL     1      -8.579  -7.697 -10.494  1.00  0.00     0.000 C 
BRANCH   8   9
ATOM      9  C   UNL     1      -7.443  -6.688 -10.268  1.00  0.00     0.006 C 
BRANCH   9  10
ATOM     10  C   UNL     1      -7.917  -5.233 -10.377  1.00  0.00     0.053 C 
BRANCH  10  11
ATOM     11  C   UNL     1      -6.747  -4.301 -10.380  1.00  0.00     0.041 C 
ATOM     12  O   UNL     1      -6.506  -3.590 -11.392  1.00  0.00    -0.550 OA
ATOM     13  O   UNL     1      -5.951  -4.180  -9.249  1.00  0.00    -0.550 OA
ENDBRANCH  10  11
ENDBRANCH   9  10
ENDBRANCH   8   9
ENDBRANCH   1   8
TORSDOF 8
ENDMDL
MODEL 5
REMARK VINA RESULT:    -4.481     12.239     13.345
REMARK INTER + INTRA:          -7.151
REMARK INTER:                  -6.991
REMARK INTRA:                  -0.160
REMARK UNBOUND:                -0.574
REMARK SMILES O=C([O-])CCCCCCCC(=O)[O-]
REMARK SMILES IDX 7 1 6 2 5 3 4 4 2 5 1 6 3 7 8 8 9 9 10 10 11 11 12 12 13 13
REMARK H PARENT
REMARK Flexibility Score: inf
ROOT
ATOM      1  C   UNL     1       3.088  -0.499 -14.066  1.00  0.00     0.000 C 
ENDROOT
BRANCH   1   2
ATOM      2  C   UNL     1       4.174  -1.098 -14.978  1.00  0.00     0.000 C 
BRANCH   2   3
ATOM      3  C   UNL     1       4.685  -2.490 -14.553  1.00  0.00     0.006 C 
BRANCH   3   4
ATOM      4  C   UNL     1       5.834  -2.464 -13.534  1.00  0.00     0.053 C 
BRANCH   4   5
ATOM      5  C   UNL     1       6.020  -3.791 -12.864  1.00  0.00     0.041 C 
ATOM      6  O   UNL     1       5.135  -4.681 -12.966  1.00  0.00    -0.550 OA
ATOM      7  O   UNL     1       7.154  -4.033 -12.100  1.00  0.00    -0.550 OA
ENDBRANCH   4   5
ENDBRANCH   3   4
ENDBRANCH   2   3
ENDBRANCH   1   2
BRANCH   1   8
ATOM      8  C   UNL     1       1.993   0.245 -14.851  1.00  0.00     0.000 C 
BRANCH   8   9
ATOM      9  C   UNL     1       2.265   1.754 -14.957  1.00  0.00     0.006 C 
BRANCH   9  10
ATOM     10  C   UNL     1       0.976   2.578 -15.074  1.00  0.00     0.053 C 
BRANCH  10  11
ATOM     11  C   UNL     1       1.197   3.967 -14.563  1.00  0.00     0.041 C 
ATOM     12  O   UNL     1       0.228   4.642 -14.125  1.00  0.00    -0.550 OA
ATOM     13  O   UNL     1       2.479   4.498 -14.523  1.00  0.00    -0.550 OA
ENDBRANCH  10  11
ENDBRANCH   9  10
ENDBRANCH   8   9
ENDBRANCH   1   8
TORSDOF 8
ENDMDL
MODEL 6
REMARK VINA RESULT:    -4.424     13.302     15.151
REMARK INTER + INTRA:          -7.067
REMARK INTER:                  -6.769
REMARK INTRA:                  -0.298
REMARK UNBOUND:                -0.574
REMARK SMILES O=C([O-])CCCCCCCC(=O)[O-]
REMARK SMILES IDX 7 1 6 2 5 3 4 4 2 5 1 6 3 7 8 8 9 9 10 10 11 11 12 12 13 13
REMARK H PARENT
REMARK Flexibility Score: inf
ROOT
ATOM      1  C   UNL     1       6.489  -2.974 -12.828  1.00  0.00     0.000 C 
ENDROOT
BRANCH   1   2
ATOM      2  C   UNL     1       7.048  -4.026 -11.852  1.00  0.00     0.000 C 
BRANCH   2   3
ATOM      3  C   UNL     1       8.182  -3.525 -10.935  1.00  0.00     0.006 C 
BRANCH   3   4
ATOM      4  C   UNL     1       9.049  -4.637 -10.325  1.00  0.00     0.053 C 
BRANCH   4   5
ATOM      5  C   UNL     1       8.400  -5.264  -9.131  1.00  0.00     0.041 C 
ATOM      6  O   UNL     1       7.924  -6.427  -9.207  1.00  0.00    -0.550 OA
ATOM      7  O   UNL     1       8.290  -4.553  -7.943  1.00  0.00    -0.550 OA
ENDBRANCH   4   5
ENDBRANCH   3   4
ENDBRANCH   2   3
ENDBRANCH   1   2
BRANCH   1   8
ATOM      8  C   UNL     1       5.290  -3.492 -13.642  1.00  0.00     0.000 C 
BRANCH   8   9
ATOM      9  C   UNL     1       4.673  -2.406 -14.537  1.00  0.00     0.006 C 
BRANCH   9  10
ATOM     10  C   UNL     1       3.975  -1.304 -13.729  1.00  0.00     0.053 C 
BRANCH  10  11
ATOM     11  C   UNL     1       4.481   0.043 -14.139  1.00  0.00     0.041 C 
ATOM     12  O   UNL     1       3.675   0.933 -14.521  1.00  0.00    -0.550 OA
ATOM     13  O   UNL     1       5.836   0.334 -14.051  1.00  0.00    -0.550 OA
ENDBRANCH  10  11
ENDBRANCH   9  10
ENDBRANCH   8   9
ENDBRANCH   1   8
TORSDOF 8
ENDMDL
MODEL 7
REMARK VINA RESULT:    -4.412      1.691      4.069
REMARK INTER + INTRA:          -7.050
REMARK INTER:                  -6.260
REMARK INTRA:                  -0.790
REMARK UNBOUND:                -0.574
REMARK SMILES O=C([O-])CCCCCCCC(=O)[O-]
REMARK SMILES IDX 7 1 6 2 5 3 4 4 2 5 1 6 3 7 8 8 9 9 10 10 11 11 12 12 13 13
REMARK H PARENT
REMARK Flexibility Score: inf
ROOT
ATOM      1  C   UNL     1      -9.720  -6.972 -11.401  1.00  0.00     0.000 C 
ENDROOT
BRANCH   1   2
ATOM      2  C   UNL     1      -8.505  -7.598 -10.691  1.00  0.00     0.000 C 
BRANCH   2   3
ATOM      3  C   UNL     1      -7.413  -6.595 -10.265  1.00  0.00     0.006 C 
BRANCH   3   4
ATOM      4  C   UNL     1      -7.859  -5.125 -10.271  1.00  0.00     0.053 C 
BRANCH   4   5
ATOM      5  C   UNL     1      -6.694  -4.185 -10.330  1.00  0.00     0.041 C 
ATOM      6  O   UNL     1      -6.364  -3.654 -11.423  1.00  0.00    -0.550 OA
ATOM      7  O   UNL     1      -5.953  -3.922  -9.185  1.00  0.00    -0.550 OA
ENDBRANCH   4   5
ENDBRANCH   3   4
ENDBRANCH   2   3
ENDBRANCH   1   2
BRANCH   1   8
ATOM      8  C   UNL     1     -10.000  -7.606 -12.775  1.00  0.00     0.000 C 
BRANCH   8   9
ATOM      9  C   UNL     1      -8.763  -7.609 -13.686  1.00  0.00     0.006 C 
BRANCH   9  10
ATOM     10  C   UNL     1      -8.502  -6.241 -14.329  1.00  0.00     0.053 C 
BRANCH  10  11
ATOM     11  C   UNL     1      -7.077  -5.833 -14.127  1.00  0.00     0.041 C 
ATOM     12  O   UNL     1      -6.660  -4.737 -14.587  1.00  0.00    -0.550 OA
ATOM     13  O   UNL     1      -6.221  -6.638 -13.387  1.00  0.00    -0.550 OA
ENDBRANCH  10  11
ENDBRANCH   9  10
ENDBRANCH   8   9
ENDBRANCH   1   8
TORSDOF 8
ENDMDL
MODEL 8
REMARK VINA RESULT:    -4.389      2.174      3.209
REMARK INTER + INTRA:          -7.016
REMARK INTER:                  -6.283
REMARK INTRA:                  -0.733
REMARK UNBOUND:                -0.574
REMARK SMILES O=C([O-])CCCCCCCC(=O)[O-]
REMARK SMILES IDX 7 1 6 2 5 3 4 4 2 5 1 6 3 7 8 8 9 9 10 10 11 11 12 12 13 13
REMARK H PARENT
REMARK Flexibility Score: inf
ROOT
ATOM      1  C   UNL     1      -8.548  -5.873 -14.310  1.00  0.00     0.000 C 
ENDROOT
BRANCH   1   2
ATOM      2  C   UNL     1      -9.572  -6.942 -13.885  1.00  0.00     0.000 C 
BRANCH   2   3
ATOM      3  C   UNL     1      -9.008  -8.062 -12.987  1.00  0.00     0.006 C 
BRANCH   3   4
ATOM      4  C   UNL     1      -9.471  -8.000 -11.523  1.00  0.00     0.053 C 
BRANCH   4   5
ATOM      5  C   UNL     1      -8.663  -7.027 -10.720  1.00  0.00     0.041 C 
ATOM      6  O   UNL     1      -7.467  -7.290 -10.426  1.00  0.00    -0.550 OA
ATOM      7  O   UNL     1      -9.240  -5.848 -10.267  1.00  0.00    -0.550 OA
ENDBRANCH   4   5
ENDBRANCH   3   4
ENDBRANCH   2   3
ENDBRANCH   1   2
BRANCH   1   8
ATOM      8  C   UNL     1      -7.093  -6.367 -14.209  1.00  0.00     0.000 C 
BRANCH   8   9
ATOM      9  C   UNL     1      -6.252  -5.526 -13.237  1.00  0.00     0.006 C 
BRANCH   9  10
ATOM     10  C   UNL     1      -6.398  -4.018 -13.485  1.00  0.00     0.053 C 
BRANCH  10  11
ATOM     11  C   UNL     1      -6.662  -3.301 -12.199  1.00  0.00     0.041 C 
ATOM     12  O   UNL     1      -7.056  -2.105 -12.210  1.00  0.00    -0.550 OA
ATOM     13  O   UNL     1      -6.523  -3.969 -10.989  1.00  0.00    -0.550 OA
ENDBRANCH  10  11
ENDBRANCH   9  10
ENDBRANCH   8   9
ENDBRANCH   1   8
TORSDOF 8
ENDMDL
MODEL 9
REMARK VINA RESULT:    -4.359      2.256      4.257
REMARK INTER + INTRA:          -6.971
REMARK INTER:                  -6.373
REMARK INTRA:                  -0.598
REMARK UNBOUND:                -0.574
REMARK SMILES O=C([O-])CCCCCCCC(=O)[O-]
REMARK SMILES IDX 7 1 6 2 5 3 4 4 2 5 1 6 3 7 8 8 9 9 10 10 11 11 12 12 13 13
REMARK H PARENT
REMARK Flexibility Score: inf
ROOT
ATOM      1  C   UNL     1      -8.618  -5.856 -14.351  1.00  0.00     0.000 C 
ENDROOT
BRANCH   1   2
ATOM      2  C   UNL     1      -7.098  -6.083 -14.450  1.00  0.00     0.000 C 
BRANCH   2   3
ATOM      3  C   UNL     1      -6.271  -5.458 -13.307  1.00  0.00     0.006 C 
BRANCH   3   4
ATOM      4  C   UNL     1      -6.121  -3.932 -13.389  1.00  0.00     0.053 C 
BRANCH   4   5
ATOM      5  C   UNL     1      -6.628  -3.250 -12.156  1.00  0.00     0.041 C 
ATOM      6  O   UNL     1      -7.078  -2.076 -12.222  1.00  0.00    -0.550 OA
ATOM      7  O   UNL     1      -6.574  -3.898 -10.929  1.00  0.00    -0.550 OA
ENDBRANCH   4   5
ENDBRANCH   3   4
ENDBRANCH   2   3
ENDBRANCH   1   2
BRANCH   1   8
ATOM      8  C   UNL     1      -9.411  -7.168 -14.219  1.00  0.00     0.000 C 
BRANCH   8   9
ATOM      9  C   UNL     1      -9.087  -7.924 -12.921  1.00  0.00     0.006 C 
BRANCH   9  10
ATOM     10  C   UNL     1      -9.906  -7.419 -11.725  1.00  0.00     0.053 C 
BRANCH  10  11
ATOM     11  C   UNL     1      -9.014  -6.759 -10.722  1.00  0.00     0.041 C 
ATOM     12  O   UNL     1      -9.473  -5.879  -9.948  1.00  0.00    -0.550 OA
ATOM     13  O   UNL     1      -7.687  -7.151 -10.608  1.00  0.00    -0.550 OA
ENDBRANCH  10  11
ENDBRANCH   9  10
ENDBRANCH   8   9
ENDBRANCH   1   8
TORSDOF 8
ENDMDL
