MODEL 1
REMARK VINA RESULT:    74.545      0.000      0.000
REMARK INTER + INTRA:          83.238
REMARK INTER:                  81.082
REMARK INTRA:                   2.156
REMARK UNBOUND:                 2.156
REMARK SMILES C[C@@H]1[C@H](C)CC[C@]2(C(=O)[O-])CC[C@@]3(C)C(=CC[C@H]4[C@]5(C)CC[C@@H](O)C(C)(C)[C@@H]5CC[C@]43C)[C@@H]12
REMARK SMILES IDX 7 1 6 2 11 3 33 4 5 5 12 6 15 7 2 8 3 9 13 10 16 11 1 12
REMARK SMILES IDX 4 13 14 14 31 15 17 16 18 17 30 18 32 19 19 20 29 21 28 22
REMARK SMILES IDX 21 23 20 24 25 25 22 26 23 27 26 28 27 29 8 30 9 31 10 32
REMARK SMILES IDX 24 33
REMARK H PARENT 24 34
REMARK Flexibility Score: inf
ROOT
ATOM      1  C   UNL     1      61.075 -12.980  41.147  1.00  0.00     0.017 C 
ATOM      2  C   UNL     1      59.753 -13.787  41.336  1.00  0.00     0.014 C 
ATOM      3  C   UNL     1      62.174 -13.970  40.723  1.00  0.00     0.014 C 
ATOM      4  C   UNL     1      61.514 -12.381  42.510  1.00  0.00     0.030 C 
ATOM      5  C   UNL     1      58.656 -13.083  42.163  1.00  0.00     0.004 C 
ATOM      6  C   UNL     1      63.499 -13.282  40.404  1.00  0.00     0.013 C 
ATOM      7  C   UNL     1      62.949 -11.785  42.477  1.00  0.00    -0.063 C 
ATOM      8  C   UNL     1      60.393 -11.499  43.200  1.00  0.00    -0.003 C 
ATOM      9  C   UNL     1      58.989 -11.626  42.519  1.00  0.00    -0.011 C 
ATOM     10  C   UNL     1      64.024 -12.189  41.433  1.00  0.00    -0.006 C 
ATOM     11  C   UNL     1      63.340 -11.001  43.498  1.00  0.00    -0.027 C 
ATOM     12  C   UNL     1      60.303 -11.833  44.713  1.00  0.00     0.008 C 
ATOM     13  C   UNL     1      57.848 -10.990  43.334  1.00  0.00     0.008 C 
ATOM     14  C   UNL     1      64.302 -10.899  40.597  1.00  0.00     0.017 C 
ATOM     15  C   UNL     1      65.382 -12.655  42.173  1.00  0.00    -0.020 C 
ATOM     16  C   UNL     1      64.728 -10.977  44.050  1.00  0.00     0.032 C 
ATOM     17  C   UNL     1      65.898 -11.549  43.188  1.00  0.00     0.006 C 
ATOM     18  C   UNL     1      65.105 -13.940  42.993  1.00  0.00     0.008 C 
ATOM     19  C   UNL     1      66.487 -12.929  41.092  1.00  0.00     0.012 C 
ATOM     20  C   UNL     1      67.143 -11.967  44.127  1.00  0.00    -0.025 C 
ATOM     21  C   UNL     1      66.305 -14.431  43.805  1.00  0.00     0.005 C 
ATOM     22  C   UNL     1      66.899 -13.389  44.802  1.00  0.00     0.003 C 
ATOM     23  C   UNL     1      68.510 -11.904  43.341  1.00  0.00     0.010 C 
ATOM     24  C   UNL     1      67.283 -10.882  45.251  1.00  0.00     0.012 C 
ATOM     25  C   UNL     1      68.159 -13.964  45.624  1.00  0.00    -0.006 C 
ATOM     26  C   UNL     1      69.435 -13.111  43.548  1.00  0.00     0.033 C 
ATOM     27  C   UNL     1      69.544 -13.498  45.028  1.00  0.00     0.120 C 
ATOM     28  C   UNL     1      68.040 -13.551  47.121  1.00  0.00     0.014 C 
ATOM     29  C   UNL     1      68.176 -15.524  45.665  1.00  0.00     0.014 C 
ENDROOT
BRANCH   1  30
ATOM     30  C   UNL     1      60.880 -11.935  40.051  1.00  0.00     0.048 C 
ATOM     31  O   UNL     1      61.870 -11.287  39.616  1.00  0.00    -0.550 OA
ATOM     32  O   UNL     1      59.625 -11.681  39.506  1.00  0.00    -0.550 OA
ENDBRANCH   1  30
BRANCH  27  33
ATOM     33  O   UNL     1      70.099 -12.432  45.759  1.00  0.00    -0.393 OA
ATOM     34  H   UNL     1      71.027 -12.689  46.000  1.00  0.00     0.210 HD
ENDBRANCH  27  33
TORSDOF 2
ENDMDL
