MODEL 1
REMARK VINA RESULT:    -4.656      0.000      0.000
REMARK INTER + INTRA:         -16.243
REMARK INTER:                 -11.733
REMARK INTRA:                  -4.511
REMARK UNBOUND:                -4.511
REMARK SMILES CCCCCCCCCCCCCCCCCCCCCCCCCCCC(=O)[O-]
REMARK SMILES IDX 15 1 16 2 17 3 18 4 19 5 20 6 21 7 22 8 23 9 24 10 25 11
REMARK SMILES IDX 26 12 27 13 28 14 29 15 30 16 14 17 13 18 12 19 11 20 10 21
REMARK SMILES IDX 9 22 8 23 7 24 6 25 5 26 4 27 3 28 2 29 1 30
REMARK H PARENT
REMARK Flexibility Score: inf
ROOT
ATOM      1  C   UNL     1      99.347   3.593  23.605  1.00  0.00     0.000 C 
ENDROOT
BRANCH   1   2
ATOM      2  C   UNL     1     100.060   4.203  24.820  1.00  0.00     0.000 C 
BRANCH   2   3
ATOM      3  C   UNL     1      99.710   3.491  26.136  1.00  0.00     0.000 C 
BRANCH   3   4
ATOM      4  C   UNL     1     100.345   4.171  27.362  1.00  0.00     0.000 C 
BRANCH   4   5
ATOM      5  C   UNL     1     101.020   5.507  27.007  1.00  0.00     0.000 C 
BRANCH   5   6
ATOM      6  C   UNL     1     102.515   5.520  27.370  1.00  0.00     0.000 C 
BRANCH   6   7
ATOM      7  C   UNL     1     103.170   4.131  27.273  1.00  0.00     0.000 C 
BRANCH   7   8
ATOM      8  C   UNL     1     103.704   3.757  25.879  1.00  0.00     0.000 C 
BRANCH   8   9
ATOM      9  C   UNL     1     104.096   2.276  25.763  1.00  0.00     0.000 C 
BRANCH   9  10
ATOM     10  C   UNL     1     104.364   1.891  24.303  1.00  0.00     0.000 C 
BRANCH  10  11
ATOM     11  C   UNL     1     103.048   1.722  23.528  1.00  0.00     0.000 C 
BRANCH  11  12
ATOM     12  C   UNL     1     101.943   1.058  24.370  1.00  0.00     0.006 C 
BRANCH  12  13
ATOM     13  C   UNL     1     101.618  -0.386  23.955  1.00  0.00     0.053 C 
BRANCH  13  14
ATOM     14  C   UNL     1     100.473  -0.952  24.738  1.00  0.00     0.041 C 
ATOM     15  O   UNL     1      99.551  -0.198  25.146  1.00  0.00    -0.550 OA
ATOM     16  O   UNL     1     100.409  -2.317  24.988  1.00  0.00    -0.550 OA
ENDBRANCH  13  14
ENDBRANCH  12  13
ENDBRANCH  11  12
ENDBRANCH  10  11
ENDBRANCH   9  10
ENDBRANCH   8   9
ENDBRANCH   7   8
ENDBRANCH   6   7
ENDBRANCH   5   6
ENDBRANCH   4   5
ENDBRANCH   3   4
ENDBRANCH   2   3
ENDBRANCH   1   2
BRANCH   1  17
ATOM     17  C   UNL     1      98.061   2.873  24.032  1.00  0.00     0.000 C 
BRANCH  17  18
ATOM     18  C   UNL     1      96.824   3.739  23.761  1.00  0.00     0.000 C 
BRANCH  18  19
ATOM     19  C   UNL     1      95.876   3.732  24.969  1.00  0.00     0.000 C 
BRANCH  19  20
ATOM     20  C   UNL     1      95.676   5.124  25.598  1.00  0.00     0.000 C 
BRANCH  20  21
ATOM     21  C   UNL     1      96.856   5.649  26.444  1.00  0.00     0.000 C 
BRANCH  21  22
ATOM     22  C   UNL     1      97.511   6.941  25.907  1.00  0.00    -0.000 C 
BRANCH  22  23
ATOM     23  C   UNL     1      96.510   7.947  25.306  1.00  0.00    -0.000 C 
BRANCH  23  24
ATOM     24  C   UNL     1      96.691   8.228  23.805  1.00  0.00    -0.000 C 
BRANCH  24  25
ATOM     25  C   UNL     1      95.379   8.633  23.110  1.00  0.00    -0.000 C 
BRANCH  25  26
ATOM     26  C   UNL     1      94.732   7.466  22.350  1.00  0.00    -0.000 C 
BRANCH  26  27
ATOM     27  C   UNL     1      95.769   6.509  21.737  1.00  0.00    -0.000 C 
BRANCH  27  28
ATOM     28  C   UNL     1      96.320   7.005  20.390  1.00  0.00    -0.000 C 
BRANCH  28  29
ATOM     29  C   UNL     1      97.862   7.049  20.329  1.00  0.00    -0.003 C 
ATOM     30  C   UNL     1      98.516   6.310  21.495  1.00  0.00     0.004 C 
ENDBRANCH  28  29
ENDBRANCH  27  28
ENDBRANCH  26  27
ENDBRANCH  25  26
ENDBRANCH  24  25
ENDBRANCH  23  24
ENDBRANCH  22  23
ENDBRANCH  21  22
ENDBRANCH  20  21
ENDBRANCH  19  20
ENDBRANCH  18  19
ENDBRANCH  17  18
ENDBRANCH   1  17
TORSDOF 26
ENDMDL
MODEL 2
REMARK VINA RESULT:    -4.649      2.518      7.897
REMARK INTER + INTRA:         -16.226
REMARK INTER:                 -11.610
REMARK INTRA:                  -4.615
REMARK UNBOUND:                -4.511
REMARK SMILES CCCCCCCCCCCCCCCCCCCCCCCCCCCC(=O)[O-]
REMARK SMILES IDX 15 1 16 2 17 3 18 4 19 5 20 6 21 7 22 8 23 9 24 10 25 11
REMARK SMILES IDX 26 12 27 13 28 14 29 15 30 16 14 17 13 18 12 19 11 20 10 21
REMARK SMILES IDX 9 22 8 23 7 24 6 25 5 26 4 27 3 28 2 29 1 30
REMARK H PARENT
REMARK Flexibility Score: inf
ROOT
ATOM      1  C   UNL     1      99.406   3.844  23.615  1.00  0.00     0.000 C 
ENDROOT
BRANCH   1   2
ATOM      2  C   UNL     1      98.622   2.610  24.084  1.00  0.00     0.000 C 
BRANCH   2   3
ATOM      3  C   UNL     1      97.100   2.804  24.003  1.00  0.00     0.000 C 
BRANCH   3   4
ATOM      4  C   UNL     1      96.496   3.285  25.334  1.00  0.00     0.000 C 
BRANCH   4   5
ATOM      5  C   UNL     1      97.421   3.010  26.532  1.00  0.00     0.000 C 
BRANCH   5   6
ATOM      6  C   UNL     1      97.755   4.289  27.319  1.00  0.00     0.000 C 
BRANCH   6   7
ATOM      7  C   UNL     1      96.923   5.504  26.873  1.00  0.00     0.000 C 
BRANCH   7   8
ATOM      8  C   UNL     1      97.736   6.674  26.290  1.00  0.00     0.000 C 
BRANCH   8   9
ATOM      9  C   UNL     1      97.557   6.833  24.772  1.00  0.00     0.000 C 
BRANCH   9  10
ATOM     10  C   UNL     1      96.226   7.519  24.444  1.00  0.00     0.000 C 
BRANCH  10  11
ATOM     11  C   UNL     1      95.257   6.542  23.761  1.00  0.00     0.000 C 
BRANCH  11  12
ATOM     12  C   UNL     1      95.874   5.857  22.528  1.00  0.00     0.006 C 
BRANCH  12  13
ATOM     13  C   UNL     1      95.863   6.721  21.256  1.00  0.00     0.053 C 
BRANCH  13  14
ATOM     14  C   UNL     1      97.225   6.839  20.644  1.00  0.00     0.041 C 
ATOM     15  O   UNL     1      97.368   7.382  19.518  1.00  0.00    -0.550 OA
ATOM     16  O   UNL     1      98.340   6.380  21.335  1.00  0.00    -0.550 OA
ENDBRANCH  13  14
ENDBRANCH  12  13
ENDBRANCH  11  12
ENDBRANCH  10  11
ENDBRANCH   9  10
ENDBRANCH   8   9
ENDBRANCH   7   8
ENDBRANCH   6   7
ENDBRANCH   5   6
ENDBRANCH   4   5
ENDBRANCH   3   4
ENDBRANCH   2   3
ENDBRANCH   1   2
BRANCH   1  17
ATOM     17  C   UNL     1     100.581   4.134  24.556  1.00  0.00     0.000 C 
BRANCH  17  18
ATOM     18  C   UNL     1     100.767   3.003  25.576  1.00  0.00     0.000 C 
BRANCH  18  19
ATOM     19  C   UNL     1     101.309   3.547  26.905  1.00  0.00     0.000 C 
BRANCH  19  20
ATOM     20  C   UNL     1     102.260   4.747  26.734  1.00  0.00     0.000 C 
BRANCH  20  21
ATOM     21  C   UNL     1     103.703   4.529  27.236  1.00  0.00     0.000 C 
BRANCH  21  22
ATOM     22  C   UNL     1     104.142   3.050  27.320  1.00  0.00    -0.000 C 
BRANCH  22  23
ATOM     23  C   UNL     1     105.577   2.794  26.822  1.00  0.00    -0.000 C 
BRANCH  23  24
ATOM     24  C   UNL     1     105.688   1.855  25.609  1.00  0.00    -0.000 C 
BRANCH  24  25
ATOM     25  C   UNL     1     104.605   2.117  24.548  1.00  0.00    -0.000 C 
BRANCH  25  26
ATOM     26  C   UNL     1     104.045   0.819  23.947  1.00  0.00    -0.000 C 
BRANCH  26  27
ATOM     27  C   UNL     1     102.519   0.861  23.764  1.00  0.00    -0.000 C 
BRANCH  27  28
ATOM     28  C   UNL     1     101.949  -0.444  23.185  1.00  0.00    -0.000 C 
BRANCH  28  29
ATOM     29  C   UNL     1     100.439  -0.633  23.449  1.00  0.00    -0.003 C 
ATOM     30  C   UNL     1     100.105  -0.672  24.939  1.00  0.00     0.004 C 
ENDBRANCH  28  29
ENDBRANCH  27  28
ENDBRANCH  26  27
ENDBRANCH  25  26
ENDBRANCH  24  25
ENDBRANCH  23  24
ENDBRANCH  22  23
ENDBRANCH  21  22
ENDBRANCH  20  21
ENDBRANCH  19  20
ENDBRANCH  18  19
ENDBRANCH  17  18
ENDBRANCH   1  17
TORSDOF 26
ENDMDL
MODEL 3
REMARK VINA RESULT:    -4.591      3.148      8.376
REMARK INTER + INTRA:         -16.081
REMARK INTER:                 -11.836
REMARK INTRA:                  -4.245
REMARK UNBOUND:                -4.511
REMARK SMILES CCCCCCCCCCCCCCCCCCCCCCCCCCCC(=O)[O-]
REMARK SMILES IDX 15 1 16 2 17 3 18 4 19 5 20 6 21 7 22 8 23 9 24 10 25 11
REMARK SMILES IDX 26 12 27 13 28 14 29 15 30 16 14 17 13 18 12 19 11 20 10 21
REMARK SMILES IDX 9 22 8 23 7 24 6 25 5 26 4 27 3 28 2 29 1 30
REMARK H PARENT
REMARK Flexibility Score: inf
ROOT
ATOM      1  C   UNL     1      99.161   3.644  23.654  1.00  0.00     0.000 C 
ENDROOT
BRANCH   1   2
ATOM      2  C   UNL     1      97.966   2.967  24.341  1.00  0.00     0.000 C 
BRANCH   2   3
ATOM      3  C   UNL     1      96.619   3.598  23.954  1.00  0.00     0.000 C 
BRANCH   3   4
ATOM      4  C   UNL     1      95.850   4.137  25.173  1.00  0.00     0.000 C 
BRANCH   4   5
ATOM      5  C   UNL     1      96.743   4.962  26.114  1.00  0.00     0.000 C 
BRANCH   5   6
ATOM      6  C   UNL     1      97.055   6.358  25.549  1.00  0.00     0.000 C 
BRANCH   6   7
ATOM      7  C   UNL     1      95.805   7.089  25.028  1.00  0.00     0.000 C 
BRANCH   7   8
ATOM      8  C   UNL     1      96.063   8.100  23.896  1.00  0.00     0.000 C 
BRANCH   8   9
ATOM      9  C   UNL     1      95.357   7.727  22.584  1.00  0.00     0.000 C 
BRANCH   9  10
ATOM     10  C   UNL     1      95.898   6.407  22.025  1.00  0.00     0.000 C 
BRANCH  10  11
ATOM     11  C   UNL     1      97.408   6.501  21.756  1.00  0.00     0.000 C 
BRANCH  11  12
ATOM     12  C   UNL     1      97.760   7.575  20.710  1.00  0.00     0.006 C 
BRANCH  12  13
ATOM     13  C   UNL     1      97.646   7.096  19.253  1.00  0.00     0.053 C 
BRANCH  13  14
ATOM     14  C   UNL     1      96.496   7.738  18.539  1.00  0.00     0.041 C 
ATOM     15  O   UNL     1      96.701   8.675  17.724  1.00  0.00    -0.550 OA
ATOM     16  O   UNL     1      95.202   7.277  18.748  1.00  0.00    -0.550 OA
ENDBRANCH  13  14
ENDBRANCH  12  13
ENDBRANCH  11  12
ENDBRANCH  10  11
ENDBRANCH   9  10
ENDBRANCH   8   9
ENDBRANCH   7   8
ENDBRANCH   6   7
ENDBRANCH   5   6
ENDBRANCH   4   5
ENDBRANCH   3   4
ENDBRANCH   2   3
ENDBRANCH   1   2
BRANCH   1  17
ATOM     17  C   UNL     1     100.182   4.128  24.691  1.00  0.00     0.000 C 
BRANCH  17  18
ATOM     18  C   UNL     1     100.023   3.379  26.020  1.00  0.00     0.000 C 
BRANCH  18  19
ATOM     19  C   UNL     1     101.148   3.748  26.996  1.00  0.00     0.000 C 
BRANCH  19  20
ATOM     20  C   UNL     1     102.323   4.487  26.325  1.00  0.00     0.000 C 
BRANCH  20  21
ATOM     21  C   UNL     1     103.732   4.006  26.733  1.00  0.00     0.000 C 
BRANCH  21  22
ATOM     22  C   UNL     1     104.110   2.602  26.213  1.00  0.00    -0.000 C 
BRANCH  22  23
ATOM     23  C   UNL     1     103.985   2.446  24.685  1.00  0.00    -0.000 C 
BRANCH  23  24
ATOM     24  C   UNL     1     103.261   1.172  24.218  1.00  0.00    -0.000 C 
BRANCH  24  25
ATOM     25  C   UNL     1     102.109   1.462  23.241  1.00  0.00    -0.000 C 
BRANCH  25  26
ATOM     26  C   UNL     1     100.986   0.418  23.330  1.00  0.00    -0.000 C 
BRANCH  26  27
ATOM     27  C   UNL     1     100.547   0.140  24.777  1.00  0.00    -0.000 C 
BRANCH  27  28
ATOM     28  C   UNL     1     100.179  -1.332  25.020  1.00  0.00    -0.000 C 
BRANCH  28  29
ATOM     29  C   UNL     1     101.073  -2.330  24.253  1.00  0.00    -0.003 C 
ATOM     30  C   UNL     1     101.072  -3.722  24.885  1.00  0.00     0.004 C 
ENDBRANCH  28  29
ENDBRANCH  27  28
ENDBRANCH  26  27
ENDBRANCH  25  26
ENDBRANCH  24  25
ENDBRANCH  23  24
ENDBRANCH  22  23
ENDBRANCH  21  22
ENDBRANCH  20  21
ENDBRANCH  19  20
ENDBRANCH  18  19
ENDBRANCH  17  18
ENDBRANCH   1  17
TORSDOF 26
ENDMDL
MODEL 4
REMARK VINA RESULT:    -4.576      2.617      8.273
REMARK INTER + INTRA:         -16.042
REMARK INTER:                 -12.100
REMARK INTRA:                  -3.942
REMARK UNBOUND:                -4.511
REMARK SMILES CCCCCCCCCCCCCCCCCCCCCCCCCCCC(=O)[O-]
REMARK SMILES IDX 15 1 16 2 17 3 18 4 19 5 20 6 21 7 22 8 23 9 24 10 25 11
REMARK SMILES IDX 26 12 27 13 28 14 29 15 30 16 14 17 13 18 12 19 11 20 10 21
REMARK SMILES IDX 9 22 8 23 7 24 6 25 5 26 4 27 3 28 2 29 1 30
REMARK H PARENT
REMARK Flexibility Score: inf
ROOT
ATOM      1  C   UNL     1      98.119   3.640  24.125  1.00  0.00     0.000 C 
ENDROOT
BRANCH   1   2
ATOM      2  C   UNL     1      96.803   4.399  23.899  1.00  0.00     0.000 C 
BRANCH   2   3
ATOM      3  C   UNL     1      95.908   4.425  25.147  1.00  0.00     0.000 C 
BRANCH   3   4
ATOM      4  C   UNL     1      95.795   5.831  25.762  1.00  0.00     0.000 C 
BRANCH   4   5
ATOM      5  C   UNL     1      97.130   6.594  25.733  1.00  0.00     0.000 C 
BRANCH   5   6
ATOM      6  C   UNL     1      96.988   7.998  25.121  1.00  0.00     0.000 C 
BRANCH   6   7
ATOM      7  C   UNL     1      95.623   8.226  24.447  1.00  0.00     0.000 C 
BRANCH   7   8
ATOM      8  C   UNL     1      95.640   8.193  22.908  1.00  0.00     0.000 C 
BRANCH   8   9
ATOM      9  C   UNL     1      94.775   7.067  22.322  1.00  0.00     0.000 C 
BRANCH   9  10
ATOM     10  C   UNL     1      94.509   7.299  20.830  1.00  0.00     0.000 C 
BRANCH  10  11
ATOM     11  C   UNL     1      95.015   8.682  20.390  1.00  0.00     0.000 C 
BRANCH  11  12
ATOM     12  C   UNL     1      96.082   8.599  19.282  1.00  0.00     0.006 C 
BRANCH  12  13
ATOM     13  C   UNL     1      96.589   7.175  19.001  1.00  0.00     0.053 C 
BRANCH  13  14
ATOM     14  C   UNL     1      97.958   6.946  19.564  1.00  0.00     0.041 C 
ATOM     15  O   UNL     1      98.108   6.723  20.794  1.00  0.00    -0.550 OA
ATOM     16  O   UNL     1      99.065   6.944  18.724  1.00  0.00    -0.550 OA
ENDBRANCH  13  14
ENDBRANCH  12  13
ENDBRANCH  11  12
ENDBRANCH  10  11
ENDBRANCH   9  10
ENDBRANCH   8   9
ENDBRANCH   7   8
ENDBRANCH   6   7
ENDBRANCH   5   6
ENDBRANCH   4   5
ENDBRANCH   3   4
ENDBRANCH   2   3
ENDBRANCH   1   2
BRANCH   1  17
ATOM     17  C   UNL     1      98.093   2.892  25.464  1.00  0.00     0.000 C 
BRANCH  17  18
ATOM     18  C   UNL     1      99.425   3.043  26.209  1.00  0.00     0.000 C 
BRANCH  18  19
ATOM     19  C   UNL     1     100.052   4.418  25.939  1.00  0.00     0.000 C 
BRANCH  19  20
ATOM     20  C   UNL     1     101.514   4.529  26.414  1.00  0.00     0.000 C 
BRANCH  20  21
ATOM     21  C   UNL     1     102.004   3.389  27.331  1.00  0.00     0.000 C 
BRANCH  21  22
ATOM     22  C   UNL     1     103.537   3.325  27.520  1.00  0.00    -0.000 C 
BRANCH  22  23
ATOM     23  C   UNL     1     104.334   3.447  26.207  1.00  0.00    -0.000 C 
BRANCH  23  24
ATOM     24  C   UNL     1     105.250   2.253  25.888  1.00  0.00    -0.000 C 
BRANCH  24  25
ATOM     25  C   UNL     1     104.714   1.378  24.742  1.00  0.00    -0.000 C 
BRANCH  25  26
ATOM     26  C   UNL     1     103.388   1.902  24.172  1.00  0.00    -0.000 C 
BRANCH  26  27
ATOM     27  C   UNL     1     102.373   0.780  23.902  1.00  0.00    -0.000 C 
BRANCH  27  28
ATOM     28  C   UNL     1     101.020   1.304  23.395  1.00  0.00    -0.000 C 
BRANCH  28  29
ATOM     29  C   UNL     1      99.861   0.299  23.566  1.00  0.00    -0.003 C 
ATOM     30  C   UNL     1      99.897  -0.413  24.917  1.00  0.00     0.004 C 
ENDBRANCH  28  29
ENDBRANCH  27  28
ENDBRANCH  26  27
ENDBRANCH  25  26
ENDBRANCH  24  25
ENDBRANCH  23  24
ENDBRANCH  22  23
ENDBRANCH  21  22
ENDBRANCH  20  21
ENDBRANCH  19  20
ENDBRANCH  18  19
ENDBRANCH  17  18
ENDBRANCH   1  17
TORSDOF 26
ENDMDL
MODEL 5
REMARK VINA RESULT:    -4.535      2.043      4.317
REMARK INTER + INTRA:         -15.939
REMARK INTER:                 -11.822
REMARK INTRA:                  -4.116
REMARK UNBOUND:                -4.511
REMARK SMILES CCCCCCCCCCCCCCCCCCCCCCCCCCCC(=O)[O-]
REMARK SMILES IDX 15 1 16 2 17 3 18 4 19 5 20 6 21 7 22 8 23 9 24 10 25 11
REMARK SMILES IDX 26 12 27 13 28 14 29 15 30 16 14 17 13 18 12 19 11 20 10 21
REMARK SMILES IDX 9 22 8 23 7 24 6 25 5 26 4 27 3 28 2 29 1 30
REMARK H PARENT
REMARK Flexibility Score: inf
ROOT
ATOM      1  C   UNL     1      99.596   1.171  25.223  1.00  0.00     0.000 C 
ENDROOT
BRANCH   1   2
ATOM      2  C   UNL     1      99.990  -0.240  24.763  1.00  0.00     0.000 C 
BRANCH   2   3
ATOM      3  C   UNL     1      99.917  -0.412  23.237  1.00  0.00     0.000 C 
BRANCH   3   4
ATOM      4  C   UNL     1     101.295  -0.683  22.609  1.00  0.00     0.000 C 
BRANCH   4   5
ATOM      5  C   UNL     1     102.419  -0.735  23.658  1.00  0.00     0.000 C 
BRANCH   5   6
ATOM      6  C   UNL     1     103.574   0.224  23.325  1.00  0.00     0.000 C 
BRANCH   6   7
ATOM      7  C   UNL     1     103.304   1.671  23.773  1.00  0.00     0.000 C 
BRANCH   7   8
ATOM      8  C   UNL     1     103.774   2.012  25.199  1.00  0.00     0.000 C 
BRANCH   8   9
ATOM      9  C   UNL     1     102.720   2.777  26.013  1.00  0.00     0.000 C 
BRANCH   9  10
ATOM     10  C   UNL     1     103.234   4.167  26.409  1.00  0.00     0.000 C 
BRANCH  10  11
ATOM     11  C   UNL     1     102.077   5.072  26.860  1.00  0.00     0.000 C 
BRANCH  11  12
ATOM     12  C   UNL     1     100.720   4.344  26.868  1.00  0.00     0.006 C 
BRANCH  12  13
ATOM     13  C   UNL     1      99.507   5.272  26.691  1.00  0.00     0.053 C 
BRANCH  13  14
ATOM     14  C   UNL     1      98.308   4.779  27.441  1.00  0.00     0.041 C 
ATOM     15  O   UNL     1      97.471   5.597  27.904  1.00  0.00    -0.550 OA
ATOM     16  O   UNL     1      98.098   3.414  27.598  1.00  0.00    -0.550 OA
ENDBRANCH  13  14
ENDBRANCH  12  13
ENDBRANCH  11  12
ENDBRANCH  10  11
ENDBRANCH   9  10
ENDBRANCH   8   9
ENDBRANCH   7   8
ENDBRANCH   6   7
ENDBRANCH   5   6
ENDBRANCH   4   5
ENDBRANCH   3   4
ENDBRANCH   2   3
ENDBRANCH   1   2
BRANCH   1  17
ATOM     17  C   UNL     1      99.705   2.172  24.066  1.00  0.00     0.000 C 
BRANCH  17  18
ATOM     18  C   UNL     1      98.467   3.075  23.995  1.00  0.00     0.000 C 
BRANCH  18  19
ATOM     19  C   UNL     1      97.197   2.293  24.358  1.00  0.00     0.000 C 
BRANCH  19  20
ATOM     20  C   UNL     1      96.007   3.197  24.734  1.00  0.00     0.000 C 
BRANCH  20  21
ATOM     21  C   UNL     1      96.158   4.687  24.359  1.00  0.00     0.000 C 
BRANCH  21  22
ATOM     22  C   UNL     1      95.321   5.658  25.221  1.00  0.00    -0.000 C 
BRANCH  22  23
ATOM     23  C   UNL     1      95.787   7.124  25.143  1.00  0.00    -0.000 C 
BRANCH  23  24
ATOM     24  C   UNL     1      97.081   7.356  24.345  1.00  0.00    -0.000 C 
BRANCH  24  25
ATOM     25  C   UNL     1      96.840   8.092  23.016  1.00  0.00    -0.000 C 
BRANCH  25  26
ATOM     26  C   UNL     1      96.428   7.140  21.883  1.00  0.00    -0.000 C 
BRANCH  26  27
ATOM     27  C   UNL     1      94.903   7.041  21.717  1.00  0.00    -0.000 C 
BRANCH  27  28
ATOM     28  C   UNL     1      94.209   8.412  21.727  1.00  0.00    -0.000 C 
BRANCH  28  29
ATOM     29  C   UNL     1      94.307   9.168  20.384  1.00  0.00    -0.003 C 
ATOM     30  C   UNL     1      93.418  10.410  20.345  1.00  0.00     0.004 C 
ENDBRANCH  28  29
ENDBRANCH  27  28
ENDBRANCH  26  27
ENDBRANCH  25  26
ENDBRANCH  24  25
ENDBRANCH  23  24
ENDBRANCH  22  23
ENDBRANCH  21  22
ENDBRANCH  20  21
ENDBRANCH  19  20
ENDBRANCH  18  19
ENDBRANCH  17  18
ENDBRANCH   1  17
TORSDOF 26
ENDMDL
MODEL 6
REMARK VINA RESULT:    -4.521      2.557      4.811
REMARK INTER + INTRA:         -15.902
REMARK INTER:                 -11.931
REMARK INTRA:                  -3.972
REMARK UNBOUND:                -4.511
REMARK SMILES CCCCCCCCCCCCCCCCCCCCCCCCCCCC(=O)[O-]
REMARK SMILES IDX 15 1 16 2 17 3 18 4 19 5 20 6 21 7 22 8 23 9 24 10 25 11
REMARK SMILES IDX 26 12 27 13 28 14 29 15 30 16 14 17 13 18 12 19 11 20 10 21
REMARK SMILES IDX 9 22 8 23 7 24 6 25 5 26 4 27 3 28 2 29 1 30
REMARK H PARENT
REMARK Flexibility Score: inf
ROOT
ATOM      1  C   UNL     1      99.117   5.899  22.257  1.00  0.00     0.000 C 
ENDROOT
BRANCH   1   2
ATOM      2  C   UNL     1      98.818   4.531  22.887  1.00  0.00     0.000 C 
BRANCH   2   3
ATOM      3  C   UNL     1     100.073   3.846  23.449  1.00  0.00     0.000 C 
BRANCH   3   4
ATOM      4  C   UNL     1     100.303   4.165  24.936  1.00  0.00     0.000 C 
BRANCH   4   5
ATOM      5  C   UNL     1     100.497   2.898  25.786  1.00  0.00     0.000 C 
BRANCH   5   6
ATOM      6  C   UNL     1      99.338   1.900  25.620  1.00  0.00     0.000 C 
BRANCH   6   7
ATOM      7  C   UNL     1      99.806   0.501  25.184  1.00  0.00     0.000 C 
BRANCH   7   8
ATOM      8  C   UNL     1      99.614   0.184  23.690  1.00  0.00     0.000 C 
BRANCH   8   9
ATOM      9  C   UNL     1     100.926   0.230  22.891  1.00  0.00     0.000 C 
BRANCH   9  10
ATOM     10  C   UNL     1     102.139   0.109  23.821  1.00  0.00     0.000 C 
BRANCH  10  11
ATOM     11  C   UNL     1     103.077   1.316  23.661  1.00  0.00     0.000 C 
BRANCH  11  12
ATOM     12  C   UNL     1     104.518   0.906  23.305  1.00  0.00     0.006 C 
BRANCH  12  13
ATOM     13  C   UNL     1     104.612  -0.286  22.337  1.00  0.00     0.053 C 
BRANCH  13  14
ATOM     14  C   UNL     1     105.791  -0.173  21.419  1.00  0.00     0.041 C 
ATOM     15  O   UNL     1     106.542   0.835  21.476  1.00  0.00    -0.550 OA
ATOM     16  O   UNL     1     106.078  -1.198  20.526  1.00  0.00    -0.550 OA
ENDBRANCH  13  14
ENDBRANCH  12  13
ENDBRANCH  11  12
ENDBRANCH  10  11
ENDBRANCH   9  10
ENDBRANCH   8   9
ENDBRANCH   7   8
ENDBRANCH   6   7
ENDBRANCH   5   6
ENDBRANCH   4   5
ENDBRANCH   3   4
ENDBRANCH   2   3
ENDBRANCH   1   2
BRANCH   1  17
ATOM     17  C   UNL     1      97.987   6.323  21.311  1.00  0.00     0.000 C 
BRANCH  17  18
ATOM     18  C   UNL     1      98.542   6.803  19.963  1.00  0.00     0.000 C 
BRANCH  18  19
ATOM     19  C   UNL     1      97.473   7.569  19.172  1.00  0.00     0.000 C 
BRANCH  19  20
ATOM     20  C   UNL     1      96.053   7.414  19.752  1.00  0.00     0.000 C 
BRANCH  20  21
ATOM     21  C   UNL     1      95.396   8.716  20.257  1.00  0.00     0.000 C 
BRANCH  21  22
ATOM     22  C   UNL     1      95.089   8.739  21.771  1.00  0.00    -0.000 C 
BRANCH  22  23
ATOM     23  C   UNL     1      94.251   7.542  22.258  1.00  0.00    -0.000 C 
BRANCH  23  24
ATOM     24  C   UNL     1      94.970   6.597  23.236  1.00  0.00    -0.000 C 
BRANCH  24  25
ATOM     25  C   UNL     1      95.923   7.336  24.191  1.00  0.00    -0.000 C 
BRANCH  25  26
ATOM     26  C   UNL     1      96.596   6.392  25.198  1.00  0.00    -0.000 C 
BRANCH  26  27
ATOM     27  C   UNL     1      95.666   5.258  25.660  1.00  0.00    -0.000 C 
BRANCH  27  28
ATOM     28  C   UNL     1      96.270   3.861  25.442  1.00  0.00    -0.000 C 
BRANCH  28  29
ATOM     29  C   UNL     1      96.091   3.325  24.005  1.00  0.00    -0.003 C 
ATOM     30  C   UNL     1      96.217   1.804  23.927  1.00  0.00     0.004 C 
ENDBRANCH  28  29
ENDBRANCH  27  28
ENDBRANCH  26  27
ENDBRANCH  25  26
ENDBRANCH  24  25
ENDBRANCH  23  24
ENDBRANCH  22  23
ENDBRANCH  21  22
ENDBRANCH  20  21
ENDBRANCH  19  20
ENDBRANCH  18  19
ENDBRANCH  17  18
ENDBRANCH   1  17
TORSDOF 26
ENDMDL
MODEL 7
REMARK VINA RESULT:    -4.489      2.703      8.265
REMARK INTER + INTRA:         -15.822
REMARK INTER:                 -11.610
REMARK INTRA:                  -4.212
REMARK UNBOUND:                -4.511
REMARK SMILES CCCCCCCCCCCCCCCCCCCCCCCCCCCC(=O)[O-]
REMARK SMILES IDX 15 1 16 2 17 3 18 4 19 5 20 6 21 7 22 8 23 9 24 10 25 11
REMARK SMILES IDX 26 12 27 13 28 14 29 15 30 16 14 17 13 18 12 19 11 20 10 21
REMARK SMILES IDX 9 22 8 23 7 24 6 25 5 26 4 27 3 28 2 29 1 30
REMARK H PARENT
REMARK Flexibility Score: inf
ROOT
ATOM      1  C   UNL     1     100.107   3.227  25.779  1.00  0.00     0.000 C 
ENDROOT
BRANCH   1   2
ATOM      2  C   UNL     1     100.287   4.134  24.553  1.00  0.00     0.000 C 
BRANCH   2   3
ATOM      3  C   UNL     1      99.224   3.891  23.471  1.00  0.00     0.000 C 
BRANCH   3   4
ATOM      4  C   UNL     1      98.062   3.015  23.972  1.00  0.00     0.000 C 
BRANCH   4   5
ATOM      5  C   UNL     1      96.780   3.828  24.221  1.00  0.00     0.000 C 
BRANCH   5   6
ATOM      6  C   UNL     1      96.498   4.030  25.720  1.00  0.00     0.000 C 
BRANCH   6   7
ATOM      7  C   UNL     1      96.671   5.490  26.173  1.00  0.00     0.000 C 
BRANCH   7   8
ATOM      8  C   UNL     1      97.136   6.464  25.076  1.00  0.00     0.000 C 
BRANCH   8   9
ATOM      9  C   UNL     1      96.343   7.781  25.065  1.00  0.00     0.000 C 
BRANCH   9  10
ATOM     10  C   UNL     1      95.759   8.059  23.675  1.00  0.00     0.000 C 
BRANCH  10  11
ATOM     11  C   UNL     1      95.138   6.788  23.075  1.00  0.00     0.000 C 
BRANCH  11  12
ATOM     12  C   UNL     1      95.689   6.462  21.674  1.00  0.00     0.006 C 
BRANCH  12  13
ATOM     13  C   UNL     1      96.870   7.347  21.241  1.00  0.00     0.053 C 
BRANCH  13  14
ATOM     14  C   UNL     1      97.284   7.078  19.826  1.00  0.00     0.041 C 
ATOM     15  O   UNL     1      96.446   7.174  18.892  1.00  0.00    -0.550 OA
ATOM     16  O   UNL     1      98.604   6.755  19.537  1.00  0.00    -0.550 OA
ENDBRANCH  13  14
ENDBRANCH  12  13
ENDBRANCH  11  12
ENDBRANCH  10  11
ENDBRANCH   9  10
ENDBRANCH   8   9
ENDBRANCH   7   8
ENDBRANCH   6   7
ENDBRANCH   5   6
ENDBRANCH   4   5
ENDBRANCH   3   4
ENDBRANCH   2   3
ENDBRANCH   1   2
BRANCH   1  17
ATOM     17  C   UNL     1     100.004   4.059  27.063  1.00  0.00     0.000 C 
BRANCH  17  18
ATOM     18  C   UNL     1     100.966   5.253  27.030  1.00  0.00     0.000 C 
BRANCH  18  19
ATOM     19  C   UNL     1     102.250   4.943  27.812  1.00  0.00     0.000 C 
BRANCH  19  20
ATOM     20  C   UNL     1     103.533   5.402  27.091  1.00  0.00     0.000 C 
BRANCH  20  21
ATOM     21  C   UNL     1     104.187   4.354  26.166  1.00  0.00     0.000 C 
BRANCH  21  22
ATOM     22  C   UNL     1     103.784   2.892  26.460  1.00  0.00    -0.000 C 
BRANCH  22  23
ATOM     23  C   UNL     1     104.123   1.908  25.324  1.00  0.00    -0.000 C 
BRANCH  23  24
ATOM     24  C   UNL     1     103.256   2.047  24.061  1.00  0.00    -0.000 C 
BRANCH  24  25
ATOM     25  C   UNL     1     102.719   0.699  23.551  1.00  0.00    -0.000 C 
BRANCH  25  26
ATOM     26  C   UNL     1     101.218   0.747  23.229  1.00  0.00    -0.000 C 
BRANCH  26  27
ATOM     27  C   UNL     1     100.538  -0.626  23.362  1.00  0.00    -0.000 C 
BRANCH  27  28
ATOM     28  C   UNL     1     101.477  -1.708  23.919  1.00  0.00    -0.000 C 
BRANCH  28  29
ATOM     29  C   UNL     1     100.754  -3.015  24.310  1.00  0.00    -0.003 C 
ATOM     30  C   UNL     1     100.399  -3.067  25.795  1.00  0.00     0.004 C 
ENDBRANCH  28  29
ENDBRANCH  27  28
ENDBRANCH  26  27
ENDBRANCH  25  26
ENDBRANCH  24  25
ENDBRANCH  23  24
ENDBRANCH  22  23
ENDBRANCH  21  22
ENDBRANCH  20  21
ENDBRANCH  19  20
ENDBRANCH  18  19
ENDBRANCH  17  18
ENDBRANCH   1  17
TORSDOF 26
ENDMDL
MODEL 8
REMARK VINA RESULT:    -4.486      2.947      8.666
REMARK INTER + INTRA:         -15.814
REMARK INTER:                 -11.883
REMARK INTRA:                  -3.931
REMARK UNBOUND:                -4.511
REMARK SMILES CCCCCCCCCCCCCCCCCCCCCCCCCCCC(=O)[O-]
REMARK SMILES IDX 15 1 16 2 17 3 18 4 19 5 20 6 21 7 22 8 23 9 24 10 25 11
REMARK SMILES IDX 26 12 27 13 28 14 29 15 30 16 14 17 13 18 12 19 11 20 10 21
REMARK SMILES IDX 9 22 8 23 7 24 6 25 5 26 4 27 3 28 2 29 1 30
REMARK H PARENT
REMARK Flexibility Score: inf
ROOT
ATOM      1  C   UNL     1     100.716   3.964  26.890  1.00  0.00     0.000 C 
ENDROOT
BRANCH   1   2
ATOM      2  C   UNL     1      99.438   4.069  26.045  1.00  0.00     0.000 C 
BRANCH   2   3
ATOM      3  C   UNL     1      99.713   4.524  24.603  1.00  0.00     0.000 C 
BRANCH   3   4
ATOM      4  C   UNL     1      98.828   3.796  23.577  1.00  0.00     0.000 C 
BRANCH   4   5
ATOM      5  C   UNL     1      97.726   2.956  24.243  1.00  0.00     0.000 C 
BRANCH   5   6
ATOM      6  C   UNL     1      96.328   3.570  24.054  1.00  0.00     0.000 C 
BRANCH   6   7
ATOM      7  C   UNL     1      95.822   4.311  25.304  1.00  0.00     0.000 C 
BRANCH   7   8
ATOM      8  C   UNL     1      95.509   5.804  25.096  1.00  0.00     0.000 C 
BRANCH   8   9
ATOM      9  C   UNL     1      96.769   6.658  24.883  1.00  0.00     0.000 C 
BRANCH   9  10
ATOM     10  C   UNL     1      96.535   7.722  23.805  1.00  0.00     0.000 C 
BRANCH  10  11
ATOM     11  C   UNL     1      95.877   7.108  22.559  1.00  0.00     0.000 C 
BRANCH  11  12
ATOM     12  C   UNL     1      96.881   6.350  21.670  1.00  0.00     0.006 C 
BRANCH  12  13
ATOM     13  C   UNL     1      97.645   7.245  20.680  1.00  0.00     0.053 C 
BRANCH  13  14
ATOM     14  C   UNL     1      97.129   7.104  19.281  1.00  0.00     0.041 C 
ATOM     15  O   UNL     1      97.912   6.797  18.345  1.00  0.00    -0.550 OA
ATOM     16  O   UNL     1      95.775   7.279  19.018  1.00  0.00    -0.550 OA
ENDBRANCH  13  14
ENDBRANCH  12  13
ENDBRANCH  11  12
ENDBRANCH  10  11
ENDBRANCH   9  10
ENDBRANCH   8   9
ENDBRANCH   7   8
ENDBRANCH   6   7
ENDBRANCH   5   6
ENDBRANCH   4   5
ENDBRANCH   3   4
ENDBRANCH   2   3
ENDBRANCH   1   2
BRANCH   1  17
ATOM     17  C   UNL     1     101.954   4.309  26.053  1.00  0.00     0.000 C 
BRANCH  17  18
ATOM     18  C   UNL     1     103.152   4.649  26.949  1.00  0.00     0.000 C 
BRANCH  18  19
ATOM     19  C   UNL     1     104.453   4.089  26.358  1.00  0.00     0.000 C 
BRANCH  19  20
ATOM     20  C   UNL     1     104.654   2.586  26.635  1.00  0.00     0.000 C 
BRANCH  20  21
ATOM     21  C   UNL     1     105.631   1.859  25.686  1.00  0.00     0.000 C 
BRANCH  21  22
ATOM     22  C   UNL     1     105.306   2.014  24.183  1.00  0.00    -0.000 C 
BRANCH  22  23
ATOM     23  C   UNL     1     104.995   0.684  23.470  1.00  0.00    -0.000 C 
BRANCH  23  24
ATOM     24  C   UNL     1     103.509   0.287  23.451  1.00  0.00    -0.000 C 
BRANCH  24  25
ATOM     25  C   UNL     1     102.566   1.484  23.661  1.00  0.00    -0.000 C 
BRANCH  25  26
ATOM     26  C   UNL     1     101.319   1.114  24.477  1.00  0.00    -0.000 C 
BRANCH  26  27
ATOM     27  C   UNL     1     100.613  -0.144  23.945  1.00  0.00    -0.000 C 
BRANCH  27  28
ATOM     28  C   UNL     1     100.206  -1.120  25.060  1.00  0.00    -0.000 C 
BRANCH  28  29
ATOM     29  C   UNL     1     100.599  -2.586  24.777  1.00  0.00    -0.003 C 
ATOM     30  C   UNL     1     100.575  -3.452  26.036  1.00  0.00     0.004 C 
ENDBRANCH  28  29
ENDBRANCH  27  28
ENDBRANCH  26  27
ENDBRANCH  25  26
ENDBRANCH  24  25
ENDBRANCH  23  24
ENDBRANCH  22  23
ENDBRANCH  21  22
ENDBRANCH  20  21
ENDBRANCH  19  20
ENDBRANCH  18  19
ENDBRANCH  17  18
ENDBRANCH   1  17
TORSDOF 26
ENDMDL
MODEL 9
REMARK VINA RESULT:    -4.445      2.803      7.822
REMARK INTER + INTRA:         -15.712
REMARK INTER:                 -11.291
REMARK INTRA:                  -4.422
REMARK UNBOUND:                -4.511
REMARK SMILES CCCCCCCCCCCCCCCCCCCCCCCCCCCC(=O)[O-]
REMARK SMILES IDX 15 1 16 2 17 3 18 4 19 5 20 6 21 7 22 8 23 9 24 10 25 11
REMARK SMILES IDX 26 12 27 13 28 14 29 15 30 16 14 17 13 18 12 19 11 20 10 21
REMARK SMILES IDX 9 22 8 23 7 24 6 25 5 26 4 27 3 28 2 29 1 30
REMARK H PARENT
REMARK Flexibility Score: inf
ROOT
ATOM      1  C   UNL     1      99.447   3.580  23.714  1.00  0.00     0.000 C 
ENDROOT
BRANCH   1   2
ATOM      2  C   UNL     1      98.626   4.846  23.430  1.00  0.00     0.000 C 
BRANCH   2   3
ATOM      3  C   UNL     1      97.115   4.628  23.604  1.00  0.00     0.000 C 
BRANCH   3   4
ATOM      4  C   UNL     1      96.487   5.619  24.599  1.00  0.00     0.000 C 
BRANCH   4   5
ATOM      5  C   UNL     1      97.419   6.801  24.916  1.00  0.00     0.000 C 
BRANCH   5   6
ATOM      6  C   UNL     1      96.967   8.102  24.229  1.00  0.00     0.000 C 
BRANCH   6   7
ATOM      7  C   UNL     1      95.445   8.172  24.015  1.00  0.00     0.000 C 
BRANCH   7   8
ATOM      8  C   UNL     1      95.002   8.516  22.581  1.00  0.00     0.000 C 
BRANCH   8   9
ATOM      9  C   UNL     1      94.719   7.272  21.725  1.00  0.00     0.000 C 
BRANCH   9  10
ATOM     10  C   UNL     1      95.549   7.291  20.436  1.00  0.00     0.000 C 
BRANCH  10  11
ATOM     11  C   UNL     1      96.991   6.832  20.705  1.00  0.00     0.000 C 
BRANCH  11  12
ATOM     12  C   UNL     1      98.002   7.994  20.666  1.00  0.00     0.006 C 
BRANCH  12  13
ATOM     13  C   UNL     1      98.398   8.436  19.247  1.00  0.00     0.053 C 
BRANCH  13  14
ATOM     14  C   UNL     1      98.784   7.274  18.384  1.00  0.00     0.041 C 
ATOM     15  O   UNL     1      98.162   7.046  17.314  1.00  0.00    -0.550 OA
ATOM     16  O   UNL     1      99.855   6.465  18.745  1.00  0.00    -0.550 OA
ENDBRANCH  13  14
ENDBRANCH  12  13
ENDBRANCH  11  12
ENDBRANCH  10  11
ENDBRANCH   9  10
ENDBRANCH   8   9
ENDBRANCH   7   8
ENDBRANCH   6   7
ENDBRANCH   5   6
ENDBRANCH   4   5
ENDBRANCH   3   4
ENDBRANCH   2   3
ENDBRANCH   1   2
BRANCH   1  17
ATOM     17  C   UNL     1      98.528   2.387  24.007  1.00  0.00     0.000 C 
BRANCH  17  18
ATOM     18  C   UNL     1      98.771   1.831  25.415  1.00  0.00     0.000 C 
BRANCH  18  19
ATOM     19  C   UNL     1      99.335   2.917  26.343  1.00  0.00     0.000 C 
BRANCH  19  20
ATOM     20  C   UNL     1      98.262   3.589  27.222  1.00  0.00     0.000 C 
BRANCH  20  21
ATOM     21  C   UNL     1      98.723   4.844  27.992  1.00  0.00     0.000 C 
BRANCH  21  22
ATOM     22  C   UNL     1      99.817   5.672  27.282  1.00  0.00    -0.000 C 
BRANCH  22  23
ATOM     23  C   UNL     1     101.190   5.626  27.980  1.00  0.00    -0.000 C 
BRANCH  23  24
ATOM     24  C   UNL     1     102.387   5.373  27.049  1.00  0.00    -0.000 C 
BRANCH  24  25
ATOM     25  C   UNL     1     102.801   3.892  26.994  1.00  0.00    -0.000 C 
BRANCH  25  26
ATOM     26  C   UNL     1     103.848   3.614  25.906  1.00  0.00    -0.000 C 
BRANCH  26  27
ATOM     27  C   UNL     1     104.181   2.119  25.771  1.00  0.00    -0.000 C 
BRANCH  27  28
ATOM     28  C   UNL     1     103.739   1.525  24.424  1.00  0.00    -0.000 C 
BRANCH  28  29
ATOM     29  C   UNL     1     102.245   1.140  24.375  1.00  0.00    -0.003 C 
ATOM     30  C   UNL     1     101.999  -0.159  23.609  1.00  0.00     0.004 C 
ENDBRANCH  28  29
ENDBRANCH  27  28
ENDBRANCH  26  27
ENDBRANCH  25  26
ENDBRANCH  24  25
ENDBRANCH  23  24
ENDBRANCH  22  23
ENDBRANCH  21  22
ENDBRANCH  20  21
ENDBRANCH  19  20
ENDBRANCH  18  19
ENDBRANCH  17  18
ENDBRANCH   1  17
TORSDOF 26
ENDMDL
