MODEL 1
REMARK VINA RESULT:    -2.882      0.000      0.000
REMARK INTER + INTRA:          -2.951
REMARK INTER:                  -3.892
REMARK INTRA:                   0.941
REMARK UNBOUND:                 0.941
REMARK SMILES C=C1C(=O)O[C@@H]2[C@@H]1CCC(C)=CCC[C@]1(C)O[C@H]21
REMARK SMILES IDX 6 1 7 2 2 3 1 4 3 5 4 6 5 7 8 8 9 9 10 10 11 11 12 12 18 14
REMARK SMILES IDX 15 15 17 16 16 17 14 18 13 19
REMARK H PARENT
REMARK Flexibility Score: 70.00
ROOT
ATOM      1  C   UNL     1      71.556   2.206   0.025  1.00  0.00     0.216 C 
ATOM      2  C   UNL     1      72.291   0.847   0.213  1.00  0.00     0.070 C 
ATOM      3  C   UNL     1      72.129   0.601   1.688  1.00  0.00     0.037 C 
ATOM      4  C   UNL     1      72.468  -0.495   2.369  1.00  0.00     0.021 C 
ATOM      5  C   UNL     1      71.805   1.883   2.279  1.00  0.00     0.334 C 
ATOM      6  O   UNL     1      71.748   2.130   3.513  1.00  0.00    -0.247 OA
ATOM      7  O   UNL     1      71.611   2.836   1.300  1.00  0.00    -0.455 OA
ENDROOT
BRANCH   2   8
ATOM      8  C   UNL     1      71.889  -0.316  -0.742  1.00  0.00     0.017 C 
BRANCH   8   9
ATOM      9  C   UNL     1      70.617  -0.151  -1.613  1.00  0.00     0.031 C 
BRANCH   9  10
ATOM     10  C   UNL     1      70.863  -0.577  -3.060  1.00  0.00    -0.077 C 
ATOM     11  C   UNL     1      71.403  -1.966  -3.296  1.00  0.00     0.039 C 
ATOM     12  C   UNL     1      70.678   0.210  -4.151  1.00  0.00    -0.028 CG0
ATOM     13  G   UNL     1      70.110   1.605  -4.158  1.00  0.00     0.000 G0
ENDBRANCH   9  10
ENDBRANCH   8   9
ENDBRANCH   2   8
BRANCH   1  14
ATOM     14  C   UNL     1      72.179   3.076  -1.067  1.00  0.00     0.192 C 
ATOM     15  C   UNL     1      71.626   3.098  -2.460  1.00  0.00     0.096 C 
ATOM     16  O   UNL     1      72.688   2.252  -2.099  1.00  0.00    -0.362 OA
ATOM     17  C   UNL     1      72.090   4.260  -3.339  1.00  0.00     0.045 C 
BRANCH  15  18
ATOM     18  C   UNL     1      70.279   2.406  -2.834  1.00  0.00     0.042 C 
BRANCH  18  19
ATOM     19  C   UNL     1      70.116   1.614  -4.160  1.00  0.00     0.030 CG0
ATOM     20  G   UNL     1      70.665   0.212  -4.142  1.00  0.00     0.000 G0
ENDBRANCH  18  19
ENDBRANCH  15  18
ENDBRANCH   1  14
TORSDOF 0
ENDMDL
MODEL 2
REMARK VINA RESULT:    -2.542      2.618      5.131
REMARK INTER + INTRA:          -2.493
REMARK INTER:                  -3.201
REMARK INTRA:                   0.708
REMARK UNBOUND:                 0.941
REMARK SMILES C=C1C(=O)O[C@@H]2[C@@H]1CCC(C)=CCC[C@]1(C)O[C@H]21
REMARK SMILES IDX 6 1 7 2 2 3 1 4 3 5 4 6 5 7 8 8 9 9 10 10 11 11 12 12 18 14
REMARK SMILES IDX 15 15 17 16 16 17 14 18 13 19
REMARK H PARENT
REMARK Flexibility Score: 70.00
ROOT
ATOM      1  C   UNL     1      71.751   0.581  -2.185  1.00  0.00     0.216 C 
ATOM      2  C   UNL     1      71.045   1.491  -3.231  1.00  0.00     0.070 C 
ATOM      3  C   UNL     1      70.122   0.524  -3.921  1.00  0.00     0.037 C 
ATOM      4  C   UNL     1      69.186   0.804  -4.829  1.00  0.00     0.021 C 
ATOM      5  C   UNL     1      70.633  -0.800  -3.630  1.00  0.00     0.334 C 
ATOM      6  O   UNL     1      70.233  -1.873  -4.154  1.00  0.00    -0.247 OA
ATOM      7  O   UNL     1      71.672  -0.734  -2.723  1.00  0.00    -0.455 OA
ENDROOT
BRANCH   2   8
ATOM      8  C   UNL     1      70.414   2.816  -2.709  1.00  0.00     0.017 C 
BRANCH   8   9
ATOM      9  C   UNL     1      70.509   3.133  -1.195  1.00  0.00     0.031 C 
BRANCH   9  10
ATOM     10  C   UNL     1      69.834   2.055  -0.347  1.00  0.00    -0.077 C 
ATOM     11  C   UNL     1      68.439   1.633  -0.737  1.00  0.00     0.039 C 
ATOM     12  C   UNL     1      70.370   1.477   0.758  1.00  0.00    -0.028 CG0
ATOM     13  G   UNL     1      71.755   1.709   1.303  1.00  0.00     0.000 G0
ENDBRANCH   9  10
ENDBRANCH   8   9
ENDBRANCH   2   8
BRANCH   1  14
ATOM     14  C   UNL     1      73.197   0.996  -1.910  1.00  0.00     0.192 C 
ATOM     15  C   UNL     1      73.703   1.188  -0.513  1.00  0.00     0.096 C 
ATOM     16  O   UNL     1      73.217   2.261  -1.276  1.00  0.00    -0.362 OA
ATOM     17  C   UNL     1      75.225   1.235  -0.359  1.00  0.00     0.045 C 
BRANCH  15  18
ATOM     18  C   UNL     1      72.866   0.787   0.741  1.00  0.00     0.042 C 
BRANCH  18  19
ATOM     19  C   UNL     1      71.761   1.719   1.309  1.00  0.00     0.030 CG0
ATOM     20  G   UNL     1      70.378   1.482   0.763  1.00  0.00     0.000 G0
ENDBRANCH  18  19
ENDBRANCH  15  18
ENDBRANCH   1  14
TORSDOF 0
ENDMDL
MODEL 3
REMARK VINA RESULT:    -2.046      2.077      2.794
REMARK INTER + INTRA:          -1.822
REMARK INTER:                  -2.812
REMARK INTRA:                   0.990
REMARK UNBOUND:                 0.941
REMARK SMILES C=C1C(=O)O[C@@H]2[C@@H]1CCC(C)=CCC[C@]1(C)O[C@H]21
REMARK SMILES IDX 6 1 7 2 2 3 1 4 3 5 4 6 5 7 8 8 9 9 10 10 11 11 12 12 18 14
REMARK SMILES IDX 15 15 17 16 16 17 14 18 13 19
REMARK H PARENT
REMARK Flexibility Score: 70.00
ROOT
ATOM      1  C   UNL     1      71.781   1.431   1.344  1.00  0.00     0.216 C 
ATOM      2  C   UNL     1      70.980   0.188   0.860  1.00  0.00     0.070 C 
ATOM      3  C   UNL     1      69.847   0.137   1.848  1.00  0.00     0.037 C 
ATOM      4  C   UNL     1      68.785  -0.670   1.823  1.00  0.00     0.021 C 
ATOM      5  C   UNL     1      70.268   0.926   2.988  1.00  0.00     0.334 C 
ATOM      6  O   UNL     1      69.667   1.000   4.092  1.00  0.00    -0.247 OA
ATOM      7  O   UNL     1      71.465   1.561   2.725  1.00  0.00    -0.455 OA
ENDROOT
BRANCH   2   8
ATOM      8  C   UNL     1      70.600   0.131  -0.649  1.00  0.00     0.017 C 
BRANCH   8   9
ATOM      9  C   UNL     1      70.341   1.464  -1.397  1.00  0.00     0.031 C 
BRANCH   9  10
ATOM     10  C   UNL     1      70.590   1.327  -2.899  1.00  0.00    -0.077 C 
ATOM     11  C   UNL     1      69.389   1.116  -3.788  1.00  0.00     0.039 C 
ATOM     12  C   UNL     1      71.809   1.334  -3.496  1.00  0.00    -0.028 CG0
ATOM     13  G   UNL     1      73.132   1.572  -2.818  1.00  0.00     0.000 G0
ENDBRANCH   9  10
ENDBRANCH   8   9
ENDBRANCH   2   8
BRANCH   1  14
ATOM     14  C   UNL     1      73.287   1.298   1.115  1.00  0.00     0.192 C 
ATOM     15  C   UNL     1      73.900   1.561  -0.227  1.00  0.00     0.096 C 
ATOM     16  O   UNL     1      73.536   0.267   0.178  1.00  0.00    -0.362 OA
ATOM     17  C   UNL     1      75.417   1.756  -0.236  1.00  0.00     0.045 C 
BRANCH  15  18
ATOM     18  C   UNL     1      73.089   2.177  -1.409  1.00  0.00     0.042 C 
BRANCH  18  19
ATOM     19  C   UNL     1      73.146   1.565  -2.836  1.00  0.00     0.030 CG0
ATOM     20  G   UNL     1      71.811   1.355  -3.499  1.00  0.00     0.000 G0
ENDBRANCH  18  19
ENDBRANCH  15  18
ENDBRANCH   1  14
TORSDOF 0
ENDMDL
MODEL 4
REMARK VINA RESULT:    -1.945      2.513      4.855
REMARK INTER + INTRA:          -1.686
REMARK INTER:                  -3.629
REMARK INTRA:                   1.943
REMARK UNBOUND:                 0.941
REMARK SMILES C=C1C(=O)O[C@@H]2[C@@H]1CCC(C)=CCC[C@]1(C)O[C@H]21
REMARK SMILES IDX 6 1 7 2 2 3 1 4 3 5 4 6 5 7 8 8 9 9 10 10 11 11 12 12 18 14
REMARK SMILES IDX 15 15 17 16 16 17 14 18 13 19
REMARK H PARENT
REMARK Flexibility Score: 70.00
ROOT
ATOM      1  C   UNL     1      70.096   0.837  -3.445  1.00  0.00     0.216 C 
ATOM      2  C   UNL     1      70.816  -0.273  -2.626  1.00  0.00     0.070 C 
ATOM      3  C   UNL     1      70.651  -1.478  -3.509  1.00  0.00     0.037 C 
ATOM      4  C   UNL     1      71.192  -2.686  -3.344  1.00  0.00     0.021 C 
ATOM      5  C   UNL     1      69.564  -1.168  -4.416  1.00  0.00     0.334 C 
ATOM      6  O   UNL     1      69.014  -1.979  -5.207  1.00  0.00    -0.247 OA
ATOM      7  O   UNL     1      69.163   0.144  -4.266  1.00  0.00    -0.455 OA
ENDROOT
BRANCH   2   8
ATOM      8  C   UNL     1      72.258   0.039  -2.123  1.00  0.00     0.017 C 
BRANCH   8   9
ATOM      9  C   UNL     1      72.581  -0.180  -0.623  1.00  0.00     0.031 C 
BRANCH   9  10
ATOM     10  C   UNL     1      72.770   1.145   0.114  1.00  0.00    -0.077 C 
ATOM     11  C   UNL     1      72.833   1.102   1.622  1.00  0.00     0.039 C 
ATOM     12  C   UNL     1      72.840   2.366  -0.474  1.00  0.00    -0.028 CG0
ATOM     13  G   UNL     1      72.844   2.644  -1.954  1.00  0.00     0.000 G0
ENDBRANCH   9  10
ENDBRANCH   8   9
ENDBRANCH   2   8
BRANCH   1  14
ATOM     14  C   UNL     1      69.410   1.882  -2.563  1.00  0.00     0.192 C 
ATOM     15  C   UNL     1      70.158   3.068  -2.033  1.00  0.00     0.096 C 
ATOM     16  O   UNL     1      70.012   1.890  -1.282  1.00  0.00    -0.362 OA
ATOM     17  C   UNL     1      69.293   4.207  -1.489  1.00  0.00     0.045 C 
BRANCH  15  18
ATOM     18  C   UNL     1      71.603   3.422  -2.501  1.00  0.00     0.042 C 
BRANCH  18  19
ATOM     19  C   UNL     1      72.841   2.657  -1.959  1.00  0.00     0.030 CG0
ATOM     20  G   UNL     1      72.825   2.377  -0.479  1.00  0.00     0.000 G0
ENDBRANCH  18  19
ENDBRANCH  15  18
ENDBRANCH   1  14
TORSDOF 0
ENDMDL
MODEL 5
REMARK VINA RESULT:    -1.893     12.989     14.393
REMARK INTER + INTRA:          -1.616
REMARK INTER:                  -3.122
REMARK INTRA:                   1.506
REMARK UNBOUND:                 0.941
REMARK SMILES C=C1C(=O)O[C@@H]2[C@@H]1CCC(C)=CCC[C@]1(C)O[C@H]21
REMARK SMILES IDX 6 1 7 2 2 3 1 4 3 5 4 6 5 7 8 8 9 9 10 10 11 11 12 12 18 14
REMARK SMILES IDX 15 15 17 16 16 17 14 18 13 19
REMARK H PARENT
REMARK Flexibility Score: 70.00
ROOT
ATOM      1  C   UNL     1      85.995   1.617  -1.122  1.00  0.00     0.216 C 
ATOM      2  C   UNL     1      85.986   3.118  -1.533  1.00  0.00     0.070 C 
ATOM      3  C   UNL     1      86.159   3.039  -3.024  1.00  0.00     0.037 C 
ATOM      4  C   UNL     1      86.096   4.042  -3.903  1.00  0.00     0.021 C 
ATOM      5  C   UNL     1      86.693   1.721  -3.301  1.00  0.00     0.334 C 
ATOM      6  O   UNL     1      87.125   1.322  -4.415  1.00  0.00    -0.247 OA
ATOM      7  O   UNL     1      86.719   0.955  -2.153  1.00  0.00    -0.455 OA
ENDROOT
BRANCH   2   8
ATOM      8  C   UNL     1      84.808   3.991  -1.007  1.00  0.00     0.017 C 
BRANCH   8   9
ATOM      9  C   UNL     1      83.433   3.881  -1.714  1.00  0.00     0.031 C 
BRANCH   9  10
ATOM     10  C   UNL     1      82.333   3.440  -0.749  1.00  0.00    -0.077 C 
ATOM     11  C   UNL     1      81.112   4.320  -0.633  1.00  0.00     0.039 C 
ATOM     12  C   UNL     1      82.385   2.344   0.050  1.00  0.00    -0.028 CG0
ATOM     13  G   UNL     1      83.477   1.307   0.071  1.00  0.00     0.000 G0
ENDBRANCH   9  10
ENDBRANCH   8   9
ENDBRANCH   2   8
BRANCH   1  14
ATOM     14  C   UNL     1      86.619   1.378   0.254  1.00  0.00     0.192 C 
ATOM     15  C   UNL     1      85.773   1.256   1.485  1.00  0.00     0.096 C 
ATOM     16  O   UNL     1      86.344   2.479   1.099  1.00  0.00    -0.362 OA
ATOM     17  C   UNL     1      86.467   0.658   2.710  1.00  0.00     0.045 C 
BRANCH  15  18
ATOM     18  C   UNL     1      84.217   1.161   1.422  1.00  0.00     0.042 C 
BRANCH  18  19
ATOM     19  C   UNL     1      83.450   1.297   0.079  1.00  0.00     0.030 CG0
ATOM     20  G   UNL     1      82.379   2.356   0.055  1.00  0.00     0.000 G0
ENDBRANCH  18  19
ENDBRANCH  15  18
ENDBRANCH   1  14
TORSDOF 0
ENDMDL
MODEL 6
REMARK VINA RESULT:    -1.876     10.943     11.885
REMARK INTER + INTRA:          -1.593
REMARK INTER:                  -2.943
REMARK INTRA:                   1.350
REMARK UNBOUND:                 0.941
REMARK SMILES C=C1C(=O)O[C@@H]2[C@@H]1CCC(C)=CCC[C@]1(C)O[C@H]21
REMARK SMILES IDX 6 1 7 2 2 3 1 4 3 5 4 6 5 7 8 8 9 9 10 10 11 11 12 12 18 14
REMARK SMILES IDX 15 15 17 16 16 17 14 18 13 19
REMARK H PARENT
REMARK Flexibility Score: 70.00
ROOT
ATOM      1  C   UNL     1      80.783   1.832  -0.738  1.00  0.00     0.216 C 
ATOM      2  C   UNL     1      81.630   0.963   0.238  1.00  0.00     0.070 C 
ATOM      3  C   UNL     1      80.813  -0.296   0.332  1.00  0.00     0.037 C 
ATOM      4  C   UNL     1      81.143  -1.433   0.946  1.00  0.00     0.021 C 
ATOM      5  C   UNL     1      79.481   0.051  -0.121  1.00  0.00     0.334 C 
ATOM      6  O   UNL     1      78.464  -0.687  -0.044  1.00  0.00    -0.247 OA
ATOM      7  O   UNL     1      79.454   1.341  -0.612  1.00  0.00    -0.455 OA
ENDROOT
BRANCH   2   8
ATOM      8  C   UNL     1      83.143   0.798  -0.089  1.00  0.00     0.017 C 
BRANCH   8   9
ATOM      9  C   UNL     1      84.164   1.696   0.656  1.00  0.00     0.031 C 
BRANCH   9  10
ATOM     10  C   UNL     1      85.449   1.882  -0.150  1.00  0.00    -0.077 C 
ATOM     11  C   UNL     1      86.557   0.879   0.062  1.00  0.00     0.039 C 
ATOM     12  C   UNL     1      85.694   2.903  -1.010  1.00  0.00    -0.028 CG0
ATOM     13  G   UNL     1      84.726   3.985  -1.408  1.00  0.00     0.000 G0
ENDBRANCH   9  10
ENDBRANCH   8   9
ENDBRANCH   2   8
BRANCH   1  14
ATOM     14  C   UNL     1      80.868   3.328  -0.433  1.00  0.00     0.192 C 
ATOM     15  C   UNL     1      82.091   4.126  -0.772  1.00  0.00     0.096 C 
ATOM     16  O   UNL     1      81.904   3.565   0.502  1.00  0.00    -0.362 OA
ATOM     17  C   UNL     1      81.914   5.645  -0.762  1.00  0.00     0.045 C 
BRANCH  15  18
ATOM     18  C   UNL     1      83.259   3.543  -1.626  1.00  0.00     0.042 C 
BRANCH  18  19
ATOM     19  C   UNL     1      84.728   3.997  -1.408  1.00  0.00     0.030 CG0
ATOM     20  G   UNL     1      85.688   2.903  -1.023  1.00  0.00     0.000 G0
ENDBRANCH  18  19
ENDBRANCH  15  18
ENDBRANCH   1  14
TORSDOF 0
ENDMDL
MODEL 7
REMARK VINA RESULT:    -1.606      9.380     10.168
REMARK INTER + INTRA:          -1.228
REMARK INTER:                  -2.593
REMARK INTRA:                   1.365
REMARK UNBOUND:                 0.941
REMARK SMILES C=C1C(=O)O[C@@H]2[C@@H]1CCC(C)=CCC[C@]1(C)O[C@H]21
REMARK SMILES IDX 6 1 7 2 2 3 1 4 3 5 4 6 5 7 8 8 9 9 10 10 11 11 12 12 18 14
REMARK SMILES IDX 15 15 17 16 16 17 14 18 13 19
REMARK H PARENT
REMARK Flexibility Score: 70.00
ROOT
ATOM      1  C   UNL     1      82.740   1.432   0.976  1.00  0.00     0.216 C 
ATOM      2  C   UNL     1      82.115   0.120   0.420  1.00  0.00     0.070 C 
ATOM      3  C   UNL     1      82.942  -0.937   1.099  1.00  0.00     0.037 C 
ATOM      4  C   UNL     1      82.751  -2.257   1.074  1.00  0.00     0.021 C 
ATOM      5  C   UNL     1      84.152  -0.278   1.547  1.00  0.00     0.334 C 
ATOM      6  O   UNL     1      85.169  -0.852   2.020  1.00  0.00    -0.247 OA
ATOM      7  O   UNL     1      84.071   1.084   1.339  1.00  0.00    -0.455 OA
ENDROOT
BRANCH   2   8
ATOM      8  C   UNL     1      80.567  -0.027   0.519  1.00  0.00     0.017 C 
BRANCH   8   9
ATOM      9  C   UNL     1      79.708   0.365  -0.711  1.00  0.00     0.031 C 
BRANCH   9  10
ATOM     10  C   UNL     1      78.294   0.779  -0.304  1.00  0.00    -0.077 C 
ATOM     11  C   UNL     1      77.257  -0.309  -0.176  1.00  0.00     0.039 C 
ATOM     12  C   UNL     1      77.883   2.055  -0.092  1.00  0.00    -0.028 CG0
ATOM     13  G   UNL     1      78.747   3.288  -0.120  1.00  0.00     0.000 G0
ENDBRANCH   9  10
ENDBRANCH   8   9
ENDBRANCH   2   8
BRANCH   1  14
ATOM     14  C   UNL     1      82.709   2.582  -0.032  1.00  0.00     0.192 C 
ATOM     15  C   UNL     1      81.445   3.335  -0.319  1.00  0.00     0.096 C 
ATOM     16  O   UNL     1      81.853   2.248  -1.109  1.00  0.00    -0.362 OA
ATOM     17  C   UNL     1      81.619   4.670  -1.045  1.00  0.00     0.045 C 
BRANCH  15  18
ATOM     18  C   UNL     1      80.146   3.138   0.522  1.00  0.00     0.042 C 
BRANCH  18  19
ATOM     19  C   UNL     1      78.738   3.301  -0.112  1.00  0.00     0.030 CG0
ATOM     20  G   UNL     1      77.874   2.068  -0.085  1.00  0.00     0.000 G0
ENDBRANCH  18  19
ENDBRANCH  15  18
ENDBRANCH   1  14
TORSDOF 0
ENDMDL
MODEL 8
REMARK VINA RESULT:    -1.511      8.895     10.280
REMARK INTER + INTRA:          -1.100
REMARK INTER:                  -2.595
REMARK INTRA:                   1.495
REMARK UNBOUND:                 0.941
REMARK SMILES C=C1C(=O)O[C@@H]2[C@@H]1CCC(C)=CCC[C@]1(C)O[C@H]21
REMARK SMILES IDX 6 1 7 2 2 3 1 4 3 5 4 6 5 7 8 8 9 9 10 10 11 11 12 12 18 14
REMARK SMILES IDX 15 15 17 16 16 17 14 18 13 19
REMARK H PARENT
REMARK Flexibility Score: 70.00
ROOT
ATOM      1  C   UNL     1      82.319   2.002  -0.795  1.00  0.00     0.216 C 
ATOM      2  C   UNL     1      81.512   3.204  -0.224  1.00  0.00     0.070 C 
ATOM      3  C   UNL     1      82.246   4.382  -0.802  1.00  0.00     0.037 C 
ATOM      4  C   UNL     1      81.899   5.668  -0.732  1.00  0.00     0.021 C 
ATOM      5  C   UNL     1      83.550   3.891  -1.201  1.00  0.00     0.334 C 
ATOM      6  O   UNL     1      84.517   4.601  -1.583  1.00  0.00    -0.247 OA
ATOM      7  O   UNL     1      83.618   2.520  -1.058  1.00  0.00    -0.455 OA
ENDROOT
BRANCH   2   8
ATOM      8  C   UNL     1      79.966   3.176  -0.414  1.00  0.00     0.017 C 
BRANCH   8   9
ATOM      9  C   UNL     1      79.108   2.405   0.622  1.00  0.00     0.031 C 
BRANCH   9  10
ATOM     10  C   UNL     1      77.816   1.874   0.003  1.00  0.00    -0.077 C 
ATOM     11  C   UNL     1      76.675   2.847  -0.172  1.00  0.00     0.039 C 
ATOM     12  C   UNL     1      77.593   0.585  -0.361  1.00  0.00    -0.028 CG0
ATOM     13  G   UNL     1      78.593  -0.539  -0.318  1.00  0.00     0.000 G0
ENDBRANCH   9  10
ENDBRANCH   8   9
ENDBRANCH   2   8
BRANCH   1  14
ATOM     14  C   UNL     1      82.366   0.806   0.157  1.00  0.00     0.192 C 
ATOM     15  C   UNL     1      81.232  -0.170   0.242  1.00  0.00     0.096 C 
ATOM     16  O   UNL     1      81.333   0.923   1.118  1.00  0.00    -0.362 OA
ATOM     17  C   UNL     1      81.548  -1.495   0.937  1.00  0.00     0.045 C 
BRANCH  15  18
ATOM     18  C   UNL     1      80.037  -0.151  -0.762  1.00  0.00     0.042 C 
BRANCH  18  19
ATOM     19  C   UNL     1      78.601  -0.543  -0.319  1.00  0.00     0.030 CG0
ATOM     20  G   UNL     1      77.593   0.575  -0.348  1.00  0.00     0.000 G0
ENDBRANCH  18  19
ENDBRANCH  15  18
ENDBRANCH   1  14
TORSDOF 0
ENDMDL
MODEL 9
REMARK VINA RESULT:    -1.375      3.260      6.391
REMARK INTER + INTRA:          -0.916
REMARK INTER:                  -2.304
REMARK INTRA:                   1.388
REMARK UNBOUND:                 0.941
REMARK SMILES C=C1C(=O)O[C@@H]2[C@@H]1CCC(C)=CCC[C@]1(C)O[C@H]21
REMARK SMILES IDX 6 1 7 2 2 3 1 4 3 5 4 6 5 7 8 8 9 9 10 10 11 11 12 12 18 14
REMARK SMILES IDX 15 15 17 16 16 17 14 18 13 19
REMARK H PARENT
REMARK Flexibility Score: 70.00
ROOT
ATOM      1  C   UNL     1      70.772   0.659  -0.183  1.00  0.00     0.216 C 
ATOM      2  C   UNL     1      71.541   1.998  -0.379  1.00  0.00     0.070 C 
ATOM      3  C   UNL     1      71.243   2.329  -1.815  1.00  0.00     0.037 C 
ATOM      4  C   UNL     1      71.557   3.446  -2.473  1.00  0.00     0.021 C 
ATOM      5  C   UNL     1      70.807   1.092  -2.433  1.00  0.00     0.334 C 
ATOM      6  O   UNL     1      70.616   0.914  -3.664  1.00  0.00    -0.247 OA
ATOM      7  O   UNL     1      70.673   0.096  -1.486  1.00  0.00    -0.455 OA
ENDROOT
BRANCH   2   8
ATOM      8  C   UNL     1      71.286   3.122   0.669  1.00  0.00     0.017 C 
BRANCH   8   9
ATOM      9  C   UNL     1      72.157   3.148   1.952  1.00  0.00     0.031 C 
BRANCH   9  10
ATOM     10  C   UNL     1      71.416   3.789   3.126  1.00  0.00    -0.077 C 
ATOM     11  C   UNL     1      71.417   5.295   3.213  1.00  0.00     0.039 C 
ATOM     12  C   UNL     1      70.795   3.111   4.124  1.00  0.00    -0.028 CG0
ATOM     13  G   UNL     1      70.630   1.617   4.220  1.00  0.00     0.000 G0
ENDBRANCH   9  10
ENDBRANCH   8   9
ENDBRANCH   2   8
BRANCH   1  14
ATOM     14  C   UNL     1      71.466  -0.291   0.795  1.00  0.00     0.192 C 
ATOM     15  C   UNL     1      71.322  -0.126   2.277  1.00  0.00     0.096 C 
ATOM     16  O   UNL     1      72.403   0.429   1.573  1.00  0.00    -0.362 OA
ATOM     17  C   UNL     1      71.744  -1.330   3.122  1.00  0.00     0.045 C 
BRANCH  15  18
ATOM     18  C   UNL     1      70.312   0.879   2.912  1.00  0.00     0.042 C 
BRANCH  18  19
ATOM     19  C   UNL     1      70.631   1.617   4.241  1.00  0.00     0.030 CG0
ATOM     20  G   UNL     1      70.779   3.111   4.126  1.00  0.00     0.000 G0
ENDBRANCH  18  19
ENDBRANCH  15  18
ENDBRANCH   1  14
TORSDOF 0
ENDMDL
