MODEL 1
REMARK VINA RESULT:    -3.539      0.000      0.000
REMARK INTER + INTRA:          -3.925
REMARK INTER:                  -4.367
REMARK INTRA:                   0.442
REMARK UNBOUND:                 0.442
REMARK SMILES O=c1c(O)c(-c2cc(O)c(O)c(O)c2)oc2cc(O)cc(O)c12
REMARK SMILES IDX 5 1 3 2 2 3 1 4 23 5 21 6 20 7 18 8 17 9 16 10 15 11 6 12
REMARK SMILES IDX 7 13 8 14 14 15 10 16 12 17 9 18 11 20 13 22 4 24 22 26
REMARK SMILES IDX 19 28
REMARK H PARENT 9 19 11 21 13 23 4 25 22 27 19 29
REMARK Flexibility Score: inf
ROOT
ATOM      1  C   UNL     1       3.746   5.744  21.854  1.00  0.00     0.180 A 
ATOM      2  C   UNL     1       2.946   5.306  22.923  1.00  0.00     0.208 A 
ATOM      3  C   UNL     1       3.468   5.344  24.225  1.00  0.00     0.238 A 
ATOM      4  O   UNL     1       2.727   5.003  25.184  1.00  0.00    -0.285 OA
ATOM      5  C   UNL     1       4.790   5.803  24.441  1.00  0.00     0.111 A 
ATOM      6  C   UNL     1       5.435   5.846  25.713  1.00  0.00     0.134 A 
ATOM      7  C   UNL     1       6.697   6.440  25.828  1.00  0.00     0.093 A 
ATOM      8  C   UNL     1       7.366   6.934  24.704  1.00  0.00     0.123 A 
ATOM      9  C   UNL     1       6.768   6.842  23.450  1.00  0.00     0.094 A 
ATOM     10  C   UNL     1       5.495   6.288  23.309  1.00  0.00     0.146 A 
ATOM     11  O   UNL     1       4.958   6.230  22.096  1.00  0.00    -0.452 OA
ENDROOT
BRANCH   1  12
ATOM     12  C   UNL     1       3.274   5.711  20.451  1.00  0.00     0.029 A 
ATOM     13  C   UNL     1       1.965   5.313  20.129  1.00  0.00     0.062 A 
ATOM     14  C   UNL     1       1.542   5.265  18.793  1.00  0.00     0.162 A 
ATOM     15  C   UNL     1       4.166   6.026  19.415  1.00  0.00     0.062 A 
ATOM     16  C   UNL     1       2.437   5.605  17.763  1.00  0.00     0.200 A 
ATOM     17  C   UNL     1       3.749   5.982  18.077  1.00  0.00     0.162 A 
BRANCH  14  18
ATOM     18  O   UNL     1       0.240   4.876  18.485  1.00  0.00    -0.504 OA
ATOM     19  H   UNL     1      -0.014   4.559  17.557  1.00  0.00     0.293 HD
ENDBRANCH  14  18
BRANCH  16  20
ATOM     20  O   UNL     1       2.039   5.570  16.427  1.00  0.00    -0.502 OA
ATOM     21  H   UNL     1       1.274   6.135  16.077  1.00  0.00     0.293 HD
ENDBRANCH  16  20
BRANCH  17  22
ATOM     22  O   UNL     1       4.635   6.312  17.052  1.00  0.00    -0.504 OA
ATOM     23  H   UNL     1       4.467   7.100  16.438  1.00  0.00     0.293 HD
ENDBRANCH  17  22
ENDBRANCH   1  12
BRANCH   2  24
ATOM     24  O   UNL     1       1.635   4.879  22.689  1.00  0.00    -0.502 OA
ATOM     25  H   UNL     1       1.350   4.452  21.816  1.00  0.00     0.293 HD
ENDBRANCH   2  24
BRANCH   6  26
ATOM     26  O   UNL     1       4.895   5.298  26.881  1.00  0.00    -0.507 OA
ATOM     27  H   UNL     1       5.353   4.611  27.459  1.00  0.00     0.293 HD
ENDBRANCH   6  26
BRANCH   8  28
ATOM     28  O   UNL     1       8.628   7.510  24.825  1.00  0.00    -0.508 OA
ATOM     29  H   UNL     1       9.385   7.035  25.304  1.00  0.00     0.293 HD
ENDBRANCH   8  28
TORSDOF 7
ENDMDL
MODEL 2
REMARK VINA RESULT:    -3.507      0.066      1.750
REMARK INTER + INTRA:          -3.885
REMARK INTER:                  -4.397
REMARK INTRA:                   0.512
REMARK UNBOUND:                 0.442
REMARK SMILES O=c1c(O)c(-c2cc(O)c(O)c(O)c2)oc2cc(O)cc(O)c12
REMARK SMILES IDX 5 1 3 2 2 3 1 4 23 5 21 6 20 7 18 8 17 9 16 10 15 11 6 12
REMARK SMILES IDX 7 13 8 14 14 15 10 16 12 17 9 18 11 20 13 22 4 24 22 26
REMARK SMILES IDX 19 28
REMARK H PARENT 9 19 11 21 13 23 4 25 22 27 19 29
REMARK Flexibility Score: inf
ROOT
ATOM      1  C   UNL     1       3.770   5.711  21.864  1.00  0.00     0.180 A 
ATOM      2  C   UNL     1       2.960   5.301  22.936  1.00  0.00     0.208 A 
ATOM      3  C   UNL     1       3.473   5.364  24.241  1.00  0.00     0.238 A 
ATOM      4  O   UNL     1       2.724   5.047  25.201  1.00  0.00    -0.285 OA
ATOM      5  C   UNL     1       4.796   5.820  24.457  1.00  0.00     0.111 A 
ATOM      6  C   UNL     1       5.433   5.886  25.732  1.00  0.00     0.134 A 
ATOM      7  C   UNL     1       6.698   6.476  25.843  1.00  0.00     0.093 A 
ATOM      8  C   UNL     1       7.377   6.942  24.713  1.00  0.00     0.123 A 
ATOM      9  C   UNL     1       6.788   6.827  23.457  1.00  0.00     0.094 A 
ATOM     10  C   UNL     1       5.512   6.277  23.319  1.00  0.00     0.146 A 
ATOM     11  O   UNL     1       4.984   6.195  22.104  1.00  0.00    -0.452 OA
ENDROOT
BRANCH   1  12
ATOM     12  C   UNL     1       3.308   5.650  20.459  1.00  0.00     0.029 A 
ATOM     13  C   UNL     1       4.156   6.001  19.394  1.00  0.00     0.062 A 
ATOM     14  C   UNL     1       3.694   5.960  18.071  1.00  0.00     0.162 A 
ATOM     15  C   UNL     1       1.979   5.292  20.184  1.00  0.00     0.062 A 
ATOM     16  C   UNL     1       2.368   5.578  17.804  1.00  0.00     0.200 A 
ATOM     17  C   UNL     1       1.512   5.247  18.863  1.00  0.00     0.162 A 
BRANCH  14  18
ATOM     18  O   UNL     1       4.545   6.304  17.022  1.00  0.00    -0.504 OA
ATOM     19  H   UNL     1       4.196   6.454  16.082  1.00  0.00     0.293 HD
ENDBRANCH  14  18
BRANCH  16  20
ATOM     20  O   UNL     1       1.886   5.525  16.496  1.00  0.00    -0.502 OA
ATOM     21  H   UNL     1       1.963   4.690  15.927  1.00  0.00     0.293 HD
ENDBRANCH  16  20
BRANCH  17  22
ATOM     22  O   UNL     1       0.195   4.875  18.594  1.00  0.00    -0.504 OA
ATOM     23  H   UNL     1      -0.481   4.743  19.337  1.00  0.00     0.293 HD
ENDBRANCH  17  22
ENDBRANCH   1  12
BRANCH   2  24
ATOM     24  O   UNL     1       1.649   4.875  22.703  1.00  0.00    -0.502 OA
ATOM     25  H   UNL     1       1.363   3.909  22.812  1.00  0.00     0.293 HD
ENDBRANCH   2  24
BRANCH   6  26
ATOM     26  O   UNL     1       4.881   5.367  26.908  1.00  0.00    -0.507 OA
ATOM     27  H   UNL     1       5.007   5.766  27.826  1.00  0.00     0.293 HD
ENDBRANCH   6  26
BRANCH   8  28
ATOM     28  O   UNL     1       8.641   7.514  24.831  1.00  0.00    -0.508 OA
ATOM     29  H   UNL     1       8.766   8.463  25.162  1.00  0.00     0.293 HD
ENDBRANCH   8  28
TORSDOF 7
ENDMDL
MODEL 3
REMARK VINA RESULT:    -2.586      2.720      7.897
REMARK INTER + INTRA:          -2.748
REMARK INTER:                  -2.853
REMARK INTRA:                   0.105
REMARK UNBOUND:                 0.442
REMARK SMILES O=c1c(O)c(-c2cc(O)c(O)c(O)c2)oc2cc(O)cc(O)c12
REMARK SMILES IDX 5 1 3 2 2 3 1 4 23 5 21 6 20 7 18 8 17 9 16 10 15 11 6 12
REMARK SMILES IDX 7 13 8 14 14 15 10 16 12 17 9 18 11 20 13 22 4 24 22 26
REMARK SMILES IDX 19 28
REMARK H PARENT 9 19 11 21 13 23 4 25 22 27 19 29
REMARK Flexibility Score: inf
ROOT
ATOM      1  C   UNL     1       4.632   5.698  25.372  1.00  0.00     0.180 A 
ATOM      2  C   UNL     1       5.062   5.331  24.086  1.00  0.00     0.208 A 
ATOM      3  C   UNL     1       4.123   5.268  23.045  1.00  0.00     0.238 A 
ATOM      4  O   UNL     1       4.523   4.992  21.884  1.00  0.00    -0.285 OA
ATOM      5  C   UNL     1       2.761   5.557  23.307  1.00  0.00     0.111 A 
ATOM      6  C   UNL     1       1.716   5.484  22.338  1.00  0.00     0.134 A 
ATOM      7  C   UNL     1       0.429   5.917  22.676  1.00  0.00     0.093 A 
ATOM      8  C   UNL     1       0.134   6.357  23.969  1.00  0.00     0.123 A 
ATOM      9  C   UNL     1       1.133   6.375  24.938  1.00  0.00     0.094 A 
ATOM     10  C   UNL     1       2.436   5.984  24.620  1.00  0.00     0.146 A 
ATOM     11  O   UNL     1       3.361   6.026  25.572  1.00  0.00    -0.452 OA
ENDROOT
BRANCH   1  12
ATOM     12  C   UNL     1       5.560   5.763  26.524  1.00  0.00     0.029 A 
ATOM     13  C   UNL     1       5.189   5.276  27.790  1.00  0.00     0.062 A 
ATOM     14  C   UNL     1       6.071   5.367  28.876  1.00  0.00     0.162 A 
ATOM     15  C   UNL     1       6.813   6.375  26.368  1.00  0.00     0.062 A 
ATOM     16  C   UNL     1       7.333   5.961  28.703  1.00  0.00     0.200 A 
ATOM     17  C   UNL     1       7.700   6.467  27.450  1.00  0.00     0.162 A 
BRANCH  14  18
ATOM     18  O   UNL     1       5.696   4.876  30.125  1.00  0.00    -0.504 OA
ATOM     19  H   UNL     1       4.753   4.554  30.308  1.00  0.00     0.293 HD
ENDBRANCH  14  18
BRANCH  16  20
ATOM     20  O   UNL     1       8.231   6.059  29.767  1.00  0.00    -0.502 OA
ATOM     21  H   UNL     1       8.553   5.245  30.277  1.00  0.00     0.293 HD
ENDBRANCH  16  20
BRANCH  17  22
ATOM     22  O   UNL     1       8.951   7.061  27.285  1.00  0.00    -0.504 OA
ATOM     23  H   UNL     1       9.262   7.402  26.383  1.00  0.00     0.293 HD
ENDBRANCH  17  22
ENDBRANCH   1  12
BRANCH   2  24
ATOM     24  O   UNL     1       6.415   5.073  23.844  1.00  0.00    -0.502 OA
ATOM     25  H   UNL     1       7.133   5.239  24.540  1.00  0.00     0.293 HD
ENDBRANCH   2  24
BRANCH   6  26
ATOM     26  O   UNL     1       1.884   4.974  21.046  1.00  0.00    -0.507 OA
ATOM     27  H   UNL     1       1.274   4.298  20.612  1.00  0.00     0.293 HD
ENDBRANCH   6  26
BRANCH   8  28
ATOM     28  O   UNL     1      -1.154   6.772  24.301  1.00  0.00    -0.508 OA
ATOM     29  H   UNL     1      -1.418   6.970  25.260  1.00  0.00     0.293 HD
ENDBRANCH   8  28
TORSDOF 7
ENDMDL
MODEL 4
REMARK VINA RESULT:    -2.461      1.654      2.923
REMARK INTER + INTRA:          -2.595
REMARK INTER:                  -2.616
REMARK INTRA:                   0.020
REMARK UNBOUND:                 0.442
REMARK SMILES O=c1c(O)c(-c2cc(O)c(O)c(O)c2)oc2cc(O)cc(O)c12
REMARK SMILES IDX 5 1 3 2 2 3 1 4 23 5 21 6 20 7 18 8 17 9 16 10 15 11 6 12
REMARK SMILES IDX 7 13 8 14 14 15 10 16 12 17 9 18 11 20 13 22 4 24 22 26
REMARK SMILES IDX 19 28
REMARK H PARENT 9 19 11 21 13 23 4 25 22 27 19 29
REMARK Flexibility Score: inf
ROOT
ATOM      1  C   UNL     1       4.505   6.896  20.896  1.00  0.00     0.180 A 
ATOM      2  C   UNL     1       5.150   8.143  20.846  1.00  0.00     0.208 A 
ATOM      3  C   UNL     1       5.933   8.550  21.938  1.00  0.00     0.238 A 
ATOM      4  O   UNL     1       6.553   9.643  21.865  1.00  0.00    -0.285 OA
ATOM      5  C   UNL     1       6.047   7.712  23.074  1.00  0.00     0.111 A 
ATOM      6  C   UNL     1       6.780   8.041  24.253  1.00  0.00     0.134 A 
ATOM      7  C   UNL     1       6.931   7.083  25.262  1.00  0.00     0.093 A 
ATOM      8  C   UNL     1       6.321   5.829  25.162  1.00  0.00     0.123 A 
ATOM      9  C   UNL     1       5.555   5.521  24.042  1.00  0.00     0.094 A 
ATOM     10  C   UNL     1       5.415   6.443  23.003  1.00  0.00     0.146 A 
ATOM     11  O   UNL     1       4.684   6.104  21.947  1.00  0.00    -0.452 OA
ENDROOT
BRANCH   1  12
ATOM     12  C   UNL     1       3.644   6.410  19.794  1.00  0.00     0.029 A 
ATOM     13  C   UNL     1       2.368   5.875  20.045  1.00  0.00     0.062 A 
ATOM     14  C   UNL     1       1.576   5.398  18.991  1.00  0.00     0.162 A 
ATOM     15  C   UNL     1       4.130   6.428  18.478  1.00  0.00     0.062 A 
ATOM     16  C   UNL     1       2.063   5.442  17.674  1.00  0.00     0.200 A 
ATOM     17  C   UNL     1       3.342   5.955  17.421  1.00  0.00     0.162 A 
BRANCH  14  18
ATOM     18  O   UNL     1       0.310   4.875  19.250  1.00  0.00    -0.504 OA
ATOM     19  H   UNL     1       0.125   3.880  19.200  1.00  0.00     0.293 HD
ENDBRANCH  14  18
BRANCH  16  20
ATOM     20  O   UNL     1       1.292   4.977  16.608  1.00  0.00    -0.502 OA
ATOM     21  H   UNL     1       0.468   4.404  16.748  1.00  0.00     0.293 HD
ENDBRANCH  16  20
BRANCH  17  22
ATOM     22  O   UNL     1       3.824   5.989  16.113  1.00  0.00    -0.504 OA
ATOM     23  H   UNL     1       3.794   5.172  15.514  1.00  0.00     0.293 HD
ENDBRANCH  17  22
ENDBRANCH   1  12
BRANCH   2  24
ATOM     24  O   UNL     1       5.043   8.945  19.705  1.00  0.00    -0.502 OA
ATOM     25  H   UNL     1       4.630   9.870  19.728  1.00  0.00     0.293 HD
ENDBRANCH   2  24
BRANCH   6  26
ATOM     26  O   UNL     1       7.351   9.295  24.493  1.00  0.00    -0.507 OA
ATOM     27  H   UNL     1       6.936  10.016  25.063  1.00  0.00     0.293 HD
ENDBRANCH   6  26
BRANCH   8  28
ATOM     28  O   UNL     1       6.465   4.887  26.178  1.00  0.00    -0.508 OA
ATOM     29  H   UNL     1       6.319   3.898  26.010  1.00  0.00     0.293 HD
ENDBRANCH   8  28
TORSDOF 7
ENDMDL
MODEL 5
REMARK VINA RESULT:    -2.364      1.175      7.049
REMARK INTER + INTRA:          -2.474
REMARK INTER:                  -2.674
REMARK INTRA:                   0.200
REMARK UNBOUND:                 0.442
REMARK SMILES O=c1c(O)c(-c2cc(O)c(O)c(O)c2)oc2cc(O)cc(O)c12
REMARK SMILES IDX 5 1 3 2 2 3 1 4 23 5 21 6 20 7 18 8 17 9 16 10 15 11 6 12
REMARK SMILES IDX 7 13 8 14 14 15 10 16 12 17 9 18 11 20 13 22 4 24 22 26
REMARK SMILES IDX 19 28
REMARK H PARENT 9 19 11 21 13 23 4 25 22 27 19 29
REMARK Flexibility Score: inf
ROOT
ATOM      1  C   UNL     1       3.942   5.831  23.281  1.00  0.00     0.180 A 
ATOM      2  C   UNL     1       2.557   5.828  23.518  1.00  0.00     0.208 A 
ATOM      3  C   UNL     1       1.680   5.679  22.433  1.00  0.00     0.238 A 
ATOM      4  O   UNL     1       0.443   5.622  22.658  1.00  0.00    -0.285 OA
ATOM      5  C   UNL     1       2.197   5.551  21.121  1.00  0.00     0.111 A 
ATOM      6  C   UNL     1       1.401   5.436  19.943  1.00  0.00     0.134 A 
ATOM      7  C   UNL     1       2.019   5.185  18.712  1.00  0.00     0.093 A 
ATOM      8  C   UNL     1       3.411   5.111  18.608  1.00  0.00     0.123 A 
ATOM      9  C   UNL     1       4.199   5.281  19.743  1.00  0.00     0.094 A 
ATOM     10  C   UNL     1       3.610   5.497  20.990  1.00  0.00     0.146 A 
ATOM     11  O   UNL     1       4.399   5.644  22.048  1.00  0.00    -0.452 OA
ENDROOT
BRANCH   1  12
ATOM     12  C   UNL     1       4.928   6.008  24.371  1.00  0.00     0.029 A 
ATOM     13  C   UNL     1       6.124   6.716  24.167  1.00  0.00     0.062 A 
ATOM     14  C   UNL     1       7.057   6.854  25.205  1.00  0.00     0.162 A 
ATOM     15  C   UNL     1       4.693   5.408  25.618  1.00  0.00     0.062 A 
ATOM     16  C   UNL     1       6.803   6.269  26.457  1.00  0.00     0.200 A 
ATOM     17  C   UNL     1       5.621   5.544  26.660  1.00  0.00     0.162 A 
BRANCH  14  18
ATOM     18  O   UNL     1       8.238   7.564  24.994  1.00  0.00    -0.504 OA
ATOM     19  H   UNL     1       9.053   7.128  24.579  1.00  0.00     0.293 HD
ENDBRANCH  14  18
BRANCH  16  20
ATOM     20  O   UNL     1       7.713   6.396  27.507  1.00  0.00    -0.502 OA
ATOM     21  H   UNL     1       7.584   7.067  28.254  1.00  0.00     0.293 HD
ENDBRANCH  16  20
BRANCH  17  22
ATOM     22  O   UNL     1       5.376   4.959  27.902  1.00  0.00    -0.504 OA
ATOM     23  H   UNL     1       4.651   4.263  28.026  1.00  0.00     0.293 HD
ENDBRANCH  17  22
ENDBRANCH   1  12
BRANCH   2  24
ATOM     24  O   UNL     1       2.068   5.932  24.824  1.00  0.00    -0.502 OA
ATOM     25  H   UNL     1       1.123   5.664  25.074  1.00  0.00     0.293 HD
ENDBRANCH   2  24
BRANCH   6  26
ATOM     26  O   UNL     1       0.010   5.586  19.923  1.00  0.00    -0.507 OA
ATOM     27  H   UNL     1      -0.498   6.145  19.255  1.00  0.00     0.293 HD
ENDBRANCH   6  26
BRANCH   8  28
ATOM     28  O   UNL     1       4.019   4.875  17.377  1.00  0.00    -0.508 OA
ATOM     29  H   UNL     1       3.772   4.074  16.807  1.00  0.00     0.293 HD
ENDBRANCH   8  28
TORSDOF 7
ENDMDL
MODEL 6
REMARK VINA RESULT:    -2.314      1.144      6.855
REMARK INTER + INTRA:          -2.413
REMARK INTER:                  -2.583
REMARK INTRA:                   0.170
REMARK UNBOUND:                 0.442
REMARK SMILES O=c1c(O)c(-c2cc(O)c(O)c(O)c2)oc2cc(O)cc(O)c12
REMARK SMILES IDX 5 1 3 2 2 3 1 4 23 5 21 6 20 7 18 8 17 9 16 10 15 11 6 12
REMARK SMILES IDX 7 13 8 14 14 15 10 16 12 17 9 18 11 20 13 22 4 24 22 26
REMARK SMILES IDX 19 28
REMARK H PARENT 9 19 11 21 13 23 4 25 22 27 19 29
REMARK Flexibility Score: inf
ROOT
ATOM      1  C   UNL     1       4.001   5.786  23.285  1.00  0.00     0.180 A 
ATOM      2  C   UNL     1       2.616   5.764  23.521  1.00  0.00     0.208 A 
ATOM      3  C   UNL     1       1.742   5.613  22.433  1.00  0.00     0.238 A 
ATOM      4  O   UNL     1       0.505   5.539  22.656  1.00  0.00    -0.285 OA
ATOM      5  C   UNL     1       2.262   5.503  21.121  1.00  0.00     0.111 A 
ATOM      6  C   UNL     1       1.468   5.389  19.941  1.00  0.00     0.134 A 
ATOM      7  C   UNL     1       2.091   5.156  18.709  1.00  0.00     0.093 A 
ATOM      8  C   UNL     1       3.484   5.099  18.605  1.00  0.00     0.123 A 
ATOM      9  C   UNL     1       4.268   5.269  19.743  1.00  0.00     0.094 A 
ATOM     10  C   UNL     1       3.675   5.467  20.991  1.00  0.00     0.146 A 
ATOM     11  O   UNL     1       4.461   5.615  22.051  1.00  0.00    -0.452 OA
ENDROOT
BRANCH   1  12
ATOM     12  C   UNL     1       4.983   5.965  24.378  1.00  0.00     0.029 A 
ATOM     13  C   UNL     1       4.778   5.396  25.647  1.00  0.00     0.062 A 
ATOM     14  C   UNL     1       5.708   5.596  26.677  1.00  0.00     0.162 A 
ATOM     15  C   UNL     1       6.115   6.768  24.165  1.00  0.00     0.062 A 
ATOM     16  C   UNL     1       6.849   6.383  26.446  1.00  0.00     0.200 A 
ATOM     17  C   UNL     1       7.048   6.970  25.190  1.00  0.00     0.162 A 
BRANCH  14  18
ATOM     18  O   UNL     1       5.498   5.022  27.930  1.00  0.00    -0.504 OA
ATOM     19  H   UNL     1       5.919   4.136  28.186  1.00  0.00     0.293 HD
ENDBRANCH  14  18
BRANCH  16  20
ATOM     20  O   UNL     1       7.792   6.593  27.454  1.00  0.00    -0.502 OA
ATOM     21  H   UNL     1       8.658   7.091  27.286  1.00  0.00     0.293 HD
ENDBRANCH  16  20
BRANCH  17  22
ATOM     22  O   UNL     1       8.179   7.755  24.968  1.00  0.00    -0.504 OA
ATOM     23  H   UNL     1       8.138   8.767  25.008  1.00  0.00     0.293 HD
ENDBRANCH  17  22
ENDBRANCH   1  12
BRANCH   2  24
ATOM     24  O   UNL     1       2.124   5.850  24.827  1.00  0.00    -0.502 OA
ATOM     25  H   UNL     1       2.194   5.084  25.486  1.00  0.00     0.293 HD
ENDBRANCH   2  24
BRANCH   6  26
ATOM     26  O   UNL     1       0.076   5.522  19.921  1.00  0.00    -0.507 OA
ATOM     27  H   UNL     1      -0.485   5.816  20.706  1.00  0.00     0.293 HD
ENDBRANCH   6  26
BRANCH   8  28
ATOM     28  O   UNL     1       4.096   4.882  17.373  1.00  0.00    -0.508 OA
ATOM     29  H   UNL     1       3.643   5.138  16.503  1.00  0.00     0.293 HD
ENDBRANCH   8  28
TORSDOF 7
ENDMDL
MODEL 7
REMARK VINA RESULT:    -2.156      1.970      3.959
REMARK INTER + INTRA:          -2.219
REMARK INTER:                  -2.473
REMARK INTRA:                   0.254
REMARK UNBOUND:                 0.442
REMARK SMILES O=c1c(O)c(-c2cc(O)c(O)c(O)c2)oc2cc(O)cc(O)c12
REMARK SMILES IDX 5 1 3 2 2 3 1 4 23 5 21 6 20 7 18 8 17 9 16 10 15 11 6 12
REMARK SMILES IDX 7 13 8 14 14 15 10 16 12 17 9 18 11 20 13 22 4 24 22 26
REMARK SMILES IDX 19 28
REMARK H PARENT 9 19 11 21 13 23 4 25 22 27 19 29
REMARK Flexibility Score: inf
ROOT
ATOM      1  C   UNL     1       2.962   5.428  21.317  1.00  0.00     0.180 A 
ATOM      2  C   UNL     1       4.120   5.193  22.077  1.00  0.00     0.208 A 
ATOM      3  C   UNL     1       4.037   5.238  23.477  1.00  0.00     0.238 A 
ATOM      4  O   UNL     1       5.065   4.972  24.154  1.00  0.00    -0.285 OA
ATOM      5  C   UNL     1       2.800   5.533  24.101  1.00  0.00     0.111 A 
ATOM      6  C   UNL     1       2.608   5.644  25.510  1.00  0.00     0.134 A 
ATOM      7  C   UNL     1       1.316   5.812  26.021  1.00  0.00     0.093 A 
ATOM      8  C   UNL     1       0.215   5.937  25.168  1.00  0.00     0.123 A 
ATOM      9  C   UNL     1       0.401   5.889  23.789  1.00  0.00     0.094 A 
ATOM     10  C   UNL     1       1.673   5.687  23.251  1.00  0.00     0.146 A 
ATOM     11  O   UNL     1       1.803   5.638  21.931  1.00  0.00    -0.452 OA
ENDROOT
BRANCH   1  12
ATOM     12  C   UNL     1       2.977   5.423  19.836  1.00  0.00     0.029 A 
ATOM     13  C   UNL     1       4.141   5.741  19.116  1.00  0.00     0.062 A 
ATOM     14  C   UNL     1       4.131   5.753  17.714  1.00  0.00     0.162 A 
ATOM     15  C   UNL     1       1.792   5.151  19.135  1.00  0.00     0.062 A 
ATOM     16  C   UNL     1       2.945   5.458  17.020  1.00  0.00     0.200 A 
ATOM     17  C   UNL     1       1.776   5.161  17.734  1.00  0.00     0.162 A 
BRANCH  14  18
ATOM     18  O   UNL     1       5.292   6.064  17.008  1.00  0.00    -0.504 OA
ATOM     19  H   UNL     1       6.210   5.827  17.365  1.00  0.00     0.293 HD
ENDBRANCH  14  18
BRANCH  16  20
ATOM     20  O   UNL     1       2.910   5.459  15.625  1.00  0.00    -0.502 OA
ATOM     21  H   UNL     1       3.705   5.174  15.066  1.00  0.00     0.293 HD
ENDBRANCH  16  20
BRANCH  17  22
ATOM     22  O   UNL     1       0.600   4.875  17.041  1.00  0.00    -0.504 OA
ATOM     23  H   UNL     1       0.594   4.261  16.236  1.00  0.00     0.293 HD
ENDBRANCH  17  22
ENDBRANCH   1  12
BRANCH   2  24
ATOM     24  O   UNL     1       5.326   4.881  21.442  1.00  0.00    -0.502 OA
ATOM     25  H   UNL     1       5.387   4.199  20.696  1.00  0.00     0.293 HD
ENDBRANCH   2  24
BRANCH   6  26
ATOM     26  O   UNL     1       3.650   5.624  26.443  1.00  0.00    -0.507 OA
ATOM     27  H   UNL     1       3.781   4.910  27.144  1.00  0.00     0.293 HD
ENDBRANCH   6  26
BRANCH   8  28
ATOM     28  O   UNL     1      -1.066   6.119  25.685  1.00  0.00    -0.508 OA
ATOM     29  H   UNL     1      -1.573   6.986  25.553  1.00  0.00     0.293 HD
ENDBRANCH   8  28
TORSDOF 7
ENDMDL
MODEL 8
REMARK VINA RESULT:    -1.843      3.171      5.118
REMARK INTER + INTRA:          -1.832
REMARK INTER:                  -2.062
REMARK INTRA:                   0.230
REMARK UNBOUND:                 0.442
REMARK SMILES O=c1c(O)c(-c2cc(O)c(O)c(O)c2)oc2cc(O)cc(O)c12
REMARK SMILES IDX 5 1 3 2 2 3 1 4 23 5 21 6 20 7 18 8 17 9 16 10 15 11 6 12
REMARK SMILES IDX 7 13 8 14 14 15 10 16 12 17 9 18 11 20 13 22 4 24 22 26
REMARK SMILES IDX 19 28
REMARK H PARENT 9 19 11 21 13 23 4 25 22 27 19 29
REMARK Flexibility Score: inf
ROOT
ATOM      1  C   UNL     1       4.038   6.851  24.019  1.00  0.00     0.180 A 
ATOM      2  C   UNL     1       4.989   6.324  24.909  1.00  0.00     0.208 A 
ATOM      3  C   UNL     1       6.339   6.672  24.747  1.00  0.00     0.238 A 
ATOM      4  O   UNL     1       7.179   6.240  25.579  1.00  0.00    -0.285 OA
ATOM      5  C   UNL     1       6.725   7.529  23.688  1.00  0.00     0.111 A 
ATOM      6  C   UNL     1       8.069   7.915  23.405  1.00  0.00     0.134 A 
ATOM      7  C   UNL     1       8.319   8.870  22.413  1.00  0.00     0.093 A 
ATOM      8  C   UNL     1       7.278   9.404  21.648  1.00  0.00     0.123 A 
ATOM      9  C   UNL     1       5.969   8.989  21.877  1.00  0.00     0.094 A 
ATOM     10  C   UNL     1       5.684   8.065  22.884  1.00  0.00     0.146 A 
ATOM     11  O   UNL     1       4.421   7.704  23.076  1.00  0.00    -0.452 OA
ENDROOT
BRANCH   1  12
ATOM     12  C   UNL     1       2.600   6.511  24.111  1.00  0.00     0.029 A 
ATOM     13  C   UNL     1       1.797   6.413  22.962  1.00  0.00     0.062 A 
ATOM     14  C   UNL     1       0.431   6.113  23.069  1.00  0.00     0.162 A 
ATOM     15  C   UNL     1       2.010   6.340  25.373  1.00  0.00     0.062 A 
ATOM     16  C   UNL     1      -0.145   5.920  24.337  1.00  0.00     0.200 A 
ATOM     17  C   UNL     1       0.646   6.038  25.487  1.00  0.00     0.162 A 
BRANCH  14  18
ATOM     18  O   UNL     1      -0.355   6.011  21.923  1.00  0.00    -0.504 OA
ATOM     19  H   UNL     1      -0.955   5.211  21.759  1.00  0.00     0.293 HD
ENDBRANCH  14  18
BRANCH  16  20
ATOM     20  O   UNL     1      -1.500   5.616  24.470  1.00  0.00    -0.502 OA
ATOM     21  H   UNL     1      -2.220   6.141  23.987  1.00  0.00     0.293 HD
ENDBRANCH  16  20
BRANCH  17  22
ATOM     22  O   UNL     1       0.069   5.853  26.743  1.00  0.00    -0.504 OA
ATOM     23  H   UNL     1      -0.918   6.017  26.902  1.00  0.00     0.293 HD
ENDBRANCH  17  22
ENDBRANCH   1  12
BRANCH   2  24
ATOM     24  O   UNL     1       4.585   5.498  25.961  1.00  0.00    -0.502 OA
ATOM     25  H   UNL     1       5.004   5.545  26.882  1.00  0.00     0.293 HD
ENDBRANCH   2  24
BRANCH   6  26
ATOM     26  O   UNL     1       9.188   7.374  24.047  1.00  0.00    -0.507 OA
ATOM     27  H   UNL     1       9.833   6.723  23.625  1.00  0.00     0.293 HD
ENDBRANCH   6  26
BRANCH   8  28
ATOM     28  O   UNL     1       7.538  10.343  20.652  1.00  0.00    -0.508 OA
ATOM     29  H   UNL     1       8.428  10.370  20.167  1.00  0.00     0.293 HD
ENDBRANCH   8  28
TORSDOF 7
ENDMDL
MODEL 9
REMARK VINA RESULT:    -1.665      2.271      4.494
REMARK INTER + INTRA:          -1.613
REMARK INTER:                  -1.630
REMARK INTRA:                   0.018
REMARK UNBOUND:                 0.442
REMARK SMILES O=c1c(O)c(-c2cc(O)c(O)c(O)c2)oc2cc(O)cc(O)c12
REMARK SMILES IDX 5 1 3 2 2 3 1 4 23 5 21 6 20 7 18 8 17 9 16 10 15 11 6 12
REMARK SMILES IDX 7 13 8 14 14 15 10 16 12 17 9 18 11 20 13 22 4 24 22 26
REMARK SMILES IDX 19 28
REMARK H PARENT 9 19 11 21 13 23 4 25 22 27 19 29
REMARK Flexibility Score: inf
ROOT
ATOM      1  C   UNL     1       4.399   6.212  24.550  1.00  0.00     0.180 A 
ATOM      2  C   UNL     1       5.603   6.716  24.031  1.00  0.00     0.208 A 
ATOM      3  C   UNL     1       6.722   6.812  24.873  1.00  0.00     0.238 A 
ATOM      4  O   UNL     1       7.812   7.213  24.388  1.00  0.00    -0.285 OA
ATOM      5  C   UNL     1       6.619   6.418  26.229  1.00  0.00     0.111 A 
ATOM      6  C   UNL     1       7.676   6.511  27.183  1.00  0.00     0.134 A 
ATOM      7  C   UNL     1       7.501   5.971  28.463  1.00  0.00     0.093 A 
ATOM      8  C   UNL     1       6.283   5.401  28.844  1.00  0.00     0.123 A 
ATOM      9  C   UNL     1       5.226   5.361  27.939  1.00  0.00     0.094 A 
ATOM     10  C   UNL     1       5.382   5.858  26.644  1.00  0.00     0.146 A 
ATOM     11  O   UNL     1       4.351   5.789  25.809  1.00  0.00    -0.452 OA
ENDROOT
BRANCH   1  12
ATOM     12  C   UNL     1       3.171   6.104  23.731  1.00  0.00     0.029 A 
ATOM     13  C   UNL     1       3.196   5.527  22.449  1.00  0.00     0.062 A 
ATOM     14  C   UNL     1       2.028   5.455  21.677  1.00  0.00     0.162 A 
ATOM     15  C   UNL     1       1.968   6.639  24.216  1.00  0.00     0.062 A 
ATOM     16  C   UNL     1       0.822   5.973  22.181  1.00  0.00     0.200 A 
ATOM     17  C   UNL     1       0.797   6.568  23.449  1.00  0.00     0.162 A 
BRANCH  14  18
ATOM     18  O   UNL     1       2.062   4.875  20.410  1.00  0.00    -0.504 OA
ATOM     19  H   UNL     1       1.409   5.146  19.684  1.00  0.00     0.293 HD
ENDBRANCH  14  18
BRANCH  16  20
ATOM     20  O   UNL     1      -0.354   5.909  21.434  1.00  0.00    -0.502 OA
ATOM     21  H   UNL     1      -0.670   6.681  20.859  1.00  0.00     0.293 HD
ENDBRANCH  16  20
BRANCH  17  22
ATOM     22  O   UNL     1      -0.400   7.087  23.942  1.00  0.00    -0.504 OA
ATOM     23  H   UNL     1      -0.782   7.960  23.597  1.00  0.00     0.293 HD
ENDBRANCH  17  22
ENDBRANCH   1  12
BRANCH   2  24
ATOM     24  O   UNL     1       5.690   7.078  22.683  1.00  0.00    -0.502 OA
ATOM     25  H   UNL     1       6.476   6.818  22.100  1.00  0.00     0.293 HD
ENDBRANCH   2  24
BRANCH   6  26
ATOM     26  O   UNL     1       8.899   7.142  26.934  1.00  0.00    -0.507 OA
ATOM     27  H   UNL     1       9.077   7.764  26.161  1.00  0.00     0.293 HD
ENDBRANCH   6  26
BRANCH   8  28
ATOM     28  O   UNL     1       6.113   4.881  30.125  1.00  0.00    -0.508 OA
ATOM     29  H   UNL     1       5.948   3.893  30.279  1.00  0.00     0.293 HD
ENDBRANCH   8  28
TORSDOF 7
ENDMDL
