MODEL 1
REMARK VINA RESULT:    -2.878      0.000      0.000
REMARK INTER + INTRA:          -3.251
REMARK INTER:                  -3.214
REMARK INTRA:                  -0.037
REMARK UNBOUND:                -0.037
REMARK SMILES CCCC(=O)[O-]
REMARK SMILES IDX 3 1 4 2 5 3 6 4 2 5 1 6
REMARK H PARENT
REMARK Flexibility Score: inf
ROOT
ATOM      1  C   UNL     1       7.731 -22.007  40.273  1.00  0.00     0.052 C 
ENDROOT
BRANCH   1   2
ATOM      2  C   UNL     1       8.493 -21.250  41.314  1.00  0.00     0.041 C 
ATOM      3  O   UNL     1       7.988 -20.231  41.853  1.00  0.00    -0.550 OA
ATOM      4  O   UNL     1       9.782 -21.641  41.655  1.00  0.00    -0.550 OA
ENDBRANCH   1   2
BRANCH   1   5
ATOM      5  C   UNL     1       8.094 -21.503  38.873  1.00  0.00     0.003 C 
ATOM      6  C   UNL     1       7.141 -20.401  38.421  1.00  0.00     0.004 C 
ENDBRANCH   1   5
TORSDOF 2
ENDMDL
MODEL 2
REMARK VINA RESULT:    -2.876      9.966     10.712
REMARK INTER + INTRA:          -3.250
REMARK INTER:                  -3.214
REMARK INTRA:                  -0.036
REMARK UNBOUND:                -0.037
REMARK SMILES CCCC(=O)[O-]
REMARK SMILES IDX 3 1 4 2 5 3 6 4 2 5 1 6
REMARK H PARENT
REMARK Flexibility Score: inf
ROOT
ATOM      1  C   UNL     1      10.654 -20.337  30.859  1.00  0.00     0.052 C 
ENDROOT
BRANCH   1   2
ATOM      2  C   UNL     1       9.662 -20.637  29.780  1.00  0.00     0.041 C 
ATOM      3  O   UNL     1       8.456 -20.852  30.069  1.00  0.00    -0.550 OA
ATOM      4  O   UNL     1      10.080 -20.728  28.458  1.00  0.00    -0.550 OA
ENDBRANCH   1   2
BRANCH   1   5
ATOM      5  C   UNL     1      10.261 -19.059  31.606  1.00  0.00     0.003 C 
ATOM      6  C   UNL     1      11.013 -17.849  31.059  1.00  0.00     0.004 C 
ENDBRANCH   1   5
TORSDOF 2
ENDMDL
MODEL 3
REMARK VINA RESULT:    -2.852      9.961     10.749
REMARK INTER + INTRA:          -3.223
REMARK INTER:                  -3.169
REMARK INTRA:                  -0.053
REMARK UNBOUND:                -0.037
REMARK SMILES CCCC(=O)[O-]
REMARK SMILES IDX 3 1 4 2 5 3 6 4 2 5 1 6
REMARK H PARENT
REMARK Flexibility Score: inf
ROOT
ATOM      1  C   UNL     1      10.638 -20.406  30.884  1.00  0.00     0.052 C 
ENDROOT
BRANCH   1   2
ATOM      2  C   UNL     1       9.661 -20.651  29.777  1.00  0.00     0.041 C 
ATOM      3  O   UNL     1      10.055 -20.690  28.582  1.00  0.00    -0.550 OA
ATOM      4  O   UNL     1       8.308 -20.788  30.062  1.00  0.00    -0.550 OA
ENDBRANCH   1   2
BRANCH   1   5
ATOM      5  C   UNL     1      10.320 -19.089  31.597  1.00  0.00     0.003 C 
ATOM      6  C   UNL     1      10.974 -17.907  30.887  1.00  0.00     0.004 C 
ENDBRANCH   1   5
TORSDOF 2
ENDMDL
MODEL 4
REMARK VINA RESULT:    -2.780     10.525     11.339
REMARK INTER + INTRA:          -3.143
REMARK INTER:                  -3.108
REMARK INTRA:                  -0.035
REMARK UNBOUND:                -0.037
REMARK SMILES CCCC(=O)[O-]
REMARK SMILES IDX 3 1 4 2 5 3 6 4 2 5 1 6
REMARK H PARENT
REMARK Flexibility Score: inf
ROOT
ATOM      1  C   UNL     1       9.745 -20.542  30.230  1.00  0.00     0.052 C 
ENDROOT
BRANCH   1   2
ATOM      2  C   UNL     1       9.800 -20.113  28.798  1.00  0.00     0.041 C 
ATOM      3  O   UNL     1      10.107 -20.939  27.900  1.00  0.00    -0.550 OA
ATOM      4  O   UNL     1       9.559 -18.786  28.460  1.00  0.00    -0.550 OA
ENDBRANCH   1   2
BRANCH   1   5
ATOM      5  C   UNL     1      10.695 -19.693  31.080  1.00  0.00     0.003 C 
ATOM      6  C   UNL     1       9.920 -18.735  31.980  1.00  0.00     0.004 C 
ENDBRANCH   1   5
TORSDOF 2
ENDMDL
MODEL 5
REMARK VINA RESULT:    -2.724      9.637     10.500
REMARK INTER + INTRA:          -3.080
REMARK INTER:                  -3.022
REMARK INTRA:                  -0.058
REMARK UNBOUND:                -0.037
REMARK SMILES CCCC(=O)[O-]
REMARK SMILES IDX 3 1 4 2 5 3 6 4 2 5 1 6
REMARK H PARENT
REMARK Flexibility Score: inf
ROOT
ATOM      1  C   UNL     1       9.124 -19.485  30.991  1.00  0.00     0.052 C 
ENDROOT
BRANCH   1   2
ATOM      2  C   UNL     1       9.945 -20.353  30.089  1.00  0.00     0.041 C 
ATOM      3  O   UNL     1      10.744 -21.194  30.576  1.00  0.00    -0.550 OA
ATOM      4  O   UNL     1       9.863 -20.198  28.711  1.00  0.00    -0.550 OA
ENDBRANCH   1   2
BRANCH   1   5
ATOM      5  C   UNL     1      10.026 -18.716  31.960  1.00  0.00     0.003 C 
ATOM      6  C   UNL     1      10.967 -17.779  31.209  1.00  0.00     0.004 C 
ENDBRANCH   1   5
TORSDOF 2
ENDMDL
MODEL 6
REMARK VINA RESULT:    -2.583      9.246      9.825
REMARK INTER + INTRA:          -2.923
REMARK INTER:                  -2.889
REMARK INTRA:                  -0.034
REMARK UNBOUND:                -0.037
REMARK SMILES CCCC(=O)[O-]
REMARK SMILES IDX 3 1 4 2 5 3 6 4 2 5 1 6
REMARK H PARENT
REMARK Flexibility Score: inf
ROOT
ATOM      1  C   UNL     1      10.998 -18.287  30.877  1.00  0.00     0.052 C 
ENDROOT
BRANCH   1   2
ATOM      2  C   UNL     1      10.379 -17.383  31.896  1.00  0.00     0.041 C 
ATOM      3  O   UNL     1      10.650 -16.153  31.899  1.00  0.00    -0.550 OA
ATOM      4  O   UNL     1       9.540 -17.905  32.873  1.00  0.00    -0.550 OA
ENDBRANCH   1   2
BRANCH   1   5
ATOM      5  C   UNL     1      10.762 -19.754  31.251  1.00  0.00     0.003 C 
ATOM      6  C   UNL     1      10.031 -20.494  30.135  1.00  0.00     0.004 C 
ENDBRANCH   1   5
TORSDOF 2
ENDMDL
MODEL 7
REMARK VINA RESULT:    -2.576      9.549     10.287
REMARK INTER + INTRA:          -2.914
REMARK INTER:                  -2.879
REMARK INTRA:                  -0.035
REMARK UNBOUND:                -0.037
REMARK SMILES CCCC(=O)[O-]
REMARK SMILES IDX 3 1 4 2 5 3 6 4 2 5 1 6
REMARK H PARENT
REMARK Flexibility Score: inf
ROOT
ATOM      1  C   UNL     1       9.838 -18.998  31.548  1.00  0.00     0.052 C 
ENDROOT
BRANCH   1   2
ATOM      2  C   UNL     1      10.478 -17.713  31.127  1.00  0.00     0.041 C 
ATOM      3  O   UNL     1      10.768 -17.515  29.918  1.00  0.00    -0.550 OA
ATOM      4  O   UNL     1      10.799 -16.751  32.078  1.00  0.00    -0.550 OA
ENDBRANCH   1   2
BRANCH   1   5
ATOM      5  C   UNL     1      10.553 -20.188  30.903  1.00  0.00     0.003 C 
ATOM      6  C   UNL     1       9.660 -20.877  29.876  1.00  0.00     0.004 C 
ENDBRANCH   1   5
TORSDOF 2
ENDMDL
MODEL 8
REMARK VINA RESULT:    -2.544      9.258      9.984
REMARK INTER + INTRA:          -2.879
REMARK INTER:                  -2.847
REMARK INTRA:                  -0.032
REMARK UNBOUND:                -0.037
REMARK SMILES CCCC(=O)[O-]
REMARK SMILES IDX 3 1 4 2 5 3 6 4 2 5 1 6
REMARK H PARENT
REMARK Flexibility Score: inf
ROOT
ATOM      1  C   UNL     1      10.300 -19.949  30.709  1.00  0.00     0.052 C 
ENDROOT
BRANCH   1   2
ATOM      2  C   UNL     1       9.369 -19.196  31.606  1.00  0.00     0.041 C 
ATOM      3  O   UNL     1       8.124 -19.357  31.506  1.00  0.00    -0.550 OA
ATOM      4  O   UNL     1       9.873 -18.278  32.520  1.00  0.00    -0.550 OA
ENDBRANCH   1   2
BRANCH   1   5
ATOM      5  C   UNL     1       9.515 -20.896  29.797  1.00  0.00     0.003 C 
ATOM      6  C   UNL     1       9.842 -20.641  28.329  1.00  0.00     0.004 C 
ENDBRANCH   1   5
TORSDOF 2
ENDMDL
MODEL 9
REMARK VINA RESULT:    -2.429      2.591      3.066
REMARK INTER + INTRA:          -2.750
REMARK INTER:                  -2.740
REMARK INTRA:                  -0.010
REMARK UNBOUND:                -0.037
REMARK SMILES CCCC(=O)[O-]
REMARK SMILES IDX 3 1 4 2 5 3 6 4 2 5 1 6
REMARK H PARENT
REMARK Flexibility Score: inf
ROOT
ATOM      1  C   UNL     1       7.370 -22.655  38.439  1.00  0.00     0.052 C 
ENDROOT
BRANCH   1   2
ATOM      2  C   UNL     1       7.736 -21.320  39.006  1.00  0.00     0.041 C 
ATOM      3  O   UNL     1       8.472 -21.245  40.024  1.00  0.00    -0.550 OA
ATOM      4  O   UNL     1       7.225 -20.159  38.438  1.00  0.00    -0.550 OA
ENDBRANCH   1   2
BRANCH   1   5
ATOM      5  C   UNL     1       6.046 -22.567  37.673  1.00  0.00     0.003 C 
ATOM      6  C   UNL     1       5.768 -23.855  36.905  1.00  0.00     0.004 C 
ENDBRANCH   1   5
TORSDOF 2
ENDMDL
