MODEL 1
REMARK VINA RESULT:    -2.885      0.000      0.000
REMARK INTER + INTRA:          -2.805
REMARK INTER:                  -3.559
REMARK INTRA:                   0.754
REMARK UNBOUND:                 0.754
REMARK SMILES CC1=CC=CC(C)(C)CC1=O
REMARK SMILES IDX 1 1 2 2 3 3 10 4 11 5 9 6 4 8 5 9 6 10 7 11 8 12
REMARK H PARENT
REMARK Flexibility Score: 80.00
ROOT
ATOM      1  C   UNL     1      87.878  37.841  25.607  1.00  0.00     0.048 C 
ATOM      2  C   UNL     1      87.203  36.690  24.899  1.00  0.00    -0.008 C 
ATOM      3  C   UNL     1      87.931  35.997  23.996  1.00  0.00     0.007 C 
ENDROOT
BRANCH   2   4
ATOM      4  C   UNL     1      85.815  36.364  25.309  1.00  0.00     0.159 C 
ATOM      5  O   UNL     1      85.348  36.896  26.354  1.00  0.00    -0.295 OA
BRANCH   4   6
ATOM      6  C   UNL     1      84.920  35.443  24.539  1.00  0.00     0.091 CG0
ATOM      7  G   UNL     1      85.491  34.014  24.400  1.00  0.00     0.000 G0
ENDBRANCH   4   6
ENDBRANCH   2   4
BRANCH   3   8
ATOM      8  C   UNL     1      87.560  34.820  23.175  1.00  0.00    -0.003 C 
ATOM      9  C   UNL     1      86.540  33.968  23.336  1.00  0.00    -0.020 C 
BRANCH   9  10
ATOM     10  C   UNL     1      85.482  34.026  24.412  1.00  0.00    -0.010 CG0
ATOM     11  C   UNL     1      86.055  33.497  25.747  1.00  0.00     0.016 C 
ATOM     12  C   UNL     1      84.315  33.101  23.995  1.00  0.00     0.016 C 
ATOM     13  G   UNL     1      84.936  35.466  24.528  1.00  0.00     0.000 G0
ENDBRANCH   9  10
ENDBRANCH   3   8
TORSDOF 0
ENDMDL
MODEL 2
REMARK VINA RESULT:    -2.791      4.467      5.650
REMARK INTER + INTRA:          -2.689
REMARK INTER:                  -3.441
REMARK INTRA:                   0.752
REMARK UNBOUND:                 0.754
REMARK SMILES CC1=CC=CC(C)(C)CC1=O
REMARK SMILES IDX 1 1 2 2 3 3 10 4 11 5 9 6 4 8 5 9 6 10 7 11 8 12
REMARK H PARENT
REMARK Flexibility Score: 80.00
ROOT
ATOM      1  C   UNL     1      87.592  37.882  28.254  1.00  0.00     0.048 C 
ATOM      2  C   UNL     1      86.266  37.546  28.895  1.00  0.00    -0.008 C 
ATOM      3  C   UNL     1      85.709  38.473  29.704  1.00  0.00     0.007 C 
ENDROOT
BRANCH   2   4
ATOM      4  C   UNL     1      85.644  36.251  28.522  1.00  0.00     0.159 C 
ATOM      5  O   UNL     1      86.119  35.606  27.547  1.00  0.00    -0.295 OA
BRANCH   4   6
ATOM      6  C   UNL     1      84.483  35.651  29.254  1.00  0.00     0.091 CG0
ATOM      7  G   UNL     1      83.222  36.544  29.231  1.00  0.00     0.000 G0
ENDBRANCH   4   6
ENDBRANCH   2   4
BRANCH   3   8
ATOM      8  C   UNL     1      84.425  38.444  30.442  1.00  0.00    -0.003 C 
ATOM      9  C   UNL     1      83.360  37.654  30.252  1.00  0.00    -0.020 C 
BRANCH   9  10
ATOM     10  C   UNL     1      83.229  36.557  29.223  1.00  0.00    -0.010 CG0
ATOM     11  C   UNL     1      82.962  37.168  27.828  1.00  0.00     0.016 C 
ATOM     12  C   UNL     1      82.012  35.681  29.600  1.00  0.00     0.016 C 
ATOM     13  G   UNL     1      84.490  35.664  29.251  1.00  0.00     0.000 G0
ENDBRANCH   9  10
ENDBRANCH   3   8
TORSDOF 0
ENDMDL
MODEL 3
REMARK VINA RESULT:    -2.756      8.205      9.215
REMARK INTER + INTRA:          -2.647
REMARK INTER:                  -3.389
REMARK INTRA:                   0.742
REMARK UNBOUND:                 0.754
REMARK SMILES CC1=CC=CC(C)(C)CC1=O
REMARK SMILES IDX 1 1 2 2 3 3 10 4 11 5 9 6 4 8 5 9 6 10 7 11 8 12
REMARK H PARENT
REMARK Flexibility Score: 80.00
ROOT
ATOM      1  C   UNL     1      87.989  33.378  32.359  1.00  0.00     0.048 C 
ATOM      2  C   UNL     1      86.573  33.234  32.864  1.00  0.00    -0.008 C 
ATOM      3  C   UNL     1      85.931  34.356  33.257  1.00  0.00     0.007 C 
ENDROOT
BRANCH   2   4
ATOM      4  C   UNL     1      85.973  31.877  32.817  1.00  0.00     0.159 C 
ATOM      5  O   UNL     1      86.588  30.960  32.206  1.00  0.00    -0.295 OA
BRANCH   4   6
ATOM      6  C   UNL     1      84.673  31.525  33.474  1.00  0.00     0.091 CG0
ATOM      7  G   UNL     1      83.483  32.364  32.957  1.00  0.00     0.000 G0
ENDBRANCH   4   6
ENDBRANCH   2   4
BRANCH   3   8
ATOM      8  C   UNL     1      84.550  34.535  33.764  1.00  0.00    -0.003 C 
ATOM      9  C   UNL     1      83.496  33.717  33.649  1.00  0.00    -0.020 C 
BRANCH   9  10
ATOM     10  C   UNL     1      83.477  32.366  32.973  1.00  0.00    -0.010 CG0
ATOM     11  C   UNL     1      83.452  32.543  31.437  1.00  0.00     0.016 C 
ATOM     12  C   UNL     1      82.182  31.634  33.389  1.00  0.00     0.016 C 
ATOM     13  G   UNL     1      84.681  31.526  33.456  1.00  0.00     0.000 G0
ENDBRANCH   9  10
ENDBRANCH   3   8
TORSDOF 0
ENDMDL
MODEL 4
REMARK VINA RESULT:    -2.720      2.144      3.374
REMARK INTER + INTRA:          -2.602
REMARK INTER:                  -3.352
REMARK INTRA:                   0.750
REMARK UNBOUND:                 0.754
REMARK SMILES CC1=CC=CC(C)(C)CC1=O
REMARK SMILES IDX 1 1 2 2 3 3 10 4 11 5 9 6 4 8 5 9 6 10 7 11 8 12
REMARK H PARENT
REMARK Flexibility Score: 80.00
ROOT
ATOM      1  C   UNL     1      88.349  38.455  25.960  1.00  0.00     0.048 C 
ATOM      2  C   UNL     1      87.299  37.504  26.486  1.00  0.00    -0.008 C 
ATOM      3  C   UNL     1      86.977  37.588  27.795  1.00  0.00     0.007 C 
ENDROOT
BRANCH   2   4
ATOM      4  C   UNL     1      86.651  36.602  25.501  1.00  0.00     0.159 C 
ATOM      5  O   UNL     1      86.846  36.803  24.271  1.00  0.00    -0.295 OA
BRANCH   4   6
ATOM      6  C   UNL     1      85.781  35.445  25.888  1.00  0.00     0.091 CG0
ATOM      7  G   UNL     1      84.548  35.862  26.720  1.00  0.00     0.000 G0
ENDBRANCH   4   6
ENDBRANCH   2   4
BRANCH   3   8
ATOM      8  C   UNL     1      85.983  36.821  28.581  1.00  0.00    -0.003 C 
ATOM      9  C   UNL     1      84.943  36.096  28.150  1.00  0.00    -0.020 C 
BRANCH   9  10
ATOM     10  C   UNL     1      84.546  35.864  26.711  1.00  0.00    -0.010 CG0
ATOM     11  C   UNL     1      83.846  37.121  26.146  1.00  0.00     0.016 C 
ATOM     12  C   UNL     1      83.534  34.696  26.670  1.00  0.00     0.016 C 
ATOM     13  G   UNL     1      85.787  35.453  25.888  1.00  0.00     0.000 G0
ENDBRANCH   9  10
ENDBRANCH   3   8
TORSDOF 0
ENDMDL
MODEL 5
REMARK VINA RESULT:    -2.717      3.903      4.794
REMARK INTER + INTRA:          -2.599
REMARK INTER:                  -3.341
REMARK INTRA:                   0.743
REMARK UNBOUND:                 0.754
REMARK SMILES CC1=CC=CC(C)(C)CC1=O
REMARK SMILES IDX 1 1 2 2 3 3 10 4 11 5 9 6 4 8 5 9 6 10 7 11 8 12
REMARK H PARENT
REMARK Flexibility Score: 80.00
ROOT
ATOM      1  C   UNL     1      84.246  38.859  31.138  1.00  0.00     0.048 C 
ATOM      2  C   UNL     1      84.765  38.144  29.912  1.00  0.00    -0.008 C 
ATOM      3  C   UNL     1      86.077  38.278  29.617  1.00  0.00     0.007 C 
ENDROOT
BRANCH   2   4
ATOM      4  C   UNL     1      83.805  37.289  29.171  1.00  0.00     0.159 C 
ATOM      5  O   UNL     1      82.685  37.037  29.695  1.00  0.00    -0.295 OA
BRANCH   4   6
ATOM      6  C   UNL     1      84.085  36.714  27.816  1.00  0.00     0.091 CG0
ATOM      7  G   UNL     1      85.334  35.805  27.787  1.00  0.00     0.000 G0
ENDBRANCH   4   6
ENDBRANCH   2   4
BRANCH   3   8
ATOM      8  C   UNL     1      86.870  37.686  28.515  1.00  0.00    -0.003 C 
ATOM      9  C   UNL     1      86.580  36.637  27.735  1.00  0.00    -0.020 C 
BRANCH   9  10
ATOM     10  C   UNL     1      85.323  35.801  27.787  1.00  0.00    -0.010 CG0
ATOM     11  C   UNL     1      85.383  34.827  28.986  1.00  0.00     0.016 C 
ATOM     12  C   UNL     1      85.248  34.958  26.493  1.00  0.00     0.016 C 
ATOM     13  G   UNL     1      84.085  36.725  27.831  1.00  0.00     0.000 G0
ENDBRANCH   9  10
ENDBRANCH   3   8
TORSDOF 0
ENDMDL
MODEL 6
REMARK VINA RESULT:    -2.643      3.793      4.483
REMARK INTER + INTRA:          -2.507
REMARK INTER:                  -3.251
REMARK INTRA:                   0.745
REMARK UNBOUND:                 0.754
REMARK SMILES CC1=CC=CC(C)(C)CC1=O
REMARK SMILES IDX 1 1 2 2 3 3 10 4 11 5 9 6 4 8 5 9 6 10 7 11 8 12
REMARK H PARENT
REMARK Flexibility Score: 80.00
ROOT
ATOM      1  C   UNL     1      82.750  39.890  21.704  1.00  0.00     0.048 C 
ATOM      2  C   UNL     1      82.709  38.380  21.717  1.00  0.00    -0.008 C 
ATOM      3  C   UNL     1      83.121  37.733  20.605  1.00  0.00     0.007 C 
ENDROOT
BRANCH   2   4
ATOM      4  C   UNL     1      82.289  37.726  22.981  1.00  0.00     0.159 C 
ATOM      5  O   UNL     1      82.190  38.427  24.025  1.00  0.00    -0.295 OA
BRANCH   4   6
ATOM      6  C   UNL     1      81.958  36.269  23.087  1.00  0.00     0.091 CG0
ATOM      7  G   UNL     1      83.133  35.347  22.690  1.00  0.00     0.000 G0
ENDBRANCH   4   6
ENDBRANCH   2   4
BRANCH   3   8
ATOM      8  C   UNL     1      83.220  36.281  20.330  1.00  0.00    -0.003 C 
ATOM      9  C   UNL     1      83.237  35.258  21.194  1.00  0.00    -0.020 C 
BRANCH   9  10
ATOM     10  C   UNL     1      83.131  35.351  22.698  1.00  0.00    -0.010 CG0
ATOM     11  C   UNL     1      84.480  35.810  23.297  1.00  0.00     0.016 C 
ATOM     12  C   UNL     1      82.820  33.941  23.250  1.00  0.00     0.016 C 
ATOM     13  G   UNL     1      81.961  36.286  23.080  1.00  0.00     0.000 G0
ENDBRANCH   9  10
ENDBRANCH   3   8
TORSDOF 0
ENDMDL
MODEL 7
REMARK VINA RESULT:    -2.641      6.139      7.340
REMARK INTER + INTRA:          -2.504
REMARK INTER:                  -3.252
REMARK INTRA:                   0.748
REMARK UNBOUND:                 0.754
REMARK SMILES CC1=CC=CC(C)(C)CC1=O
REMARK SMILES IDX 1 1 2 2 3 3 10 4 11 5 9 6 4 8 5 9 6 10 7 11 8 12
REMARK H PARENT
REMARK Flexibility Score: 80.00
ROOT
ATOM      1  C   UNL     1      84.227  34.713  33.979  1.00  0.00     0.048 C 
ATOM      2  C   UNL     1      85.150  34.225  32.888  1.00  0.00    -0.008 C 
ATOM      3  C   UNL     1      86.390  33.826  33.249  1.00  0.00     0.007 C 
ENDROOT
BRANCH   2   4
ATOM      4  C   UNL     1      84.594  34.151  31.514  1.00  0.00     0.159 C 
ATOM      5  O   UNL     1      83.351  34.297  31.352  1.00  0.00    -0.295 OA
BRANCH   4   6
ATOM      6  C   UNL     1      85.433  33.927  30.294  1.00  0.00     0.091 CG0
ATOM      7  G   UNL     1      86.223  32.600  30.333  1.00  0.00     0.000 G0
ENDBRANCH   4   6
ENDBRANCH   2   4
BRANCH   3   8
ATOM      8  C   UNL     1      87.493  33.282  32.422  1.00  0.00    -0.003 C 
ATOM      9  C   UNL     1      87.444  32.749  31.195  1.00  0.00    -0.020 C 
BRANCH   9  10
ATOM     10  C   UNL     1      86.215  32.598  30.330  1.00  0.00    -0.010 CG0
ATOM     11  C   UNL     1      85.359  31.410  30.828  1.00  0.00     0.016 C 
ATOM     12  C   UNL     1      86.673  32.284  28.887  1.00  0.00     0.016 C 
ATOM     13  G   UNL     1      85.429  33.928  30.306  1.00  0.00     0.000 G0
ENDBRANCH   9  10
ENDBRANCH   3   8
TORSDOF 0
ENDMDL
MODEL 8
REMARK VINA RESULT:    -2.594      5.565      6.678
REMARK INTER + INTRA:          -2.446
REMARK INTER:                  -3.197
REMARK INTRA:                   0.751
REMARK UNBOUND:                 0.754
REMARK SMILES CC1=CC=CC(C)(C)CC1=O
REMARK SMILES IDX 1 1 2 2 3 3 10 4 11 5 9 6 4 8 5 9 6 10 7 11 8 12
REMARK H PARENT
REMARK Flexibility Score: 80.00
ROOT
ATOM      1  C   UNL     1      83.399  35.619  19.917  1.00  0.00     0.048 C 
ATOM      2  C   UNL     1      82.778  36.659  20.819  1.00  0.00    -0.008 C 
ATOM      3  C   UNL     1      83.209  37.933  20.695  1.00  0.00     0.007 C 
ENDROOT
BRANCH   2   4
ATOM      4  C   UNL     1      81.687  36.208  21.719  1.00  0.00     0.159 C 
ATOM      5  O   UNL     1      81.199  35.056  21.554  1.00  0.00    -0.295 OA
BRANCH   4   6
ATOM      6  C   UNL     1      81.135  37.045  22.832  1.00  0.00     0.091 CG0
ATOM      7  G   UNL     1      80.544  38.388  22.349  1.00  0.00     0.000 G0
ENDBRANCH   4   6
ENDBRANCH   2   4
BRANCH   3   8
ATOM      8  C   UNL     1      82.777  39.157  21.409  1.00  0.00    -0.003 C 
ATOM      9  C   UNL     1      81.654  39.377  22.105  1.00  0.00    -0.020 C 
BRANCH   9  10
ATOM     10  C   UNL     1      80.543  38.385  22.352  1.00  0.00    -0.010 CG0
ATOM     11  C   UNL     1      79.670  38.241  21.084  1.00  0.00     0.016 C 
ATOM     12  C   UNL     1      79.648  38.932  23.487  1.00  0.00     0.016 C 
ATOM     13  G   UNL     1      81.141  37.039  22.819  1.00  0.00     0.000 G0
ENDBRANCH   9  10
ENDBRANCH   3   8
TORSDOF 0
ENDMDL
MODEL 9
REMARK VINA RESULT:    -2.571      4.936      5.643
REMARK INTER + INTRA:          -2.418
REMARK INTER:                  -3.173
REMARK INTRA:                   0.755
REMARK UNBOUND:                 0.754
REMARK SMILES CC1=CC=CC(C)(C)CC1=O
REMARK SMILES IDX 1 1 2 2 3 3 10 4 11 5 9 6 4 8 5 9 6 10 7 11 8 12
REMARK H PARENT
REMARK Flexibility Score: 80.00
ROOT
ATOM      1  C   UNL     1      86.789  38.251  29.175  1.00  0.00     0.048 C 
ATOM      2  C   UNL     1      85.805  37.106  29.226  1.00  0.00    -0.008 C 
ATOM      3  C   UNL     1      86.143  35.961  28.594  1.00  0.00     0.007 C 
ENDROOT
BRANCH   2   4
ATOM      4  C   UNL     1      84.575  37.307  30.032  1.00  0.00     0.159 C 
ATOM      5  O   UNL     1      84.493  38.324  30.774  1.00  0.00    -0.295 OA
BRANCH   4   6
ATOM      6  C   UNL     1      83.407  36.370  30.005  1.00  0.00     0.091 CG0
ATOM      7  G   UNL     1      83.773  34.927  30.416  1.00  0.00     0.000 G0
ENDBRANCH   4   6
ENDBRANCH   2   4
BRANCH   3   8
ATOM      8  C   UNL     1      85.409  34.678  28.491  1.00  0.00    -0.003 C 
ATOM      9  C   UNL     1      84.411  34.214  29.254  1.00  0.00    -0.020 C 
BRANCH   9  10
ATOM     10  C   UNL     1      83.764  34.926  30.418  1.00  0.00    -0.010 CG0
ATOM     11  C   UNL     1      84.687  34.862  31.657  1.00  0.00     0.016 C 
ATOM     12  C   UNL     1      82.449  34.192  30.765  1.00  0.00     0.016 C 
ATOM     13  G   UNL     1      83.413  36.375  30.011  1.00  0.00     0.000 G0
ENDBRANCH   9  10
ENDBRANCH   3   8
TORSDOF 0
ENDMDL
