MODEL 1
REMARK VINA RESULT:    -4.396      0.000      0.000
REMARK INTER + INTRA:          -7.271
REMARK INTER:                  -6.452
REMARK INTRA:                  -0.819
REMARK UNBOUND:                -0.819
REMARK SMILES O=C([O-])CCCCCCCC(=O)[O-]
REMARK SMILES IDX 7 1 6 2 5 3 4 4 2 5 1 6 3 7 8 8 9 9 10 10 11 11 12 12 13 13
REMARK H PARENT
REMARK Flexibility Score: inf
ROOT
ATOM      1  C   UNL     1       0.936  56.521  17.149  1.00  0.00     0.000 C 
ENDROOT
BRANCH   1   2
ATOM      2  C   UNL     1       1.674  57.525  18.051  1.00  0.00     0.000 C 
BRANCH   2   3
ATOM      3  C   UNL     1       3.182  57.244  18.137  1.00  0.00     0.006 C 
BRANCH   3   4
ATOM      4  C   UNL     1       3.551  55.839  17.645  1.00  0.00     0.053 C 
BRANCH   4   5
ATOM      5  C   UNL     1       4.607  55.917  16.588  1.00  0.00     0.041 C 
ATOM      6  O   UNL     1       5.499  56.803  16.648  1.00  0.00    -0.550 OA
ATOM      7  O   UNL     1       4.577  55.042  15.510  1.00  0.00    -0.550 OA
ENDBRANCH   4   5
ENDBRANCH   3   4
ENDBRANCH   2   3
ENDBRANCH   1   2
BRANCH   1   8
ATOM      8  C   UNL     1      -0.186  55.777  17.890  1.00  0.00     0.000 C 
BRANCH   8   9
ATOM      9  C   UNL     1      -0.249  56.131  19.387  1.00  0.00     0.006 C 
BRANCH   9  10
ATOM     10  C   UNL     1      -0.042  54.902  20.281  1.00  0.00     0.053 C 
BRANCH  10  11
ATOM     11  C   UNL     1       1.408  54.550  20.415  1.00  0.00     0.041 C 
ATOM     12  O   UNL     1       2.205  55.348  20.976  1.00  0.00    -0.550 OA
ATOM     13  O   UNL     1       1.886  53.356  19.890  1.00  0.00    -0.550 OA
ENDBRANCH  10  11
ENDBRANCH   9  10
ENDBRANCH   8   9
ENDBRANCH   1   8
TORSDOF 8
ENDMDL
MODEL 2
REMARK VINA RESULT:    -4.331      0.157      4.653
REMARK INTER + INTRA:          -7.176
REMARK INTER:                  -6.374
REMARK INTRA:                  -0.802
REMARK UNBOUND:                -0.819
REMARK SMILES O=C([O-])CCCCCCCC(=O)[O-]
REMARK SMILES IDX 7 1 6 2 5 3 4 4 2 5 1 6 3 7 8 8 9 9 10 10 11 11 12 12 13 13
REMARK H PARENT
REMARK Flexibility Score: inf
ROOT
ATOM      1  C   UNL     1       0.996  56.498  17.198  1.00  0.00     0.000 C 
ENDROOT
BRANCH   1   2
ATOM      2  C   UNL     1      -0.262  56.011  17.938  1.00  0.00     0.000 C 
BRANCH   2   3
ATOM      3  C   UNL     1      -0.164  56.208  19.459  1.00  0.00     0.006 C 
BRANCH   3   4
ATOM      4  C   UNL     1      -0.077  54.882  20.224  1.00  0.00     0.053 C 
BRANCH   4   5
ATOM      5  C   UNL     1       1.350  54.459  20.375  1.00  0.00     0.041 C 
ATOM      6  O   UNL     1       1.758  53.400  19.829  1.00  0.00    -0.550 OA
ATOM      7  O   UNL     1       2.218  55.206  21.160  1.00  0.00    -0.550 OA
ENDBRANCH   4   5
ENDBRANCH   3   4
ENDBRANCH   2   3
ENDBRANCH   1   2
BRANCH   1   8
ATOM      8  C   UNL     1       1.811  57.508  18.021  1.00  0.00     0.000 C 
BRANCH   8   9
ATOM      9  C   UNL     1       3.247  57.028  18.298  1.00  0.00     0.006 C 
BRANCH   9  10
ATOM     10  C   UNL     1       3.553  55.691  17.610  1.00  0.00     0.053 C 
BRANCH  10  11
ATOM     11  C   UNL     1       4.565  55.848  16.517  1.00  0.00     0.041 C 
ATOM     12  O   UNL     1       4.582  55.042  15.549  1.00  0.00    -0.550 OA
ATOM     13  O   UNL     1       5.513  56.861  16.584  1.00  0.00    -0.550 OA
ENDBRANCH  10  11
ENDBRANCH   9  10
ENDBRANCH   8   9
ENDBRANCH   1   8
TORSDOF 8
ENDMDL
MODEL 3
REMARK VINA RESULT:    -4.211      2.940      4.263
REMARK INTER + INTRA:          -6.999
REMARK INTER:                  -6.580
REMARK INTRA:                  -0.419
REMARK UNBOUND:                -0.819
REMARK SMILES O=C([O-])CCCCCCCC(=O)[O-]
REMARK SMILES IDX 7 1 6 2 5 3 4 4 2 5 1 6 3 7 8 8 9 9 10 10 11 11 12 12 13 13
REMARK H PARENT
REMARK Flexibility Score: inf
ROOT
ATOM      1  C   UNL     1       4.705  55.166  17.446  1.00  0.00     0.000 C 
ENDROOT
BRANCH   1   2
ATOM      2  C   UNL     1       5.043  56.666  17.507  1.00  0.00     0.000 C 
BRANCH   2   3
ATOM      3  C   UNL     1       6.458  56.973  16.993  1.00  0.00     0.006 C 
BRANCH   3   4
ATOM      4  C   UNL     1       7.514  56.934  18.104  1.00  0.00     0.053 C 
BRANCH   4   5
ATOM      5  C   UNL     1       7.949  58.321  18.461  1.00  0.00     0.041 C 
ATOM      6  O   UNL     1       8.985  58.812  17.942  1.00  0.00    -0.550 OA
ATOM      7  O   UNL     1       7.238  59.051  19.404  1.00  0.00    -0.550 OA
ENDBRANCH   4   5
ENDBRANCH   3   4
ENDBRANCH   2   3
ENDBRANCH   1   2
BRANCH   1   8
ATOM      8  C   UNL     1       4.110  54.750  16.092  1.00  0.00     0.000 C 
BRANCH   8   9
ATOM      9  C   UNL     1       2.704  55.332  15.856  1.00  0.00     0.006 C 
BRANCH   9  10
ATOM     10  C   UNL     1       1.730  54.965  16.982  1.00  0.00     0.053 C 
BRANCH  10  11
ATOM     11  C   UNL     1       1.102  56.180  17.593  1.00  0.00     0.041 C 
ATOM     12  O   UNL     1       1.117  56.341  18.842  1.00  0.00    -0.550 OA
ATOM     13  O   UNL     1       0.471  57.118  16.785  1.00  0.00    -0.550 OA
ENDBRANCH  10  11
ENDBRANCH   9  10
ENDBRANCH   8   9
ENDBRANCH   1   8
TORSDOF 8
ENDMDL
MODEL 4
REMARK VINA RESULT:    -4.124      2.122      3.113
REMARK INTER + INTRA:          -6.872
REMARK INTER:                  -6.167
REMARK INTRA:                  -0.705
REMARK UNBOUND:                -0.819
REMARK SMILES O=C([O-])CCCCCCCC(=O)[O-]
REMARK SMILES IDX 7 1 6 2 5 3 4 4 2 5 1 6 3 7 8 8 9 9 10 10 11 11 12 12 13 13
REMARK H PARENT
REMARK Flexibility Score: inf
ROOT
ATOM      1  C   UNL     1       2.110  52.979  19.070  1.00  0.00     0.000 C 
ENDROOT
BRANCH   1   2
ATOM      2  C   UNL     1       2.647  53.198  17.645  1.00  0.00     0.000 C 
BRANCH   2   3
ATOM      3  C   UNL     1       1.781  54.171  16.831  1.00  0.00     0.006 C 
BRANCH   3   4
ATOM      4  C   UNL     1       2.596  54.987  15.820  1.00  0.00     0.053 C 
BRANCH   4   5
ATOM      5  C   UNL     1       3.749  55.658  16.498  1.00  0.00     0.041 C 
ATOM      6  O   UNL     1       4.925  55.458  16.095  1.00  0.00    -0.550 OA
ATOM      7  O   UNL     1       3.529  56.464  17.607  1.00  0.00    -0.550 OA
ENDBRANCH   4   5
ENDBRANCH   3   4
ENDBRANCH   2   3
ENDBRANCH   1   2
BRANCH   1   8
ATOM      8  C   UNL     1       2.825  53.856  20.111  1.00  0.00     0.000 C 
BRANCH   8   9
ATOM      9  C   UNL     1       1.944  55.009  20.624  1.00  0.00     0.006 C 
BRANCH   9  10
ATOM     10  C   UNL     1       0.448  54.715  20.450  1.00  0.00     0.053 C 
BRANCH  10  11
ATOM     11  C   UNL     1      -0.243  55.793  19.671  1.00  0.00     0.041 C 
ATOM     12  O   UNL     1      -1.493  55.925  19.745  1.00  0.00    -0.550 OA
ATOM     13  O   UNL     1       0.489  56.627  18.836  1.00  0.00    -0.550 OA
ENDBRANCH  10  11
ENDBRANCH   9  10
ENDBRANCH   8   9
ENDBRANCH   1   8
TORSDOF 8
ENDMDL
MODEL 5
REMARK VINA RESULT:    -4.120      1.285      4.055
REMARK INTER + INTRA:          -6.867
REMARK INTER:                  -6.064
REMARK INTRA:                  -0.803
REMARK UNBOUND:                -0.819
REMARK SMILES O=C([O-])CCCCCCCC(=O)[O-]
REMARK SMILES IDX 7 1 6 2 5 3 4 4 2 5 1 6 3 7 8 8 9 9 10 10 11 11 12 12 13 13
REMARK H PARENT
REMARK Flexibility Score: inf
ROOT
ATOM      1  C   UNL     1      -0.863  55.636  18.072  1.00  0.00     0.000 C 
ENDROOT
BRANCH   1   2
ATOM      2  C   UNL     1      -0.736  55.976  19.567  1.00  0.00     0.000 C 
BRANCH   2   3
ATOM      3  C   UNL     1      -0.322  54.763  20.415  1.00  0.00     0.006 C 
BRANCH   3   4
ATOM      4  C   UNL     1       0.811  53.951  19.774  1.00  0.00     0.053 C 
BRANCH   4   5
ATOM      5  C   UNL     1       2.116  54.262  20.437  1.00  0.00     0.041 C 
ATOM      6  O   UNL     1       2.234  55.293  21.150  1.00  0.00    -0.550 OA
ATOM      7  O   UNL     1       3.216  53.441  20.227  1.00  0.00    -0.550 OA
ENDBRANCH   4   5
ENDBRANCH   3   4
ENDBRANCH   2   3
ENDBRANCH   1   2
BRANCH   1   8
ATOM      8  C   UNL     1      -0.281  56.733  17.166  1.00  0.00     0.000 C 
BRANCH   8   9
ATOM      9  C   UNL     1       1.105  57.215  17.630  1.00  0.00     0.006 C 
BRANCH   9  10
ATOM     10  C   UNL     1       2.218  56.234  17.242  1.00  0.00     0.053 C 
BRANCH  10  11
ATOM     11  C   UNL     1       3.497  56.529  17.965  1.00  0.00     0.041 C 
ATOM     12  O   UNL     1       4.492  55.768  17.829  1.00  0.00    -0.550 OA
ATOM     13  O   UNL     1       3.579  57.623  18.816  1.00  0.00    -0.550 OA
ENDBRANCH  10  11
ENDBRANCH   9  10
ENDBRANCH   8   9
ENDBRANCH   1   8
TORSDOF 8
ENDMDL
MODEL 6
REMARK VINA RESULT:    -4.120      4.917      6.933
REMARK INTER + INTRA:          -6.865
REMARK INTER:                  -6.524
REMARK INTRA:                  -0.341
REMARK UNBOUND:                -0.819
REMARK SMILES O=C([O-])CCCCCCCC(=O)[O-]
REMARK SMILES IDX 7 1 6 2 5 3 4 4 2 5 1 6 3 7 8 8 9 9 10 10 11 11 12 12 13 13
REMARK H PARENT
REMARK Flexibility Score: inf
ROOT
ATOM      1  C   UNL     1       7.478  58.179  18.728  1.00  0.00     0.000 C 
ENDROOT
BRANCH   1   2
ATOM      2  C   UNL     1       8.624  59.018  18.136  1.00  0.00     0.000 C 
BRANCH   2   3
ATOM      3  C   UNL     1       9.607  58.174  17.310  1.00  0.00     0.006 C 
BRANCH   3   4
ATOM      4  C   UNL     1      10.523  59.029  16.425  1.00  0.00     0.053 C 
BRANCH   4   5
ATOM      5  C   UNL     1      11.491  59.800  17.266  1.00  0.00     0.041 C 
ATOM      6  O   UNL     1      12.163  59.215  18.156  1.00  0.00    -0.550 OA
ATOM      7  O   UNL     1      11.614  61.174  17.102  1.00  0.00    -0.550 OA
ENDBRANCH   4   5
ENDBRANCH   3   4
ENDBRANCH   2   3
ENDBRANCH   1   2
BRANCH   1   8
ATOM      8  C   UNL     1       7.307  56.828  18.015  1.00  0.00     0.000 C 
BRANCH   8   9
ATOM      9  C   UNL     1       6.242  56.871  16.905  1.00  0.00     0.006 C 
BRANCH   9  10
ATOM     10  C   UNL     1       4.837  56.567  17.440  1.00  0.00     0.053 C 
BRANCH  10  11
ATOM     11  C   UNL     1       4.024  55.783  16.456  1.00  0.00     0.041 C 
ATOM     12  O   UNL     1       4.595  55.091  15.571  1.00  0.00    -0.550 OA
ATOM     13  O   UNL     1       2.637  55.843  16.492  1.00  0.00    -0.550 OA
ENDBRANCH  10  11
ENDBRANCH   9  10
ENDBRANCH   8   9
ENDBRANCH   1   8
TORSDOF 8
ENDMDL
MODEL 7
REMARK VINA RESULT:    -4.108      2.164      5.015
REMARK INTER + INTRA:          -6.849
REMARK INTER:                  -6.101
REMARK INTRA:                  -0.748
REMARK UNBOUND:                -0.819
REMARK SMILES O=C([O-])CCCCCCCC(=O)[O-]
REMARK SMILES IDX 7 1 6 2 5 3 4 4 2 5 1 6 3 7 8 8 9 9 10 10 11 11 12 12 13 13
REMARK H PARENT
REMARK Flexibility Score: inf
ROOT
ATOM      1  C   UNL     1       2.077  52.922  19.103  1.00  0.00     0.000 C 
ENDROOT
BRANCH   1   2
ATOM      2  C   UNL     1       2.770  53.943  20.023  1.00  0.00     0.000 C 
BRANCH   2   3
ATOM      3  C   UNL     1       1.774  54.895  20.703  1.00  0.00     0.006 C 
BRANCH   3   4
ATOM      4  C   UNL     1       0.324  54.404  20.608  1.00  0.00     0.053 C 
BRANCH   4   5
ATOM      5  C   UNL     1      -0.517  55.397  19.869  1.00  0.00     0.041 C 
ATOM      6  O   UNL     1       0.020  56.388  19.308  1.00  0.00    -0.550 OA
ATOM      7  O   UNL     1      -1.898  55.254  19.841  1.00  0.00    -0.550 OA
ENDBRANCH   4   5
ENDBRANCH   3   4
ENDBRANCH   2   3
ENDBRANCH   1   2
BRANCH   1   8
ATOM      8  C   UNL     1       2.426  53.131  17.621  1.00  0.00     0.000 C 
BRANCH   8   9
ATOM      9  C   UNL     1       1.628  54.280  16.978  1.00  0.00     0.006 C 
BRANCH   9  10
ATOM     10  C   UNL     1       2.462  55.061  15.954  1.00  0.00     0.053 C 
BRANCH  10  11
ATOM     11  C   UNL     1       3.647  55.721  16.590  1.00  0.00     0.041 C 
ATOM     12  O   UNL     1       4.807  55.500  16.152  1.00  0.00    -0.550 OA
ATOM     13  O   UNL     1       3.474  56.553  17.690  1.00  0.00    -0.550 OA
ENDBRANCH  10  11
ENDBRANCH   9  10
ENDBRANCH   8   9
ENDBRANCH   1   8
TORSDOF 8
ENDMDL
MODEL 8
REMARK VINA RESULT:    -4.104      2.066      3.393
REMARK INTER + INTRA:          -6.843
REMARK INTER:                  -5.892
REMARK INTRA:                  -0.951
REMARK UNBOUND:                -0.819
REMARK SMILES O=C([O-])CCCCCCCC(=O)[O-]
REMARK SMILES IDX 7 1 6 2 5 3 4 4 2 5 1 6 3 7 8 8 9 9 10 10 11 11 12 12 13 13
REMARK H PARENT
REMARK Flexibility Score: inf
ROOT
ATOM      1  C   UNL     1       0.380  54.781  20.527  1.00  0.00     0.000 C 
ENDROOT
BRANCH   1   2
ATOM      2  C   UNL     1      -0.177  55.922  19.658  1.00  0.00     0.000 C 
BRANCH   2   3
ATOM      3  C   UNL     1      -0.268  55.541  18.172  1.00  0.00     0.006 C 
BRANCH   3   4
ATOM      4  C   UNL     1       0.393  56.576  17.253  1.00  0.00     0.053 C 
BRANCH   4   5
ATOM      5  C   UNL     1       1.809  56.186  16.961  1.00  0.00     0.041 C 
ATOM      6  O   UNL     1       2.726  56.477  17.774  1.00  0.00    -0.550 OA
ATOM      7  O   UNL     1       2.122  55.546  15.770  1.00  0.00    -0.550 OA
ENDBRANCH   4   5
ENDBRANCH   3   4
ENDBRANCH   2   3
ENDBRANCH   1   2
BRANCH   1   8
ATOM      8  C   UNL     1       1.844  55.010  20.934  1.00  0.00     0.000 C 
BRANCH   8   9
ATOM      9  C   UNL     1       2.800  53.965  20.330  1.00  0.00     0.006 C 
BRANCH   9  10
ATOM     10  C   UNL     1       2.049  52.872  19.559  1.00  0.00     0.053 C 
BRANCH  10  11
ATOM     11  C   UNL     1       2.455  52.830  18.117  1.00  0.00     0.041 C 
ATOM     12  O   UNL     1       1.593  52.624  17.222  1.00  0.00    -0.550 OA
ATOM     13  O   UNL     1       3.790  52.982  17.765  1.00  0.00    -0.550 OA
ENDBRANCH  10  11
ENDBRANCH   9  10
ENDBRANCH   8   9
ENDBRANCH   1   8
TORSDOF 8
ENDMDL
MODEL 9
REMARK VINA RESULT:    -4.038      1.135      1.846
REMARK INTER + INTRA:          -6.746
REMARK INTER:                  -6.011
REMARK INTRA:                  -0.735
REMARK UNBOUND:                -0.819
REMARK SMILES O=C([O-])CCCCCCCC(=O)[O-]
REMARK SMILES IDX 7 1 6 2 5 3 4 4 2 5 1 6 3 7 8 8 9 9 10 10 11 11 12 12 13 13
REMARK H PARENT
REMARK Flexibility Score: inf
ROOT
ATOM      1  C   UNL     1      -0.343  55.741  18.030  1.00  0.00     0.000 C 
ENDROOT
BRANCH   1   2
ATOM      2  C   UNL     1       0.393  56.850  17.259  1.00  0.00     0.000 C 
BRANCH   2   3
ATOM      3  C   UNL     1       1.920  56.684  17.302  1.00  0.00     0.006 C 
BRANCH   3   4
ATOM      4  C   UNL     1       2.400  55.423  16.573  1.00  0.00     0.053 C 
BRANCH   4   5
ATOM      5  C   UNL     1       3.894  55.407  16.485  1.00  0.00     0.041 C 
ATOM      6  O   UNL     1       4.462  54.997  15.439  1.00  0.00    -0.550 OA
ATOM      7  O   UNL     1       4.659  55.799  17.575  1.00  0.00    -0.550 OA
ENDBRANCH   4   5
ENDBRANCH   3   4
ENDBRANCH   2   3
ENDBRANCH   1   2
BRANCH   1   8
ATOM      8  C   UNL     1      -0.482  56.056  19.528  1.00  0.00     0.000 C 
BRANCH   8   9
ATOM      9  C   UNL     1       0.019  54.910  20.426  1.00  0.00     0.006 C 
BRANCH   9  10
ATOM     10  C   UNL     1       1.548  54.898  20.549  1.00  0.00     0.053 C 
BRANCH  10  11
ATOM     11  C   UNL     1       2.146  53.673  19.929  1.00  0.00     0.041 C 
ATOM     12  O   UNL     1       1.409  52.711  19.588  1.00  0.00    -0.550 OA
ATOM     13  O   UNL     1       3.522  53.578  19.761  1.00  0.00    -0.550 OA
ENDBRANCH  10  11
ENDBRANCH   9  10
ENDBRANCH   8   9
ENDBRANCH   1   8
TORSDOF 8
ENDMDL
