MODEL 1
REMARK VINA RESULT:     2.568      0.000      0.000
REMARK INTER + INTRA:           4.497
REMARK INTER:                   4.969
REMARK INTRA:                  -0.472
REMARK UNBOUND:                -0.472
REMARK SMILES CCCCCCCCCCCCCCCCCC(=O)[O-]
REMARK SMILES IDX 10 1 11 2 12 3 13 4 14 5 15 6 16 7 17 8 18 9 19 10 20 11
REMARK SMILES IDX 9 12 8 13 7 14 6 15 5 16 4 17 3 18 2 19 1 20
REMARK H PARENT
REMARK Flexibility Score: inf
ROOT
ATOM      1  C   UNL     1     -27.887 -21.329 -20.300  1.00  0.00     0.000 C 
ENDROOT
BRANCH   1   2
ATOM      2  C   UNL     1     -27.604 -21.925 -21.691  1.00  0.00     0.000 C 
BRANCH   2   3
ATOM      3  C   UNL     1     -27.759 -20.878 -22.816  1.00  0.00     0.000 C 
BRANCH   3   4
ATOM      4  C   UNL     1     -28.638 -21.354 -23.989  1.00  0.00     0.000 C 
BRANCH   4   5
ATOM      5  C   UNL     1     -29.034 -20.255 -24.989  1.00  0.00     0.000 C 
BRANCH   5   6
ATOM      6  C   UNL     1     -30.153 -20.694 -25.944  1.00  0.00     0.000 C 
BRANCH   6   7
ATOM      7  C   UNL     1     -31.436 -21.025 -25.168  1.00  0.00     0.006 C 
BRANCH   7   8
ATOM      8  C   UNL     1     -32.025 -19.794 -24.468  1.00  0.00     0.053 C 
BRANCH   8   9
ATOM      9  C   UNL     1     -31.926 -19.903 -22.977  1.00  0.00     0.041 C 
ATOM     10  O   UNL     1     -32.545 -19.093 -22.239  1.00  0.00    -0.550 OA
ATOM     11  O   UNL     1     -31.175 -20.921 -22.403  1.00  0.00    -0.550 OA
ENDBRANCH   8   9
ENDBRANCH   7   8
ENDBRANCH   6   7
ENDBRANCH   5   6
ENDBRANCH   4   5
ENDBRANCH   3   4
ENDBRANCH   2   3
ENDBRANCH   1   2
BRANCH   1  12
ATOM     12  C   UNL     1     -28.943 -22.124 -19.516  1.00  0.00     0.000 C 
BRANCH  12  13
ATOM     13  C   UNL     1     -28.691 -22.109 -17.999  1.00  0.00    -0.000 C 
BRANCH  13  14
ATOM     14  C   UNL     1     -29.995 -22.124 -17.185  1.00  0.00    -0.000 C 
BRANCH  14  15
ATOM     15  C   UNL     1     -29.758 -21.904 -15.683  1.00  0.00    -0.000 C 
BRANCH  15  16
ATOM     16  C   UNL     1     -31.085 -21.888 -14.914  1.00  0.00    -0.000 C 
BRANCH  16  17
ATOM     17  C   UNL     1     -31.227 -20.603 -14.086  1.00  0.00    -0.000 C 
BRANCH  17  18
ATOM     18  C   UNL     1     -29.972 -20.285 -13.252  1.00  0.00    -0.000 C 
BRANCH  18  19
ATOM     19  C   UNL     1     -29.736 -18.788 -12.983  1.00  0.00    -0.003 C 
ATOM     20  C   UNL     1     -29.294 -18.501 -11.549  1.00  0.00     0.004 C 
ENDBRANCH  18  19
ENDBRANCH  17  18
ENDBRANCH  16  17
ENDBRANCH  15  16
ENDBRANCH  14  15
ENDBRANCH  13  14
ENDBRANCH  12  13
ENDBRANCH   1  12
TORSDOF 16
ENDMDL
MODEL 2
REMARK VINA RESULT:     3.463      3.674      9.165
REMARK INTER + INTRA:           6.230
REMARK INTER:                   7.205
REMARK INTRA:                  -0.975
REMARK UNBOUND:                -0.472
REMARK SMILES CCCCCCCCCCCCCCCCCC(=O)[O-]
REMARK SMILES IDX 10 1 11 2 12 3 13 4 14 5 15 6 16 7 17 8 18 9 19 10 20 11
REMARK SMILES IDX 9 12 8 13 7 14 6 15 5 16 4 17 3 18 2 19 1 20
REMARK H PARENT
REMARK Flexibility Score: inf
ROOT
ATOM      1  C   UNL     1     -28.129 -20.540 -18.750  1.00  0.00     0.000 C 
ENDROOT
BRANCH   1   2
ATOM      2  C   UNL     1     -28.038 -21.847 -17.942  1.00  0.00     0.000 C 
BRANCH   2   3
ATOM      3  C   UNL     1     -29.324 -22.124 -17.134  1.00  0.00     0.000 C 
BRANCH   3   4
ATOM      4  C   UNL     1     -29.110 -22.119 -15.607  1.00  0.00     0.000 C 
BRANCH   4   5
ATOM      5  C   UNL     1     -30.402 -22.116 -14.773  1.00  0.00     0.000 C 
BRANCH   5   6
ATOM      6  C   UNL     1     -31.119 -20.758 -14.793  1.00  0.00     0.000 C 
BRANCH   6   7
ATOM      7  C   UNL     1     -30.950 -20.031 -13.451  1.00  0.00     0.006 C 
BRANCH   7   8
ATOM      8  C   UNL     1     -29.527 -19.491 -13.258  1.00  0.00     0.053 C 
BRANCH   8   9
ATOM      9  C   UNL     1     -29.433 -18.587 -12.069  1.00  0.00     0.041 C 
ATOM     10  O   UNL     1     -29.629 -17.349 -12.195  1.00  0.00    -0.550 OA
ATOM     11  O   UNL     1     -29.159 -19.115 -10.813  1.00  0.00    -0.550 OA
ENDBRANCH   8   9
ENDBRANCH   7   8
ENDBRANCH   6   7
ENDBRANCH   5   6
ENDBRANCH   4   5
ENDBRANCH   3   4
ENDBRANCH   2   3
ENDBRANCH   1   2
BRANCH   1  12
ATOM     12  C   UNL     1     -28.875 -20.715 -20.082  1.00  0.00     0.000 C 
BRANCH  12  13
ATOM     13  C   UNL     1     -28.271 -21.824 -20.960  1.00  0.00    -0.000 C 
BRANCH  13  14
ATOM     14  C   UNL     1     -27.515 -21.266 -22.177  1.00  0.00    -0.000 C 
BRANCH  14  15
ATOM     15  C   UNL     1     -28.070 -21.792 -23.510  1.00  0.00    -0.000 C 
BRANCH  15  16
ATOM     16  C   UNL     1     -29.602 -21.718 -23.534  1.00  0.00    -0.000 C 
BRANCH  16  17
ATOM     17  C   UNL     1     -30.098 -20.967 -24.778  1.00  0.00    -0.000 C 
BRANCH  17  18
ATOM     18  C   UNL     1     -31.249 -19.991 -24.471  1.00  0.00    -0.000 C 
BRANCH  18  19
ATOM     19  C   UNL     1     -31.511 -19.749 -22.974  1.00  0.00    -0.003 C 
ATOM     20  C   UNL     1     -32.942 -19.303 -22.682  1.00  0.00     0.004 C 
ENDBRANCH  18  19
ENDBRANCH  17  18
ENDBRANCH  16  17
ENDBRANCH  15  16
ENDBRANCH  14  15
ENDBRANCH  13  14
ENDBRANCH  12  13
ENDBRANCH   1  12
TORSDOF 16
ENDMDL
MODEL 3
REMARK VINA RESULT:     3.637      1.592      2.124
REMARK INTER + INTRA:           6.567
REMARK INTER:                   5.699
REMARK INTRA:                   0.868
REMARK UNBOUND:                -0.472
REMARK SMILES CCCCCCCCCCCCCCCCCC(=O)[O-]
REMARK SMILES IDX 10 1 11 2 12 3 13 4 14 5 15 6 16 7 17 8 18 9 19 10 20 11
REMARK SMILES IDX 9 12 8 13 7 14 6 15 5 16 4 17 3 18 2 19 1 20
REMARK H PARENT
REMARK Flexibility Score: inf
ROOT
ATOM      1  C   UNL     1     -28.180 -21.670 -19.554  1.00  0.00     0.000 C 
ENDROOT
BRANCH   1   2
ATOM      2  C   UNL     1     -28.030 -20.597 -20.648  1.00  0.00     0.000 C 
BRANCH   2   3
ATOM      3  C   UNL     1     -28.262 -21.171 -22.063  1.00  0.00     0.000 C 
BRANCH   3   4
ATOM      4  C   UNL     1     -29.470 -22.124 -22.154  1.00  0.00     0.000 C 
BRANCH   4   5
ATOM      5  C   UNL     1     -30.575 -21.676 -23.125  1.00  0.00     0.000 C 
BRANCH   5   6
ATOM      6  C   UNL     1     -31.453 -20.554 -22.551  1.00  0.00     0.000 C 
BRANCH   6   7
ATOM      7  C   UNL     1     -32.109 -19.743 -23.678  1.00  0.00     0.006 C 
BRANCH   7   8
ATOM      8  C   UNL     1     -31.104 -19.340 -24.765  1.00  0.00     0.053 C 
BRANCH   8   9
ATOM      9  C   UNL     1     -30.569 -20.532 -25.495  1.00  0.00     0.041 C 
ATOM     10  O   UNL     1     -29.346 -20.824 -25.425  1.00  0.00    -0.550 OA
ATOM     11  O   UNL     1     -31.427 -21.341 -26.229  1.00  0.00    -0.550 OA
ENDBRANCH   8   9
ENDBRANCH   7   8
ENDBRANCH   6   7
ENDBRANCH   5   6
ENDBRANCH   4   5
ENDBRANCH   3   4
ENDBRANCH   2   3
ENDBRANCH   1   2
BRANCH   1  12
ATOM     12  C   UNL     1     -27.618 -21.219 -18.197  1.00  0.00     0.000 C 
BRANCH  12  13
ATOM     13  C   UNL     1     -28.068 -22.125 -17.038  1.00  0.00    -0.000 C 
BRANCH  13  14
ATOM     14  C   UNL     1     -29.479 -21.777 -16.533  1.00  0.00    -0.000 C 
BRANCH  14  15
ATOM     15  C   UNL     1     -29.679 -22.125 -15.050  1.00  0.00    -0.000 C 
BRANCH  15  16
ATOM     16  C   UNL     1     -31.087 -21.737 -14.580  1.00  0.00    -0.000 C 
BRANCH  16  17
ATOM     17  C   UNL     1     -31.102 -20.314 -14.003  1.00  0.00    -0.000 C 
BRANCH  17  18
ATOM     18  C   UNL     1     -29.942 -20.050 -13.026  1.00  0.00    -0.000 C 
BRANCH  18  19
ATOM     19  C   UNL     1     -29.617 -18.564 -12.793  1.00  0.00    -0.003 C 
ATOM     20  C   UNL     1     -29.419 -18.220 -11.318  1.00  0.00     0.004 C 
ENDBRANCH  18  19
ENDBRANCH  17  18
ENDBRANCH  16  17
ENDBRANCH  15  16
ENDBRANCH  14  15
ENDBRANCH  13  14
ENDBRANCH  12  13
ENDBRANCH   1  12
TORSDOF 16
ENDMDL
MODEL 4
REMARK VINA RESULT:     3.914      3.643      7.448
REMARK INTER + INTRA:           7.103
REMARK INTER:                   5.865
REMARK INTRA:                   1.238
REMARK UNBOUND:                -0.472
REMARK SMILES CCCCCCCCCCCCCCCCCC(=O)[O-]
REMARK SMILES IDX 10 1 11 2 12 3 13 4 14 5 15 6 16 7 17 8 18 9 19 10 20 11
REMARK SMILES IDX 9 12 8 13 7 14 6 15 5 16 4 17 3 18 2 19 1 20
REMARK H PARENT
REMARK Flexibility Score: inf
ROOT
ATOM      1  C   UNL     1     -29.322 -19.685 -24.529  1.00  0.00     0.000 C 
ENDROOT
BRANCH   1   2
ATOM      2  C   UNL     1     -28.791 -21.130 -24.532  1.00  0.00     0.000 C 
BRANCH   2   3
ATOM      3  C   UNL     1     -27.404 -21.242 -23.863  1.00  0.00     0.000 C 
BRANCH   3   4
ATOM      4  C   UNL     1     -27.458 -21.730 -22.402  1.00  0.00     0.000 C 
BRANCH   4   5
ATOM      5  C   UNL     1     -28.876 -21.922 -21.836  1.00  0.00     0.000 C 
BRANCH   5   6
ATOM      6  C   UNL     1     -29.141 -21.060 -20.593  1.00  0.00     0.000 C 
BRANCH   6   7
ATOM      7  C   UNL     1     -28.866 -21.854 -19.308  1.00  0.00     0.006 C 
BRANCH   7   8
ATOM      8  C   UNL     1     -27.631 -21.337 -18.559  1.00  0.00     0.053 C 
BRANCH   8   9
ATOM      9  C   UNL     1     -27.570 -21.864 -17.158  1.00  0.00     0.041 C 
ATOM     10  O   UNL     1     -28.631 -22.112 -16.527  1.00  0.00    -0.550 OA
ATOM     11  O   UNL     1     -26.341 -22.111 -16.561  1.00  0.00    -0.550 OA
ENDBRANCH   8   9
ENDBRANCH   7   8
ENDBRANCH   6   7
ENDBRANCH   5   6
ENDBRANCH   4   5
ENDBRANCH   3   4
ENDBRANCH   2   3
ENDBRANCH   1   2
BRANCH   1  12
ATOM     12  C   UNL     1     -30.236 -19.384 -25.728  1.00  0.00     0.000 C 
BRANCH  12  13
ATOM     13  C   UNL     1     -30.468 -20.615 -26.620  1.00  0.00    -0.000 C 
BRANCH  13  14
ATOM     14  C   UNL     1     -31.212 -21.742 -25.886  1.00  0.00    -0.000 C 
BRANCH  14  15
ATOM     15  C   UNL     1     -32.045 -21.229 -24.702  1.00  0.00    -0.000 C 
BRANCH  15  16
ATOM     16  C   UNL     1     -31.490 -21.753 -23.372  1.00  0.00    -0.000 C 
BRANCH  16  17
ATOM     17  C   UNL     1     -31.839 -20.804 -22.217  1.00  0.00    -0.000 C 
BRANCH  17  18
ATOM     18  C   UNL     1     -32.861 -19.724 -22.616  1.00  0.00    -0.000 C 
BRANCH  18  19
ATOM     19  C   UNL     1     -32.666 -18.362 -21.927  1.00  0.00    -0.003 C 
ATOM     20  C   UNL     1     -33.156 -17.188 -22.773  1.00  0.00     0.004 C 
ENDBRANCH  18  19
ENDBRANCH  17  18
ENDBRANCH  16  17
ENDBRANCH  15  16
ENDBRANCH  14  15
ENDBRANCH  13  14
ENDBRANCH  12  13
ENDBRANCH   1  12
TORSDOF 16
ENDMDL
MODEL 5
REMARK VINA RESULT:     4.908      1.412      2.157
REMARK INTER + INTRA:           9.026
REMARK INTER:                   8.645
REMARK INTRA:                   0.381
REMARK UNBOUND:                -0.472
REMARK SMILES CCCCCCCCCCCCCCCCCC(=O)[O-]
REMARK SMILES IDX 10 1 11 2 12 3 13 4 14 5 15 6 16 7 17 8 18 9 19 10 20 11
REMARK SMILES IDX 9 12 8 13 7 14 6 15 5 16 4 17 3 18 2 19 1 20
REMARK H PARENT
REMARK Flexibility Score: inf
ROOT
ATOM      1  C   UNL     1     -28.549 -21.448 -21.461  1.00  0.00     0.000 C 
ENDROOT
BRANCH   1   2
ATOM      2  C   UNL     1     -27.337 -21.640 -22.390  1.00  0.00     0.000 C 
BRANCH   2   3
ATOM      3  C   UNL     1     -27.697 -21.405 -23.873  1.00  0.00     0.000 C 
BRANCH   3   4
ATOM      4  C   UNL     1     -29.213 -21.378 -24.147  1.00  0.00     0.000 C 
BRANCH   4   5
ATOM      5  C   UNL     1     -29.618 -20.733 -25.483  1.00  0.00     0.000 C 
BRANCH   5   6
ATOM      6  C   UNL     1     -31.140 -20.597 -25.641  1.00  0.00     0.000 C 
BRANCH   6   7
ATOM      7  C   UNL     1     -31.707 -19.594 -24.626  1.00  0.00     0.006 C 
BRANCH   7   8
ATOM      8  C   UNL     1     -31.540 -20.074 -23.179  1.00  0.00     0.053 C 
BRANCH   8   9
ATOM      9  C   UNL     1     -32.596 -19.508 -22.281  1.00  0.00     0.041 C 
ATOM     10  O   UNL     1     -33.573 -20.217 -21.923  1.00  0.00    -0.550 OA
ATOM     11  O   UNL     1     -32.484 -18.205 -21.812  1.00  0.00    -0.550 OA
ENDBRANCH   8   9
ENDBRANCH   7   8
ENDBRANCH   6   7
ENDBRANCH   5   6
ENDBRANCH   4   5
ENDBRANCH   3   4
ENDBRANCH   2   3
ENDBRANCH   1   2
BRANCH   1  12
ATOM     12  C   UNL     1     -28.302 -21.983 -20.041  1.00  0.00     0.000 C 
BRANCH  12  13
ATOM     13  C   UNL     1     -27.056 -21.366 -19.384  1.00  0.00    -0.000 C 
BRANCH  13  14
ATOM     14  C   UNL     1     -27.210 -21.211 -17.861  1.00  0.00    -0.000 C 
BRANCH  14  15
ATOM     15  C   UNL     1     -28.302 -22.122 -17.281  1.00  0.00    -0.000 C 
BRANCH  15  16
ATOM     16  C   UNL     1     -29.699 -21.595 -17.630  1.00  0.00    -0.000 C 
BRANCH  16  17
ATOM     17  C   UNL     1     -30.747 -22.111 -16.632  1.00  0.00    -0.000 C 
BRANCH  17  18
ATOM     18  C   UNL     1     -30.282 -22.010 -15.168  1.00  0.00    -0.000 C 
BRANCH  18  19
ATOM     19  C   UNL     1     -30.660 -20.699 -14.457  1.00  0.00    -0.003 C 
ATOM     20  C   UNL     1     -32.084 -20.709 -13.904  1.00  0.00     0.004 C 
ENDBRANCH  18  19
ENDBRANCH  17  18
ENDBRANCH  16  17
ENDBRANCH  15  16
ENDBRANCH  14  15
ENDBRANCH  13  14
ENDBRANCH  12  13
ENDBRANCH   1  12
TORSDOF 16
ENDMDL
