MODEL 1
REMARK VINA RESULT:    -3.973      0.000      0.000
REMARK INTER + INTRA:          -5.920
REMARK INTER:                  -4.902
REMARK INTRA:                  -1.019
REMARK UNBOUND:                -1.019
REMARK SMILES CC(C)=CCC[C@H](C)[C@@H]1C=CC(C)=CC1
REMARK SMILES IDX 6 1 7 2 8 3 9 4 13 5 12 6 14 7 11 8 15 9 10 10 5 11 4 12
REMARK SMILES IDX 2 13 1 14 3 15
REMARK H PARENT
REMARK Flexibility Score: inf
ROOT
ATOM      1  C   UNL     1     146.938 146.633 133.135  1.00  0.00     0.008 C 
ENDROOT
BRANCH   1   2
ATOM      2  C   UNL     1     146.959 145.215 133.766  1.00  0.00    -0.007 C 
ATOM      3  C   UNL     1     148.395 144.779 134.125  1.00  0.00     0.008 C 
BRANCH   2   4
ATOM      4  C   UNL     1     146.232 144.185 132.850  1.00  0.00     0.018 C 
ATOM      5  C   UNL     1     143.420 142.277 130.154  1.00  0.00     0.044 C 
ATOM      6  C   UNL     1     144.205 143.093 131.138  1.00  0.00    -0.055 C 
ATOM      7  C   UNL     1     144.181 142.787 132.445  1.00  0.00    -0.023 C 
ATOM      8  C   UNL     1     145.081 144.186 130.654  1.00  0.00    -0.001 C 
ATOM      9  C   UNL     1     144.909 143.644 133.447  1.00  0.00     0.035 C 
ATOM     10  C   UNL     1     145.995 144.739 131.460  1.00  0.00    -0.023 C 
ENDBRANCH   2   4
ENDBRANCH   1   2
BRANCH   1  11
ATOM     11  C   UNL     1     145.727 147.484 133.554  1.00  0.00     0.027 C 
BRANCH  11  12
ATOM     12  C   UNL     1     144.697 147.600 132.455  1.00  0.00    -0.028 C 
ATOM     13  C   UNL     1     143.499 146.978 132.500  1.00  0.00    -0.080 C 
ATOM     14  C   UNL     1     143.103 146.108 133.669  1.00  0.00     0.039 C 
ATOM     15  C   UNL     1     142.543 147.167 131.351  1.00  0.00     0.039 C 
ENDBRANCH  11  12
ENDBRANCH   1  11
TORSDOF 4
ENDMDL
MODEL 2
REMARK VINA RESULT:    -3.944      1.644      4.789
REMARK INTER + INTRA:          -5.885
REMARK INTER:                  -4.937
REMARK INTRA:                  -0.948
REMARK UNBOUND:                -1.019
REMARK SMILES CC(C)=CCC[C@H](C)[C@@H]1C=CC(C)=CC1
REMARK SMILES IDX 6 1 7 2 8 3 9 4 13 5 12 6 14 7 11 8 15 9 10 10 5 11 4 12
REMARK SMILES IDX 2 13 1 14 3 15
REMARK H PARENT
REMARK Flexibility Score: inf
ROOT
ATOM      1  C   UNL     1     143.878 144.024 132.693  1.00  0.00     0.008 C 
ENDROOT
BRANCH   1   2
ATOM      2  C   UNL     1     143.830 145.405 133.402  1.00  0.00    -0.007 C 
ATOM      3  C   UNL     1     142.386 145.789 133.788  1.00  0.00     0.008 C 
BRANCH   2   4
ATOM      4  C   UNL     1     144.529 146.499 132.540  1.00  0.00     0.018 C 
ATOM      5  C   UNL     1     147.330 148.641 130.014  1.00  0.00     0.044 C 
ATOM      6  C   UNL     1     146.556 147.754 130.944  1.00  0.00    -0.055 C 
ATOM      7  C   UNL     1     146.504 148.030 132.257  1.00  0.00    -0.023 C 
ATOM      8  C   UNL     1     145.772 146.621 130.399  1.00  0.00    -0.001 C 
ATOM      9  C   UNL     1     145.789 147.107 133.207  1.00  0.00     0.035 C 
ATOM     10  C   UNL     1     144.861 145.994 131.151  1.00  0.00    -0.023 C 
ENDBRANCH   2   4
ENDBRANCH   1   2
BRANCH   1  11
ATOM     11  C   UNL     1     144.992 143.097 133.212  1.00  0.00     0.027 C 
BRANCH  11  12
ATOM     12  C   UNL     1     146.089 143.856 133.921  1.00  0.00    -0.028 C 
ATOM     13  C   UNL     1     147.249 144.202 133.324  1.00  0.00    -0.080 C 
ATOM     14  C   UNL     1     147.537 143.843 131.886  1.00  0.00     0.039 C 
ATOM     15  C   UNL     1     148.274 144.966 134.123  1.00  0.00     0.039 C 
ENDBRANCH  11  12
ENDBRANCH   1  11
TORSDOF 4
ENDMDL
MODEL 3
REMARK VINA RESULT:    -3.666      1.572      3.622
REMARK INTER + INTRA:          -5.541
REMARK INTER:                  -4.457
REMARK INTRA:                  -1.084
REMARK UNBOUND:                -1.019
REMARK SMILES CC(C)=CCC[C@H](C)[C@@H]1C=CC(C)=CC1
REMARK SMILES IDX 6 1 7 2 8 3 9 4 13 5 12 6 14 7 11 8 15 9 10 10 5 11 4 12
REMARK SMILES IDX 2 13 1 14 3 15
REMARK H PARENT
REMARK Flexibility Score: inf
ROOT
ATOM      1  C   UNL     1     144.700 143.110 132.072  1.00  0.00     0.008 C 
ENDROOT
BRANCH   1   2
ATOM      2  C   UNL     1     146.105 143.513 132.597  1.00  0.00    -0.007 C 
ATOM      3  C   UNL     1     146.094 143.732 134.125  1.00  0.00     0.008 C 
BRANCH   2   4
ATOM      4  C   UNL     1     146.660 144.744 131.820  1.00  0.00     0.018 C 
ATOM      5  C   UNL     1     147.240 148.733 130.218  1.00  0.00     0.044 C 
ATOM      6  C   UNL     1     146.804 147.426 130.812  1.00  0.00    -0.055 C 
ATOM      7  C   UNL     1     146.275 146.470 130.032  1.00  0.00    -0.023 C 
ATOM      8  C   UNL     1     147.041 147.156 132.249  1.00  0.00    -0.001 C 
ATOM      9  C   UNL     1     145.770 145.185 130.631  1.00  0.00     0.035 C 
ATOM     10  C   UNL     1     146.926 145.917 132.741  1.00  0.00    -0.023 C 
ENDBRANCH   2   4
ENDBRANCH   1   2
BRANCH   1  11
ATOM     11  C   UNL     1     143.540 143.818 132.793  1.00  0.00     0.027 C 
BRANCH  11  12
ATOM     12  C   UNL     1     143.159 145.121 132.129  1.00  0.00    -0.028 C 
ATOM     13  C   UNL     1     143.305 146.322 132.727  1.00  0.00    -0.080 C 
ATOM     14  C   UNL     1     143.862 146.447 134.125  1.00  0.00     0.039 C 
ATOM     15  C   UNL     1     142.899 147.561 131.971  1.00  0.00     0.039 C 
ENDBRANCH  11  12
ENDBRANCH   1  11
TORSDOF 4
ENDMDL
MODEL 4
REMARK VINA RESULT:    -3.610      1.314      3.406
REMARK INTER + INTRA:          -5.473
REMARK INTER:                  -4.575
REMARK INTRA:                  -0.898
REMARK UNBOUND:                -1.019
REMARK SMILES CC(C)=CCC[C@H](C)[C@@H]1C=CC(C)=CC1
REMARK SMILES IDX 6 1 7 2 8 3 9 4 13 5 12 6 14 7 11 8 15 9 10 10 5 11 4 12
REMARK SMILES IDX 2 13 1 14 3 15
REMARK H PARENT
REMARK Flexibility Score: inf
ROOT
ATOM      1  C   UNL     1     143.977 146.841 133.312  1.00  0.00     0.008 C 
ENDROOT
BRANCH   1   2
ATOM      2  C   UNL     1     145.416 147.021 133.868  1.00  0.00    -0.007 C 
ATOM      3  C   UNL     1     145.760 148.512 134.070  1.00  0.00     0.008 C 
BRANCH   2   4
ATOM      4  C   UNL     1     146.457 146.282 132.975  1.00  0.00     0.018 C 
ATOM      5  C   UNL     1     148.375 143.483 130.273  1.00  0.00     0.044 C 
ATOM      6  C   UNL     1     147.546 144.269 131.245  1.00  0.00    -0.055 C 
ATOM      7  C   UNL     1     147.790 144.191 132.563  1.00  0.00    -0.023 C 
ATOM      8  C   UNL     1     146.511 145.203 130.743  1.00  0.00    -0.001 C 
ATOM      9  C   UNL     1     146.918 144.920 133.550  1.00  0.00     0.035 C 
ATOM     10  C   UNL     1     145.959 146.113 131.554  1.00  0.00    -0.023 C 
ENDBRANCH   2   4
ENDBRANCH   1   2
BRANCH   1  11
ATOM     11  C   UNL     1     143.340 145.484 133.658  1.00  0.00     0.027 C 
BRANCH  11  12
ATOM     12  C   UNL     1     143.233 144.576 132.455  1.00  0.00    -0.028 C 
ATOM     13  C   UNL     1     143.842 143.373 132.384  1.00  0.00    -0.080 C 
ATOM     14  C   UNL     1     144.690 142.848 133.517  1.00  0.00     0.039 C 
ATOM     15  C   UNL     1     143.662 142.544 131.138  1.00  0.00     0.039 C 
ENDBRANCH  11  12
ENDBRANCH   1  11
TORSDOF 4
ENDMDL
MODEL 5
REMARK VINA RESULT:    -3.594      1.351      3.279
REMARK INTER + INTRA:          -5.453
REMARK INTER:                  -4.572
REMARK INTRA:                  -0.881
REMARK UNBOUND:                -1.019
REMARK SMILES CC(C)=CCC[C@H](C)[C@@H]1C=CC(C)=CC1
REMARK SMILES IDX 6 1 7 2 8 3 9 4 13 5 12 6 14 7 11 8 15 9 10 10 5 11 4 12
REMARK SMILES IDX 2 13 1 14 3 15
REMARK H PARENT
REMARK Flexibility Score: inf
ROOT
ATOM      1  C   UNL     1     146.756 143.976 133.350  1.00  0.00     0.008 C 
ENDROOT
BRANCH   1   2
ATOM      2  C   UNL     1     145.316 143.797 133.905  1.00  0.00    -0.007 C 
ATOM      3  C   UNL     1     144.979 142.307 134.124  1.00  0.00     0.008 C 
BRANCH   2   4
ATOM      4  C   UNL     1     144.275 144.520 132.998  1.00  0.00     0.018 C 
ATOM      5  C   UNL     1     142.355 147.272 130.251  1.00  0.00     0.044 C 
ATOM      6  C   UNL     1     143.184 146.504 131.236  1.00  0.00    -0.055 C 
ATOM      7  C   UNL     1     142.938 146.602 132.553  1.00  0.00    -0.023 C 
ATOM      8  C   UNL     1     144.221 145.563 130.750  1.00  0.00    -0.001 C 
ATOM      9  C   UNL     1     143.810 145.890 133.551  1.00  0.00     0.035 C 
ATOM     10  C   UNL     1     144.774 144.668 131.576  1.00  0.00    -0.023 C 
ENDBRANCH   2   4
ENDBRANCH   1   2
BRANCH   1  11
ATOM     11  C   UNL     1     147.385 145.342 133.678  1.00  0.00     0.027 C 
BRANCH  11  12
ATOM     12  C   UNL     1     147.495 146.231 132.462  1.00  0.00    -0.028 C 
ATOM     13  C   UNL     1     146.880 147.429 132.366  1.00  0.00    -0.080 C 
ATOM     14  C   UNL     1     146.021 147.967 133.486  1.00  0.00     0.039 C 
ATOM     15  C   UNL     1     147.063 148.239 131.109  1.00  0.00     0.039 C 
ENDBRANCH  11  12
ENDBRANCH   1  11
TORSDOF 4
ENDMDL
MODEL 6
REMARK VINA RESULT:    -3.581      1.229      3.383
REMARK INTER + INTRA:          -5.437
REMARK INTER:                  -4.242
REMARK INTRA:                  -1.195
REMARK UNBOUND:                -1.019
REMARK SMILES CC(C)=CCC[C@H](C)[C@@H]1C=CC(C)=CC1
REMARK SMILES IDX 6 1 7 2 8 3 9 4 13 5 12 6 14 7 11 8 15 9 10 10 5 11 4 12
REMARK SMILES IDX 2 13 1 14 3 15
REMARK H PARENT
REMARK Flexibility Score: inf
ROOT
ATOM      1  C   UNL     1     145.831 147.639 131.939  1.00  0.00     0.008 C 
ENDROOT
BRANCH   1   2
ATOM      2  C   UNL     1     144.498 147.179 132.589  1.00  0.00    -0.007 C 
ATOM      3  C   UNL     1     144.652 146.988 134.113  1.00  0.00     0.008 C 
BRANCH   2   4
ATOM      4  C   UNL     1     143.940 145.908 131.881  1.00  0.00     0.018 C 
ATOM      5  C   UNL     1     143.436 141.875 130.367  1.00  0.00     0.044 C 
ATOM      6  C   UNL     1     143.852 143.212 130.906  1.00  0.00    -0.055 C 
ATOM      7  C   UNL     1     144.239 144.189 130.071  1.00  0.00    -0.023 C 
ATOM      8  C   UNL     1     143.750 143.483 132.359  1.00  0.00    -0.001 C 
ATOM      9  C   UNL     1     144.726 145.508 130.607  1.00  0.00     0.035 C 
ATOM     10  C   UNL     1     143.842 144.732 132.830  1.00  0.00    -0.023 C 
ENDBRANCH   2   4
ENDBRANCH   1   2
BRANCH   1  11
ATOM     11  C   UNL     1     147.087 147.102 132.647  1.00  0.00     0.027 C 
BRANCH  11  12
ATOM     12  C   UNL     1     147.559 145.789 132.066  1.00  0.00    -0.028 C 
ATOM     13  C   UNL     1     147.474 144.617 132.731  1.00  0.00    -0.080 C 
ATOM     14  C   UNL     1     146.899 144.539 134.125  1.00  0.00     0.039 C 
ATOM     15  C   UNL     1     147.968 143.365 132.055  1.00  0.00     0.039 C 
ENDBRANCH  11  12
ENDBRANCH   1  11
TORSDOF 4
ENDMDL
MODEL 7
REMARK VINA RESULT:    -3.270      1.369      3.898
REMARK INTER + INTRA:          -5.053
REMARK INTER:                  -4.086
REMARK INTRA:                  -0.967
REMARK UNBOUND:                -1.019
REMARK SMILES CC(C)=CCC[C@H](C)[C@@H]1C=CC(C)=CC1
REMARK SMILES IDX 6 1 7 2 8 3 9 4 13 5 12 6 14 7 11 8 15 9 10 10 5 11 4 12
REMARK SMILES IDX 2 13 1 14 3 15
REMARK H PARENT
REMARK Flexibility Score: inf
ROOT
ATOM      1  C   UNL     1     143.985 147.029 133.448  1.00  0.00     0.008 C 
ENDROOT
BRANCH   1   2
ATOM      2  C   UNL     1     144.208 147.296 131.935  1.00  0.00    -0.007 C 
ATOM      3  C   UNL     1     142.955 146.936 131.109  1.00  0.00     0.008 C 
BRANCH   2   4
ATOM      4  C   UNL     1     145.490 146.574 131.423  1.00  0.00     0.018 C 
ATOM      5  C   UNL     1     148.450 143.564 130.428  1.00  0.00     0.044 C 
ATOM      6  C   UNL     1     147.341 144.437 130.937  1.00  0.00    -0.055 C 
ATOM      7  C   UNL     1     147.539 145.235 131.999  1.00  0.00    -0.023 C 
ATOM      8  C   UNL     1     146.051 144.487 130.210  1.00  0.00    -0.001 C 
ATOM      9  C   UNL     1     146.412 146.061 132.558  1.00  0.00     0.035 C 
ATOM     10  C   UNL     1     145.158 145.449 130.465  1.00  0.00    -0.023 C 
ENDBRANCH   2   4
ENDBRANCH   1   2
BRANCH   1  11
ATOM     11  C   UNL     1     143.303 145.682 133.749  1.00  0.00     0.027 C 
BRANCH  11  12
ATOM     12  C   UNL     1     144.294 144.606 134.125  1.00  0.00    -0.028 C 
ATOM     13  C   UNL     1     144.422 143.450 133.440  1.00  0.00    -0.080 C 
ATOM     14  C   UNL     1     143.565 143.147 132.234  1.00  0.00     0.039 C 
ATOM     15  C   UNL     1     145.449 142.447 133.898  1.00  0.00     0.039 C 
ENDBRANCH  11  12
ENDBRANCH   1  11
TORSDOF 4
ENDMDL
MODEL 8
REMARK VINA RESULT:    -3.144      1.217      3.829
REMARK INTER + INTRA:          -4.898
REMARK INTER:                  -3.864
REMARK INTRA:                  -1.034
REMARK UNBOUND:                -1.019
REMARK SMILES CC(C)=CCC[C@H](C)[C@@H]1C=CC(C)=CC1
REMARK SMILES IDX 6 1 7 2 8 3 9 4 13 5 12 6 14 7 11 8 15 9 10 10 5 11 4 12
REMARK SMILES IDX 2 13 1 14 3 15
REMARK H PARENT
REMARK Flexibility Score: inf
ROOT
ATOM      1  C   UNL     1     147.451 144.406 133.220  1.00  0.00     0.008 C 
ENDROOT
BRANCH   1   2
ATOM      2  C   UNL     1     146.195 144.232 134.117  1.00  0.00    -0.007 C 
ATOM      3  C   UNL     1     145.523 142.863 133.885  1.00  0.00     0.008 C 
BRANCH   2   4
ATOM      4  C   UNL     1     145.208 145.423 133.932  1.00  0.00     0.018 C 
ATOM      5  C   UNL     1     142.427 148.297 132.252  1.00  0.00     0.044 C 
ATOM      6  C   UNL     1     143.460 147.265 132.597  1.00  0.00    -0.055 C 
ATOM      7  C   UNL     1     144.733 147.628 132.821  1.00  0.00    -0.023 C 
ATOM      8  C   UNL     1     143.056 145.851 132.779  1.00  0.00    -0.001 C 
ATOM      9  C   UNL     1     145.789 146.592 133.097  1.00  0.00     0.035 C 
ATOM     10  C   UNL     1     143.883 144.971 133.354  1.00  0.00    -0.023 C 
ENDBRANCH   2   4
ENDBRANCH   1   2
BRANCH   1  11
ATOM     11  C   UNL     1     147.326 143.742 131.838  1.00  0.00     0.027 C 
BRANCH  11  12
ATOM     12  C   UNL     1     146.814 144.697 130.784  1.00  0.00    -0.028 C 
ATOM     13  C   UNL     1     145.585 144.599 130.235  1.00  0.00    -0.080 C 
ATOM     14  C   UNL     1     144.624 143.506 130.638  1.00  0.00     0.039 C 
ATOM     15  C   UNL     1     145.174 145.610 129.196  1.00  0.00     0.039 C 
ENDBRANCH  11  12
ENDBRANCH   1  11
TORSDOF 4
ENDMDL
MODEL 9
REMARK VINA RESULT:    -3.107      1.605      3.339
REMARK INTER + INTRA:          -4.852
REMARK INTER:                  -3.894
REMARK INTRA:                  -0.958
REMARK UNBOUND:                -1.019
REMARK SMILES CC(C)=CCC[C@H](C)[C@@H]1C=CC(C)=CC1
REMARK SMILES IDX 6 1 7 2 8 3 9 4 13 5 12 6 14 7 11 8 15 9 10 10 5 11 4 12
REMARK SMILES IDX 2 13 1 14 3 15
REMARK H PARENT
REMARK Flexibility Score: inf
ROOT
ATOM      1  C   UNL     1     143.136 146.327 133.136  1.00  0.00     0.008 C 
ENDROOT
BRANCH   1   2
ATOM      2  C   UNL     1     144.328 146.435 134.125  1.00  0.00    -0.007 C 
ATOM      3  C   UNL     1     145.001 147.822 134.047  1.00  0.00     0.008 C 
BRANCH   2   4
ATOM      4  C   UNL     1     145.338 145.268 133.913  1.00  0.00     0.018 C 
ATOM      5  C   UNL     1     148.253 142.552 132.198  1.00  0.00     0.044 C 
ATOM      6  C   UNL     1     147.189 143.547 132.555  1.00  0.00    -0.055 C 
ATOM      7  C   UNL     1     145.908 143.161 132.664  1.00  0.00    -0.023 C 
ATOM      8  C   UNL     1     147.566 144.944 132.875  1.00  0.00    -0.001 C 
ATOM      9  C   UNL     1     144.825 144.166 132.951  1.00  0.00     0.035 C 
ATOM     10  C   UNL     1     146.693 145.771 133.461  1.00  0.00    -0.023 C 
ENDBRANCH   2   4
ENDBRANCH   1   2
BRANCH   1  11
ATOM     11  C   UNL     1     143.380 147.027 131.787  1.00  0.00     0.027 C 
BRANCH  11  12
ATOM     12  C   UNL     1     143.967 146.095 130.753  1.00  0.00    -0.028 C 
ATOM     13  C   UNL     1     145.217 146.233 130.261  1.00  0.00    -0.080 C 
ATOM     14  C   UNL     1     146.126 147.351 130.715  1.00  0.00     0.039 C 
ATOM     15  C   UNL     1     145.705 145.242 129.237  1.00  0.00     0.039 C 
ENDBRANCH  11  12
ENDBRANCH   1  11
TORSDOF 4
ENDMDL
