MODEL 1
REMARK VINA RESULT:    -5.754      0.000      0.000
REMARK INTER + INTRA:          -5.754
REMARK INTER:                  -5.754
REMARK INTRA:                   0.000
REMARK UNBOUND:                 0.000
REMARK SMILES O=c1ccc2ccccc2o1
REMARK SMILES IDX 7 1 8 2 9 3 10 4 5 5 6 6 4 7 3 8 2 9 1 10 11 11
REMARK H PARENT
REMARK Flexibility Score: inf
ROOT
ATOM      1  C   UNL     1      12.123   7.120  21.056  1.00  0.00     0.001 A 
ATOM      2  C   UNL     1      12.284   7.497  19.719  1.00  0.00     0.004 A 
ATOM      3  C   UNL     1      11.896   6.631  18.692  1.00  0.00     0.048 A 
ATOM      4  C   UNL     1      11.343   5.382  18.999  1.00  0.00     0.138 A 
ATOM      5  C   UNL     1      11.180   5.001  20.349  1.00  0.00     0.018 A 
ATOM      6  C   UNL     1      11.571   5.874  21.375  1.00  0.00     0.012 A 
ATOM      7  C   UNL     1      10.625   3.748  20.626  1.00  0.00     0.019 A 
ATOM      8  C   UNL     1      10.252   2.917  19.570  1.00  0.00     0.094 A 
ATOM      9  C   UNL     1      10.443   3.361  18.256  1.00  0.00     0.336 A 
ATOM     10  O   UNL     1      10.113   2.625  17.290  1.00  0.00    -0.246 OA
ATOM     11  O   UNL     1      10.973   4.559  18.021  1.00  0.00    -0.423 OA
ENDROOT
TORSDOF 0
ENDMDL
MODEL 2
REMARK VINA RESULT:    -5.727      2.361      4.282
REMARK INTER + INTRA:          -5.727
REMARK INTER:                  -5.727
REMARK INTRA:                   0.000
REMARK UNBOUND:                 0.000
REMARK SMILES O=c1ccc2ccccc2o1
REMARK SMILES IDX 7 1 8 2 9 3 10 4 5 5 6 6 4 7 3 8 2 9 1 10 11 11
REMARK H PARENT
REMARK Flexibility Score: inf
ROOT
ATOM      1  C   UNL     1       9.410   2.748  18.953  1.00  0.00     0.001 A 
ATOM      2  C   UNL     1       8.302   3.590  18.810  1.00  0.00     0.004 A 
ATOM      3  C   UNL     1       8.312   4.868  19.376  1.00  0.00     0.048 A 
ATOM      4  C   UNL     1       9.432   5.312  20.088  1.00  0.00     0.138 A 
ATOM      5  C   UNL     1      10.552   4.463  20.232  1.00  0.00     0.018 A 
ATOM      6  C   UNL     1      10.537   3.181  19.662  1.00  0.00     0.012 A 
ATOM      7  C   UNL     1      11.658   4.932  20.948  1.00  0.00     0.019 A 
ATOM      8  C   UNL     1      11.623   6.215  21.494  1.00  0.00     0.094 A 
ATOM      9  C   UNL     1      10.479   7.001  21.311  1.00  0.00     0.336 A 
ATOM     10  O   UNL     1      10.430   8.161  21.797  1.00  0.00    -0.246 OA
ATOM     11  O   UNL     1       9.441   6.529  20.625  1.00  0.00    -0.423 OA
ENDROOT
TORSDOF 0
ENDMDL
MODEL 3
REMARK VINA RESULT:    -5.717     17.841     19.018
REMARK INTER + INTRA:          -5.717
REMARK INTER:                  -5.717
REMARK INTRA:                   0.000
REMARK UNBOUND:                 0.000
REMARK SMILES O=c1ccc2ccccc2o1
REMARK SMILES IDX 7 1 8 2 9 3 10 4 5 5 6 6 4 7 3 8 2 9 1 10 11 11
REMARK H PARENT
REMARK Flexibility Score: inf
ROOT
ATOM      1  C   UNL     1      16.455  -7.325  32.279  1.00  0.00     0.001 A 
ATOM      2  C   UNL     1      17.660  -7.904  32.689  1.00  0.00     0.004 A 
ATOM      3  C   UNL     1      18.668  -7.111  33.246  1.00  0.00     0.048 A 
ATOM      4  C   UNL     1      18.475  -5.733  33.394  1.00  0.00     0.138 A 
ATOM      5  C   UNL     1      17.258  -5.147  32.980  1.00  0.00     0.018 A 
ATOM      6  C   UNL     1      16.250  -5.948  32.422  1.00  0.00     0.012 A 
ATOM      7  C   UNL     1      17.092  -3.768  33.140  1.00  0.00     0.019 A 
ATOM      8  C   UNL     1      18.124  -3.017  33.700  1.00  0.00     0.094 A 
ATOM      9  C   UNL     1      19.303  -3.664  34.088  1.00  0.00     0.336 A 
ATOM     10  O   UNL     1      20.246  -3.003  34.595  1.00  0.00    -0.246 OA
ATOM     11  O   UNL     1      19.434  -4.979  33.924  1.00  0.00    -0.423 OA
ENDROOT
TORSDOF 0
ENDMDL
MODEL 4
REMARK VINA RESULT:    -5.669     17.910     18.816
REMARK INTER + INTRA:          -5.669
REMARK INTER:                  -5.669
REMARK INTRA:                   0.000
REMARK UNBOUND:                 0.000
REMARK SMILES O=c1ccc2ccccc2o1
REMARK SMILES IDX 7 1 8 2 9 3 10 4 5 5 6 6 4 7 3 8 2 9 1 10 11 11
REMARK H PARENT
REMARK Flexibility Score: inf
ROOT
ATOM      1  C   UNL     1      18.491  -2.773  34.649  1.00  0.00     0.001 A 
ATOM      2  C   UNL     1      18.126  -3.344  35.873  1.00  0.00     0.004 A 
ATOM      3  C   UNL     1      17.371  -4.521  35.903  1.00  0.00     0.048 A 
ATOM      4  C   UNL     1      16.978  -5.133  34.708  1.00  0.00     0.138 A 
ATOM      5  C   UNL     1      17.348  -4.558  33.471  1.00  0.00     0.018 A 
ATOM      6  C   UNL     1      18.105  -3.377  33.447  1.00  0.00     0.012 A 
ATOM      7  C   UNL     1      16.941  -5.191  32.293  1.00  0.00     0.019 A 
ATOM      8  C   UNL     1      16.191  -6.363  32.371  1.00  0.00     0.094 A 
ATOM      9  C   UNL     1      15.862  -6.876  33.631  1.00  0.00     0.336 A 
ATOM     10  O   UNL     1      15.184  -7.933  33.722  1.00  0.00    -0.246 OA
ATOM     11  O   UNL     1      16.261  -6.253  34.737  1.00  0.00    -0.423 OA
ENDROOT
TORSDOF 0
ENDMDL
MODEL 5
REMARK VINA RESULT:    -5.648     17.830     18.690
REMARK INTER + INTRA:          -5.648
REMARK INTER:                  -5.648
REMARK INTRA:                   0.000
REMARK UNBOUND:                 0.000
REMARK SMILES O=c1ccc2ccccc2o1
REMARK SMILES IDX 7 1 8 2 9 3 10 4 5 5 6 6 4 7 3 8 2 9 1 10 11 11
REMARK H PARENT
REMARK Flexibility Score: inf
ROOT
ATOM      1  C   UNL     1      19.420  -3.136  34.093  1.00  0.00     0.001 A 
ATOM      2  C   UNL     1      18.123  -2.774  33.713  1.00  0.00     0.004 A 
ATOM      3  C   UNL     1      17.233  -3.742  33.236  1.00  0.00     0.048 A 
ATOM      4  C   UNL     1      17.638  -5.078  33.136  1.00  0.00     0.138 A 
ATOM      5  C   UNL     1      18.948  -5.444  33.519  1.00  0.00     0.018 A 
ATOM      6  C   UNL     1      19.835  -4.469  33.998  1.00  0.00     0.012 A 
ATOM      7  C   UNL     1      19.325  -6.786  33.409  1.00  0.00     0.019 A 
ATOM      8  C   UNL     1      18.405  -7.717  32.928  1.00  0.00     0.094 A 
ATOM      9  C   UNL     1      17.124  -7.282  32.567  1.00  0.00     0.336 A 
ATOM     10  O   UNL     1      16.280  -8.107  32.130  1.00  0.00    -0.246 OA
ATOM     11  O   UNL     1      16.791  -5.998  32.682  1.00  0.00    -0.423 OA
ENDROOT
TORSDOF 0
ENDMDL
MODEL 6
REMARK VINA RESULT:    -5.642     17.900     19.070
REMARK INTER + INTRA:          -5.642
REMARK INTER:                  -5.642
REMARK INTRA:                   0.000
REMARK UNBOUND:                 0.000
REMARK SMILES O=c1ccc2ccccc2o1
REMARK SMILES IDX 7 1 8 2 9 3 10 4 5 5 6 6 4 7 3 8 2 9 1 10 11 11
REMARK H PARENT
REMARK Flexibility Score: inf
ROOT
ATOM      1  C   UNL     1      15.741  -6.878  33.132  1.00  0.00     0.001 A 
ATOM      2  C   UNL     1      16.267  -6.144  32.064  1.00  0.00     0.004 A 
ATOM      3  C   UNL     1      17.047  -5.008  32.306  1.00  0.00     0.048 A 
ATOM      4  C   UNL     1      17.304  -4.601  33.620  1.00  0.00     0.138 A 
ATOM      5  C   UNL     1      16.773  -5.342  34.700  1.00  0.00     0.018 A 
ATOM      6  C   UNL     1      15.992  -6.481  34.451  1.00  0.00     0.012 A 
ATOM      7  C   UNL     1      17.046  -4.913  36.002  1.00  0.00     0.019 A 
ATOM      8  C   UNL     1      17.829  -3.775  36.196  1.00  0.00     0.094 A 
ATOM      9  C   UNL     1      18.321  -3.091  35.078  1.00  0.00     0.336 A 
ATOM     10  O   UNL     1      19.029  -2.062  35.234  1.00  0.00    -0.246 OA
ATOM     11  O   UNL     1      18.046  -3.522  33.850  1.00  0.00    -0.423 OA
ENDROOT
TORSDOF 0
ENDMDL
MODEL 7
REMARK VINA RESULT:    -5.635      2.075      4.375
REMARK INTER + INTRA:          -5.635
REMARK INTER:                  -5.635
REMARK INTRA:                   0.000
REMARK UNBOUND:                 0.000
REMARK SMILES O=c1ccc2ccccc2o1
REMARK SMILES IDX 7 1 8 2 9 3 10 4 5 5 6 6 4 7 3 8 2 9 1 10 11 11
REMARK H PARENT
REMARK Flexibility Score: inf
ROOT
ATOM      1  C   UNL     1      10.550   3.039  18.851  1.00  0.00     0.001 A 
ATOM      2  C   UNL     1      10.351   3.045  20.236  1.00  0.00     0.004 A 
ATOM      3  C   UNL     1      10.730   4.155  20.997  1.00  0.00     0.048 A 
ATOM      4  C   UNL     1      11.310   5.267  20.375  1.00  0.00     0.138 A 
ATOM      5  C   UNL     1      11.511   5.262  18.977  1.00  0.00     0.018 A 
ATOM      6  C   UNL     1      11.129   4.145  18.218  1.00  0.00     0.012 A 
ATOM      7  C   UNL     1      12.093   6.386  18.382  1.00  0.00     0.019 A 
ATOM      8  C   UNL     1      12.453   7.471  19.181  1.00  0.00     0.094 A 
ATOM      9  C   UNL     1      12.224   7.406  20.560  1.00  0.00     0.336 A 
ATOM     10  O   UNL     1      12.544   8.375  21.297  1.00  0.00    -0.246 OA
ATOM     11  O   UNL     1      11.669   6.323  21.100  1.00  0.00    -0.423 OA
ENDROOT
TORSDOF 0
ENDMDL
MODEL 8
REMARK VINA RESULT:    -5.623     18.675     18.802
REMARK INTER + INTRA:          -5.623
REMARK INTER:                  -5.623
REMARK INTRA:                   0.000
REMARK UNBOUND:                 0.000
REMARK SMILES O=c1ccc2ccccc2o1
REMARK SMILES IDX 7 1 8 2 9 3 10 4 5 5 6 6 4 7 3 8 2 9 1 10 11 11
REMARK H PARENT
REMARK Flexibility Score: inf
ROOT
ATOM      1  C   UNL     1      19.447  -3.199  34.128  1.00  0.00     0.001 A 
ATOM      2  C   UNL     1      20.151  -4.147  33.377  1.00  0.00     0.004 A 
ATOM      3  C   UNL     1      19.531  -5.338  32.988  1.00  0.00     0.048 A 
ATOM      4  C   UNL     1      18.201  -5.587  33.348  1.00  0.00     0.138 A 
ATOM      5  C   UNL     1      17.490  -4.629  34.106  1.00  0.00     0.018 A 
ATOM      6  C   UNL     1      18.117  -3.436  34.493  1.00  0.00     0.012 A 
ATOM      7  C   UNL     1      16.163  -4.904  34.451  1.00  0.00     0.019 A 
ATOM      8  C   UNL     1      15.585  -6.105  34.041  1.00  0.00     0.094 A 
ATOM      9  C   UNL     1      16.351  -7.007  33.292  1.00  0.00     0.336 A 
ATOM     10  O   UNL     1      15.846  -8.096  32.913  1.00  0.00    -0.246 OA
ATOM     11  O   UNL     1      17.611  -6.720  32.977  1.00  0.00    -0.423 OA
ENDROOT
TORSDOF 0
ENDMDL
MODEL 9
REMARK VINA RESULT:    -5.449      2.139      4.010
REMARK INTER + INTRA:          -5.449
REMARK INTER:                  -5.449
REMARK INTRA:                   0.000
REMARK UNBOUND:                 0.000
REMARK SMILES O=c1ccc2ccccc2o1
REMARK SMILES IDX 7 1 8 2 9 3 10 4 5 5 6 6 4 7 3 8 2 9 1 10 11 11
REMARK H PARENT
REMARK Flexibility Score: inf
ROOT
ATOM      1  C   UNL     1      10.082   3.184  18.677  1.00  0.00     0.001 A 
ATOM      2  C   UNL     1      11.379   3.469  18.235  1.00  0.00     0.004 A 
ATOM      3  C   UNL     1      12.055   4.594  18.719  1.00  0.00     0.048 A 
ATOM      4  C   UNL     1      11.437   5.439  19.647  1.00  0.00     0.138 A 
ATOM      5  C   UNL     1      10.128   5.152  20.093  1.00  0.00     0.018 A 
ATOM      6  C   UNL     1       9.454   4.022  19.605  1.00  0.00     0.012 A 
ATOM      7  C   UNL     1       9.535   6.014  21.021  1.00  0.00     0.019 A 
ATOM      8  C   UNL     1      10.248   7.122  21.475  1.00  0.00     0.094 A 
ATOM      9  C   UNL     1      11.542   7.345  20.989  1.00  0.00     0.336 A 
ATOM     10  O   UNL     1      12.201   8.340  21.388  1.00  0.00    -0.246 OA
ATOM     11  O   UNL     1      12.082   6.508  20.106  1.00  0.00    -0.423 OA
ENDROOT
TORSDOF 0
ENDMDL
