MODEL 1
REMARK VINA RESULT:    -1.133      0.000      0.000
REMARK INTER + INTRA:          -4.758
REMARK INTER:                  -2.127
REMARK INTRA:                  -2.632
REMARK UNBOUND:                -2.632
REMARK SMILES O=C([O-])CCCCCCCCCCCCCCC(=O)[O-]
REMARK SMILES IDX 10 1 9 2 8 3 7 4 6 5 5 6 4 7 2 8 1 9 3 10 11 11 12 12 13 13
REMARK SMILES IDX 14 14 15 15 16 16 17 17 18 18 19 19 20 20
REMARK H PARENT
REMARK Flexibility Score: inf
ROOT
ATOM      1  C   UNL     1     147.680  39.844  -9.553  1.00  0.00     0.000 C 
ENDROOT
BRANCH   1   2
ATOM      2  C   UNL     1     147.891  38.477  -8.878  1.00  0.00     0.000 C 
BRANCH   2   3
ATOM      3  C   UNL     1     146.588  37.896  -8.303  1.00  0.00     0.000 C 
BRANCH   3   4
ATOM      4  C   UNL     1     146.553  37.927  -6.767  1.00  0.00     0.000 C 
BRANCH   4   5
ATOM      5  C   UNL     1     145.204  38.420  -6.214  1.00  0.00     0.000 C 
BRANCH   5   6
ATOM      6  C   UNL     1     145.307  39.801  -5.538  1.00  0.00     0.006 C 
BRANCH   6   7
ATOM      7  C   UNL     1     146.729  40.193  -5.104  1.00  0.00     0.053 C 
BRANCH   7   8
ATOM      8  C   UNL     1     146.950  39.973  -3.639  1.00  0.00     0.041 C 
ATOM      9  O   UNL     1     146.060  39.422  -2.940  1.00  0.00    -0.550 OA
ATOM     10  O   UNL     1     148.125  40.408  -3.038  1.00  0.00    -0.550 OA
ENDBRANCH   7   8
ENDBRANCH   6   7
ENDBRANCH   5   6
ENDBRANCH   4   5
ENDBRANCH   3   4
ENDBRANCH   2   3
ENDBRANCH   1   2
BRANCH   1  11
ATOM     11  C   UNL     1     147.760  41.014  -8.559  1.00  0.00     0.000 C 
BRANCH  11  12
ATOM     12  C   UNL     1     146.441  41.801  -8.532  1.00  0.00     0.000 C 
BRANCH  12  13
ATOM     13  C   UNL     1     145.390  41.232  -9.499  1.00  0.00     0.000 C 
BRANCH  13  14
ATOM     14  C   UNL     1     144.028  41.003  -8.827  1.00  0.00     0.000 C 
BRANCH  14  15
ATOM     15  C   UNL     1     143.427  39.654  -9.249  1.00  0.00     0.000 C 
BRANCH  15  16
ATOM     16  C   UNL     1     143.915  39.196 -10.634  1.00  0.00     0.006 C 
BRANCH  16  17
ATOM     17  C   UNL     1     142.974  39.632 -11.765  1.00  0.00     0.053 C 
BRANCH  17  18
ATOM     18  C   UNL     1     141.612  39.047 -11.564  1.00  0.00     0.041 C 
ATOM     19  O   UNL     1     141.436  37.803 -11.652  1.00  0.00    -0.550 OA
ATOM     20  O   UNL     1     140.544  39.870 -11.227  1.00  0.00    -0.550 OA
ENDBRANCH  17  18
ENDBRANCH  16  17
ENDBRANCH  15  16
ENDBRANCH  14  15
ENDBRANCH  13  14
ENDBRANCH  12  13
ENDBRANCH  11  12
ENDBRANCH   1  11
TORSDOF 15
ENDMDL
MODEL 2
REMARK VINA RESULT:    -1.116      2.204      3.561
REMARK INTER + INTRA:          -4.726
REMARK INTER:                  -2.361
REMARK INTRA:                  -2.365
REMARK UNBOUND:                -2.632
REMARK SMILES O=C([O-])CCCCCCCCCCCCCCC(=O)[O-]
REMARK SMILES IDX 10 1 9 2 8 3 7 4 6 5 5 6 4 7 2 8 1 9 3 10 11 11 12 12 13 13
REMARK SMILES IDX 14 14 15 15 16 16 17 17 18 18 19 19 20 20
REMARK H PARENT
REMARK Flexibility Score: inf
ROOT
ATOM      1  C   UNL     1     143.737  38.316  -8.723  1.00  0.00     0.000 C 
ENDROOT
BRANCH   1   2
ATOM      2  C   UNL     1     144.443  38.317  -7.357  1.00  0.00     0.000 C 
BRANCH   2   3
ATOM      3  C   UNL     1     145.627  37.335  -7.304  1.00  0.00     0.000 C 
BRANCH   3   4
ATOM      4  C   UNL     1     146.981  38.048  -7.161  1.00  0.00     0.000 C 
BRANCH   4   5
ATOM      5  C   UNL     1     147.615  38.394  -8.520  1.00  0.00     0.000 C 
BRANCH   5   6
ATOM      6  C   UNL     1     147.772  39.912  -8.734  1.00  0.00     0.006 C 
BRANCH   6   7
ATOM      7  C   UNL     1     147.878  40.730  -7.437  1.00  0.00     0.053 C 
BRANCH   7   8
ATOM      8  C   UNL     1     146.865  41.832  -7.382  1.00  0.00     0.041 C 
ATOM      9  O   UNL     1     145.672  41.579  -7.069  1.00  0.00    -0.550 OA
ATOM     10  O   UNL     1     147.230  43.131  -7.709  1.00  0.00    -0.550 OA
ENDBRANCH   7   8
ENDBRANCH   6   7
ENDBRANCH   5   6
ENDBRANCH   4   5
ENDBRANCH   3   4
ENDBRANCH   2   3
ENDBRANCH   1   2
BRANCH   1  11
ATOM     11  C   UNL     1     144.071  39.558  -9.564  1.00  0.00     0.000 C 
BRANCH  11  12
ATOM     12  C   UNL     1     144.813  39.166 -10.851  1.00  0.00     0.000 C 
BRANCH  12  13
ATOM     13  C   UNL     1     144.925  37.643 -11.030  1.00  0.00     0.000 C 
BRANCH  13  14
ATOM     14  C   UNL     1     144.555  37.185 -12.449  1.00  0.00     0.000 C 
BRANCH  14  15
ATOM     15  C   UNL     1     143.673  38.229 -13.151  1.00  0.00     0.000 C 
BRANCH  15  16
ATOM     16  C   UNL     1     142.243  37.723 -13.400  1.00  0.00     0.006 C 
BRANCH  16  17
ATOM     17  C   UNL     1     141.193  38.834 -13.261  1.00  0.00     0.053 C 
BRANCH  17  18
ATOM     18  C   UNL     1     141.154  39.344 -11.856  1.00  0.00     0.041 C 
ATOM     19  O   UNL     1     140.957  38.549 -10.898  1.00  0.00    -0.550 OA
ATOM     20  O   UNL     1     141.389  40.689 -11.596  1.00  0.00    -0.550 OA
ENDBRANCH  17  18
ENDBRANCH  16  17
ENDBRANCH  15  16
ENDBRANCH  14  15
ENDBRANCH  13  14
ENDBRANCH  12  13
ENDBRANCH  11  12
ENDBRANCH   1  11
TORSDOF 15
ENDMDL
MODEL 3
REMARK VINA RESULT:    -1.106      2.509      4.140
REMARK INTER + INTRA:          -4.707
REMARK INTER:                  -2.316
REMARK INTRA:                  -2.391
REMARK UNBOUND:                -2.632
REMARK SMILES O=C([O-])CCCCCCCCCCCCCCC(=O)[O-]
REMARK SMILES IDX 10 1 9 2 8 3 7 4 6 5 5 6 4 7 2 8 1 9 3 10 11 11 12 12 13 13
REMARK SMILES IDX 14 14 15 15 16 16 17 17 18 18 19 19 20 20
REMARK H PARENT
REMARK Flexibility Score: inf
ROOT
ATOM      1  C   UNL     1     143.634  38.324  -8.364  1.00  0.00     0.000 C 
ENDROOT
BRANCH   1   2
ATOM      2  C   UNL     1     143.994  36.924  -8.888  1.00  0.00     0.000 C 
BRANCH   2   3
ATOM      3  C   UNL     1     145.003  36.970 -10.048  1.00  0.00     0.000 C 
BRANCH   3   4
ATOM      4  C   UNL     1     145.855  38.249 -10.041  1.00  0.00     0.000 C 
BRANCH   4   5
ATOM      5  C   UNL     1     147.298  37.998  -9.566  1.00  0.00     0.000 C 
BRANCH   5   6
ATOM      6  C   UNL     1     147.884  39.191  -8.787  1.00  0.00     0.006 C 
BRANCH   6   7
ATOM      7  C   UNL     1     146.838  40.051  -8.058  1.00  0.00     0.053 C 
BRANCH   7   8
ATOM      8  C   UNL     1     146.775  39.739  -6.595  1.00  0.00     0.041 C 
ATOM      9  O   UNL     1     146.418  38.596  -6.206  1.00  0.00    -0.550 OA
ATOM     10  O   UNL     1     147.077  40.721  -5.659  1.00  0.00    -0.550 OA
ENDBRANCH   7   8
ENDBRANCH   6   7
ENDBRANCH   5   6
ENDBRANCH   4   5
ENDBRANCH   3   4
ENDBRANCH   2   3
ENDBRANCH   1   2
BRANCH   1  11
ATOM     11  C   UNL     1     142.264  38.811  -8.864  1.00  0.00     0.000 C 
BRANCH  11  12
ATOM     12  C   UNL     1     142.424  39.787 -10.039  1.00  0.00     0.000 C 
BRANCH  12  13
ATOM     13  C   UNL     1     141.720  39.299 -11.316  1.00  0.00     0.000 C 
BRANCH  13  14
ATOM     14  C   UNL     1     141.141  37.884 -11.170  1.00  0.00     0.000 C 
BRANCH  14  15
ATOM     15  C   UNL     1     141.874  36.893 -12.086  1.00  0.00     0.000 C 
BRANCH  15  16
ATOM     16  C   UNL     1     142.483  37.572 -13.324  1.00  0.00     0.006 C 
BRANCH  16  17
ATOM     17  C   UNL     1     143.867  37.013 -13.682  1.00  0.00     0.053 C 
BRANCH  17  18
ATOM     18  C   UNL     1     144.903  38.088 -13.593  1.00  0.00     0.041 C 
ATOM     19  O   UNL     1     144.559  39.289 -13.431  1.00  0.00    -0.550 OA
ATOM     20  O   UNL     1     146.253  37.759 -13.635  1.00  0.00    -0.550 OA
ENDBRANCH  17  18
ENDBRANCH  16  17
ENDBRANCH  15  16
ENDBRANCH  14  15
ENDBRANCH  13  14
ENDBRANCH  12  13
ENDBRANCH  11  12
ENDBRANCH   1  11
TORSDOF 15
ENDMDL
MODEL 4
REMARK VINA RESULT:    -1.087      1.623      2.472
REMARK INTER + INTRA:          -4.671
REMARK INTER:                  -2.230
REMARK INTRA:                  -2.441
REMARK UNBOUND:                -2.632
REMARK SMILES O=C([O-])CCCCCCCCCCCCCCC(=O)[O-]
REMARK SMILES IDX 10 1 9 2 8 3 7 4 6 5 5 6 4 7 2 8 1 9 3 10 11 11 12 12 13 13
REMARK SMILES IDX 14 14 15 15 16 16 17 17 18 18 19 19 20 20
REMARK H PARENT
REMARK Flexibility Score: inf
ROOT
ATOM      1  C   UNL     1     146.564  41.641  -7.533  1.00  0.00     0.000 C 
ENDROOT
BRANCH   1   2
ATOM      2  C   UNL     1     147.886  40.918  -7.844  1.00  0.00     0.000 C 
BRANCH   2   3
ATOM      3  C   UNL     1     147.732  39.861  -8.952  1.00  0.00     0.000 C 
BRANCH   3   4
ATOM      4  C   UNL     1     147.674  38.429  -8.398  1.00  0.00     0.000 C 
BRANCH   4   5
ATOM      5  C   UNL     1     146.285  37.786  -8.562  1.00  0.00     0.000 C 
BRANCH   5   6
ATOM      6  C   UNL     1     145.707  37.270  -7.230  1.00  0.00     0.006 C 
BRANCH   6   7
ATOM      7  C   UNL     1     146.664  37.392  -6.032  1.00  0.00     0.053 C 
BRANCH   7   8
ATOM      8  C   UNL     1     145.929  37.628  -4.748  1.00  0.00     0.041 C 
ATOM      9  O   UNL     1     144.670  37.642  -4.732  1.00  0.00    -0.550 OA
ATOM     10  O   UNL     1     146.634  37.866  -3.575  1.00  0.00    -0.550 OA
ENDBRANCH   7   8
ENDBRANCH   6   7
ENDBRANCH   5   6
ENDBRANCH   4   5
ENDBRANCH   3   4
ENDBRANCH   2   3
ENDBRANCH   1   2
BRANCH   1  11
ATOM     11  C   UNL     1     145.847  41.063  -6.302  1.00  0.00     0.000 C 
BRANCH  11  12
ATOM     12  C   UNL     1     144.437  40.576  -6.668  1.00  0.00     0.000 C 
BRANCH  12  13
ATOM     13  C   UNL     1     144.091  40.817  -8.146  1.00  0.00     0.000 C 
BRANCH  13  14
ATOM     14  C   UNL     1     142.769  40.152  -8.561  1.00  0.00     0.000 C 
BRANCH  14  15
ATOM     15  C   UNL     1     142.699  39.972 -10.085  1.00  0.00     0.000 C 
BRANCH  15  16
ATOM     16  C   UNL     1     143.453  38.722 -10.568  1.00  0.00     0.006 C 
BRANCH  16  17
ATOM     17  C   UNL     1     142.816  37.419 -10.066  1.00  0.00     0.053 C 
BRANCH  17  18
ATOM     18  C   UNL     1     141.464  37.230 -10.678  1.00  0.00     0.041 C 
ATOM     19  O   UNL     1     141.356  36.935 -11.898  1.00  0.00    -0.550 OA
ATOM     20  O   UNL     1     140.324  37.327  -9.890  1.00  0.00    -0.550 OA
ENDBRANCH  17  18
ENDBRANCH  16  17
ENDBRANCH  15  16
ENDBRANCH  14  15
ENDBRANCH  13  14
ENDBRANCH  12  13
ENDBRANCH  11  12
ENDBRANCH   1  11
TORSDOF 15
ENDMDL
MODEL 5
REMARK VINA RESULT:    -1.037      1.849      3.666
REMARK INTER + INTRA:          -4.578
REMARK INTER:                  -2.450
REMARK INTRA:                  -2.128
REMARK UNBOUND:                -2.632
REMARK SMILES O=C([O-])CCCCCCCCCCCCCCC(=O)[O-]
REMARK SMILES IDX 10 1 9 2 8 3 7 4 6 5 5 6 4 7 2 8 1 9 3 10 11 11 12 12 13 13
REMARK SMILES IDX 14 14 15 15 16 16 17 17 18 18 19 19 20 20
REMARK H PARENT
REMARK Flexibility Score: inf
ROOT
ATOM      1  C   UNL     1     145.032  40.128 -10.685  1.00  0.00     0.000 C 
ENDROOT
BRANCH   1   2
ATOM      2  C   UNL     1     146.108  41.208 -10.481  1.00  0.00     0.000 C 
BRANCH   2   3
ATOM      3  C   UNL     1     147.509  40.610 -10.258  1.00  0.00     0.000 C 
BRANCH   3   4
ATOM      4  C   UNL     1     147.722  40.127  -8.814  1.00  0.00     0.000 C 
BRANCH   4   5
ATOM      5  C   UNL     1     147.855  38.597  -8.714  1.00  0.00     0.000 C 
BRANCH   5   6
ATOM      6  C   UNL     1     146.700  37.949  -7.927  1.00  0.00     0.006 C 
BRANCH   6   7
ATOM      7  C   UNL     1     145.771  38.950  -7.220  1.00  0.00     0.053 C 
BRANCH   7   8
ATOM      8  C   UNL     1     146.004  38.984  -5.741  1.00  0.00     0.041 C 
ATOM      9  O   UNL     1     146.738  39.874  -5.236  1.00  0.00    -0.550 OA
ATOM     10  O   UNL     1     145.438  38.014  -4.924  1.00  0.00    -0.550 OA
ENDBRANCH   7   8
ENDBRANCH   6   7
ENDBRANCH   5   6
ENDBRANCH   4   5
ENDBRANCH   3   4
ENDBRANCH   2   3
ENDBRANCH   1   2
BRANCH   1  11
ATOM     11  C   UNL     1     145.379  39.151 -11.820  1.00  0.00     0.000 C 
BRANCH  11  12
ATOM     12  C   UNL     1     145.247  37.695 -11.350  1.00  0.00     0.000 C 
BRANCH  12  13
ATOM     13  C   UNL     1     144.281  36.875 -12.220  1.00  0.00     0.000 C 
BRANCH  13  14
ATOM     14  C   UNL     1     143.855  37.619 -13.494  1.00  0.00     0.000 C 
BRANCH  14  15
ATOM     15  C   UNL     1     142.324  37.691 -13.602  1.00  0.00     0.000 C 
BRANCH  15  16
ATOM     16  C   UNL     1     141.624  37.454 -12.254  1.00  0.00     0.006 C 
BRANCH  16  17
ATOM     17  C   UNL     1     141.262  38.764 -11.540  1.00  0.00     0.053 C 
BRANCH  17  18
ATOM     18  C   UNL     1     141.184  38.548 -10.062  1.00  0.00     0.041 C 
ATOM     19  O   UNL     1     140.068  38.550  -9.479  1.00  0.00    -0.550 OA
ATOM     20  O   UNL     1     142.340  38.292  -9.334  1.00  0.00    -0.550 OA
ENDBRANCH  17  18
ENDBRANCH  16  17
ENDBRANCH  15  16
ENDBRANCH  14  15
ENDBRANCH  13  14
ENDBRANCH  12  13
ENDBRANCH  11  12
ENDBRANCH   1  11
TORSDOF 15
ENDMDL
MODEL 6
REMARK VINA RESULT:    -1.034     13.921     16.518
REMARK INTER + INTRA:          -4.572
REMARK INTER:                  -2.252
REMARK INTRA:                  -2.320
REMARK UNBOUND:                -2.632
REMARK SMILES O=C([O-])CCCCCCCCCCCCCCC(=O)[O-]
REMARK SMILES IDX 10 1 9 2 8 3 7 4 6 5 5 6 4 7 2 8 1 9 3 10 11 11 12 12 13 13
REMARK SMILES IDX 14 14 15 15 16 16 17 17 18 18 19 19 20 20
REMARK H PARENT
REMARK Flexibility Score: inf
ROOT
ATOM      1  C   UNL     1     139.085  55.822 -10.314  1.00  0.00     0.000 C 
ENDROOT
BRANCH   1   2
ATOM      2  C   UNL     1     139.408  57.123 -11.069  1.00  0.00     0.000 C 
BRANCH   2   3
ATOM      3  C   UNL     1     139.504  56.913 -12.591  1.00  0.00     0.000 C 
BRANCH   3   4
ATOM      4  C   UNL     1     140.938  57.072 -13.120  1.00  0.00     0.000 C 
BRANCH   4   5
ATOM      5  C   UNL     1     141.835  55.871 -12.771  1.00  0.00     0.000 C 
BRANCH   5   6
ATOM      6  C   UNL     1     141.402  54.578 -13.489  1.00  0.00     0.006 C 
BRANCH   6   7
ATOM      7  C   UNL     1     140.988  53.436 -12.547  1.00  0.00     0.053 C 
BRANCH   7   8
ATOM      8  C   UNL     1     139.526  53.127 -12.646  1.00  0.00     0.041 C 
ATOM      9  O   UNL     1     138.989  52.337 -11.826  1.00  0.00    -0.550 OA
ATOM     10  O   UNL     1     138.763  53.686 -13.663  1.00  0.00    -0.550 OA
ENDBRANCH   7   8
ENDBRANCH   6   7
ENDBRANCH   5   6
ENDBRANCH   4   5
ENDBRANCH   3   4
ENDBRANCH   2   3
ENDBRANCH   1   2
BRANCH   1  11
ATOM     11  C   UNL     1     140.249  55.344  -9.432  1.00  0.00     0.000 C 
BRANCH  11  12
ATOM     12  C   UNL     1     141.118  56.528  -8.982  1.00  0.00     0.000 C 
BRANCH  12  13
ATOM     13  C   UNL     1     142.601  56.151  -8.828  1.00  0.00     0.000 C 
BRANCH  13  14
ATOM     14  C   UNL     1     142.856  54.650  -9.033  1.00  0.00     0.000 C 
BRANCH  14  15
ATOM     15  C   UNL     1     143.897  54.416 -10.138  1.00  0.00     0.000 C 
BRANCH  15  16
ATOM     16  C   UNL     1     144.016  52.935 -10.533  1.00  0.00     0.006 C 
BRANCH  16  17
ATOM     17  C   UNL     1     144.722  52.094  -9.460  1.00  0.00     0.053 C 
BRANCH  17  18
ATOM     18  C   UNL     1     144.797  50.662  -9.885  1.00  0.00     0.041 C 
ATOM     19  O   UNL     1     145.645  50.299 -10.743  1.00  0.00    -0.550 OA
ATOM     20  O   UNL     1     143.967  49.717  -9.296  1.00  0.00    -0.550 OA
ENDBRANCH  17  18
ENDBRANCH  16  17
ENDBRANCH  15  16
ENDBRANCH  14  15
ENDBRANCH  13  14
ENDBRANCH  12  13
ENDBRANCH  11  12
ENDBRANCH   1  11
TORSDOF 15
ENDMDL
MODEL 7
REMARK VINA RESULT:    -1.018      1.831      6.380
REMARK INTER + INTRA:          -4.543
REMARK INTER:                  -1.911
REMARK INTRA:                  -2.632
REMARK UNBOUND:                -2.632
REMARK SMILES O=C([O-])CCCCCCCCCCCCCCC(=O)[O-]
REMARK SMILES IDX 10 1 9 2 8 3 7 4 6 5 5 6 4 7 2 8 1 9 3 10 11 11 12 12 13 13
REMARK SMILES IDX 14 14 15 15 16 16 17 17 18 18 19 19 20 20
REMARK H PARENT
REMARK Flexibility Score: inf
ROOT
ATOM      1  C   UNL     1     146.779  40.842  -7.966  1.00  0.00     0.000 C 
ENDROOT
BRANCH   1   2
ATOM      2  C   UNL     1     147.798  40.048  -8.801  1.00  0.00     0.000 C 
BRANCH   2   3
ATOM      3  C   UNL     1     147.752  38.537  -8.507  1.00  0.00     0.000 C 
BRANCH   3   4
ATOM      4  C   UNL     1     146.850  38.196  -7.310  1.00  0.00     0.000 C 
BRANCH   4   5
ATOM      5  C   UNL     1     145.622  37.361  -7.714  1.00  0.00     0.000 C 
BRANCH   5   6
ATOM      6  C   UNL     1     145.536  37.124  -9.234  1.00  0.00     0.006 C 
BRANCH   6   7
ATOM      7  C   UNL     1     144.442  37.939  -9.944  1.00  0.00     0.053 C 
BRANCH   7   8
ATOM      8  C   UNL     1     144.825  38.289 -11.349  1.00  0.00     0.041 C 
ATOM      9  O   UNL     1     145.753  39.111 -11.567  1.00  0.00    -0.550 OA
ATOM     10  O   UNL     1     144.134  37.733 -12.418  1.00  0.00    -0.550 OA
ENDBRANCH   7   8
ENDBRANCH   6   7
ENDBRANCH   5   6
ENDBRANCH   4   5
ENDBRANCH   3   4
ENDBRANCH   2   3
ENDBRANCH   1   2
BRANCH   1  11
ATOM     11  C   UNL     1     145.605  41.368  -8.807  1.00  0.00     0.000 C 
BRANCH  11  12
ATOM     12  C   UNL     1     144.408  41.726  -7.914  1.00  0.00     0.000 C 
BRANCH  12  13
ATOM     13  C   UNL     1     143.680  40.485  -7.372  1.00  0.00     0.000 C 
BRANCH  13  14
ATOM     14  C   UNL     1     143.396  40.575  -5.865  1.00  0.00     0.000 C 
BRANCH  14  15
ATOM     15  C   UNL     1     144.486  39.855  -5.057  1.00  0.00     0.000 C 
BRANCH  15  16
ATOM     16  C   UNL     1     145.503  40.828  -4.437  1.00  0.00     0.006 C 
BRANCH  16  17
ATOM     17  C   UNL     1     146.894  40.201  -4.273  1.00  0.00     0.053 C 
BRANCH  17  18
ATOM     18  C   UNL     1     146.903  39.242  -3.125  1.00  0.00     0.041 C 
ATOM     19  O   UNL     1     146.487  39.605  -1.993  1.00  0.00    -0.550 OA
ATOM     20  O   UNL     1     147.321  37.931  -3.316  1.00  0.00    -0.550 OA
ENDBRANCH  17  18
ENDBRANCH  16  17
ENDBRANCH  15  16
ENDBRANCH  14  15
ENDBRANCH  13  14
ENDBRANCH  12  13
ENDBRANCH  11  12
ENDBRANCH   1  11
TORSDOF 15
ENDMDL
MODEL 8
REMARK VINA RESULT:    -1.017     18.311     20.831
REMARK INTER + INTRA:          -4.540
REMARK INTER:                  -1.709
REMARK INTRA:                  -2.831
REMARK UNBOUND:                -2.632
REMARK SMILES O=C([O-])CCCCCCCCCCCCCCC(=O)[O-]
REMARK SMILES IDX 10 1 9 2 8 3 7 4 6 5 5 6 4 7 2 8 1 9 3 10 11 11 12 12 13 13
REMARK SMILES IDX 14 14 15 15 16 16 17 17 18 18 19 19 20 20
REMARK H PARENT
REMARK Flexibility Score: inf
ROOT
ATOM      1  C   UNL     1     132.316  50.868  -8.564  1.00  0.00     0.000 C 
ENDROOT
BRANCH   1   2
ATOM      2  C   UNL     1     131.114  50.763  -9.518  1.00  0.00     0.000 C 
BRANCH   2   3
ATOM      3  C   UNL     1     131.354  51.493 -10.851  1.00  0.00     0.000 C 
BRANCH   3   4
ATOM      4  C   UNL     1     130.055  52.029 -11.473  1.00  0.00     0.000 C 
BRANCH   4   5
ATOM      5  C   UNL     1     130.301  53.197 -12.445  1.00  0.00     0.000 C 
BRANCH   5   6
ATOM      6  C   UNL     1     131.661  53.884 -12.217  1.00  0.00     0.006 C 
BRANCH   6   7
ATOM      7  C   UNL     1     131.782  55.282 -12.846  1.00  0.00     0.053 C 
BRANCH   7   8
ATOM      8  C   UNL     1     131.516  56.370 -11.852  1.00  0.00     0.041 C 
ATOM      9  O   UNL     1     132.458  56.844 -11.164  1.00  0.00    -0.550 OA
ATOM     10  O   UNL     1     130.222  56.839 -11.661  1.00  0.00    -0.550 OA
ENDBRANCH   7   8
ENDBRANCH   6   7
ENDBRANCH   5   6
ENDBRANCH   4   5
ENDBRANCH   3   4
ENDBRANCH   2   3
ENDBRANCH   1   2
BRANCH   1  11
ATOM     11  C   UNL     1     133.380  51.861  -9.058  1.00  0.00     0.000 C 
BRANCH  11  12
ATOM     12  C   UNL     1     133.449  53.093  -8.143  1.00  0.00     0.000 C 
BRANCH  12  13
ATOM     13  C   UNL     1     132.799  54.336  -8.770  1.00  0.00     0.000 C 
BRANCH  13  14
ATOM     14  C   UNL     1     131.556  54.809  -8.000  1.00  0.00     0.000 C 
BRANCH  14  15
ATOM     15  C   UNL     1     130.286  54.635  -8.847  1.00  0.00     0.000 C 
BRANCH  15  16
ATOM     16  C   UNL     1     129.272  53.677  -8.201  1.00  0.00     0.006 C 
BRANCH  16  17
ATOM     17  C   UNL     1     129.747  53.142  -6.843  1.00  0.00     0.053 C 
BRANCH  17  18
ATOM     18  C   UNL     1     128.781  53.520  -5.766  1.00  0.00     0.041 C 
ATOM     19  O   UNL     1     128.417  52.667  -4.913  1.00  0.00    -0.550 OA
ATOM     20  O   UNL     1     128.321  54.828  -5.671  1.00  0.00    -0.550 OA
ENDBRANCH  17  18
ENDBRANCH  16  17
ENDBRANCH  15  16
ENDBRANCH  14  15
ENDBRANCH  13  14
ENDBRANCH  12  13
ENDBRANCH  11  12
ENDBRANCH   1  11
TORSDOF 15
ENDMDL
