MODEL 1
REMARK VINA RESULT:    -5.996      0.000      0.000
REMARK INTER + INTRA:          -7.022
REMARK INTER:                  -6.872
REMARK INTRA:                  -0.150
REMARK UNBOUND:                -0.150
REMARK SMILES O=C([O-])C=Cc1ccc(O)cc1
REMARK SMILES IDX 6 1 7 2 12 3 8 4 11 5 9 6 5 7 4 8 2 9 1 10 3 11 10 12
REMARK H PARENT 10 13
REMARK Flexibility Score: inf
ROOT
ATOM      1  C   UNL     1      11.318  20.320  18.240  1.00  0.00    -0.025 A 
ATOM      2  C   UNL     1      11.483  20.838  19.536  1.00  0.00     0.012 A 
ATOM      3  C   UNL     1      10.044  20.385  17.638  1.00  0.00     0.012 A 
ATOM      4  C   UNL     1      10.397  21.386  20.227  1.00  0.00     0.047 A 
ATOM      5  C   UNL     1       8.961  20.935  18.332  1.00  0.00     0.047 A 
ATOM      6  C   UNL     1       9.135  21.434  19.628  1.00  0.00     0.115 A 
ENDROOT
BRANCH   1   7
ATOM      7  C   UNL     1      12.502  19.757  17.544  1.00  0.00     0.010 C 
ATOM      8  C   UNL     1      13.575  19.265  18.178  1.00  0.00     0.025 C 
BRANCH   8   9
ATOM      9  C   UNL     1      14.737  18.725  17.453  1.00  0.00     0.064 C 
ATOM     10  O   UNL     1      15.859  18.603  18.015  1.00  0.00    -0.545 OA
ATOM     11  O   UNL     1      14.596  18.344  16.125  1.00  0.00    -0.545 OA
ENDBRANCH   8   9
ENDBRANCH   1   7
BRANCH   6  12
ATOM     12  O   UNL     1       8.063  21.982  20.329  1.00  0.00    -0.508 OA
ATOM     13  H   UNL     1       7.137  21.574  20.282  1.00  0.00     0.293 HD
ENDBRANCH   6  12
TORSDOF 3
ENDMDL
MODEL 2
REMARK VINA RESULT:    -5.975      1.247      1.666
REMARK INTER + INTRA:          -6.998
REMARK INTER:                  -6.859
REMARK INTRA:                  -0.138
REMARK UNBOUND:                -0.150
REMARK SMILES O=C([O-])C=Cc1ccc(O)cc1
REMARK SMILES IDX 6 1 7 2 12 3 8 4 11 5 9 6 5 7 4 8 2 9 1 10 3 11 10 12
REMARK H PARENT 10 13
REMARK Flexibility Score: inf
ROOT
ATOM      1  C   UNL     1      11.261  20.468  18.105  1.00  0.00    -0.025 A 
ATOM      2  C   UNL     1      11.490  20.919  19.416  1.00  0.00     0.012 A 
ATOM      3  C   UNL     1       9.956  20.551  17.575  1.00  0.00     0.012 A 
ATOM      4  C   UNL     1      10.437  21.417  20.191  1.00  0.00     0.047 A 
ATOM      5  C   UNL     1       8.907  21.052  18.353  1.00  0.00     0.047 A 
ATOM      6  C   UNL     1       9.145  21.484  19.664  1.00  0.00     0.115 A 
ENDROOT
BRANCH   1   7
ATOM      7  C   UNL     1      12.411  19.956  17.319  1.00  0.00     0.010 C 
ATOM      8  C   UNL     1      12.438  19.914  15.980  1.00  0.00     0.025 C 
BRANCH   8   9
ATOM      9  C   UNL     1      13.595  19.389  15.234  1.00  0.00     0.064 C 
ATOM     10  O   UNL     1      14.069  20.008  14.245  1.00  0.00    -0.545 OA
ATOM     11  O   UNL     1      14.172  18.189  15.628  1.00  0.00    -0.545 OA
ENDBRANCH   8   9
ENDBRANCH   1   7
BRANCH   6  12
ATOM     12  O   UNL     1       8.107  21.982  20.447  1.00  0.00    -0.508 OA
ATOM     13  H   UNL     1       7.935  22.977  20.527  1.00  0.00     0.293 HD
ENDBRANCH   6  12
TORSDOF 3
ENDMDL
MODEL 3
REMARK VINA RESULT:    -5.966      1.271      2.187
REMARK INTER + INTRA:          -6.987
REMARK INTER:                  -6.839
REMARK INTRA:                  -0.149
REMARK UNBOUND:                -0.150
REMARK SMILES O=C([O-])C=Cc1ccc(O)cc1
REMARK SMILES IDX 6 1 7 2 12 3 8 4 11 5 9 6 5 7 4 8 2 9 1 10 3 11 10 12
REMARK H PARENT 10 13
REMARK Flexibility Score: inf
ROOT
ATOM      1  C   UNL     1      11.376  20.517  18.165  1.00  0.00    -0.025 A 
ATOM      2  C   UNL     1      10.079  20.544  17.623  1.00  0.00     0.012 A 
ATOM      3  C   UNL     1      11.569  20.964  19.489  1.00  0.00     0.012 A 
ATOM      4  C   UNL     1       9.004  21.030  18.374  1.00  0.00     0.047 A 
ATOM      5  C   UNL     1      10.490  21.448  20.236  1.00  0.00     0.047 A 
ATOM      6  C   UNL     1       9.207  21.485  19.680  1.00  0.00     0.115 A 
ENDROOT
BRANCH   1   7
ATOM      7  C   UNL     1      12.483  19.983  17.333  1.00  0.00     0.010 C 
ATOM      8  C   UNL     1      12.470  19.976  15.993  1.00  0.00     0.025 C 
BRANCH   8   9
ATOM      9  C   UNL     1      13.584  19.427  15.200  1.00  0.00     0.064 C 
ATOM     10  O   UNL     1      14.070  20.066  14.228  1.00  0.00    -0.545 OA
ATOM     11  O   UNL     1      14.107  18.184  15.528  1.00  0.00    -0.545 OA
ENDBRANCH   8   9
ENDBRANCH   1   7
BRANCH   6  12
ATOM     12  O   UNL     1       8.126  21.966  20.416  1.00  0.00    -0.508 OA
ATOM     13  H   UNL     1       7.769  21.466  21.221  1.00  0.00     0.293 HD
ENDBRANCH   6  12
TORSDOF 3
ENDMDL
MODEL 4
REMARK VINA RESULT:    -5.405      1.090      1.976
REMARK INTER + INTRA:          -6.345
REMARK INTER:                  -6.193
REMARK INTRA:                  -0.152
REMARK UNBOUND:                -0.150
REMARK SMILES O=C([O-])C=Cc1ccc(O)cc1
REMARK SMILES IDX 6 1 7 2 12 3 8 4 11 5 9 6 5 7 4 8 2 9 1 10 3 11 10 12
REMARK H PARENT 10 13
REMARK Flexibility Score: inf
ROOT
ATOM      1  C   UNL     1      11.802  20.307  18.814  1.00  0.00    -0.025 A 
ATOM      2  C   UNL     1      11.087  19.899  17.675  1.00  0.00     0.012 A 
ATOM      3  C   UNL     1      11.164  21.141  19.756  1.00  0.00     0.012 A 
ATOM      4  C   UNL     1       9.774  20.332  17.466  1.00  0.00     0.047 A 
ATOM      5  C   UNL     1       9.850  21.571  19.543  1.00  0.00     0.047 A 
ATOM      6  C   UNL     1       9.153  21.169  18.398  1.00  0.00     0.115 A 
ENDROOT
BRANCH   1   7
ATOM      7  C   UNL     1      13.190  19.813  18.995  1.00  0.00     0.010 C 
ATOM      8  C   UNL     1      13.865  19.127  18.063  1.00  0.00     0.025 C 
BRANCH   8   9
ATOM      9  C   UNL     1      15.238  18.643  18.284  1.00  0.00     0.064 C 
ATOM     10  O   UNL     1      16.021  18.439  17.318  1.00  0.00    -0.545 OA
ATOM     11  O   UNL     1      15.678  18.408  19.579  1.00  0.00    -0.545 OA
ENDBRANCH   8   9
ENDBRANCH   1   7
BRANCH   6  12
ATOM     12  O   UNL     1       7.845  21.593  18.177  1.00  0.00    -0.508 OA
ATOM     13  H   UNL     1       7.484  21.729  17.240  1.00  0.00     0.293 HD
ENDBRANCH   6  12
TORSDOF 3
ENDMDL
MODEL 5
REMARK VINA RESULT:    -5.084      1.261      5.768
REMARK INTER + INTRA:          -5.977
REMARK INTER:                  -5.840
REMARK INTRA:                  -0.137
REMARK UNBOUND:                -0.150
REMARK SMILES O=C([O-])C=Cc1ccc(O)cc1
REMARK SMILES IDX 6 1 7 2 12 3 8 4 11 5 9 6 5 7 4 8 2 9 1 10 3 11 10 12
REMARK H PARENT 10 13
REMARK Flexibility Score: inf
ROOT
ATOM      1  C   UNL     1      12.365  19.619  18.639  1.00  0.00    -0.025 A 
ATOM      2  C   UNL     1      13.163  20.373  17.761  1.00  0.00     0.012 A 
ATOM      3  C   UNL     1      12.971  18.601  19.406  1.00  0.00     0.012 A 
ATOM      4  C   UNL     1      14.529  20.101  17.631  1.00  0.00     0.047 A 
ATOM      5  C   UNL     1      14.337  18.334  19.273  1.00  0.00     0.047 A 
ATOM      6  C   UNL     1      15.119  19.082  18.384  1.00  0.00     0.115 A 
ENDROOT
BRANCH   1   7
ATOM      7  C   UNL     1      10.923  19.950  18.749  1.00  0.00     0.010 C 
ATOM      8  C   UNL     1      10.453  21.028  19.392  1.00  0.00     0.025 C 
BRANCH   8   9
ATOM      9  C   UNL     1       9.012  21.318  19.490  1.00  0.00     0.064 C 
ATOM     10  O   UNL     1       8.446  21.442  20.608  1.00  0.00    -0.545 OA
ATOM     11  O   UNL     1       8.264  21.458  18.328  1.00  0.00    -0.545 OA
ENDBRANCH   8   9
ENDBRANCH   1   7
BRANCH   6  12
ATOM     12  O   UNL     1      16.480  18.823  18.244  1.00  0.00    -0.508 OA
ATOM     13  H   UNL     1      17.163  19.222  18.877  1.00  0.00     0.293 HD
ENDBRANCH   6  12
TORSDOF 3
ENDMDL
MODEL 6
REMARK VINA RESULT:    -5.012      1.955      5.998
REMARK INTER + INTRA:          -5.894
REMARK INTER:                  -5.747
REMARK INTRA:                  -0.147
REMARK UNBOUND:                -0.150
REMARK SMILES O=C([O-])C=Cc1ccc(O)cc1
REMARK SMILES IDX 6 1 7 2 12 3 8 4 11 5 9 6 5 7 4 8 2 9 1 10 3 11 10 12
REMARK H PARENT 10 13
REMARK Flexibility Score: inf
ROOT
ATOM      1  C   UNL     1      12.758  20.040  16.881  1.00  0.00    -0.025 A 
ATOM      2  C   UNL     1      12.712  20.863  15.743  1.00  0.00     0.012 A 
ATOM      3  C   UNL     1      13.679  18.972  16.911  1.00  0.00     0.012 A 
ATOM      4  C   UNL     1      13.547  20.614  14.649  1.00  0.00     0.047 A 
ATOM      5  C   UNL     1      14.513  18.726  15.815  1.00  0.00     0.047 A 
ATOM      6  C   UNL     1      14.448  19.545  14.681  1.00  0.00     0.115 A 
ENDROOT
BRANCH   1   7
ATOM      7  C   UNL     1      11.858  20.350  18.020  1.00  0.00     0.010 C 
ATOM      8  C   UNL     1      10.608  20.811  17.877  1.00  0.00     0.025 C 
BRANCH   8   9
ATOM      9  C   UNL     1       9.748  21.119  19.033  1.00  0.00     0.064 C 
ATOM     10  O   UNL     1       8.493  21.137  18.925  1.00  0.00    -0.545 OA
ATOM     11  O   UNL     1      10.331  21.395  20.262  1.00  0.00    -0.545 OA
ENDBRANCH   8   9
ENDBRANCH   1   7
BRANCH   6  12
ATOM     12  O   UNL     1      15.273  19.308  13.585  1.00  0.00    -0.508 OA
ATOM     13  H   UNL     1      15.815  20.052  13.160  1.00  0.00     0.293 HD
ENDBRANCH   6  12
TORSDOF 3
ENDMDL
MODEL 7
REMARK VINA RESULT:    -4.983     11.624     12.896
REMARK INTER + INTRA:          -5.861
REMARK INTER:                  -5.723
REMARK INTRA:                  -0.138
REMARK UNBOUND:                -0.150
REMARK SMILES O=C([O-])C=Cc1ccc(O)cc1
REMARK SMILES IDX 6 1 7 2 12 3 8 4 11 5 9 6 5 7 4 8 2 9 1 10 3 11 10 12
REMARK H PARENT 10 13
REMARK Flexibility Score: inf
ROOT
ATOM      1  C   UNL     1       8.254  23.657   7.728  1.00  0.00    -0.025 A 
ATOM      2  C   UNL     1       7.314  23.035   8.568  1.00  0.00     0.012 A 
ATOM      3  C   UNL     1       9.626  23.394   7.930  1.00  0.00     0.012 A 
ATOM      4  C   UNL     1       7.731  22.191   9.602  1.00  0.00     0.047 A 
ATOM      5  C   UNL     1      10.038  22.548   8.965  1.00  0.00     0.047 A 
ATOM      6  C   UNL     1       9.093  21.946   9.804  1.00  0.00     0.115 A 
ENDROOT
BRANCH   1   7
ATOM      7  C   UNL     1       7.762  24.537   6.639  1.00  0.00     0.010 C 
ATOM      8  C   UNL     1       8.479  24.847   5.551  1.00  0.00     0.025 C 
BRANCH   8   9
ATOM      9  C   UNL     1       7.960  25.734   4.495  1.00  0.00     0.064 C 
ATOM     10  O   UNL     1       8.094  26.985   4.570  1.00  0.00    -0.545 OA
ATOM     11  O   UNL     1       7.312  25.183   3.399  1.00  0.00    -0.545 OA
ENDBRANCH   8   9
ENDBRANCH   1   7
BRANCH   6  12
ATOM     12  O   UNL     1       9.493  21.103  10.838  1.00  0.00    -0.508 OA
ATOM     13  H   UNL     1       8.867  20.409  11.228  1.00  0.00     0.293 HD
ENDBRANCH   6  12
TORSDOF 3
ENDMDL
MODEL 8
REMARK VINA RESULT:    -4.948     16.943     18.245
REMARK INTER + INTRA:          -5.821
REMARK INTER:                  -5.675
REMARK INTRA:                  -0.147
REMARK UNBOUND:                -0.150
REMARK SMILES O=C([O-])C=Cc1ccc(O)cc1
REMARK SMILES IDX 6 1 7 2 12 3 8 4 11 5 9 6 5 7 4 8 2 9 1 10 3 11 10 12
REMARK H PARENT 10 13
REMARK Flexibility Score: inf
ROOT
ATOM      1  C   UNL     1      20.669  15.495   4.037  1.00  0.00    -0.025 A 
ATOM      2  C   UNL     1      21.301  14.818   2.979  1.00  0.00     0.012 A 
ATOM      3  C   UNL     1      19.504  14.936   4.603  1.00  0.00     0.012 A 
ATOM      4  C   UNL     1      20.769  13.624   2.480  1.00  0.00     0.047 A 
ATOM      5  C   UNL     1      18.977  13.742   4.100  1.00  0.00     0.047 A 
ATOM      6  C   UNL     1      19.607  13.084   3.037  1.00  0.00     0.115 A 
ENDROOT
BRANCH   1   7
ATOM      7  C   UNL     1      21.277  16.753   4.538  1.00  0.00     0.010 C 
ATOM      8  C   UNL     1      22.590  16.915   4.746  1.00  0.00     0.025 C 
BRANCH   8   9
ATOM      9  C   UNL     1      23.155  18.176   5.255  1.00  0.00     0.064 C 
ATOM     10  O   UNL     1      22.414  19.081   5.723  1.00  0.00    -0.545 OA
ATOM     11  O   UNL     1      24.529  18.372   5.219  1.00  0.00    -0.545 OA
ENDBRANCH   8   9
ENDBRANCH   1   7
BRANCH   6  12
ATOM     12  O   UNL     1      19.089  11.895   2.529  1.00  0.00    -0.508 OA
ATOM     13  H   UNL     1      18.126  11.625   2.694  1.00  0.00     0.293 HD
ENDBRANCH   6  12
TORSDOF 3
ENDMDL
MODEL 9
REMARK VINA RESULT:    -4.911      9.463     12.662
REMARK INTER + INTRA:          -5.778
REMARK INTER:                  -5.642
REMARK INTRA:                  -0.136
REMARK UNBOUND:                -0.150
REMARK SMILES O=C([O-])C=Cc1ccc(O)cc1
REMARK SMILES IDX 6 1 7 2 12 3 8 4 11 5 9 6 5 7 4 8 2 9 1 10 3 11 10 12
REMARK H PARENT 10 13
REMARK Flexibility Score: inf
ROOT
ATOM      1  C   UNL     1      21.543  19.914  11.667  1.00  0.00    -0.025 A 
ATOM      2  C   UNL     1      22.600  19.658  10.778  1.00  0.00     0.012 A 
ATOM      3  C   UNL     1      21.774  20.755  12.776  1.00  0.00     0.012 A 
ATOM      4  C   UNL     1      23.867  20.207  11.002  1.00  0.00     0.047 A 
ATOM      5  C   UNL     1      23.042  21.302  12.996  1.00  0.00     0.047 A 
ATOM      6  C   UNL     1      24.092  21.028  12.111  1.00  0.00     0.115 A 
ENDROOT
BRANCH   1   7
ATOM      7  C   UNL     1      20.214  19.316  11.381  1.00  0.00     0.010 C 
ATOM      8  C   UNL     1      19.316  19.009  12.327  1.00  0.00     0.025 C 
BRANCH   8   9
ATOM      9  C   UNL     1      18.011  18.407  12.005  1.00  0.00     0.064 C 
ATOM     10  O   UNL     1      17.918  17.197  11.665  1.00  0.00    -0.545 OA
ATOM     11  O   UNL     1      16.864  19.185  12.077  1.00  0.00    -0.545 OA
ENDBRANCH   8   9
ENDBRANCH   1   7
BRANCH   6  12
ATOM     12  O   UNL     1      25.359  21.566  12.322  1.00  0.00    -0.508 OA
ATOM     13  H   UNL     1      25.763  21.621  13.250  1.00  0.00     0.293 HD
ENDBRANCH   6  12
TORSDOF 3
ENDMDL
