MODEL 1
REMARK VINA RESULT:    -6.734      0.000      0.000
REMARK INTER + INTRA:          -7.325
REMARK INTER:                  -7.325
REMARK INTRA:                   0.000
REMARK UNBOUND:                 0.000
REMARK SMILES Cc1cc(O)c2c(c1)C(=O)c1cc(O)cc(O)c1C2=O
REMARK SMILES IDX 1 1 2 2 8 3 7 4 6 5 4 6 3 7 19 8 20 9 18 10 11 11 9 12 10 13
REMARK SMILES IDX 12 14 13 15 15 16 16 17 5 18 17 20 14 22
REMARK H PARENT 5 19 17 21 14 23
REMARK Flexibility Score: inf
ROOT
ATOM      1  C   UNL     1     137.196  98.630  91.343  1.00  0.00     0.044 C 
ATOM      2  C   UNL     1     136.659  99.695  92.253  1.00  0.00    -0.047 A 
ATOM      3  C   UNL     1     135.334 100.124  92.131  1.00  0.00     0.016 A 
ATOM      4  C   UNL     1     134.813 101.101  92.997  1.00  0.00     0.038 A 
ATOM      5  C   UNL     1     135.634 101.658  94.002  1.00  0.00     0.076 A 
ATOM      6  C   UNL     1     136.951 101.158  94.176  1.00  0.00     0.127 A 
ATOM      7  C   UNL     1     137.453 100.200  93.290  1.00  0.00     0.050 A 
ATOM      8  C   UNL     1     135.098 102.790  94.800  1.00  0.00     0.201 C 
ATOM      9  O   UNL     1     135.883 103.662  95.259  1.00  0.00    -0.288 OA
ATOM     10  C   UNL     1     133.628 102.995  94.895  1.00  0.00     0.076 A 
ATOM     11  C   UNL     1     132.810 102.435  93.888  1.00  0.00     0.041 A 
ATOM     12  C   UNL     1     133.405 101.544  92.864  1.00  0.00     0.194 C 
ATOM     13  O   UNL     1     132.706 101.143  91.893  1.00  0.00    -0.289 OA
ATOM     14  C   UNL     1     131.434 102.721  93.866  1.00  0.00     0.059 A 
ATOM     15  C   UNL     1     130.865 103.544  94.841  1.00  0.00     0.120 A 
ATOM     16  C   UNL     1     131.663 104.066  95.860  1.00  0.00     0.093 A 
ATOM     17  C   UNL     1     133.031 103.780  95.915  1.00  0.00     0.131 A 
ENDROOT
BRANCH   6  18
ATOM     18  O   UNL     1     137.776 101.556  95.230  1.00  0.00    -0.507 OA
ATOM     19  H   UNL     1     137.994 100.967  96.022  1.00  0.00     0.293 HD
ENDBRANCH   6  18
BRANCH  17  20
ATOM     20  O   UNL     1     133.745 104.264  97.014  1.00  0.00    -0.507 OA
ATOM     21  H   UNL     1     134.489 104.944  96.940  1.00  0.00     0.293 HD
ENDBRANCH  17  20
BRANCH  15  22
ATOM     22  O   UNL     1     129.504 103.840  94.816  1.00  0.00    -0.508 OA
ATOM     23  H   UNL     1     128.831 103.279  95.325  1.00  0.00     0.293 HD
ENDBRANCH  15  22
TORSDOF 3
ENDMDL
MODEL 2
REMARK VINA RESULT:    -6.231      1.936      5.157
REMARK INTER + INTRA:          -6.777
REMARK INTER:                  -6.777
REMARK INTRA:                   0.000
REMARK UNBOUND:                 0.000
REMARK SMILES Cc1cc(O)c2c(c1)C(=O)c1cc(O)cc(O)c1C2=O
REMARK SMILES IDX 1 1 2 2 8 3 7 4 6 5 4 6 3 7 19 8 20 9 18 10 11 11 9 12 10 13
REMARK SMILES IDX 12 14 13 15 15 16 16 17 5 18 17 20 14 22
REMARK H PARENT 5 19 17 21 14 23
REMARK Flexibility Score: inf
ROOT
ATOM      1  C   UNL     1     129.216 100.327  90.381  1.00  0.00     0.044 C 
ATOM      2  C   UNL     1     129.936 101.046  91.484  1.00  0.00    -0.047 A 
ATOM      3  C   UNL     1     131.326 100.947  91.599  1.00  0.00     0.016 A 
ATOM      4  C   UNL     1     132.013 101.639  92.611  1.00  0.00     0.038 A 
ATOM      5  C   UNL     1     131.295 102.445  93.523  1.00  0.00     0.076 A 
ATOM      6  C   UNL     1     129.896 102.609  93.348  1.00  0.00     0.127 A 
ATOM      7  C   UNL     1     129.232 101.894  92.346  1.00  0.00     0.050 A 
ATOM      8  C   UNL     1     132.032 103.041  94.666  1.00  0.00     0.201 C 
ATOM      9  O   UNL     1     131.436 103.253  95.756  1.00  0.00    -0.288 OA
ATOM     10  C   UNL     1     133.507 103.209  94.585  1.00  0.00     0.076 A 
ATOM     11  C   UNL     1     134.222 102.403  93.671  1.00  0.00     0.041 A 
ATOM     12  C   UNL     1     133.487 101.533  92.723  1.00  0.00     0.194 C 
ATOM     13  O   UNL     1     134.118 100.720  91.992  1.00  0.00    -0.289 OA
ATOM     14  C   UNL     1     135.627 102.434  93.661  1.00  0.00     0.059 A 
ATOM     15  C   UNL     1     136.323 103.268  94.540  1.00  0.00     0.120 A 
ATOM     16  C   UNL     1     135.621 104.095  95.416  1.00  0.00     0.093 A 
ATOM     17  C   UNL     1     134.222 104.097  95.431  1.00  0.00     0.131 A 
ENDROOT
BRANCH   6  18
ATOM     18  O   UNL     1     129.138 103.493  94.119  1.00  0.00    -0.507 OA
ATOM     19  H   UNL     1     128.402 104.074  93.741  1.00  0.00     0.293 HD
ENDBRANCH   6  18
BRANCH  17  20
ATOM     20  O   UNL     1     133.589 105.016  96.270  1.00  0.00    -0.507 OA
ATOM     21  H   UNL     1     133.773 105.086  97.262  1.00  0.00     0.293 HD
ENDBRANCH  17  20
BRANCH  15  22
ATOM     22  O   UNL     1     137.717 103.292  94.543  1.00  0.00    -0.508 OA
ATOM     23  H   UNL     1     138.231 104.154  94.684  1.00  0.00     0.293 HD
ENDBRANCH  15  22
TORSDOF 3
ENDMDL
MODEL 3
REMARK VINA RESULT:    -5.826      2.103      3.631
REMARK INTER + INTRA:          -6.337
REMARK INTER:                  -6.337
REMARK INTRA:                   0.000
REMARK UNBOUND:                 0.000
REMARK SMILES Cc1cc(O)c2c(c1)C(=O)c1cc(O)cc(O)c1C2=O
REMARK SMILES IDX 1 1 2 2 8 3 7 4 6 5 4 6 3 7 19 8 20 9 18 10 11 11 9 12 10 13
REMARK SMILES IDX 12 14 13 15 15 16 16 17 5 18 17 20 14 22
REMARK H PARENT 5 19 17 21 14 23
REMARK Flexibility Score: inf
ROOT
ATOM      1  C   UNL     1     137.919 102.332  94.501  1.00  0.00     0.044 C 
ATOM      2  C   UNL     1     136.457 102.661  94.429  1.00  0.00    -0.047 A 
ATOM      3  C   UNL     1     135.638 102.025  93.491  1.00  0.00     0.016 A 
ATOM      4  C   UNL     1     134.262 102.305  93.434  1.00  0.00     0.038 A 
ATOM      5  C   UNL     1     133.697 103.238  94.333  1.00  0.00     0.076 A 
ATOM      6  C   UNL     1     134.517 103.815  95.337  1.00  0.00     0.127 A 
ATOM      7  C   UNL     1     135.887 103.536  95.360  1.00  0.00     0.050 A 
ATOM      8  C   UNL     1     132.273 103.619  94.148  1.00  0.00     0.201 C 
ATOM      9  O   UNL     1     131.883 104.770  94.480  1.00  0.00    -0.288 OA
ATOM     10  C   UNL     1     131.359 102.715  93.401  1.00  0.00     0.076 A 
ATOM     11  C   UNL     1     131.927 101.782  92.504  1.00  0.00     0.041 A 
ATOM     12  C   UNL     1     133.399 101.622  92.441  1.00  0.00     0.194 C 
ATOM     13  O   UNL     1     133.917 100.885  91.557  1.00  0.00    -0.289 OA
ATOM     14  C   UNL     1     131.094 101.007  91.681  1.00  0.00     0.059 A 
ATOM     15  C   UNL     1     129.705 101.140  91.752  1.00  0.00     0.120 A 
ATOM     16  C   UNL     1     129.139 102.031  92.664  1.00  0.00     0.093 A 
ATOM     17  C   UNL     1     129.946 102.799  93.509  1.00  0.00     0.131 A 
ENDROOT
BRANCH   6  18
ATOM     18  O   UNL     1     134.009 104.636  96.346  1.00  0.00    -0.507 OA
ATOM     19  H   UNL     1     134.348 105.570  96.530  1.00  0.00     0.293 HD
ENDBRANCH   6  18
BRANCH  17  20
ATOM     20  O   UNL     1     129.306 103.600  94.457  1.00  0.00    -0.507 OA
ATOM     21  H   UNL     1     129.712 104.442  94.843  1.00  0.00     0.293 HD
ENDBRANCH  17  20
BRANCH  15  22
ATOM     22  O   UNL     1     128.875 100.382  90.928  1.00  0.00    -0.508 OA
ATOM     23  H   UNL     1     127.895 100.244  91.147  1.00  0.00     0.293 HD
ENDBRANCH  15  22
TORSDOF 3
ENDMDL
MODEL 4
REMARK VINA RESULT:    -5.766      5.781      8.281
REMARK INTER + INTRA:          -6.272
REMARK INTER:                  -6.272
REMARK INTRA:                   0.000
REMARK UNBOUND:                 0.000
REMARK SMILES Cc1cc(O)c2c(c1)C(=O)c1cc(O)cc(O)c1C2=O
REMARK SMILES IDX 1 1 2 2 8 3 7 4 6 5 4 6 3 7 19 8 20 9 18 10 11 11 9 12 10 13
REMARK SMILES IDX 12 14 13 15 15 16 16 17 5 18 17 20 14 22
REMARK H PARENT 5 19 17 21 14 23
REMARK Flexibility Score: inf
ROOT
ATOM      1  C   UNL     1     131.282 102.046  91.810  1.00  0.00     0.044 C 
ATOM      2  C   UNL     1     131.703 100.628  91.556  1.00  0.00    -0.047 A 
ATOM      3  C   UNL     1     130.740  99.629  91.382  1.00  0.00     0.016 A 
ATOM      4  C   UNL     1     131.124  98.303  91.116  1.00  0.00     0.038 A 
ATOM      5  C   UNL     1     132.495  97.973  91.022  1.00  0.00     0.076 A 
ATOM      6  C   UNL     1     133.462  99.007  91.115  1.00  0.00     0.127 A 
ATOM      7  C   UNL     1     133.058 100.314  91.400  1.00  0.00     0.050 A 
ATOM      8  C   UNL     1     132.865  96.541  90.888  1.00  0.00     0.201 C 
ATOM      9  O   UNL     1     133.960  96.130  91.357  1.00  0.00    -0.288 OA
ATOM     10  C   UNL     1     131.868  95.566  90.374  1.00  0.00     0.076 A 
ATOM     11  C   UNL     1     130.497  95.900  90.467  1.00  0.00     0.041 A 
ATOM     12  C   UNL     1     130.097  97.251  90.927  1.00  0.00     0.194 C 
ATOM     13  O   UNL     1     128.879  97.513  91.132  1.00  0.00    -0.289 OA
ATOM     14  C   UNL     1     129.521  94.951  90.120  1.00  0.00     0.059 A 
ATOM     15  C   UNL     1     129.895  93.682  89.668  1.00  0.00     0.120 A 
ATOM     16  C   UNL     1     131.246  93.363  89.536  1.00  0.00     0.093 A 
ATOM     17  C   UNL     1     132.237  94.297  89.856  1.00  0.00     0.131 A 
ENDROOT
BRANCH   6  18
ATOM     18  O   UNL     1     134.824  98.787  90.896  1.00  0.00    -0.507 OA
ATOM     19  H   UNL     1     135.552  99.140  91.502  1.00  0.00     0.293 HD
ENDBRANCH   6  18
BRANCH  17  20
ATOM     20  O   UNL     1     133.564  93.937  89.612  1.00  0.00    -0.507 OA
ATOM     21  H   UNL     1     133.917  93.693  88.696  1.00  0.00     0.293 HD
ENDBRANCH  17  20
BRANCH  15  22
ATOM     22  O   UNL     1     128.930  92.734  89.334  1.00  0.00    -0.508 OA
ATOM     23  H   UNL     1     127.993  92.776  89.716  1.00  0.00     0.293 HD
ENDBRANCH  15  22
TORSDOF 3
ENDMDL
MODEL 5
REMARK VINA RESULT:    -5.766      4.452      6.554
REMARK INTER + INTRA:          -6.271
REMARK INTER:                  -6.271
REMARK INTRA:                   0.000
REMARK UNBOUND:                 0.000
REMARK SMILES Cc1cc(O)c2c(c1)C(=O)c1cc(O)cc(O)c1C2=O
REMARK SMILES IDX 1 1 2 2 8 3 7 4 6 5 4 6 3 7 19 8 20 9 18 10 11 11 9 12 10 13
REMARK SMILES IDX 12 14 13 15 15 16 16 17 5 18 17 20 14 22
REMARK H PARENT 5 19 17 21 14 23
REMARK Flexibility Score: inf
ROOT
ATOM      1  C   UNL     1     137.520  99.574  91.752  1.00  0.00     0.044 C 
ATOM      2  C   UNL     1     136.040  99.452  91.535  1.00  0.00    -0.047 A 
ATOM      3  C   UNL     1     135.451  98.191  91.398  1.00  0.00     0.016 A 
ATOM      4  C   UNL     1     134.062  98.065  91.222  1.00  0.00     0.038 A 
ATOM      5  C   UNL     1     133.250  99.221  91.183  1.00  0.00     0.076 A 
ATOM      6  C   UNL     1     133.844 100.490  91.408  1.00  0.00     0.127 A 
ATOM      7  C   UNL     1     135.230 100.592  91.560  1.00  0.00     0.050 A 
ATOM      8  C   UNL     1     131.812  99.059  90.848  1.00  0.00     0.201 C 
ATOM      9  O   UNL     1     131.198  99.985  90.255  1.00  0.00    -0.288 OA
ATOM     10  C   UNL     1     131.154  97.741  91.042  1.00  0.00     0.076 A 
ATOM     11  C   UNL     1     131.968  96.586  91.083  1.00  0.00     0.041 A 
ATOM     12  C   UNL     1     133.444  96.725  91.084  1.00  0.00     0.194 C 
ATOM     13  O   UNL     1     134.174  95.699  90.993  1.00  0.00    -0.289 OA
ATOM     14  C   UNL     1     131.376  95.313  91.126  1.00  0.00     0.059 A 
ATOM     15  C   UNL     1     129.985  95.179  91.145  1.00  0.00     0.120 A 
ATOM     16  C   UNL     1     129.178  96.317  91.146  1.00  0.00     0.093 A 
ATOM     17  C   UNL     1     129.744  97.596  91.123  1.00  0.00     0.131 A 
ENDROOT
BRANCH   6  18
ATOM     18  O   UNL     1     133.095 101.663  91.522  1.00  0.00    -0.507 OA
ATOM     19  H   UNL     1     133.462 102.527  91.897  1.00  0.00     0.293 HD
ENDBRANCH   6  18
BRANCH  17  20
ATOM     20  O   UNL     1     128.876  98.685  91.217  1.00  0.00    -0.507 OA
ATOM     21  H   UNL     1     128.527  99.192  90.415  1.00  0.00     0.293 HD
ENDBRANCH  17  20
BRANCH  15  22
ATOM     22  O   UNL     1     129.393  93.918  91.176  1.00  0.00    -0.508 OA
ATOM     23  H   UNL     1     129.628  93.240  91.891  1.00  0.00     0.293 HD
ENDBRANCH  15  22
TORSDOF 3
ENDMDL
MODEL 6
REMARK VINA RESULT:    -5.677      1.759      3.680
REMARK INTER + INTRA:          -6.175
REMARK INTER:                  -6.175
REMARK INTRA:                   0.000
REMARK UNBOUND:                 0.000
REMARK SMILES Cc1cc(O)c2c(c1)C(=O)c1cc(O)cc(O)c1C2=O
REMARK SMILES IDX 1 1 2 2 8 3 7 4 6 5 4 6 3 7 19 8 20 9 18 10 11 11 9 12 10 13
REMARK SMILES IDX 12 14 13 15 15 16 16 17 5 18 17 20 14 22
REMARK H PARENT 5 19 17 21 14 23
REMARK Flexibility Score: inf
ROOT
ATOM      1  C   UNL     1     137.340 100.461  94.645  1.00  0.00     0.044 C 
ATOM      2  C   UNL     1     136.006 100.883  94.101  1.00  0.00    -0.047 A 
ATOM      3  C   UNL     1     135.190 101.751  94.834  1.00  0.00     0.016 A 
ATOM      4  C   UNL     1     133.952 102.175  94.320  1.00  0.00     0.038 A 
ATOM      5  C   UNL     1     133.525 101.721  93.052  1.00  0.00     0.076 A 
ATOM      6  C   UNL     1     134.395 100.910  92.279  1.00  0.00     0.127 A 
ATOM      7  C   UNL     1     135.613 100.485  92.819  1.00  0.00     0.050 A 
ATOM      8  C   UNL     1     132.151 102.070  92.608  1.00  0.00     0.201 C 
ATOM      9  O   UNL     1     131.523 101.290  91.843  1.00  0.00    -0.288 OA
ATOM     10  C   UNL     1     131.453 103.234  93.214  1.00  0.00     0.076 A 
ATOM     11  C   UNL     1     131.884 103.686  94.481  1.00  0.00     0.041 A 
ATOM     12  C   UNL     1     133.096 103.100  95.100  1.00  0.00     0.194 C 
ATOM     13  O   UNL     1     133.414 103.409  96.282  1.00  0.00    -0.289 OA
ATOM     14  C   UNL     1     131.164 104.692  95.147  1.00  0.00     0.059 A 
ATOM     15  C   UNL     1     130.032 105.261  94.558  1.00  0.00     0.120 A 
ATOM     16  C   UNL     1     129.626 104.846  93.290  1.00  0.00     0.093 A 
ATOM     17  C   UNL     1     130.338 103.861  92.598  1.00  0.00     0.131 A 
ENDROOT
BRANCH   6  18
ATOM     18  O   UNL     1     134.107 100.535  90.965  1.00  0.00    -0.507 OA
ATOM     19  H   UNL     1     134.604  99.808  90.469  1.00  0.00     0.293 HD
ENDBRANCH   6  18
BRANCH  17  20
ATOM     20  O   UNL     1     129.925 103.563  91.298  1.00  0.00    -0.507 OA
ATOM     21  H   UNL     1     130.059 104.186  90.513  1.00  0.00     0.293 HD
ENDBRANCH  17  20
BRANCH  15  22
ATOM     22  O   UNL     1     129.308 106.251  95.220  1.00  0.00    -0.508 OA
ATOM     23  H   UNL     1     129.480 107.235  95.052  1.00  0.00     0.293 HD
ENDBRANCH  15  22
TORSDOF 3
ENDMDL
MODEL 7
REMARK VINA RESULT:    -5.519      1.441      3.681
REMARK INTER + INTRA:          -6.002
REMARK INTER:                  -6.002
REMARK INTRA:                   0.000
REMARK UNBOUND:                 0.000
REMARK SMILES Cc1cc(O)c2c(c1)C(=O)c1cc(O)cc(O)c1C2=O
REMARK SMILES IDX 1 1 2 2 8 3 7 4 6 5 4 6 3 7 19 8 20 9 18 10 11 11 9 12 10 13
REMARK SMILES IDX 12 14 13 15 15 16 16 17 5 18 17 20 14 22
REMARK H PARENT 5 19 17 21 14 23
REMARK Flexibility Score: inf
ROOT
ATOM      1  C   UNL     1     137.090  98.182  90.130  1.00  0.00     0.044 C 
ATOM      2  C   UNL     1     135.968  99.019  90.669  1.00  0.00    -0.047 A 
ATOM      3  C   UNL     1     136.093  99.648  91.913  1.00  0.00     0.016 A 
ATOM      4  C   UNL     1     135.059 100.457  92.414  1.00  0.00     0.038 A 
ATOM      5  C   UNL     1     133.880 100.641  91.656  1.00  0.00     0.076 A 
ATOM      6  C   UNL     1     133.796 100.070  90.360  1.00  0.00     0.127 A 
ATOM      7  C   UNL     1     134.829  99.253  89.891  1.00  0.00     0.050 A 
ATOM      8  C   UNL     1     132.752 101.379  92.280  1.00  0.00     0.201 C 
ATOM      9  O   UNL     1     131.567 101.103  91.956  1.00  0.00    -0.288 OA
ATOM     10  C   UNL     1     133.013 102.303  93.415  1.00  0.00     0.076 A 
ATOM     11  C   UNL     1     134.194 102.118  94.169  1.00  0.00     0.041 A 
ATOM     12  C   UNL     1     135.202 101.124  93.730  1.00  0.00     0.194 C 
ATOM     13  O   UNL     1     136.195 100.866  94.464  1.00  0.00    -0.289 OA
ATOM     14  C   UNL     1     134.409 102.880  95.330  1.00  0.00     0.059 A 
ATOM     15  C   UNL     1     133.470 103.831  95.737  1.00  0.00     0.120 A 
ATOM     16  C   UNL     1     132.323 104.045  94.974  1.00  0.00     0.093 A 
ATOM     17  C   UNL     1     132.096 103.314  93.803  1.00  0.00     0.131 A 
ENDROOT
BRANCH   6  18
ATOM     18  O   UNL     1     132.727 100.318  89.495  1.00  0.00    -0.507 OA
ATOM     19  H   UNL     1     132.485 101.239  89.156  1.00  0.00     0.293 HD
ENDBRANCH   6  18
BRANCH  17  20
ATOM     20  O   UNL     1     130.972 103.647  93.044  1.00  0.00    -0.507 OA
ATOM     21  H   UNL     1     130.150 103.062  92.976  1.00  0.00     0.293 HD
ENDBRANCH  17  20
BRANCH  15  22
ATOM     22  O   UNL     1     133.673 104.580  96.894  1.00  0.00    -0.508 OA
ATOM     23  H   UNL     1     133.621 105.592  96.886  1.00  0.00     0.293 HD
ENDBRANCH  15  22
TORSDOF 3
ENDMDL
MODEL 8
REMARK VINA RESULT:    -5.385      2.343      4.751
REMARK INTER + INTRA:          -5.857
REMARK INTER:                  -5.857
REMARK INTRA:                   0.000
REMARK UNBOUND:                 0.000
REMARK SMILES Cc1cc(O)c2c(c1)C(=O)c1cc(O)cc(O)c1C2=O
REMARK SMILES IDX 1 1 2 2 8 3 7 4 6 5 4 6 3 7 19 8 20 9 18 10 11 11 9 12 10 13
REMARK SMILES IDX 12 14 13 15 15 16 16 17 5 18 17 20 14 22
REMARK H PARENT 5 19 17 21 14 23
REMARK Flexibility Score: inf
ROOT
ATOM      1  C   UNL     1     131.683  98.856  88.979  1.00  0.00     0.044 C 
ATOM      2  C   UNL     1     131.566  99.802  90.137  1.00  0.00    -0.047 A 
ATOM      3  C   UNL     1     132.693 100.126  90.899  1.00  0.00     0.016 A 
ATOM      4  C   UNL     1     132.600 101.033  91.968  1.00  0.00     0.038 A 
ATOM      5  C   UNL     1     131.356 101.627  92.279  1.00  0.00     0.076 A 
ATOM      6  C   UNL     1     130.236 101.360  91.450  1.00  0.00     0.127 A 
ATOM      7  C   UNL     1     130.349 100.439  90.405  1.00  0.00     0.050 A 
ATOM      8  C   UNL     1     131.263 102.463  93.503  1.00  0.00     0.201 C 
ATOM      9  O   UNL     1     130.174 102.534  94.133  1.00  0.00    -0.288 OA
ATOM     10  C   UNL     1     132.494 103.059  94.085  1.00  0.00     0.076 A 
ATOM     11  C   UNL     1     133.737 102.464  93.770  1.00  0.00     0.041 A 
ATOM     12  C   UNL     1     133.801 101.375  92.767  1.00  0.00     0.194 C 
ATOM     13  O   UNL     1     134.884 100.757  92.574  1.00  0.00    -0.289 OA
ATOM     14  C   UNL     1     134.908 102.911  94.406  1.00  0.00     0.059 A 
ATOM     15  C   UNL     1     134.855 103.950  95.339  1.00  0.00     0.120 A 
ATOM     16  C   UNL     1     133.636 104.567  95.622  1.00  0.00     0.093 A 
ATOM     17  C   UNL     1     132.460 104.154  94.987  1.00  0.00     0.131 A 
ENDROOT
BRANCH   6  18
ATOM     18  O   UNL     1     129.010 102.011  91.606  1.00  0.00    -0.507 OA
ATOM     19  H   UNL     1     128.264 101.666  92.194  1.00  0.00     0.293 HD
ENDBRANCH   6  18
BRANCH  17  20
ATOM     20  O   UNL     1     131.297 104.879  95.254  1.00  0.00    -0.507 OA
ATOM     21  H   UNL     1     131.269 105.690  95.857  1.00  0.00     0.293 HD
ENDBRANCH  17  20
BRANCH  15  22
ATOM     22  O   UNL     1     136.011 104.388  95.981  1.00  0.00    -0.508 OA
ATOM     23  H   UNL     1     136.198 104.157  96.950  1.00  0.00     0.293 HD
ENDBRANCH  15  22
TORSDOF 3
ENDMDL
MODEL 9
REMARK VINA RESULT:    -5.367      3.662      7.025
REMARK INTER + INTRA:          -5.838
REMARK INTER:                  -5.838
REMARK INTRA:                   0.000
REMARK UNBOUND:                 0.000
REMARK SMILES Cc1cc(O)c2c(c1)C(=O)c1cc(O)cc(O)c1C2=O
REMARK SMILES IDX 1 1 2 2 8 3 7 4 6 5 4 6 3 7 19 8 20 9 18 10 11 11 9 12 10 13
REMARK SMILES IDX 12 14 13 15 15 16 16 17 5 18 17 20 14 22
REMARK H PARENT 5 19 17 21 14 23
REMARK Flexibility Score: inf
ROOT
ATOM      1  C   UNL     1     133.590 104.323  93.148  1.00  0.00     0.044 C 
ATOM      2  C   UNL     1     132.842 103.111  92.673  1.00  0.00    -0.047 A 
ATOM      3  C   UNL     1     133.539 101.979  92.241  1.00  0.00     0.016 A 
ATOM      4  C   UNL     1     132.848 100.829  91.820  1.00  0.00     0.038 A 
ATOM      5  C   UNL     1     131.436 100.814  91.833  1.00  0.00     0.076 A 
ATOM      6  C   UNL     1     130.737 101.934  92.353  1.00  0.00     0.127 A 
ATOM      7  C   UNL     1     131.445 103.074  92.746  1.00  0.00     0.050 A 
ATOM      8  C   UNL     1     130.740  99.641  91.245  1.00  0.00     0.201 C 
ATOM      9  O   UNL     1     129.607  99.785  90.714  1.00  0.00    -0.288 OA
ATOM     10  C   UNL     1     131.459  98.346  91.114  1.00  0.00     0.076 A 
ATOM     11  C   UNL     1     132.872  98.364  91.104  1.00  0.00     0.041 A 
ATOM     12  C   UNL     1     133.595  99.630  91.370  1.00  0.00     0.194 C 
ATOM     13  O   UNL     1     134.849  99.680  91.239  1.00  0.00    -0.289 OA
ATOM     14  C   UNL     1     133.585  97.181  90.845  1.00  0.00     0.059 A 
ATOM     15  C   UNL     1     132.907  95.982  90.613  1.00  0.00     0.120 A 
ATOM     16  C   UNL     1     131.513  95.951  90.662  1.00  0.00     0.093 A 
ATOM     17  C   UNL     1     130.781  97.111  90.938  1.00  0.00     0.131 A 
ENDROOT
BRANCH   6  18
ATOM     18  O   UNL     1     129.351 101.944  92.528  1.00  0.00    -0.507 OA
ATOM     19  H   UNL     1     128.874 101.404  93.236  1.00  0.00     0.293 HD
ENDBRANCH   6  18
BRANCH  17  20
ATOM     20  O   UNL     1     129.396  96.984  91.060  1.00  0.00    -0.507 OA
ATOM     21  H   UNL     1     128.758  97.040  90.278  1.00  0.00     0.293 HD
ENDBRANCH  17  20
BRANCH  15  22
ATOM     22  O   UNL     1     133.609  94.809  90.344  1.00  0.00    -0.508 OA
ATOM     23  H   UNL     1     133.908  94.189  91.087  1.00  0.00     0.293 HD
ENDBRANCH  15  22
TORSDOF 3
ENDMDL
