MODEL 1
REMARK VINA RESULT:    -4.768      0.000      0.000
REMARK INTER + INTRA:          -7.330
REMARK INTER:                  -7.834
REMARK INTRA:                   0.505
REMARK UNBOUND:                 0.505
REMARK SMILES C[C@H]1O[C@H](O[C@H]2[C@H](O)[C@H](OCCc3ccc(O)c(O)c3)O[C@H](CO)[C@@H]2OC(=O)C=Cc2ccc(O)c(O)c2)[C@@H](O)[C@@H](O)[C@@H]1O
REMARK SMILES IDX 6 1 7 2 9 3 21 4 22 5 25 6 5 7 4 8 1 9 2 10 43 11 3 12 41 13
REMARK SMILES IDX 39 14 44 15 42 17 40 19 8 21 26 23 27 24 28 25 29 26 30 27
REMARK SMILES IDX 31 28 38 29 32 30 36 31 33 32 34 33 37 34 35 36 10 38 11 39
REMARK SMILES IDX 12 40 13 41 20 42 14 43 18 44 15 45 16 46 19 47 17 49 23 51
REMARK SMILES IDX 24 52
REMARK H PARENT 44 16 42 18 40 20 8 22 37 35 35 37 19 48 17 50 24 53
REMARK Flexibility Score: inf
ROOT
ATOM      1  C   UNL     1      -4.124 -20.512  34.584  1.00  0.00     0.199 C 
ATOM      2  C   UNL     1      -3.184 -19.533  33.538  1.00  0.00     0.203 C 
ATOM      3  C   UNL     1      -3.043 -17.759  33.686  1.00  0.00     0.282 C 
ATOM      4  O   UNL     1      -4.275 -17.331  34.214  1.00  0.00    -0.340 OA
ATOM      5  C   UNL     1      -4.483 -18.045  35.406  1.00  0.00     0.190 C 
ATOM      6  C   UNL     1      -5.217 -19.418  35.164  1.00  0.00     0.240 C 
ENDROOT
BRANCH   1   7
ATOM      7  O   UNL     1      -4.774 -21.894  33.943  1.00  0.00    -0.340 OA
BRANCH   7   8
ATOM      8  C   UNL     1      -6.072 -22.672  33.657  1.00  0.00     0.282 C 
ATOM      9  C   UNL     1      -9.805 -21.928  32.360  1.00  0.00     0.041 C 
ATOM     10  C   UNL     1      -8.249 -22.285  32.209  1.00  0.00     0.150 C 
ATOM     11  C   UNL     1      -8.371 -23.736  31.525  1.00  0.00     0.174 C 
ATOM     12  O   UNL     1      -7.440 -21.998  33.477  1.00  0.00    -0.344 OA
ATOM     13  C   UNL     1      -6.981 -24.272  31.413  1.00  0.00     0.179 C 
ATOM     14  C   UNL     1      -6.169 -24.133  32.823  1.00  0.00     0.202 C 
BRANCH  11  15
ATOM     15  O   UNL     1      -8.852 -23.624  30.159  1.00  0.00    -0.388 OA
ATOM     16  H   UNL     1      -9.832 -23.683  30.022  1.00  0.00     0.211 HD
ENDBRANCH  11  15
BRANCH  13  17
ATOM     17  O   UNL     1      -7.063 -25.606  30.910  1.00  0.00    -0.387 OA
ATOM     18  H   UNL     1      -6.906 -26.305  31.742  1.00  0.00     0.211 HD
ENDBRANCH  13  17
BRANCH  14  19
ATOM     19  O   UNL     1      -6.939 -25.120  33.617  1.00  0.00    -0.385 OA
ATOM     20  H   UNL     1      -7.915 -25.236  33.326  1.00  0.00     0.211 HD
ENDBRANCH  14  19
ENDBRANCH   7   8
ENDBRANCH   1   7
BRANCH   2  21
ATOM     21  O   UNL     1      -1.868 -20.056  33.310  1.00  0.00    -0.385 OA
ATOM     22  H   UNL     1      -1.883 -20.100  32.294  1.00  0.00     0.211 HD
ENDBRANCH   2  21
BRANCH   6  23
ATOM     23  O   UNL     1      -5.758 -19.807  36.467  1.00  0.00    -0.453 OA
BRANCH  23  24
ATOM     24  C   UNL     1      -7.127 -20.139  36.594  1.00  0.00     0.331 C 
ATOM     25  O   UNL     1      -7.965 -19.321  36.061  1.00  0.00    -0.247 OA
BRANCH  24  26
ATOM     26  C   UNL     1      -7.596 -21.552  37.054  1.00  0.00     0.094 C 
ATOM     27  C   UNL     1      -8.307 -22.741  36.396  1.00  0.00     0.016 C 
BRANCH  27  28
ATOM     28  C   UNL     1      -8.308 -24.069  37.124  1.00  0.00    -0.021 A 
ATOM     29  C   UNL     1      -6.873 -24.334  37.052  1.00  0.00     0.058 A 
ATOM     30  C   UNL     1      -9.071 -25.005  36.341  1.00  0.00     0.012 A 
ATOM     31  C   UNL     1      -6.319 -25.512  36.501  1.00  0.00     0.157 A 
ATOM     32  C   UNL     1      -8.560 -26.253  35.926  1.00  0.00     0.051 A 
ATOM     33  C   UNL     1      -7.145 -26.475  36.058  1.00  0.00     0.157 A 
BRANCH  31  34
ATOM     34  O   UNL     1      -4.895 -25.665  36.517  1.00  0.00    -0.504 OA
ATOM     35  H   UNL     1      -4.422 -25.944  35.700  1.00  0.00     0.293 HD
ENDBRANCH  31  34
BRANCH  33  36
ATOM     36  O   UNL     1      -6.516 -27.651  35.496  1.00  0.00    -0.504 OA
ATOM     37  H   UNL     1      -7.016 -28.531  35.505  1.00  0.00     0.293 HD
ENDBRANCH  33  36
ENDBRANCH  27  28
ENDBRANCH  24  26
ENDBRANCH  23  24
ENDBRANCH   6  23
BRANCH   3  38
ATOM     38  O   UNL     1      -1.991 -16.929  34.367  1.00  0.00    -0.350 OA
BRANCH  38  39
ATOM     39  C   UNL     1      -0.619 -17.725  34.709  1.00  0.00     0.168 C 
BRANCH  39  40
ATOM     40  C   UNL     1      -0.505 -19.112  35.694  1.00  0.00     0.064 C 
BRANCH  40  41
ATOM     41  C   UNL     1       0.834 -20.179  35.883  1.00  0.00    -0.042 A 
ATOM     42  C   UNL     1       1.413 -20.725  34.710  1.00  0.00     0.054 A 
ATOM     43  C   UNL     1       1.703 -20.395  37.023  1.00  0.00     0.008 A 
ATOM     44  C   UNL     1       2.297 -21.834  34.775  1.00  0.00     0.157 A 
ATOM     45  C   UNL     1       2.666 -21.442  37.125  1.00  0.00     0.050 A 
ATOM     46  C   UNL     1       2.728 -22.318  36.007  1.00  0.00     0.157 A 
BRANCH  44  47
ATOM     47  O   UNL     1       2.401 -22.503  33.542  1.00  0.00    -0.504 OA
ATOM     48  H   UNL     1       1.747 -22.344  32.732  1.00  0.00     0.293 HD
ENDBRANCH  44  47
BRANCH  46  49
ATOM     49  O   UNL     1       3.124 -23.675  36.230  1.00  0.00    -0.504 OA
ATOM     50  H   UNL     1       3.524 -23.830  37.191  1.00  0.00     0.293 HD
ENDBRANCH  46  49
ENDBRANCH  40  41
ENDBRANCH  39  40
ENDBRANCH  38  39
ENDBRANCH   3  38
BRANCH   5  51
ATOM     51  C   UNL     1      -3.265 -18.287  36.477  1.00  0.00     0.192 C 
BRANCH  51  52
ATOM     52  O   UNL     1      -2.667 -17.094  36.976  1.00  0.00    -0.394 OA
ATOM     53  H   UNL     1      -2.516 -16.515  36.183  1.00  0.00     0.210 HD
ENDBRANCH  51  52
ENDBRANCH   5  51
TORSDOF 20
ENDMDL
MODEL 2
REMARK VINA RESULT:    -2.983      1.988      8.719
REMARK INTER + INTRA:          -4.396
REMARK INTER:                  -5.630
REMARK INTRA:                   1.235
REMARK UNBOUND:                 0.505
REMARK SMILES C[C@H]1O[C@H](O[C@H]2[C@H](O)[C@H](OCCc3ccc(O)c(O)c3)O[C@H](CO)[C@@H]2OC(=O)C=Cc2ccc(O)c(O)c2)[C@@H](O)[C@@H](O)[C@@H]1O
REMARK SMILES IDX 6 1 7 2 9 3 21 4 22 5 25 6 5 7 4 8 1 9 2 10 43 11 3 12 41 13
REMARK SMILES IDX 39 14 44 15 42 17 40 19 8 21 26 23 27 24 28 25 29 26 30 27
REMARK SMILES IDX 31 28 38 29 32 30 36 31 33 32 34 33 37 34 35 36 10 38 11 39
REMARK SMILES IDX 12 40 13 41 20 42 14 43 18 44 15 45 16 46 19 47 17 49 23 51
REMARK SMILES IDX 24 52
REMARK H PARENT 44 16 42 18 40 20 8 22 37 35 35 37 19 48 17 50 24 53
REMARK Flexibility Score: inf
ROOT
ATOM      1  C   UNL     1      -5.372 -23.698  35.463  1.00  0.00     0.199 C 
ATOM      2  C   UNL     1      -4.732 -25.259  35.161  1.00  0.00     0.203 C 
ATOM      3  C   UNL     1      -5.385 -26.763  35.869  1.00  0.00     0.282 C 
ATOM      4  O   UNL     1      -5.901 -26.389  37.124  1.00  0.00    -0.340 OA
ATOM      5  C   UNL     1      -6.820 -25.352  36.900  1.00  0.00     0.190 C 
ATOM      6  C   UNL     1      -6.137 -23.932  36.908  1.00  0.00     0.240 C 
ENDROOT
BRANCH   1   7
ATOM      7  O   UNL     1      -4.313 -22.426  35.417  1.00  0.00    -0.340 OA
BRANCH   7   8
ATOM      8  C   UNL     1      -3.131 -21.732  36.120  1.00  0.00     0.282 C 
ATOM      9  C   UNL     1       0.676 -22.551  37.124  1.00  0.00     0.041 C 
ATOM     10  C   UNL     1      -0.505 -22.027  36.175  1.00  0.00     0.150 C 
ATOM     11  C   UNL     1      -0.065 -20.486  36.024  1.00  0.00     0.174 C 
ATOM     12  O   UNL     1      -1.893 -22.482  36.631  1.00  0.00    -0.344 OA
ATOM     13  C   UNL     1      -1.143 -19.810  35.241  1.00  0.00     0.179 C 
ATOM     14  C   UNL     1      -2.623 -20.150  35.840  1.00  0.00     0.202 C 
BRANCH  11  15
ATOM     15  O   UNL     1       1.134 -20.368  35.212  1.00  0.00    -0.388 OA
ATOM     16  H   UNL     1       1.604 -21.210  34.983  1.00  0.00     0.211 HD
ENDBRANCH  11  15
BRANCH  13  17
ATOM     17  O   UNL     1      -0.836 -18.417  35.184  1.00  0.00    -0.387 OA
ATOM     18  H   UNL     1       0.109 -18.244  35.716  1.00  0.00     0.211 HD
ENDBRANCH  13  17
BRANCH  14  19
ATOM     19  O   UNL     1      -2.513 -19.419  37.124  1.00  0.00    -0.385 OA
ATOM     20  H   UNL     1      -2.935 -19.896  37.927  1.00  0.00     0.211 HD
ENDBRANCH  14  19
ENDBRANCH   7   8
ENDBRANCH   1   7
BRANCH   2  21
ATOM     21  O   UNL     1      -4.483 -25.505  33.770  1.00  0.00    -0.385 OA
ATOM     22  H   UNL     1      -4.776 -24.609  33.390  1.00  0.00     0.211 HD
ENDBRANCH   2  21
BRANCH   6  23
ATOM     23  O   UNL     1      -7.224 -22.975  37.124  1.00  0.00    -0.453 OA
BRANCH  23  24
ATOM     24  C   UNL     1      -7.748 -22.242  36.035  1.00  0.00     0.331 C 
ATOM     25  O   UNL     1      -8.641 -22.835  35.324  1.00  0.00    -0.247 OA
BRANCH  24  26
ATOM     26  C   UNL     1      -7.516 -20.709  35.883  1.00  0.00     0.094 C 
ATOM     27  C   UNL     1      -6.577 -19.673  36.513  1.00  0.00     0.016 C 
BRANCH  27  28
ATOM     28  C   UNL     1      -6.466 -18.312  35.856  1.00  0.00    -0.021 A 
ATOM     29  C   UNL     1      -5.997 -18.763  34.548  1.00  0.00     0.058 A 
ATOM     30  C   UNL     1      -5.461 -17.560  36.560  1.00  0.00     0.012 A 
ATOM     31  C   UNL     1      -4.810 -18.301  33.936  1.00  0.00     0.157 A 
ATOM     32  C   UNL     1      -4.355 -16.966  35.915  1.00  0.00     0.051 A 
ATOM     33  C   UNL     1      -4.082 -17.356  34.558  1.00  0.00     0.157 A 
BRANCH  31  34
ATOM     34  O   UNL     1      -4.477 -18.799  32.635  1.00  0.00    -0.504 OA
ATOM     35  H   UNL     1      -4.665 -19.738  32.407  1.00  0.00     0.293 HD
ENDBRANCH  31  34
BRANCH  33  36
ATOM     36  O   UNL     1      -2.872 -16.934  33.886  1.00  0.00    -0.504 OA
ATOM     37  H   UNL     1      -2.324 -17.618  33.379  1.00  0.00     0.293 HD
ENDBRANCH  33  36
ENDBRANCH  27  28
ENDBRANCH  24  26
ENDBRANCH  23  24
ENDBRANCH   6  23
BRANCH   3  38
ATOM     38  O   UNL     1      -6.362 -27.752  35.298  1.00  0.00    -0.350 OA
BRANCH  38  39
ATOM     39  C   UNL     1      -7.455 -27.113  34.284  1.00  0.00     0.168 C 
BRANCH  39  40
ATOM     40  C   UNL     1      -7.107 -26.443  32.755  1.00  0.00     0.064 C 
BRANCH  40  41
ATOM     41  C   UNL     1      -7.510 -24.877  32.160  1.00  0.00    -0.042 A 
ATOM     42  C   UNL     1      -6.646 -23.803  32.491  1.00  0.00     0.054 A 
ATOM     43  C   UNL     1      -8.422 -24.485  31.103  1.00  0.00     0.008 A 
ATOM     44  C   UNL     1      -7.052 -22.454  32.318  1.00  0.00     0.157 A 
ATOM     45  C   UNL     1      -8.814 -23.143  30.824  1.00  0.00     0.050 A 
ATOM     46  C   UNL     1      -8.254 -22.157  31.683  1.00  0.00     0.157 A 
BRANCH  44  47
ATOM     47  O   UNL     1      -6.287 -21.566  33.095  1.00  0.00    -0.504 OA
ATOM     48  H   UNL     1      -6.672 -21.015  33.906  1.00  0.00     0.293 HD
ENDBRANCH  44  47
BRANCH  46  49
ATOM     49  O   UNL     1      -9.008 -20.967  31.930  1.00  0.00    -0.504 OA
ATOM     50  H   UNL     1      -9.754 -20.799  31.207  1.00  0.00     0.293 HD
ENDBRANCH  46  49
ENDBRANCH  40  41
ENDBRANCH  39  40
ENDBRANCH  38  39
ENDBRANCH   3  38
BRANCH   5  51
ATOM     51  C   UNL     1      -7.883 -25.411  35.652  1.00  0.00     0.192 C 
BRANCH  51  52
ATOM     52  O   UNL     1      -9.250 -25.509  36.042  1.00  0.00    -0.394 OA
ATOM     53  H   UNL     1      -9.244 -25.602  37.031  1.00  0.00     0.210 HD
ENDBRANCH  51  52
ENDBRANCH   5  51
TORSDOF 20
ENDMDL
MODEL 3
REMARK VINA RESULT:    -2.928      1.896      7.964
REMARK INTER + INTRA:          -4.306
REMARK INTER:                  -3.720
REMARK INTRA:                  -0.585
REMARK UNBOUND:                 0.505
REMARK SMILES C[C@H]1O[C@H](O[C@H]2[C@H](O)[C@H](OCCc3ccc(O)c(O)c3)O[C@H](CO)[C@@H]2OC(=O)C=Cc2ccc(O)c(O)c2)[C@@H](O)[C@@H](O)[C@@H]1O
REMARK SMILES IDX 6 1 7 2 9 3 21 4 22 5 25 6 5 7 4 8 1 9 2 10 43 11 3 12 41 13
REMARK SMILES IDX 39 14 44 15 42 17 40 19 8 21 26 23 27 24 28 25 29 26 30 27
REMARK SMILES IDX 31 28 38 29 32 30 36 31 33 32 34 33 37 34 35 36 10 38 11 39
REMARK SMILES IDX 12 40 13 41 20 42 14 43 18 44 15 45 16 46 19 47 17 49 23 51
REMARK SMILES IDX 24 52
REMARK H PARENT 44 16 42 18 40 20 8 22 37 35 35 37 19 48 17 50 24 53
REMARK Flexibility Score: inf
ROOT
ATOM      1  C   UNL     1      -3.364 -19.845  35.865  1.00  0.00     0.199 C 
ATOM      2  C   UNL     1      -4.674 -19.465  36.904  1.00  0.00     0.203 C 
ATOM      3  C   UNL     1      -5.678 -17.997  36.752  1.00  0.00     0.282 C 
ATOM      4  O   UNL     1      -4.820 -17.012  36.230  1.00  0.00    -0.340 OA
ATOM      5  C   UNL     1      -4.277 -17.525  35.041  1.00  0.00     0.190 C 
ATOM      6  C   UNL     1      -2.958 -18.350  35.290  1.00  0.00     0.240 C 
ENDROOT
BRANCH   1   7
ATOM      7  O   UNL     1      -2.116 -20.720  36.513  1.00  0.00    -0.340 OA
BRANCH   7   8
ATOM      8  C   UNL     1      -0.591 -20.800  36.714  1.00  0.00     0.282 C 
ATOM      9  C   UNL     1       2.261 -23.618  37.020  1.00  0.00     0.041 C 
ATOM     10  C   UNL     1       1.302 -22.586  36.254  1.00  0.00     0.150 C 
ATOM     11  C   UNL     1       2.412 -21.627  35.594  1.00  0.00     0.174 C 
ATOM     12  O   UNL     1       0.141 -22.087  37.119  1.00  0.00    -0.344 OA
ATOM     13  C   UNL     1       1.670 -20.519  34.919  1.00  0.00     0.179 C 
ATOM     14  C   UNL     1       0.550 -19.860  35.906  1.00  0.00     0.202 C 
BRANCH  11  15
ATOM     15  O   UNL     1       3.125 -22.317  34.531  1.00  0.00    -0.388 OA
ATOM     16  H   UNL     1       3.721 -21.768  33.962  1.00  0.00     0.211 HD
ENDBRANCH  11  15
BRANCH  13  17
ATOM     17  O   UNL     1       2.631 -19.590  34.416  1.00  0.00    -0.387 OA
ATOM     18  H   UNL     1       2.570 -18.667  35.008  1.00  0.00     0.211 HD
ENDBRANCH  13  17
BRANCH  14  19
ATOM     19  O   UNL     1       1.465 -19.222  36.882  1.00  0.00    -0.385 OA
ATOM     20  H   UNL     1       1.169 -19.301  37.860  1.00  0.00     0.211 HD
ENDBRANCH  14  19
ENDBRANCH   7   8
ENDBRANCH   1   7
BRANCH   2  21
ATOM     21  O   UNL     1      -5.556 -20.575  37.125  1.00  0.00    -0.385 OA
ATOM     22  H   UNL     1      -6.402 -20.198  36.707  1.00  0.00     0.211 HD
ENDBRANCH   2  21
BRANCH   6  23
ATOM     23  O   UNL     1      -2.286 -18.417  33.991  1.00  0.00    -0.453 OA
BRANCH  23  24
ATOM     24  C   UNL     1      -2.401 -19.578  33.194  1.00  0.00     0.331 C 
ATOM     25  O   UNL     1      -1.811 -19.548  32.051  1.00  0.00    -0.247 OA
BRANCH  24  26
ATOM     26  C   UNL     1      -2.923 -20.929  33.770  1.00  0.00     0.094 C 
ATOM     27  C   UNL     1      -4.081 -21.883  33.454  1.00  0.00     0.016 C 
BRANCH  27  28
ATOM     28  C   UNL     1      -4.059 -23.267  34.068  1.00  0.00    -0.021 A 
ATOM     29  C   UNL     1      -4.852 -23.947  33.047  1.00  0.00     0.058 A 
ATOM     30  C   UNL     1      -4.744 -23.204  35.332  1.00  0.00     0.012 A 
ATOM     31  C   UNL     1      -6.027 -24.682  33.326  1.00  0.00     0.157 A 
ATOM     32  C   UNL     1      -5.821 -24.053  35.664  1.00  0.00     0.051 A 
ATOM     33  C   UNL     1      -6.425 -24.815  34.603  1.00  0.00     0.157 A 
BRANCH  31  34
ATOM     34  O   UNL     1      -6.698 -25.330  32.238  1.00  0.00    -0.504 OA
ATOM     35  H   UNL     1      -7.119 -24.790  31.531  1.00  0.00     0.293 HD
ENDBRANCH  31  34
BRANCH  33  36
ATOM     36  O   UNL     1      -7.641 -25.568  34.821  1.00  0.00    -0.504 OA
ATOM     37  H   UNL     1      -8.072 -25.556  35.737  1.00  0.00     0.293 HD
ENDBRANCH  33  36
ENDBRANCH  27  28
ENDBRANCH  24  26
ENDBRANCH  23  24
ENDBRANCH   6  23
BRANCH   3  38
ATOM     38  O   UNL     1      -7.000 -17.801  36.063  1.00  0.00    -0.350 OA
BRANCH  38  39
ATOM     39  C   UNL     1      -8.204 -18.726  36.634  1.00  0.00     0.168 C 
BRANCH  39  40
ATOM     40  C   UNL     1      -8.610 -20.279  36.060  1.00  0.00     0.064 C 
BRANCH  40  41
ATOM     41  C   UNL     1      -8.528 -20.874  34.445  1.00  0.00    -0.042 A 
ATOM     42  C   UNL     1      -9.715 -20.853  33.672  1.00  0.00     0.054 A 
ATOM     43  C   UNL     1      -7.377 -21.119  33.598  1.00  0.00     0.008 A 
ATOM     44  C   UNL     1      -9.821 -21.595  32.467  1.00  0.00     0.157 A 
ATOM     45  C   UNL     1      -7.421 -21.791  32.341  1.00  0.00     0.050 A 
ATOM     46  C   UNL     1      -8.708 -22.247  31.943  1.00  0.00     0.157 A 
BRANCH  44  47
ATOM     47  O   UNL     1     -11.159 -21.818  32.096  1.00  0.00    -0.504 OA
ATOM     48  H   UNL     1     -11.728 -22.643  32.419  1.00  0.00     0.293 HD
ENDBRANCH  44  47
BRANCH  46  49
ATOM     49  O   UNL     1      -8.789 -23.413  31.117  1.00  0.00    -0.504 OA
ATOM     50  H   UNL     1      -8.754 -23.188  30.090  1.00  0.00     0.293 HD
ENDBRANCH  46  49
ENDBRANCH  40  41
ENDBRANCH  39  40
ENDBRANCH  38  39
ENDBRANCH   3  38
BRANCH   5  51
ATOM     51  C   UNL     1      -5.206 -18.340  33.964  1.00  0.00     0.192 C 
BRANCH  51  52
ATOM     52  O   UNL     1      -4.739 -18.287  32.619  1.00  0.00    -0.394 OA
ATOM     53  H   UNL     1      -4.772 -17.329  32.358  1.00  0.00     0.210 HD
ENDBRANCH  51  52
ENDBRANCH   5  51
TORSDOF 20
ENDMDL
MODEL 4
REMARK VINA RESULT:    -1.775      2.080      7.583
REMARK INTER + INTRA:          -2.412
REMARK INTER:                  -1.873
REMARK INTRA:                  -0.540
REMARK UNBOUND:                 0.505
REMARK SMILES C[C@H]1O[C@H](O[C@H]2[C@H](O)[C@H](OCCc3ccc(O)c(O)c3)O[C@H](CO)[C@@H]2OC(=O)C=Cc2ccc(O)c(O)c2)[C@@H](O)[C@@H](O)[C@@H]1O
REMARK SMILES IDX 6 1 7 2 9 3 21 4 22 5 25 6 5 7 4 8 1 9 2 10 43 11 3 12 41 13
REMARK SMILES IDX 39 14 44 15 42 17 40 19 8 21 26 23 27 24 28 25 29 26 30 27
REMARK SMILES IDX 31 28 38 29 32 30 36 31 33 32 34 33 37 34 35 36 10 38 11 39
REMARK SMILES IDX 12 40 13 41 20 42 14 43 18 44 15 45 16 46 19 47 17 49 23 51
REMARK SMILES IDX 24 52
REMARK H PARENT 44 16 42 18 40 20 8 22 37 35 35 37 19 48 17 50 24 53
REMARK Flexibility Score: inf
ROOT
ATOM      1  C   UNL     1      -5.143 -21.438  34.164  1.00  0.00     0.199 C 
ATOM      2  C   UNL     1      -6.299 -20.903  33.017  1.00  0.00     0.203 C 
ATOM      3  C   UNL     1      -7.433 -21.984  32.160  1.00  0.00     0.282 C 
ATOM      4  O   UNL     1      -6.753 -23.209  32.030  1.00  0.00    -0.340 OA
ATOM      5  C   UNL     1      -6.364 -23.604  33.320  1.00  0.00     0.190 C 
ATOM      6  C   UNL     1      -4.958 -23.021  33.729  1.00  0.00     0.240 C 
ENDROOT
BRANCH   1   7
ATOM      7  O   UNL     1      -3.740 -20.567  34.284  1.00  0.00    -0.340 OA
BRANCH   7   8
ATOM      8  C   UNL     1      -2.633 -20.067  35.231  1.00  0.00     0.282 C 
ATOM      9  C   UNL     1       0.711 -21.478  36.962  1.00  0.00     0.041 C 
ATOM     10  C   UNL     1      -0.153 -20.775  35.808  1.00  0.00     0.150 C 
ATOM     11  C   UNL     1       0.544 -19.325  35.794  1.00  0.00     0.174 C 
ATOM     12  O   UNL     1      -1.659 -21.002  35.961  1.00  0.00    -0.344 OA
ATOM     13  C   UNL     1      -0.231 -18.490  34.828  1.00  0.00     0.179 C 
ATOM     14  C   UNL     1      -1.837 -18.587  35.105  1.00  0.00     0.202 C 
BRANCH  11  15
ATOM     15  O   UNL     1       1.887 -19.403  35.245  1.00  0.00    -0.388 OA
ATOM     16  H   UNL     1       2.218 -18.609  34.755  1.00  0.00     0.211 HD
ENDBRANCH  11  15
BRANCH  13  17
ATOM     17  O   UNL     1       0.295 -17.163  34.874  1.00  0.00    -0.387 OA
ATOM     18  H   UNL     1       0.733 -16.994  35.868  1.00  0.00     0.211 HD
ENDBRANCH  13  17
BRANCH  14  19
ATOM     19  O   UNL     1      -1.879 -17.877  36.406  1.00  0.00    -0.385 OA
ATOM     20  H   UNL     1      -2.480 -17.047  36.421  1.00  0.00     0.211 HD
ENDBRANCH  14  19
ENDBRANCH   7   8
ENDBRANCH   1   7
BRANCH   2  21
ATOM     21  O   UNL     1      -7.040 -19.757  33.458  1.00  0.00    -0.385 OA
ATOM     22  H   UNL     1      -6.770 -19.754  34.438  1.00  0.00     0.211 HD
ENDBRANCH   2  21
BRANCH   6  23
ATOM     23  O   UNL     1      -4.497 -23.854  34.841  1.00  0.00    -0.453 OA
BRANCH  23  24
ATOM     24  C   UNL     1      -4.320 -25.245  34.657  1.00  0.00     0.331 C 
ATOM     25  O   UNL     1      -3.205 -25.615  34.133  1.00  0.00    -0.247 OA
BRANCH  24  26
ATOM     26  C   UNL     1      -5.255 -26.294  35.331  1.00  0.00     0.094 C 
ATOM     27  C   UNL     1      -6.016 -26.393  36.659  1.00  0.00     0.016 C 
BRANCH  27  28
ATOM     28  C   UNL     1      -7.074 -27.468  36.801  1.00  0.00    -0.021 A 
ATOM     29  C   UNL     1      -7.048 -27.953  35.423  1.00  0.00     0.058 A 
ATOM     30  C   UNL     1      -8.320 -26.825  37.125  1.00  0.00     0.012 A 
ATOM     31  C   UNL     1      -8.190 -28.021  34.593  1.00  0.00     0.157 A 
ATOM     32  C   UNL     1      -9.501 -27.023  36.379  1.00  0.00     0.051 A 
ATOM     33  C   UNL     1      -9.385 -27.669  35.100  1.00  0.00     0.157 A 
BRANCH  31  34
ATOM     34  O   UNL     1      -8.038 -28.545  33.269  1.00  0.00    -0.504 OA
ATOM     35  H   UNL     1      -7.138 -28.653  32.885  1.00  0.00     0.293 HD
ENDBRANCH  31  34
BRANCH  33  36
ATOM     36  O   UNL     1     -10.513 -27.750  34.196  1.00  0.00    -0.504 OA
ATOM     37  H   UNL     1     -10.840 -28.659  33.894  1.00  0.00     0.293 HD
ENDBRANCH  33  36
ENDBRANCH  27  28
ENDBRANCH  24  26
ENDBRANCH  23  24
ENDBRANCH   6  23
BRANCH   3  38
ATOM     38  O   UNL     1      -8.859 -22.336  32.483  1.00  0.00    -0.350 OA
BRANCH  38  39
ATOM     39  C   UNL     1      -9.732 -21.117  33.102  1.00  0.00     0.168 C 
BRANCH  39  40
ATOM     40  C   UNL     1      -9.726 -20.632  34.737  1.00  0.00     0.064 C 
BRANCH  40  41
ATOM     41  C   UNL     1      -8.371 -20.258  35.733  1.00  0.00    -0.042 A 
ATOM     42  C   UNL     1      -8.223 -18.918  36.169  1.00  0.00     0.054 A 
ATOM     43  C   UNL     1      -7.493 -21.134  36.484  1.00  0.00     0.008 A 
ATOM     44  C   UNL     1      -6.998 -18.455  36.718  1.00  0.00     0.157 A 
ATOM     45  C   UNL     1      -6.288 -20.723  37.125  1.00  0.00     0.050 A 
ATOM     46  C   UNL     1      -5.961 -19.347  36.974  1.00  0.00     0.157 A 
BRANCH  44  47
ATOM     47  O   UNL     1      -6.889 -17.054  36.666  1.00  0.00    -0.504 OA
ATOM     48  H   UNL     1      -6.959 -16.428  37.510  1.00  0.00     0.293 HD
ENDBRANCH  44  47
BRANCH  46  49
ATOM     49  O   UNL     1      -4.579 -18.974  36.983  1.00  0.00    -0.504 OA
ATOM     50  H   UNL     1      -4.416 -18.026  37.410  1.00  0.00     0.293 HD
ENDBRANCH  46  49
ENDBRANCH  40  41
ENDBRANCH  39  40
ENDBRANCH  38  39
ENDBRANCH   3  38
BRANCH   5  51
ATOM     51  C   UNL     1      -7.380 -23.457  34.598  1.00  0.00     0.192 C 
BRANCH  51  52
ATOM     52  O   UNL     1      -8.422 -24.428  34.642  1.00  0.00    -0.394 OA
ATOM     53  H   UNL     1      -9.076 -24.156  33.947  1.00  0.00     0.210 HD
ENDBRANCH  51  52
ENDBRANCH   5  51
TORSDOF 20
ENDMDL
