MODEL 1
REMARK VINA RESULT:    -5.723      0.000      0.000
REMARK INTER + INTRA:          -6.834
REMARK INTER:                  -6.727
REMARK INTRA:                  -0.107
REMARK UNBOUND:                -0.107
REMARK SMILES O=c1c(O)c(-c2ccc(O)cc2)oc2cc(O)cc(O)c12
REMARK SMILES IDX 5 1 3 2 2 3 1 4 21 5 19 6 18 7 16 8 15 9 14 10 13 11 6 12
REMARK SMILES IDX 7 13 8 14 9 15 12 16 11 17 10 18 4 20 20 22 17 24
REMARK H PARENT 10 19 4 21 20 23 17 25
REMARK Flexibility Score: inf
ROOT
ATOM      1  C   UNL     1    -140.407 154.573 138.948  1.00  0.00     0.180 A 
ATOM      2  C   UNL     1    -141.502 155.438 138.775  1.00  0.00     0.208 A 
ATOM      3  C   UNL     1    -142.334 155.712 139.873  1.00  0.00     0.238 A 
ATOM      4  O   UNL     1    -143.266 156.544 139.731  1.00  0.00    -0.285 OA
ATOM      5  C   UNL     1    -142.094 155.075 141.116  1.00  0.00     0.111 A 
ATOM      6  C   UNL     1    -142.899 155.243 142.284  1.00  0.00     0.134 A 
ATOM      7  C   UNL     1    -142.504 154.644 143.486  1.00  0.00     0.093 A 
ATOM      8  C   UNL     1    -141.369 153.832 143.548  1.00  0.00     0.123 A 
ATOM      9  C   UNL     1    -140.608 153.618 142.402  1.00  0.00     0.094 A 
ATOM     10  C   UNL     1    -140.955 154.232 141.196  1.00  0.00     0.146 A 
ATOM     11  O   UNL     1    -140.189 154.017 140.134  1.00  0.00    -0.452 OA
ENDROOT
BRANCH   1  12
ATOM     12  C   UNL     1    -139.478 154.248 137.843  1.00  0.00     0.021 A 
ATOM     13  C   UNL     1    -139.379 152.943 137.327  1.00  0.00     0.016 A 
ATOM     14  C   UNL     1    -138.511 152.666 136.266  1.00  0.00     0.047 A 
ATOM     15  C   UNL     1    -137.744 153.690 135.699  1.00  0.00     0.115 A 
ATOM     16  C   UNL     1    -138.719 155.274 137.253  1.00  0.00     0.016 A 
ATOM     17  C   UNL     1    -137.852 154.994 136.193  1.00  0.00     0.047 A 
BRANCH  15  18
ATOM     18  O   UNL     1    -136.875 153.426 134.642  1.00  0.00    -0.508 OA
ATOM     19  H   UNL     1    -135.944 153.061 134.802  1.00  0.00     0.293 HD
ENDBRANCH  15  18
ENDBRANCH   1  12
BRANCH   2  20
ATOM     20  O   UNL     1    -141.767 155.996 137.522  1.00  0.00    -0.502 OA
ATOM     21  H   UNL     1    -142.696 156.288 137.241  1.00  0.00     0.293 HD
ENDBRANCH   2  20
BRANCH   6  22
ATOM     22  O   UNL     1    -144.098 155.960 142.311  1.00  0.00    -0.507 OA
ATOM     23  H   UNL     1    -144.445 156.477 143.104  1.00  0.00     0.293 HD
ENDBRANCH   6  22
BRANCH   8  24
ATOM     24  O   UNL     1    -140.993 153.227 144.746  1.00  0.00    -0.508 OA
ATOM     25  H   UNL     1    -141.078 153.710 145.633  1.00  0.00     0.293 HD
ENDBRANCH   8  24
TORSDOF 5
ENDMDL
MODEL 2
REMARK VINA RESULT:    -5.582      1.412      6.451
REMARK INTER + INTRA:          -6.668
REMARK INTER:                  -6.383
REMARK INTRA:                  -0.286
REMARK UNBOUND:                -0.107
REMARK SMILES O=c1c(O)c(-c2ccc(O)cc2)oc2cc(O)cc(O)c12
REMARK SMILES IDX 5 1 3 2 2 3 1 4 21 5 19 6 18 7 16 8 15 9 14 10 13 11 6 12
REMARK SMILES IDX 7 13 8 14 9 15 12 16 11 17 10 18 4 20 20 22 17 24
REMARK H PARENT 10 19 4 21 20 23 17 25
REMARK Flexibility Score: inf
ROOT
ATOM      1  C   UNL     1    -140.846 154.228 139.269  1.00  0.00     0.180 A 
ATOM      2  C   UNL     1    -141.604 155.209 138.607  1.00  0.00     0.208 A 
ATOM      3  C   UNL     1    -141.285 155.535 137.278  1.00  0.00     0.238 A 
ATOM      4  O   UNL     1    -142.014 156.359 136.668  1.00  0.00    -0.285 OA
ATOM      5  C   UNL     1    -140.177 154.917 136.648  1.00  0.00     0.111 A 
ATOM      6  C   UNL     1    -139.734 155.203 135.320  1.00  0.00     0.134 A 
ATOM      7  C   UNL     1    -138.691 154.454 134.763  1.00  0.00     0.093 A 
ATOM      8  C   UNL     1    -138.032 153.472 135.507  1.00  0.00     0.123 A 
ATOM      9  C   UNL     1    -138.421 153.222 136.821  1.00  0.00     0.094 A 
ATOM     10  C   UNL     1    -139.483 153.928 137.392  1.00  0.00     0.146 A 
ATOM     11  O   UNL     1    -139.834 153.643 138.640  1.00  0.00    -0.452 OA
ENDROOT
BRANCH   1  12
ATOM     12  C   UNL     1    -141.130 153.820 140.663  1.00  0.00     0.021 A 
ATOM     13  C   UNL     1    -141.924 152.695 140.952  1.00  0.00     0.016 A 
ATOM     14  C   UNL     1    -142.158 152.315 142.277  1.00  0.00     0.047 A 
ATOM     15  C   UNL     1    -141.593 153.046 143.329  1.00  0.00     0.115 A 
ATOM     16  C   UNL     1    -140.550 154.535 141.725  1.00  0.00     0.016 A 
ATOM     17  C   UNL     1    -140.787 154.154 143.049  1.00  0.00     0.047 A 
BRANCH  15  18
ATOM     18  O   UNL     1    -141.820 152.679 144.653  1.00  0.00    -0.508 OA
ATOM     19  H   UNL     1    -142.759 152.578 145.020  1.00  0.00     0.293 HD
ENDBRANCH  15  18
ENDBRANCH   1  12
BRANCH   2  20
ATOM     20  O   UNL     1    -142.644 155.862 139.272  1.00  0.00    -0.502 OA
ATOM     21  H   UNL     1    -142.486 156.652 139.888  1.00  0.00     0.293 HD
ENDBRANCH   2  20
BRANCH   6  22
ATOM     22  O   UNL     1    -140.263 156.222 134.522  1.00  0.00    -0.507 OA
ATOM     23  H   UNL     1    -140.712 156.083 133.630  1.00  0.00     0.293 HD
ENDBRANCH   6  22
BRANCH   8  24
ATOM     24  O   UNL     1    -136.985 152.741 134.950  1.00  0.00    -0.508 OA
ATOM     25  H   UNL     1    -136.054 153.133 134.861  1.00  0.00     0.293 HD
ENDBRANCH   8  24
TORSDOF 5
ENDMDL
MODEL 3
REMARK VINA RESULT:    -5.540     18.822     19.549
REMARK INTER + INTRA:          -6.620
REMARK INTER:                  -6.349
REMARK INTRA:                  -0.271
REMARK UNBOUND:                -0.107
REMARK SMILES O=c1c(O)c(-c2ccc(O)cc2)oc2cc(O)cc(O)c12
REMARK SMILES IDX 5 1 3 2 2 3 1 4 21 5 19 6 18 7 16 8 15 9 14 10 13 11 6 12
REMARK SMILES IDX 7 13 8 14 9 15 12 16 11 17 10 18 4 20 20 22 17 24
REMARK H PARENT 10 19 4 21 20 23 17 25
REMARK Flexibility Score: inf
ROOT
ATOM      1  C   UNL     1    -152.928 139.616 138.752  1.00  0.00     0.180 A 
ATOM      2  C   UNL     1    -152.559 140.937 139.059  1.00  0.00     0.208 A 
ATOM      3  C   UNL     1    -152.026 141.219 140.328  1.00  0.00     0.238 A 
ATOM      4  O   UNL     1    -151.627 142.388 140.569  1.00  0.00    -0.285 OA
ATOM      5  C   UNL     1    -151.922 140.187 141.293  1.00  0.00     0.111 A 
ATOM      6  C   UNL     1    -151.439 140.367 142.626  1.00  0.00     0.134 A 
ATOM      7  C   UNL     1    -151.282 139.254 143.459  1.00  0.00     0.093 A 
ATOM      8  C   UNL     1    -151.649 137.976 143.032  1.00  0.00     0.123 A 
ATOM      9  C   UNL     1    -152.172 137.798 141.753  1.00  0.00     0.094 A 
ATOM     10  C   UNL     1    -152.306 138.884 140.884  1.00  0.00     0.146 A 
ATOM     11  O   UNL     1    -152.788 138.665 139.668  1.00  0.00    -0.452 OA
ENDROOT
BRANCH   1  12
ATOM     12  C   UNL     1    -153.483 139.239 137.433  1.00  0.00     0.021 A 
ATOM     13  C   UNL     1    -154.838 139.447 137.119  1.00  0.00     0.016 A 
ATOM     14  C   UNL     1    -155.333 139.105 135.857  1.00  0.00     0.047 A 
ATOM     15  C   UNL     1    -154.478 138.565 134.889  1.00  0.00     0.115 A 
ATOM     16  C   UNL     1    -152.628 138.716 136.448  1.00  0.00     0.016 A 
ATOM     17  C   UNL     1    -153.125 138.374 135.187  1.00  0.00     0.047 A 
BRANCH  15  18
ATOM     18  O   UNL     1    -154.959 138.220 133.628  1.00  0.00    -0.508 OA
ATOM     19  H   UNL     1    -154.407 138.370 132.792  1.00  0.00     0.293 HD
ENDBRANCH  15  18
ENDBRANCH   1  12
BRANCH   2  20
ATOM     20  O   UNL     1    -152.740 141.955 138.119  1.00  0.00    -0.502 OA
ATOM     21  H   UNL     1    -152.281 141.949 137.215  1.00  0.00     0.293 HD
ENDBRANCH   2  20
BRANCH   6  22
ATOM     22  O   UNL     1    -151.127 141.611 143.183  1.00  0.00    -0.507 OA
ATOM     23  H   UNL     1    -151.212 141.844 144.161  1.00  0.00     0.293 HD
ENDBRANCH   6  22
BRANCH   8  24
ATOM     24  O   UNL     1    -151.504 136.875 143.874  1.00  0.00    -0.508 OA
ATOM     25  H   UNL     1    -150.726 136.233 143.778  1.00  0.00     0.293 HD
ENDBRANCH   8  24
TORSDOF 5
ENDMDL
MODEL 4
REMARK VINA RESULT:    -5.512     18.869     20.370
REMARK INTER + INTRA:          -6.587
REMARK INTER:                  -6.304
REMARK INTRA:                  -0.282
REMARK UNBOUND:                -0.107
REMARK SMILES O=c1c(O)c(-c2ccc(O)cc2)oc2cc(O)cc(O)c12
REMARK SMILES IDX 5 1 3 2 2 3 1 4 21 5 19 6 18 7 16 8 15 9 14 10 13 11 6 12
REMARK SMILES IDX 7 13 8 14 9 15 12 16 11 17 10 18 4 20 20 22 17 24
REMARK H PARENT 10 19 4 21 20 23 17 25
REMARK Flexibility Score: inf
ROOT
ATOM      1  C   UNL     1    -153.399 140.343 139.658  1.00  0.00     0.180 A 
ATOM      2  C   UNL     1    -152.734 139.287 139.011  1.00  0.00     0.208 A 
ATOM      3  C   UNL     1    -153.084 138.970 137.688  1.00  0.00     0.238 A 
ATOM      4  O   UNL     1    -152.433 138.075 137.090  1.00  0.00    -0.285 OA
ATOM      5  C   UNL     1    -154.133 139.674 137.049  1.00  0.00     0.111 A 
ATOM      6  C   UNL     1    -154.603 139.407 135.727  1.00  0.00     0.134 A 
ATOM      7  C   UNL     1    -155.577 140.237 135.159  1.00  0.00     0.093 A 
ATOM      8  C   UNL     1    -156.144 141.286 135.887  1.00  0.00     0.123 A 
ATOM      9  C   UNL     1    -155.731 141.521 137.197  1.00  0.00     0.094 A 
ATOM     10  C   UNL     1    -154.734 140.733 137.778  1.00  0.00     0.146 A 
ATOM     11  O   UNL     1    -154.357 141.006 139.020  1.00  0.00    -0.452 OA
ENDROOT
BRANCH   1  12
ATOM     12  C   UNL     1    -153.075 140.746 141.045  1.00  0.00     0.021 A 
ATOM     13  C   UNL     1    -152.196 141.811 141.314  1.00  0.00     0.016 A 
ATOM     14  C   UNL     1    -151.925 142.189 142.632  1.00  0.00     0.047 A 
ATOM     15  C   UNL     1    -152.539 141.518 143.697  1.00  0.00     0.115 A 
ATOM     16  C   UNL     1    -153.703 140.093 142.119  1.00  0.00     0.016 A 
ATOM     17  C   UNL     1    -153.430 140.472 143.436  1.00  0.00     0.047 A 
BRANCH  15  18
ATOM     18  O   UNL     1    -152.276 141.885 145.015  1.00  0.00    -0.508 OA
ATOM     19  H   UNL     1    -152.370 141.223 145.776  1.00  0.00     0.293 HD
ENDBRANCH  15  18
ENDBRANCH   1  12
BRANCH   2  20
ATOM     20  O   UNL     1    -151.753 138.555 139.686  1.00  0.00    -0.502 OA
ATOM     21  H   UNL     1    -151.363 137.697 139.313  1.00  0.00     0.293 HD
ENDBRANCH   2  20
BRANCH   6  22
ATOM     22  O   UNL     1    -154.170 138.332 134.944  1.00  0.00    -0.507 OA
ATOM     23  H   UNL     1    -154.677 137.471 134.813  1.00  0.00     0.293 HD
ENDBRANCH   6  22
BRANCH   8  24
ATOM     24  O   UNL     1    -157.123 142.098 135.320  1.00  0.00    -0.508 OA
ATOM     25  H   UNL     1    -156.988 142.541 134.418  1.00  0.00     0.293 HD
ENDBRANCH   8  24
TORSDOF 5
ENDMDL
MODEL 5
REMARK VINA RESULT:    -5.506     18.248     19.775
REMARK INTER + INTRA:          -6.580
REMARK INTER:                  -6.300
REMARK INTRA:                  -0.279
REMARK UNBOUND:                -0.107
REMARK SMILES O=c1c(O)c(-c2ccc(O)cc2)oc2cc(O)cc(O)c12
REMARK SMILES IDX 5 1 3 2 2 3 1 4 21 5 19 6 18 7 16 8 15 9 14 10 13 11 6 12
REMARK SMILES IDX 7 13 8 14 9 15 12 16 11 17 10 18 4 20 20 22 17 24
REMARK H PARENT 10 19 4 21 20 23 17 25
REMARK Flexibility Score: inf
ROOT
ATOM      1  C   UNL     1    -153.691 141.289 139.915  1.00  0.00     0.180 A 
ATOM      2  C   UNL     1    -154.707 142.131 139.429  1.00  0.00     0.208 A 
ATOM      3  C   UNL     1    -155.145 141.975 138.104  1.00  0.00     0.238 A 
ATOM      4  O   UNL     1    -156.106 142.680 137.699  1.00  0.00    -0.285 OA
ATOM      5  C   UNL     1    -154.524 141.019 137.264  1.00  0.00     0.111 A 
ATOM      6  C   UNL     1    -154.856 140.806 135.891  1.00  0.00     0.134 A 
ATOM      7  C   UNL     1    -154.247 139.760 135.187  1.00  0.00     0.093 A 
ATOM      8  C   UNL     1    -153.272 138.959 135.788  1.00  0.00     0.123 A 
ATOM      9  C   UNL     1    -152.902 139.194 137.110  1.00  0.00     0.094 A 
ATOM     10  C   UNL     1    -153.519 140.206 137.849  1.00  0.00     0.146 A 
ATOM     11  O   UNL     1    -153.150 140.380 139.112  1.00  0.00    -0.452 OA
ENDROOT
BRANCH   1  12
ATOM     12  C   UNL     1    -153.187 141.383 141.303  1.00  0.00     0.021 A 
ATOM     13  C   UNL     1    -152.196 142.315 141.663  1.00  0.00     0.016 A 
ATOM     14  C   UNL     1    -151.754 142.401 142.987  1.00  0.00     0.047 A 
ATOM     15  C   UNL     1    -152.305 141.568 143.969  1.00  0.00     0.115 A 
ATOM     16  C   UNL     1    -153.749 140.566 142.299  1.00  0.00     0.016 A 
ATOM     17  C   UNL     1    -153.304 140.654 143.621  1.00  0.00     0.047 A 
BRANCH  15  18
ATOM     18  O   UNL     1    -151.872 141.644 145.290  1.00  0.00    -0.508 OA
ATOM     19  H   UNL     1    -151.311 142.421 145.619  1.00  0.00     0.293 HD
ENDBRANCH  15  18
ENDBRANCH   1  12
BRANCH   2  20
ATOM     20  O   UNL     1    -155.254 143.120 140.251  1.00  0.00    -0.502 OA
ATOM     21  H   UNL     1    -155.981 143.751 139.933  1.00  0.00     0.293 HD
ENDBRANCH   2  20
BRANCH   6  22
ATOM     22  O   UNL     1    -155.750 141.603 135.169  1.00  0.00    -0.507 OA
ATOM     23  H   UNL     1    -156.287 142.363 135.555  1.00  0.00     0.293 HD
ENDBRANCH   6  22
BRANCH   8  24
ATOM     24  O   UNL     1    -152.659 137.930 135.075  1.00  0.00    -0.508 OA
ATOM     25  H   UNL     1    -152.706 137.886 134.063  1.00  0.00     0.293 HD
ENDBRANCH   8  24
TORSDOF 5
ENDMDL
MODEL 6
REMARK VINA RESULT:    -5.504      2.096      6.820
REMARK INTER + INTRA:          -6.577
REMARK INTER:                  -6.305
REMARK INTRA:                  -0.271
REMARK UNBOUND:                -0.107
REMARK SMILES O=c1c(O)c(-c2ccc(O)cc2)oc2cc(O)cc(O)c12
REMARK SMILES IDX 5 1 3 2 2 3 1 4 21 5 19 6 18 7 16 8 15 9 14 10 13 11 6 12
REMARK SMILES IDX 7 13 8 14 9 15 12 16 11 17 10 18 4 20 20 22 17 24
REMARK H PARENT 10 19 4 21 20 23 17 25
REMARK Flexibility Score: inf
ROOT
ATOM      1  C   UNL     1    -141.017 155.092 140.351  1.00  0.00     0.180 A 
ATOM      2  C   UNL     1    -139.786 155.667 139.989  1.00  0.00     0.208 A 
ATOM      3  C   UNL     1    -139.455 155.765 138.627  1.00  0.00     0.238 A 
ATOM      4  O   UNL     1    -138.387 156.349 138.307  1.00  0.00    -0.285 OA
ATOM      5  C   UNL     1    -140.331 155.237 137.648  1.00  0.00     0.111 A 
ATOM      6  C   UNL     1    -140.077 155.240 136.243  1.00  0.00     0.134 A 
ATOM      7  C   UNL     1    -141.064 154.784 135.361  1.00  0.00     0.093 A 
ATOM      8  C   UNL     1    -142.271 154.266 135.837  1.00  0.00     0.123 A 
ATOM      9  C   UNL     1    -142.507 154.208 137.208  1.00  0.00     0.094 A 
ATOM     10  C   UNL     1    -141.556 154.690 138.112  1.00  0.00     0.146 A 
ATOM     11  O   UNL     1    -141.832 154.635 139.408  1.00  0.00    -0.452 OA
ENDROOT
BRANCH   1  12
ATOM     12  C   UNL     1    -141.442 154.967 141.763  1.00  0.00     0.021 A 
ATOM     13  C   UNL     1    -142.344 155.880 142.341  1.00  0.00     0.016 A 
ATOM     14  C   UNL     1    -142.750 155.726 143.671  1.00  0.00     0.047 A 
ATOM     15  C   UNL     1    -142.273 154.653 144.433  1.00  0.00     0.115 A 
ATOM     16  C   UNL     1    -140.985 153.882 142.530  1.00  0.00     0.016 A 
ATOM     17  C   UNL     1    -141.392 153.731 143.858  1.00  0.00     0.047 A 
BRANCH  15  18
ATOM     18  O   UNL     1    -142.669 154.491 145.758  1.00  0.00    -0.508 OA
ATOM     19  H   UNL     1    -142.635 153.586 146.213  1.00  0.00     0.293 HD
ENDBRANCH  15  18
ENDBRANCH   1  12
BRANCH   2  20
ATOM     20  O   UNL     1    -138.901 156.114 140.973  1.00  0.00    -0.502 OA
ATOM     21  H   UNL     1    -139.073 156.949 141.521  1.00  0.00     0.293 HD
ENDBRANCH   2  20
BRANCH   6  22
ATOM     22  O   UNL     1    -138.871 155.653 135.667  1.00  0.00    -0.507 OA
ATOM     23  H   UNL     1    -138.691 156.575 135.303  1.00  0.00     0.293 HD
ENDBRANCH   6  22
BRANCH   8  24
ATOM     24  O   UNL     1    -143.242 153.799 134.952  1.00  0.00    -0.508 OA
ATOM     25  H   UNL     1    -144.162 153.522 135.273  1.00  0.00     0.293 HD
ENDBRANCH   8  24
TORSDOF 5
ENDMDL
MODEL 7
REMARK VINA RESULT:    -5.494      2.115      6.976
REMARK INTER + INTRA:          -6.565
REMARK INTER:                  -6.288
REMARK INTRA:                  -0.277
REMARK UNBOUND:                -0.107
REMARK SMILES O=c1c(O)c(-c2ccc(O)cc2)oc2cc(O)cc(O)c12
REMARK SMILES IDX 5 1 3 2 2 3 1 4 21 5 19 6 18 7 16 8 15 9 14 10 13 11 6 12
REMARK SMILES IDX 7 13 8 14 9 15 12 16 11 17 10 18 4 20 20 22 17 24
REMARK H PARENT 10 19 4 21 20 23 17 25
REMARK Flexibility Score: inf
ROOT
ATOM      1  C   UNL     1    -140.663 153.098 139.909  1.00  0.00     0.180 A 
ATOM      2  C   UNL     1    -139.642 152.266 139.419  1.00  0.00     0.208 A 
ATOM      3  C   UNL     1    -139.204 152.432 138.094  1.00  0.00     0.238 A 
ATOM      4  O   UNL     1    -138.239 151.736 137.686  1.00  0.00    -0.285 OA
ATOM      5  C   UNL     1    -139.832 153.389 137.260  1.00  0.00     0.111 A 
ATOM      6  C   UNL     1    -139.501 153.613 135.888  1.00  0.00     0.134 A 
ATOM      7  C   UNL     1    -140.117 154.659 135.191  1.00  0.00     0.093 A 
ATOM      8  C   UNL     1    -141.097 155.450 135.796  1.00  0.00     0.123 A 
ATOM      9  C   UNL     1    -141.465 155.205 137.117  1.00  0.00     0.094 A 
ATOM     10  C   UNL     1    -140.842 154.192 137.850  1.00  0.00     0.146 A 
ATOM     11  O   UNL     1    -141.209 154.008 139.112  1.00  0.00    -0.452 OA
ENDROOT
BRANCH   1  12
ATOM     12  C   UNL     1    -141.167 152.993 141.297  1.00  0.00     0.021 A 
ATOM     13  C   UNL     1    -142.142 152.044 141.654  1.00  0.00     0.016 A 
ATOM     14  C   UNL     1    -142.584 151.948 142.978  1.00  0.00     0.047 A 
ATOM     15  C   UNL     1    -142.047 152.787 143.961  1.00  0.00     0.115 A 
ATOM     16  C   UNL     1    -140.619 153.816 142.295  1.00  0.00     0.016 A 
ATOM     17  C   UNL     1    -141.063 153.718 143.617  1.00  0.00     0.047 A 
BRANCH  15  18
ATOM     18  O   UNL     1    -142.480 152.701 145.283  1.00  0.00    -0.508 OA
ATOM     19  H   UNL     1    -143.280 153.229 145.612  1.00  0.00     0.293 HD
ENDBRANCH  15  18
ENDBRANCH   1  12
BRANCH   2  20
ATOM     20  O   UNL     1    -139.088 151.276 140.235  1.00  0.00    -0.502 OA
ATOM     21  H   UNL     1    -139.634 150.505 140.602  1.00  0.00     0.293 HD
ENDBRANCH   2  20
BRANCH   6  22
ATOM     22  O   UNL     1    -138.602 152.826 135.162  1.00  0.00    -0.507 OA
ATOM     23  H   UNL     1    -138.237 151.937 135.465  1.00  0.00     0.293 HD
ENDBRANCH   6  22
BRANCH   8  24
ATOM     24  O   UNL     1    -141.716 156.479 135.089  1.00  0.00    -0.508 OA
ATOM     25  H   UNL     1    -142.715 156.636 135.148  1.00  0.00     0.293 HD
ENDBRANCH   8  24
TORSDOF 5
ENDMDL
MODEL 8
REMARK VINA RESULT:    -5.470     19.148     20.667
REMARK INTER + INTRA:          -6.537
REMARK INTER:                  -6.269
REMARK INTRA:                  -0.268
REMARK UNBOUND:                -0.107
REMARK SMILES O=c1c(O)c(-c2ccc(O)cc2)oc2cc(O)cc(O)c12
REMARK SMILES IDX 5 1 3 2 2 3 1 4 21 5 19 6 18 7 16 8 15 9 14 10 13 11 6 12
REMARK SMILES IDX 7 13 8 14 9 15 12 16 11 17 10 18 4 20 20 22 17 24
REMARK H PARENT 10 19 4 21 20 23 17 25
REMARK Flexibility Score: inf
ROOT
ATOM      1  C   UNL     1    -153.303 139.299 140.351  1.00  0.00     0.180 A 
ATOM      2  C   UNL     1    -154.529 138.719 139.982  1.00  0.00     0.208 A 
ATOM      3  C   UNL     1    -154.861 138.635 138.620  1.00  0.00     0.238 A 
ATOM      4  O   UNL     1    -155.925 138.048 138.294  1.00  0.00    -0.285 OA
ATOM      5  C   UNL     1    -153.989 139.182 137.647  1.00  0.00     0.111 A 
ATOM      6  C   UNL     1    -154.244 139.194 136.242  1.00  0.00     0.134 A 
ATOM      7  C   UNL     1    -153.261 139.667 135.365  1.00  0.00     0.093 A 
ATOM      8  C   UNL     1    -152.057 140.188 135.846  1.00  0.00     0.123 A 
ATOM      9  C   UNL     1    -151.821 140.231 137.218  1.00  0.00     0.094 A 
ATOM     10  C   UNL     1    -152.767 139.731 138.116  1.00  0.00     0.146 A 
ATOM     11  O   UNL     1    -152.491 139.773 139.414  1.00  0.00    -0.452 OA
ENDROOT
BRANCH   1  12
ATOM     12  C   UNL     1    -152.877 139.409 141.764  1.00  0.00     0.021 A 
ATOM     13  C   UNL     1    -151.956 138.506 142.327  1.00  0.00     0.016 A 
ATOM     14  C   UNL     1    -151.550 138.647 143.658  1.00  0.00     0.047 A 
ATOM     15  C   UNL     1    -152.048 139.697 144.438  1.00  0.00     0.115 A 
ATOM     16  C   UNL     1    -153.354 140.473 142.549  1.00  0.00     0.016 A 
ATOM     17  C   UNL     1    -152.948 140.610 143.879  1.00  0.00     0.047 A 
BRANCH  15  18
ATOM     18  O   UNL     1    -151.652 139.847 145.765  1.00  0.00    -0.508 OA
ATOM     19  H   UNL     1    -151.919 140.660 146.308  1.00  0.00     0.293 HD
ENDBRANCH  15  18
ENDBRANCH   1  12
BRANCH   2  20
ATOM     20  O   UNL     1    -155.411 138.255 140.962  1.00  0.00    -0.502 OA
ATOM     21  H   UNL     1    -156.404 138.455 140.940  1.00  0.00     0.293 HD
ENDBRANCH   2  20
BRANCH   6  22
ATOM     22  O   UNL     1    -155.446 138.779 135.662  1.00  0.00    -0.507 OA
ATOM     23  H   UNL     1    -155.934 139.270 134.928  1.00  0.00     0.293 HD
ENDBRANCH   6  22
BRANCH   8  24
ATOM     24  O   UNL     1    -151.090 140.672 134.967  1.00  0.00    -0.508 OA
ATOM     25  H   UNL     1    -150.203 141.032 135.300  1.00  0.00     0.293 HD
ENDBRANCH   8  24
TORSDOF 5
ENDMDL
MODEL 9
REMARK VINA RESULT:    -5.418     19.112     19.999
REMARK INTER + INTRA:          -6.475
REMARK INTER:                  -6.310
REMARK INTRA:                  -0.165
REMARK UNBOUND:                -0.107
REMARK SMILES O=c1c(O)c(-c2ccc(O)cc2)oc2cc(O)cc(O)c12
REMARK SMILES IDX 5 1 3 2 2 3 1 4 21 5 19 6 18 7 16 8 15 9 14 10 13 11 6 12
REMARK SMILES IDX 7 13 8 14 9 15 12 16 11 17 10 18 4 20 20 22 17 24
REMARK H PARENT 10 19 4 21 20 23 17 25
REMARK Flexibility Score: inf
ROOT
ATOM      1  C   UNL     1    -153.821 139.903 138.955  1.00  0.00     0.180 A 
ATOM      2  C   UNL     1    -152.772 138.974 138.836  1.00  0.00     0.208 A 
ATOM      3  C   UNL     1    -152.000 138.669 139.969  1.00  0.00     0.238 A 
ATOM      4  O   UNL     1    -151.113 137.782 139.874  1.00  0.00    -0.285 OA
ATOM      5  C   UNL     1    -152.248 139.339 141.192  1.00  0.00     0.111 A 
ATOM      6  C   UNL     1    -151.499 139.144 142.393  1.00  0.00     0.134 A 
ATOM      7  C   UNL     1    -151.902 139.783 143.571  1.00  0.00     0.093 A 
ATOM      8  C   UNL     1    -152.989 140.662 143.578  1.00  0.00     0.123 A 
ATOM      9  C   UNL     1    -153.693 140.901 142.400  1.00  0.00     0.094 A 
ATOM     10  C   UNL     1    -153.338 140.248 141.217  1.00  0.00     0.146 A 
ATOM     11  O   UNL     1    -154.050 140.490 140.124  1.00  0.00    -0.452 OA
ENDROOT
BRANCH   1  12
ATOM     12  C   UNL     1    -154.687 140.264 137.811  1.00  0.00     0.021 A 
ATOM     13  C   UNL     1    -154.608 141.528 137.200  1.00  0.00     0.016 A 
ATOM     14  C   UNL     1    -155.420 141.837 136.104  1.00  0.00     0.047 A 
ATOM     15  C   UNL     1    -156.310 140.882 135.597  1.00  0.00     0.115 A 
ATOM     16  C   UNL     1    -155.568 139.305 137.282  1.00  0.00     0.016 A 
ATOM     17  C   UNL     1    -156.380 139.616 136.187  1.00  0.00     0.047 A 
BRANCH  15  18
ATOM     18  O   UNL     1    -157.125 141.178 134.507  1.00  0.00    -0.508 OA
ATOM     19  H   UNL     1    -157.922 141.798 134.595  1.00  0.00     0.293 HD
ENDBRANCH  15  18
ENDBRANCH   1  12
BRANCH   2  20
ATOM     20  O   UNL     1    -152.495 138.380 137.602  1.00  0.00    -0.502 OA
ATOM     21  H   UNL     1    -152.067 137.464 137.522  1.00  0.00     0.293 HD
ENDBRANCH   2  20
BRANCH   6  22
ATOM     22  O   UNL     1    -150.345 138.358 142.476  1.00  0.00    -0.507 OA
ATOM     23  H   UNL     1    -150.304 137.432 142.871  1.00  0.00     0.293 HD
ENDBRANCH   6  22
BRANCH   8  24
ATOM     24  O   UNL     1    -153.374 141.307 144.752  1.00  0.00    -0.508 OA
ATOM     25  H   UNL     1    -152.691 141.630 145.427  1.00  0.00     0.293 HD
ENDBRANCH   8  24
TORSDOF 5
ENDMDL
