MODEL 1
REMARK VINA RESULT:    -2.671      0.000      0.000
REMARK INTER + INTRA:          -2.671
REMARK INTER:                  -2.671
REMARK INTRA:                   0.000
REMARK UNBOUND:                 0.000
REMARK SMILES CC1(C)O[C@]2(C)CC[C@H]1CC2
REMARK SMILES IDX 1 1 2 2 9 3 10 4 11 5 5 6 4 7 7 8 8 9 6 10 3 11
REMARK H PARENT
REMARK Flexibility Score: inf
ROOT
ATOM      1  C   UNL     1     128.423 124.850 115.648  1.00  0.00     0.042 C 
ATOM      2  C   UNL     1     128.792 126.276 116.110  1.00  0.00     0.066 C 
ATOM      3  C   UNL     1     129.777 126.226 117.342  1.00  0.00     0.021 C 
ATOM      4  C   UNL     1     130.070 127.678 117.793  1.00  0.00     0.009 C 
ATOM      5  C   UNL     1     128.730 128.426 117.999  1.00  0.00     0.035 C 
ATOM      6  C   UNL     1     127.541 127.449 117.774  1.00  0.00     0.066 C 
ATOM      7  O   UNL     1     127.576 126.970 116.429  1.00  0.00    -0.369 OA
ATOM      8  C   UNL     1     127.683 126.245 118.749  1.00  0.00     0.035 C 
ATOM      9  C   UNL     1     129.047 125.548 118.525  1.00  0.00     0.009 C 
ATOM     10  C   UNL     1     126.208 128.169 118.007  1.00  0.00     0.042 C 
ATOM     11  C   UNL     1     129.452 126.991 114.912  1.00  0.00     0.042 C 
ENDROOT
TORSDOF 0
ENDMDL
MODEL 2
REMARK VINA RESULT:    -2.648     14.623     16.392
REMARK INTER + INTRA:          -2.648
REMARK INTER:                  -2.648
REMARK INTRA:                   0.000
REMARK UNBOUND:                 0.000
REMARK SMILES CC1(C)O[C@]2(C)CC[C@H]1CC2
REMARK SMILES IDX 1 1 2 2 9 3 10 4 11 5 5 6 4 7 7 8 8 9 6 10 3 11
REMARK H PARENT
REMARK Flexibility Score: inf
ROOT
ATOM      1  C   UNL     1     114.336 128.430 115.782  1.00  0.00     0.042 C 
ATOM      2  C   UNL     1     112.884 128.770 116.180  1.00  0.00     0.066 C 
ATOM      3  C   UNL     1     112.859 129.766 117.403  1.00  0.00     0.021 C 
ATOM      4  C   UNL     1     111.382 130.029 117.789  1.00  0.00     0.009 C 
ATOM      5  C   UNL     1     110.657 128.674 117.975  1.00  0.00     0.035 C 
ATOM      6  C   UNL     1     111.669 127.506 117.802  1.00  0.00     0.066 C 
ATOM      7  O   UNL     1     112.204 127.541 116.479  1.00  0.00    -0.369 OA
ATOM      8  C   UNL     1     112.826 127.684 118.827  1.00  0.00     0.035 C 
ATOM      9  C   UNL     1     113.501 129.060 118.621  1.00  0.00     0.009 C 
ATOM     10  C   UNL     1     110.969 126.159 118.016  1.00  0.00     0.042 C 
ATOM     11  C   UNL     1     112.207 129.404 114.945  1.00  0.00     0.042 C 
ENDROOT
TORSDOF 0
ENDMDL
MODEL 3
REMARK VINA RESULT:    -2.589      3.027      4.945
REMARK INTER + INTRA:          -2.589
REMARK INTER:                  -2.589
REMARK INTRA:                   0.000
REMARK UNBOUND:                 0.000
REMARK SMILES CC1(C)O[C@]2(C)CC[C@H]1CC2
REMARK SMILES IDX 1 1 2 2 9 3 10 4 11 5 5 6 4 7 7 8 8 9 6 10 3 11
REMARK H PARENT
REMARK Flexibility Score: inf
ROOT
ATOM      1  C   UNL     1     124.881 129.903 120.916  1.00  0.00     0.042 C 
ATOM      2  C   UNL     1     125.962 129.155 120.106  1.00  0.00     0.066 C 
ATOM      3  C   UNL     1     125.482 128.919 118.621  1.00  0.00     0.021 C 
ATOM      4  C   UNL     1     126.579 128.122 117.873  1.00  0.00     0.009 C 
ATOM      5  C   UNL     1     126.945 126.864 118.699  1.00  0.00     0.035 C 
ATOM      6  C   UNL     1     126.029 126.772 119.953  1.00  0.00     0.066 C 
ATOM      7  O   UNL     1     126.245 127.918 120.777  1.00  0.00    -0.369 OA
ATOM      8  C   UNL     1     124.543 126.746 119.493  1.00  0.00     0.035 C 
ATOM      9  C   UNL     1     124.233 128.006 118.650  1.00  0.00     0.009 C 
ATOM     10  C   UNL     1     126.359 125.512 120.762  1.00  0.00     0.042 C 
ATOM     11  C   UNL     1     127.240 130.021 120.136  1.00  0.00     0.042 C 
ENDROOT
TORSDOF 0
ENDMDL
MODEL 4
REMARK VINA RESULT:    -2.587     12.690     14.191
REMARK INTER + INTRA:          -2.587
REMARK INTER:                  -2.587
REMARK INTRA:                   0.000
REMARK UNBOUND:                 0.000
REMARK SMILES CC1(C)O[C@]2(C)CC[C@H]1CC2
REMARK SMILES IDX 1 1 2 2 9 3 10 4 11 5 5 6 4 7 7 8 8 9 6 10 3 11
REMARK H PARENT
REMARK Flexibility Score: inf
ROOT
ATOM      1  C   UNL     1     129.976 114.036 120.852  1.00  0.00     0.042 C 
ATOM      2  C   UNL     1     129.183 112.996 120.032  1.00  0.00     0.066 C 
ATOM      3  C   UNL     1     128.873 113.544 118.585  1.00  0.00     0.021 C 
ATOM      4  C   UNL     1     128.034 112.485 117.829  1.00  0.00     0.009 C 
ATOM      5  C   UNL     1     126.819 112.083 118.701  1.00  0.00     0.035 C 
ATOM      6  C   UNL     1     126.794 112.940 119.999  1.00  0.00     0.066 C 
ATOM      7  O   UNL     1     127.981 112.683 120.752  1.00  0.00    -0.369 OA
ATOM      8  C   UNL     1     126.751 114.446 119.611  1.00  0.00     0.035 C 
ATOM      9  C   UNL     1     127.967 114.792 118.719  1.00  0.00     0.009 C 
ATOM     10  C   UNL     1     125.577 112.574 120.856  1.00  0.00     0.042 C 
ATOM     11  C   UNL     1     130.044 111.716 119.958  1.00  0.00     0.042 C 
ENDROOT
TORSDOF 0
ENDMDL
MODEL 5
REMARK VINA RESULT:    -2.532     13.774     15.494
REMARK INTER + INTRA:          -2.532
REMARK INTER:                  -2.532
REMARK INTRA:                   0.000
REMARK UNBOUND:                 0.000
REMARK SMILES CC1(C)O[C@]2(C)CC[C@H]1CC2
REMARK SMILES IDX 1 1 2 2 9 3 10 4 11 5 5 6 4 7 7 8 8 9 6 10 3 11
REMARK H PARENT
REMARK Flexibility Score: inf
ROOT
ATOM      1  C   UNL     1     129.456 113.181 118.646  1.00  0.00     0.042 C 
ATOM      2  C   UNL     1     127.978 112.733 118.638  1.00  0.00     0.066 C 
ATOM      3  C   UNL     1     127.775 111.463 119.551  1.00  0.00     0.021 C 
ATOM      4  C   UNL     1     126.291 111.029 119.463  1.00  0.00     0.009 C 
ATOM      5  C   UNL     1     125.890 110.892 117.974  1.00  0.00     0.035 C 
ATOM      6  C   UNL     1     127.129 111.145 117.068  1.00  0.00     0.066 C 
ATOM      7  O   UNL     1     127.598 112.478 117.277  1.00  0.00    -0.369 OA
ATOM      8  C   UNL     1     128.252 110.141 117.456  1.00  0.00     0.035 C 
ATOM      9  C   UNL     1     128.599 110.296 118.956  1.00  0.00     0.009 C 
ATOM     10  C   UNL     1     126.753 110.979 115.591  1.00  0.00     0.042 C 
ATOM     11  C   UNL     1     127.136 113.919 119.156  1.00  0.00     0.042 C 
ENDROOT
TORSDOF 0
ENDMDL
MODEL 6
REMARK VINA RESULT:    -2.526      1.214      3.640
REMARK INTER + INTRA:          -2.526
REMARK INTER:                  -2.526
REMARK INTRA:                   0.000
REMARK UNBOUND:                 0.000
REMARK SMILES CC1(C)O[C@]2(C)CC[C@H]1CC2
REMARK SMILES IDX 1 1 2 2 9 3 10 4 11 5 5 6 4 7 7 8 8 9 6 10 3 11
REMARK H PARENT
REMARK Flexibility Score: inf
ROOT
ATOM      1  C   UNL     1     126.000 129.502 118.625  1.00  0.00     0.042 C 
ATOM      2  C   UNL     1     126.428 128.018 118.633  1.00  0.00     0.066 C 
ATOM      3  C   UNL     1     127.679 127.803 119.569  1.00  0.00     0.021 C 
ATOM      4  C   UNL     1     128.094 126.313 119.498  1.00  0.00     0.009 C 
ATOM      5  C   UNL     1     128.251 125.900 118.014  1.00  0.00     0.035 C 
ATOM      6  C   UNL     1     128.031 127.137 117.096  1.00  0.00     0.066 C 
ATOM      7  O   UNL     1     126.701 127.626 117.279  1.00  0.00    -0.369 OA
ATOM      8  C   UNL     1     129.044 128.249 117.495  1.00  0.00     0.035 C 
ATOM      9  C   UNL     1     128.867 128.607 118.990  1.00  0.00     0.009 C 
ATOM     10  C   UNL     1     128.216 126.749 115.625  1.00  0.00     0.042 C 
ATOM     11  C   UNL     1     125.221 127.196 119.136  1.00  0.00     0.042 C 
ENDROOT
TORSDOF 0
ENDMDL
MODEL 7
REMARK VINA RESULT:    -2.506     12.988     14.360
REMARK INTER + INTRA:          -2.506
REMARK INTER:                  -2.506
REMARK INTRA:                   0.000
REMARK UNBOUND:                 0.000
REMARK SMILES CC1(C)O[C@]2(C)CC[C@H]1CC2
REMARK SMILES IDX 1 1 2 2 9 3 10 4 11 5 5 6 4 7 7 8 8 9 6 10 3 11
REMARK H PARENT
REMARK Flexibility Score: inf
ROOT
ATOM      1  C   UNL     1     129.263 110.632 118.600  1.00  0.00     0.042 C 
ATOM      2  C   UNL     1     128.337 111.867 118.580  1.00  0.00     0.066 C 
ATOM      3  C   UNL     1     129.183 113.197 118.527  1.00  0.00     0.021 C 
ATOM      4  C   UNL     1     128.207 114.399 118.562  1.00  0.00     0.009 C 
ATOM      5  C   UNL     1     127.238 114.232 119.758  1.00  0.00     0.035 C 
ATOM      6  C   UNL     1     127.624 112.967 120.577  1.00  0.00     0.066 C 
ATOM      7  O   UNL     1     127.498 111.814 119.744  1.00  0.00    -0.369 OA
ATOM      8  C   UNL     1     129.101 113.101 121.047  1.00  0.00     0.035 C 
ATOM      9  C   UNL     1     130.025 113.293 119.822  1.00  0.00     0.009 C 
ATOM     10  C   UNL     1     126.692 112.809 121.784  1.00  0.00     0.042 C 
ATOM     11  C   UNL     1     127.435 111.743 117.333  1.00  0.00     0.042 C 
ENDROOT
TORSDOF 0
ENDMDL
MODEL 8
REMARK VINA RESULT:    -2.485      2.488      4.429
REMARK INTER + INTRA:          -2.485
REMARK INTER:                  -2.485
REMARK INTRA:                   0.000
REMARK UNBOUND:                 0.000
REMARK SMILES CC1(C)O[C@]2(C)CC[C@H]1CC2
REMARK SMILES IDX 1 1 2 2 9 3 10 4 11 5 5 6 4 7 7 8 8 9 6 10 3 11
REMARK H PARENT
REMARK Flexibility Score: inf
ROOT
ATOM      1  C   UNL     1     128.314 129.195 118.693  1.00  0.00     0.042 C 
ATOM      2  C   UNL     1     127.080 128.272 118.599  1.00  0.00     0.066 C 
ATOM      3  C   UNL     1     125.748 129.118 118.625  1.00  0.00     0.021 C 
ATOM      4  C   UNL     1     124.547 128.141 118.582  1.00  0.00     0.009 C 
ATOM      5  C   UNL     1     124.720 127.074 119.690  1.00  0.00     0.035 C 
ATOM      6  C   UNL     1     125.989 127.390 120.533  1.00  0.00     0.066 C 
ATOM      7  O   UNL     1     127.139 127.337 119.687  1.00  0.00    -0.369 OA
ATOM      8  C   UNL     1     125.857 128.821 121.128  1.00  0.00     0.035 C 
ATOM      9  C   UNL     1     125.659 129.847 119.987  1.00  0.00     0.009 C 
ATOM     10  C   UNL     1     126.154 126.358 121.655  1.00  0.00     0.042 C 
ATOM     11  C   UNL     1     127.198 127.480 117.279  1.00  0.00     0.042 C 
ENDROOT
TORSDOF 0
ENDMDL
MODEL 9
REMARK VINA RESULT:    -2.408      3.712      5.137
REMARK INTER + INTRA:          -2.408
REMARK INTER:                  -2.408
REMARK INTRA:                   0.000
REMARK UNBOUND:                 0.000
REMARK SMILES CC1(C)O[C@]2(C)CC[C@H]1CC2
REMARK SMILES IDX 1 1 2 2 9 3 10 4 11 5 5 6 4 7 7 8 8 9 6 10 3 11
REMARK H PARENT
REMARK Flexibility Score: inf
ROOT
ATOM      1  C   UNL     1     126.051 125.812 120.162  1.00  0.00     0.042 C 
ATOM      2  C   UNL     1     125.946 127.256 120.701  1.00  0.00     0.066 C 
ATOM      3  C   UNL     1     124.486 127.820 120.501  1.00  0.00     0.021 C 
ATOM      4  C   UNL     1     124.454 129.283 121.009  1.00  0.00     0.009 C 
ATOM      5  C   UNL     1     125.608 130.076 120.348  1.00  0.00     0.035 C 
ATOM      6  C   UNL     1     126.356 129.168 119.329  1.00  0.00     0.066 C 
ATOM      7  O   UNL     1     126.925 128.057 120.022  1.00  0.00    -0.369 OA
ATOM      8  C   UNL     1     125.338 128.647 118.274  1.00  0.00     0.035 C 
ATOM      9  C   UNL     1     124.191 127.887 118.983  1.00  0.00     0.009 C 
ATOM     10  C   UNL     1     127.480 129.952 118.643  1.00  0.00     0.042 C 
ATOM     11  C   UNL     1     126.315 127.215 122.199  1.00  0.00     0.042 C 
ENDROOT
TORSDOF 0
ENDMDL
