MODEL 1
REMARK VINA RESULT:    -5.611      0.000      0.000
REMARK INTER + INTRA:          -7.227
REMARK INTER:                  -6.923
REMARK INTRA:                  -0.305
REMARK UNBOUND:                -0.305
REMARK SMILES O=c1c(O)c(-c2cc(O)c(O)c(O)c2)oc2cc(O)cc(O)c12
REMARK SMILES IDX 5 1 3 2 2 3 1 4 23 5 21 6 20 7 18 8 17 9 16 10 15 11 6 12
REMARK SMILES IDX 7 13 8 14 14 15 10 16 12 17 9 18 11 20 13 22 4 24 22 26
REMARK SMILES IDX 19 28
REMARK H PARENT 9 19 11 21 13 23 4 25 22 27 19 29
REMARK Flexibility Score: inf
ROOT
ATOM      1  C   UNL     1     145.733 145.399 157.239  1.00  0.00     0.180 A 
ATOM      2  C   UNL     1     146.132 146.286 158.257  1.00  0.00     0.208 A 
ATOM      3  C   UNL     1     145.358 147.430 158.504  1.00  0.00     0.238 A 
ATOM      4  O   UNL     1     145.699 148.226 159.420  1.00  0.00    -0.285 OA
ATOM      5  C   UNL     1     144.213 147.679 157.718  1.00  0.00     0.111 A 
ATOM      6  C   UNL     1     143.381 148.810 157.899  1.00  0.00     0.134 A 
ATOM      7  C   UNL     1     142.265 148.992 157.069  1.00  0.00     0.093 A 
ATOM      8  C   UNL     1     141.964 148.069 156.064  1.00  0.00     0.123 A 
ATOM      9  C   UNL     1     142.783 146.949 155.882  1.00  0.00     0.094 A 
ATOM     10  C   UNL     1     143.899 146.749 156.699  1.00  0.00     0.146 A 
ATOM     11  O   UNL     1     144.656 145.675 156.508  1.00  0.00    -0.452 OA
ENDROOT
BRANCH   1  12
ATOM     12  C   UNL     1     146.487 144.162 156.931  1.00  0.00     0.029 A 
ATOM     13  C   UNL     1     147.674 144.244 156.189  1.00  0.00     0.062 A 
ATOM     14  C   UNL     1     148.397 143.087 155.867  1.00  0.00     0.162 A 
ATOM     15  C   UNL     1     146.008 142.899 157.318  1.00  0.00     0.062 A 
ATOM     16  C   UNL     1     147.921 141.829 156.276  1.00  0.00     0.200 A 
ATOM     17  C   UNL     1     146.724 141.738 156.998  1.00  0.00     0.162 A 
BRANCH  14  18
ATOM     18  O   UNL     1     149.583 143.181 155.141  1.00  0.00    -0.504 OA
ATOM     19  H   UNL     1     149.703 142.704 154.255  1.00  0.00     0.293 HD
ENDBRANCH  14  18
BRANCH  16  20
ATOM     20  O   UNL     1     148.622 140.663 155.970  1.00  0.00    -0.502 OA
ATOM     21  H   UNL     1     149.633 140.614 156.017  1.00  0.00     0.293 HD
ENDBRANCH  16  20
BRANCH  17  22
ATOM     22  O   UNL     1     146.250 140.487 157.389  1.00  0.00    -0.504 OA
ATOM     23  H   UNL     1     145.325 140.372 157.788  1.00  0.00     0.293 HD
ENDBRANCH  17  22
ENDBRANCH   1  12
BRANCH   2  24
ATOM     24  O   UNL     1     147.298 146.042 158.989  1.00  0.00    -0.502 OA
ATOM     25  H   UNL     1     147.999 145.377 158.686  1.00  0.00     0.293 HD
ENDBRANCH   2  24
BRANCH   6  26
ATOM     26  O   UNL     1     143.654 149.752 158.891  1.00  0.00    -0.507 OA
ATOM     27  H   UNL     1     144.465 149.670 159.494  1.00  0.00     0.293 HD
ENDBRANCH   6  26
BRANCH   8  28
ATOM     28  O   UNL     1     140.851 148.273 155.254  1.00  0.00    -0.508 OA
ATOM     29  H   UNL     1     140.933 148.340 154.246  1.00  0.00     0.293 HD
ENDBRANCH   8  28
TORSDOF 7
ENDMDL
MODEL 2
REMARK VINA RESULT:    -5.607      4.301      6.875
REMARK INTER + INTRA:          -7.223
REMARK INTER:                  -6.921
REMARK INTRA:                  -0.302
REMARK UNBOUND:                -0.305
REMARK SMILES O=c1c(O)c(-c2cc(O)c(O)c(O)c2)oc2cc(O)cc(O)c12
REMARK SMILES IDX 5 1 3 2 2 3 1 4 23 5 21 6 20 7 18 8 17 9 16 10 15 11 6 12
REMARK SMILES IDX 7 13 8 14 14 15 10 16 12 17 9 18 11 20 13 22 4 24 22 26
REMARK SMILES IDX 19 28
REMARK H PARENT 9 19 11 21 13 23 4 25 22 27 19 29
REMARK Flexibility Score: inf
ROOT
ATOM      1  C   UNL     1     145.398 149.852 157.248  1.00  0.00     0.180 A 
ATOM      2  C   UNL     1     146.309 149.417 158.231  1.00  0.00     0.208 A 
ATOM      3  C   UNL     1     147.475 150.165 158.455  1.00  0.00     0.238 A 
ATOM      4  O   UNL     1     148.292 149.791 159.340  1.00  0.00    -0.285 OA
ATOM      5  C   UNL     1     147.722 151.319 157.683  1.00  0.00     0.111 A 
ATOM      6  C   UNL     1     148.874 152.125 157.842  1.00  0.00     0.134 A 
ATOM      7  C   UNL     1     149.052 153.253 157.027  1.00  0.00     0.093 A 
ATOM      8  C   UNL     1     148.104 153.590 156.058  1.00  0.00     0.123 A 
ATOM      9  C   UNL     1     146.963 152.796 155.896  1.00  0.00     0.094 A 
ATOM     10  C   UNL     1     146.767 151.669 156.699  1.00  0.00     0.146 A 
ATOM     11  O   UNL     1     145.672 150.936 156.529  1.00  0.00    -0.452 OA
ENDROOT
BRANCH   1  12
ATOM     12  C   UNL     1     144.138 149.128 156.967  1.00  0.00     0.029 A 
ATOM     13  C   UNL     1     144.174 147.947 156.210  1.00  0.00     0.062 A 
ATOM     14  C   UNL     1     142.993 147.253 155.911  1.00  0.00     0.162 A 
ATOM     15  C   UNL     1     142.896 149.628 157.393  1.00  0.00     0.062 A 
ATOM     16  C   UNL     1     141.758 147.751 156.360  1.00  0.00     0.200 A 
ATOM     17  C   UNL     1     141.712 148.941 157.098  1.00  0.00     0.162 A 
BRANCH  14  18
ATOM     18  O   UNL     1     143.043 146.074 155.170  1.00  0.00    -0.504 OA
ATOM     19  H   UNL     1     143.171 145.172 155.614  1.00  0.00     0.293 HD
ENDBRANCH  14  18
BRANCH  16  20
ATOM     20  O   UNL     1     140.569 147.077 156.078  1.00  0.00    -0.502 OA
ATOM     21  H   UNL     1     139.672 147.402 156.418  1.00  0.00     0.293 HD
ENDBRANCH  16  20
BRANCH  17  22
ATOM     22  O   UNL     1     140.483 149.436 157.528  1.00  0.00    -0.504 OA
ATOM     23  H   UNL     1     140.357 149.802 158.465  1.00  0.00     0.293 HD
ENDBRANCH  17  22
ENDBRANCH   1  12
BRANCH   2  24
ATOM     24  O   UNL     1     146.065 148.243 158.949  1.00  0.00    -0.502 OA
ATOM     25  H   UNL     1     145.858 148.246 159.940  1.00  0.00     0.293 HD
ENDBRANCH   2  24
BRANCH   6  26
ATOM     26  O   UNL     1     149.841 151.816 158.800  1.00  0.00    -0.507 OA
ATOM     27  H   UNL     1     150.548 152.485 159.079  1.00  0.00     0.293 HD
ENDBRANCH   6  26
BRANCH   8  28
ATOM     28  O   UNL     1     148.304 154.714 155.262  1.00  0.00    -0.508 OA
ATOM     29  H   UNL     1     148.080 154.711 154.274  1.00  0.00     0.293 HD
ENDBRANCH   8  28
TORSDOF 7
ENDMDL
MODEL 3
REMARK VINA RESULT:    -5.592      4.245      6.853
REMARK INTER + INTRA:          -7.204
REMARK INTER:                  -6.876
REMARK INTRA:                  -0.328
REMARK UNBOUND:                -0.305
REMARK SMILES O=c1c(O)c(-c2cc(O)c(O)c(O)c2)oc2cc(O)cc(O)c12
REMARK SMILES IDX 5 1 3 2 2 3 1 4 23 5 21 6 20 7 18 8 17 9 16 10 15 11 6 12
REMARK SMILES IDX 7 13 8 14 14 15 10 16 12 17 9 18 11 20 13 22 4 24 22 26
REMARK SMILES IDX 19 28
REMARK H PARENT 9 19 11 21 13 23 4 25 22 27 19 29
REMARK Flexibility Score: inf
ROOT
ATOM      1  C   UNL     1     150.218 145.677 157.288  1.00  0.00     0.180 A 
ATOM      2  C   UNL     1     149.363 146.043 158.345  1.00  0.00     0.208 A 
ATOM      3  C   UNL     1     148.228 145.259 158.604  1.00  0.00     0.238 A 
ATOM      4  O   UNL     1     147.461 145.571 159.554  1.00  0.00    -0.285 OA
ATOM      5  C   UNL     1     147.958 144.137 157.793  1.00  0.00     0.111 A 
ATOM      6  C   UNL     1     146.834 143.297 157.984  1.00  0.00     0.134 A 
ATOM      7  C   UNL     1     146.628 142.204 157.128  1.00  0.00     0.093 A 
ATOM      8  C   UNL     1     147.521 141.937 156.087  1.00  0.00     0.123 A 
ATOM      9  C   UNL     1     148.633 142.763 155.894  1.00  0.00     0.094 A 
ATOM     10  C   UNL     1     148.856 143.856 156.737  1.00  0.00     0.146 A 
ATOM     11  O   UNL     1     149.922 144.621 156.535  1.00  0.00    -0.452 OA
ENDROOT
BRANCH   1  12
ATOM     12  C   UNL     1     151.443 146.443 156.965  1.00  0.00     0.029 A 
ATOM     13  C   UNL     1     151.342 147.620 156.208  1.00  0.00     0.062 A 
ATOM     14  C   UNL     1     152.488 148.353 155.870  1.00  0.00     0.162 A 
ATOM     15  C   UNL     1     152.715 145.986 157.351  1.00  0.00     0.062 A 
ATOM     16  C   UNL     1     153.754 147.899 156.279  1.00  0.00     0.200 A 
ATOM     17  C   UNL     1     153.865 146.713 157.016  1.00  0.00     0.162 A 
BRANCH  14  18
ATOM     18  O   UNL     1     152.374 149.528 155.130  1.00  0.00    -0.504 OA
ATOM     19  H   UNL     1     151.599 149.684 154.496  1.00  0.00     0.293 HD
ENDBRANCH  14  18
BRANCH  16  20
ATOM     20  O   UNL     1     154.909 148.612 155.958  1.00  0.00    -0.502 OA
ATOM     21  H   UNL     1     154.925 149.624 155.921  1.00  0.00     0.293 HD
ENDBRANCH  16  20
BRANCH  17  22
ATOM     22  O   UNL     1     155.124 146.260 157.406  1.00  0.00    -0.504 OA
ATOM     23  H   UNL     1     155.318 145.995 158.365  1.00  0.00     0.293 HD
ENDBRANCH  17  22
ENDBRANCH   1  12
BRANCH   2  24
ATOM     24  O   UNL     1     149.627 147.188 159.102  1.00  0.00    -0.502 OA
ATOM     25  H   UNL     1     150.526 147.654 159.085  1.00  0.00     0.293 HD
ENDBRANCH   2  24
BRANCH   6  26
ATOM     26  O   UNL     1     145.923 143.538 159.013  1.00  0.00    -0.507 OA
ATOM     27  H   UNL     1     145.097 142.965 159.139  1.00  0.00     0.293 HD
ENDBRANCH   6  26
BRANCH   8  28
ATOM     28  O   UNL     1     147.294 140.846 155.251  1.00  0.00    -0.508 OA
ATOM     29  H   UNL     1     146.790 140.944 154.377  1.00  0.00     0.293 HD
ENDBRANCH   8  28
TORSDOF 7
ENDMDL
MODEL 4
REMARK VINA RESULT:    -5.576      5.985      9.689
REMARK INTER + INTRA:          -7.185
REMARK INTER:                  -6.854
REMARK INTRA:                  -0.330
REMARK UNBOUND:                -0.305
REMARK SMILES O=c1c(O)c(-c2cc(O)c(O)c(O)c2)oc2cc(O)cc(O)c12
REMARK SMILES IDX 5 1 3 2 2 3 1 4 23 5 21 6 20 7 18 8 17 9 16 10 15 11 6 12
REMARK SMILES IDX 7 13 8 14 14 15 10 16 12 17 9 18 11 20 13 22 4 24 22 26
REMARK SMILES IDX 19 28
REMARK H PARENT 9 19 11 21 13 23 4 25 22 27 19 29
REMARK Flexibility Score: inf
ROOT
ATOM      1  C   UNL     1     149.919 150.220 157.303  1.00  0.00     0.180 A 
ATOM      2  C   UNL     1     149.564 149.373 158.371  1.00  0.00     0.208 A 
ATOM      3  C   UNL     1     150.355 148.244 158.635  1.00  0.00     0.238 A 
ATOM      4  O   UNL     1     150.052 147.485 159.595  1.00  0.00    -0.285 OA
ATOM      5  C   UNL     1     151.472 147.970 157.819  1.00  0.00     0.111 A 
ATOM      6  C   UNL     1     152.317 146.851 158.014  1.00  0.00     0.134 A 
ATOM      7  C   UNL     1     153.404 146.641 157.152  1.00  0.00     0.093 A 
ATOM      8  C   UNL     1     153.661 147.524 156.101  1.00  0.00     0.123 A 
ATOM      9  C   UNL     1     152.829 148.632 155.903  1.00  0.00     0.094 A 
ATOM     10  C   UNL     1     151.742 148.859 156.752  1.00  0.00     0.146 A 
ATOM     11  O   UNL     1     150.971 149.921 156.545  1.00  0.00    -0.452 OA
ENDROOT
BRANCH   1  12
ATOM     12  C   UNL     1     149.147 151.439 156.973  1.00  0.00     0.029 A 
ATOM     13  C   UNL     1     147.969 151.327 156.220  1.00  0.00     0.062 A 
ATOM     14  C   UNL     1     147.229 152.467 155.876  1.00  0.00     0.162 A 
ATOM     15  C   UNL     1     149.598 152.715 157.351  1.00  0.00     0.062 A 
ATOM     16  C   UNL     1     147.677 153.738 156.276  1.00  0.00     0.200 A 
ATOM     17  C   UNL     1     148.865 153.859 157.010  1.00  0.00     0.162 A 
BRANCH  14  18
ATOM     18  O   UNL     1     146.053 152.342 155.139  1.00  0.00    -0.504 OA
ATOM     19  H   UNL     1     145.143 152.343 155.586  1.00  0.00     0.293 HD
ENDBRANCH  14  18
BRANCH  16  20
ATOM     20  O   UNL     1     146.958 154.887 155.949  1.00  0.00    -0.502 OA
ATOM     21  H   UNL     1     147.130 155.778 156.401  1.00  0.00     0.293 HD
ENDBRANCH  16  20
BRANCH  17  22
ATOM     22  O   UNL     1     149.312 155.123 157.391  1.00  0.00    -0.504 OA
ATOM     23  H   UNL     1     149.743 155.282 158.294  1.00  0.00     0.293 HD
ENDBRANCH  17  22
ENDBRANCH   1  12
BRANCH   2  24
ATOM     24  O   UNL     1     148.424 149.641 159.134  1.00  0.00    -0.502 OA
ATOM     25  H   UNL     1     148.301 149.278 160.071  1.00  0.00     0.293 HD
ENDBRANCH   2  24
BRANCH   6  26
ATOM     26  O   UNL     1     152.087 145.950 159.054  1.00  0.00    -0.507 OA
ATOM     27  H   UNL     1     152.561 145.056 159.099  1.00  0.00     0.293 HD
ENDBRANCH   6  26
BRANCH   8  28
ATOM     28  O   UNL     1     154.746 147.293 155.259  1.00  0.00    -0.508 OA
ATOM     29  H   UNL     1     155.344 148.049 154.946  1.00  0.00     0.293 HD
ENDBRANCH   8  28
TORSDOF 7
ENDMDL
MODEL 5
REMARK VINA RESULT:    -5.572      1.497      7.306
REMARK INTER + INTRA:          -7.180
REMARK INTER:                  -6.824
REMARK INTRA:                  -0.356
REMARK UNBOUND:                -0.305
REMARK SMILES O=c1c(O)c(-c2cc(O)c(O)c(O)c2)oc2cc(O)cc(O)c12
REMARK SMILES IDX 5 1 3 2 2 3 1 4 23 5 21 6 20 7 18 8 17 9 16 10 15 11 6 12
REMARK SMILES IDX 7 13 8 14 14 15 10 16 12 17 9 18 11 20 13 22 4 24 22 26
REMARK SMILES IDX 19 28
REMARK H PARENT 9 19 11 21 13 23 4 25 22 27 19 29
REMARK Flexibility Score: inf
ROOT
ATOM      1  C   UNL     1     144.078 145.260 157.421  1.00  0.00     0.180 A 
ATOM      2  C   UNL     1     143.576 144.005 157.819  1.00  0.00     0.208 A 
ATOM      3  C   UNL     1     144.423 142.888 157.770  1.00  0.00     0.238 A 
ATOM      4  O   UNL     1     143.988 141.762 158.134  1.00  0.00    -0.285 OA
ATOM      5  C   UNL     1     145.747 143.037 157.308  1.00  0.00     0.111 A 
ATOM      6  C   UNL     1     146.664 141.961 157.223  1.00  0.00     0.134 A 
ATOM      7  C   UNL     1     147.962 142.189 156.742  1.00  0.00     0.093 A 
ATOM      8  C   UNL     1     148.361 143.468 156.345  1.00  0.00     0.123 A 
ATOM      9  C   UNL     1     147.459 144.535 156.426  1.00  0.00     0.094 A 
ATOM     10  C   UNL     1     146.162 144.328 156.904  1.00  0.00     0.146 A 
ATOM     11  O   UNL     1     145.328 145.359 156.976  1.00  0.00    -0.452 OA
ENDROOT
BRANCH   1  12
ATOM     12  C   UNL     1     143.253 146.488 157.462  1.00  0.00     0.029 A 
ATOM     13  C   UNL     1     143.260 147.287 158.615  1.00  0.00     0.062 A 
ATOM     14  C   UNL     1     142.471 148.444 158.688  1.00  0.00     0.162 A 
ATOM     15  C   UNL     1     142.416 146.842 156.390  1.00  0.00     0.062 A 
ATOM     16  C   UNL     1     141.653 148.801 157.603  1.00  0.00     0.200 A 
ATOM     17  C   UNL     1     141.624 147.996 156.457  1.00  0.00     0.162 A 
BRANCH  14  18
ATOM     18  O   UNL     1     142.497 149.237 159.833  1.00  0.00    -0.504 OA
ATOM     19  H   UNL     1     143.315 149.781 160.085  1.00  0.00     0.293 HD
ENDBRANCH  14  18
BRANCH  16  20
ATOM     20  O   UNL     1     140.861 149.949 157.650  1.00  0.00    -0.502 OA
ATOM     21  H   UNL     1     140.752 150.494 158.496  1.00  0.00     0.293 HD
ENDBRANCH  16  20
BRANCH  17  22
ATOM     22  O   UNL     1     140.800 148.348 155.389  1.00  0.00    -0.504 OA
ATOM     23  H   UNL     1     140.590 147.694 154.644  1.00  0.00     0.293 HD
ENDBRANCH  17  22
ENDBRANCH   1  12
BRANCH   2  24
ATOM     24  O   UNL     1     142.246 143.875 158.227  1.00  0.00    -0.502 OA
ATOM     25  H   UNL     1     141.504 143.619 157.586  1.00  0.00     0.293 HD
ENDBRANCH   2  24
BRANCH   6  26
ATOM     26  O   UNL     1     146.296 140.673 157.611  1.00  0.00    -0.507 OA
ATOM     27  H   UNL     1     146.718 140.216 158.411  1.00  0.00     0.293 HD
ENDBRANCH   6  26
BRANCH   8  28
ATOM     28  O   UNL     1     149.655 143.667 155.871  1.00  0.00    -0.508 OA
ATOM     29  H   UNL     1     150.287 142.891 155.712  1.00  0.00     0.293 HD
ENDBRANCH   8  28
TORSDOF 7
ENDMDL
MODEL 6
REMARK VINA RESULT:    -5.565      4.447      7.930
REMARK INTER + INTRA:          -7.172
REMARK INTER:                  -6.814
REMARK INTRA:                  -0.357
REMARK UNBOUND:                -0.305
REMARK SMILES O=c1c(O)c(-c2cc(O)c(O)c(O)c2)oc2cc(O)cc(O)c12
REMARK SMILES IDX 5 1 3 2 2 3 1 4 23 5 21 6 20 7 18 8 17 9 16 10 15 11 6 12
REMARK SMILES IDX 7 13 8 14 14 15 10 16 12 17 9 18 11 20 13 22 4 24 22 26
REMARK SMILES IDX 19 28
REMARK H PARENT 9 19 11 21 13 23 4 25 22 27 19 29
REMARK Flexibility Score: inf
ROOT
ATOM      1  C   UNL     1     145.240 151.484 157.432  1.00  0.00     0.180 A 
ATOM      2  C   UNL     1     143.986 151.981 157.835  1.00  0.00     0.208 A 
ATOM      3  C   UNL     1     142.869 151.132 157.783  1.00  0.00     0.238 A 
ATOM      4  O   UNL     1     141.743 151.564 158.152  1.00  0.00    -0.285 OA
ATOM      5  C   UNL     1     143.020 149.812 157.311  1.00  0.00     0.111 A 
ATOM      6  C   UNL     1     141.945 148.894 157.223  1.00  0.00     0.134 A 
ATOM      7  C   UNL     1     142.174 147.600 156.733  1.00  0.00     0.093 A 
ATOM      8  C   UNL     1     143.453 147.206 156.330  1.00  0.00     0.123 A 
ATOM      9  C   UNL     1     144.518 148.108 156.416  1.00  0.00     0.094 A 
ATOM     10  C   UNL     1     144.311 149.402 156.902  1.00  0.00     0.146 A 
ATOM     11  O   UNL     1     145.341 150.237 156.978  1.00  0.00    -0.452 OA
ENDROOT
BRANCH   1  12
ATOM     12  C   UNL     1     146.467 152.311 157.476  1.00  0.00     0.029 A 
ATOM     13  C   UNL     1     147.257 152.313 158.635  1.00  0.00     0.062 A 
ATOM     14  C   UNL     1     148.412 153.103 158.711  1.00  0.00     0.162 A 
ATOM     15  C   UNL     1     146.828 153.140 156.401  1.00  0.00     0.062 A 
ATOM     16  C   UNL     1     148.777 153.914 157.622  1.00  0.00     0.200 A 
ATOM     17  C   UNL     1     147.981 153.934 156.470  1.00  0.00     0.162 A 
BRANCH  14  18
ATOM     18  O   UNL     1     149.197 153.087 159.863  1.00  0.00    -0.504 OA
ATOM     19  H   UNL     1     149.694 153.912 160.179  1.00  0.00     0.293 HD
ENDBRANCH  14  18
BRANCH  16  20
ATOM     20  O   UNL     1     149.924 154.707 157.672  1.00  0.00    -0.502 OA
ATOM     21  H   UNL     1     150.477 154.907 156.848  1.00  0.00     0.293 HD
ENDBRANCH  16  20
BRANCH  17  22
ATOM     22  O   UNL     1     148.340 154.750 155.399  1.00  0.00    -0.504 OA
ATOM     23  H   UNL     1     148.808 154.377 154.582  1.00  0.00     0.293 HD
ENDBRANCH  17  22
ENDBRANCH   1  12
BRANCH   2  24
ATOM     24  O   UNL     1     143.854 153.308 158.252  1.00  0.00    -0.502 OA
ATOM     25  H   UNL     1     144.168 153.625 159.162  1.00  0.00     0.293 HD
ENDBRANCH   2  24
BRANCH   6  26
ATOM     26  O   UNL     1     140.657 149.257 157.615  1.00  0.00    -0.507 OA
ATOM     27  H   UNL     1     140.045 149.791 157.008  1.00  0.00     0.293 HD
ENDBRANCH   6  26
BRANCH   8  28
ATOM     28  O   UNL     1     143.653 145.915 155.847  1.00  0.00    -0.508 OA
ATOM     29  H   UNL     1     142.881 145.343 155.527  1.00  0.00     0.293 HD
ENDBRANCH   8  28
TORSDOF 7
ENDMDL
MODEL 7
REMARK VINA RESULT:    -5.561      4.252      6.920
REMARK INTER + INTRA:          -7.166
REMARK INTER:                  -6.851
REMARK INTRA:                  -0.315
REMARK UNBOUND:                -0.305
REMARK SMILES O=c1c(O)c(-c2cc(O)c(O)c(O)c2)oc2cc(O)cc(O)c12
REMARK SMILES IDX 5 1 3 2 2 3 1 4 23 5 21 6 20 7 18 8 17 9 16 10 15 11 6 12
REMARK SMILES IDX 7 13 8 14 14 15 10 16 12 17 9 18 11 20 13 22 4 24 22 26
REMARK SMILES IDX 19 28
REMARK H PARENT 9 19 11 21 13 23 4 25 22 27 19 29
REMARK Flexibility Score: inf
ROOT
ATOM      1  C   UNL     1     150.227 145.672 157.219  1.00  0.00     0.180 A 
ATOM      2  C   UNL     1     149.394 146.036 158.295  1.00  0.00     0.208 A 
ATOM      3  C   UNL     1     148.272 145.245 158.583  1.00  0.00     0.238 A 
ATOM      4  O   UNL     1     147.525 145.555 159.551  1.00  0.00    -0.285 OA
ATOM      5  C   UNL     1     147.989 144.119 157.782  1.00  0.00     0.111 A 
ATOM      6  C   UNL     1     146.875 143.272 158.002  1.00  0.00     0.134 A 
ATOM      7  C   UNL     1     146.656 142.176 157.154  1.00  0.00     0.093 A 
ATOM      8  C   UNL     1     147.525 141.911 156.092  1.00  0.00     0.123 A 
ATOM      9  C   UNL     1     148.627 142.745 155.870  1.00  0.00     0.094 A 
ATOM     10  C   UNL     1     148.863 143.840 156.705  1.00  0.00     0.146 A 
ATOM     11  O   UNL     1     149.920 144.612 156.476  1.00  0.00    -0.452 OA
ENDROOT
BRANCH   1  12
ATOM     12  C   UNL     1     151.439 146.445 156.864  1.00  0.00     0.029 A 
ATOM     13  C   UNL     1     152.697 145.985 157.280  1.00  0.00     0.062 A 
ATOM     14  C   UNL     1     153.859 146.708 156.976  1.00  0.00     0.162 A 
ATOM     15  C   UNL     1     151.352 147.661 156.167  1.00  0.00     0.062 A 
ATOM     16  C   UNL     1     153.764 147.914 156.260  1.00  0.00     0.200 A 
ATOM     17  C   UNL     1     152.509 148.390 155.860  1.00  0.00     0.162 A 
BRANCH  14  18
ATOM     18  O   UNL     1     155.105 146.234 157.383  1.00  0.00    -0.504 OA
ATOM     19  H   UNL     1     155.698 146.768 158.007  1.00  0.00     0.293 HD
ENDBRANCH  14  18
BRANCH  16  20
ATOM     20  O   UNL     1     154.905 148.650 155.942  1.00  0.00    -0.502 OA
ATOM     21  H   UNL     1     155.405 148.521 155.070  1.00  0.00     0.293 HD
ENDBRANCH  16  20
BRANCH  17  22
ATOM     22  O   UNL     1     152.420 149.594 155.163  1.00  0.00    -0.504 OA
ATOM     23  H   UNL     1     152.715 150.470 155.578  1.00  0.00     0.293 HD
ENDBRANCH  17  22
ENDBRANCH   1  12
BRANCH   2  24
ATOM     24  O   UNL     1     149.669 147.184 159.043  1.00  0.00    -0.502 OA
ATOM     25  H   UNL     1     149.348 147.300 159.996  1.00  0.00     0.293 HD
ENDBRANCH   2  24
BRANCH   6  26
ATOM     26  O   UNL     1     145.988 143.511 159.052  1.00  0.00    -0.507 OA
ATOM     27  H   UNL     1     144.985 143.510 158.913  1.00  0.00     0.293 HD
ENDBRANCH   6  26
BRANCH   8  28
ATOM     28  O   UNL     1     147.285 140.817 155.265  1.00  0.00    -0.508 OA
ATOM     29  H   UNL     1     147.215 140.919 154.259  1.00  0.00     0.293 HD
ENDBRANCH   8  28
TORSDOF 7
ENDMDL
MODEL 8
REMARK VINA RESULT:    -5.537      4.931      7.008
REMARK INTER + INTRA:          -7.137
REMARK INTER:                  -6.795
REMARK INTRA:                  -0.342
REMARK UNBOUND:                -0.305
REMARK SMILES O=c1c(O)c(-c2cc(O)c(O)c(O)c2)oc2cc(O)cc(O)c12
REMARK SMILES IDX 5 1 3 2 2 3 1 4 23 5 21 6 20 7 18 8 17 9 16 10 15 11 6 12
REMARK SMILES IDX 7 13 8 14 14 15 10 16 12 17 9 18 11 20 13 22 4 24 22 26
REMARK SMILES IDX 19 28
REMARK H PARENT 9 19 11 21 13 23 4 25 22 27 19 29
REMARK Flexibility Score: inf
ROOT
ATOM      1  C   UNL     1     150.164 143.961 157.552  1.00  0.00     0.180 A 
ATOM      2  C   UNL     1     151.410 143.422 157.925  1.00  0.00     0.208 A 
ATOM      3  C   UNL     1     152.553 144.233 157.845  1.00  0.00     0.238 A 
ATOM      4  O   UNL     1     153.672 143.764 158.187  1.00  0.00    -0.285 OA
ATOM      5  C   UNL     1     152.435 145.558 157.376  1.00  0.00     0.111 A 
ATOM      6  C   UNL     1     153.537 146.439 157.261  1.00  0.00     0.134 A 
ATOM      7  C   UNL     1     153.339 147.741 156.776  1.00  0.00     0.093 A 
ATOM      8  C   UNL     1     152.066 148.177 156.405  1.00  0.00     0.123 A 
ATOM      9  C   UNL     1     150.973 147.311 156.516  1.00  0.00     0.094 A 
ATOM     10  C   UNL     1     151.149 146.011 156.999  1.00  0.00     0.146 A 
ATOM     11  O   UNL     1     150.094 145.210 157.100  1.00  0.00    -0.452 OA
ENDROOT
BRANCH   1  12
ATOM     12  C   UNL     1     148.912 143.175 157.626  1.00  0.00     0.029 A 
ATOM     13  C   UNL     1     148.569 142.321 156.567  1.00  0.00     0.062 A 
ATOM     14  C   UNL     1     147.379 141.581 156.602  1.00  0.00     0.162 A 
ATOM     15  C   UNL     1     148.028 143.308 158.710  1.00  0.00     0.062 A 
ATOM     16  C   UNL     1     146.511 141.705 157.701  1.00  0.00     0.200 A 
ATOM     17  C   UNL     1     146.836 142.573 158.752  1.00  0.00     0.162 A 
BRANCH  14  18
ATOM     18  O   UNL     1     147.056 140.725 155.551  1.00  0.00    -0.504 OA
ATOM     19  H   UNL     1     147.483 139.811 155.459  1.00  0.00     0.293 HD
ENDBRANCH  14  18
BRANCH  16  20
ATOM     20  O   UNL     1     145.322 140.977 157.761  1.00  0.00    -0.502 OA
ATOM     21  H   UNL     1     145.226 140.065 157.330  1.00  0.00     0.293 HD
ENDBRANCH  16  20
BRANCH  17  22
ATOM     22  O   UNL     1     145.965 142.702 159.831  1.00  0.00    -0.504 OA
ATOM     23  H   UNL     1     145.078 143.185 159.742  1.00  0.00     0.293 HD
ENDBRANCH  17  22
ENDBRANCH   1  12
BRANCH   2  24
ATOM     24  O   UNL     1     151.508 142.091 158.339  1.00  0.00    -0.502 OA
ATOM     25  H   UNL     1     152.362 141.702 158.718  1.00  0.00     0.293 HD
ENDBRANCH   2  24
BRANCH   6  26
ATOM     26  O   UNL     1     154.822 146.033 157.623  1.00  0.00    -0.507 OA
ATOM     27  H   UNL     1     155.159 145.097 157.432  1.00  0.00     0.293 HD
ENDBRANCH   6  26
BRANCH   8  28
ATOM     28  O   UNL     1     151.896 149.474 155.926  1.00  0.00    -0.508 OA
ATOM     29  H   UNL     1     151.038 149.763 155.471  1.00  0.00     0.293 HD
ENDBRANCH   8  28
TORSDOF 7
ENDMDL
MODEL 9
REMARK VINA RESULT:    -5.503      6.741      7.599
REMARK INTER + INTRA:          -7.095
REMARK INTER:                  -6.764
REMARK INTRA:                  -0.330
REMARK UNBOUND:                -0.305
REMARK SMILES O=c1c(O)c(-c2cc(O)c(O)c(O)c2)oc2cc(O)cc(O)c12
REMARK SMILES IDX 5 1 3 2 2 3 1 4 23 5 21 6 20 7 18 8 17 9 16 10 15 11 6 12
REMARK SMILES IDX 7 13 8 14 14 15 10 16 12 17 9 18 11 20 13 22 4 24 22 26
REMARK SMILES IDX 19 28
REMARK H PARENT 9 19 11 21 13 23 4 25 22 27 19 29
REMARK Flexibility Score: inf
ROOT
ATOM      1  C   UNL     1     151.651 150.144 157.606  1.00  0.00     0.180 A 
ATOM      2  C   UNL     1     152.206 151.380 157.993  1.00  0.00     0.208 A 
ATOM      3  C   UNL     1     151.427 152.541 157.876  1.00  0.00     0.238 A 
ATOM      4  O   UNL     1     151.911 153.651 158.229  1.00  0.00    -0.285 OA
ATOM      5  C   UNL     1     150.118 152.453 157.359  1.00  0.00     0.111 A 
ATOM      6  C   UNL     1     149.270 153.576 157.205  1.00  0.00     0.134 A 
ATOM      7  C   UNL     1     147.982 153.407 156.672  1.00  0.00     0.093 A 
ATOM      8  C   UNL     1     147.529 152.142 156.291  1.00  0.00     0.123 A 
ATOM      9  C   UNL     1     148.363 151.029 156.441  1.00  0.00     0.094 A 
ATOM     10  C   UNL     1     149.648 151.176 156.971  1.00  0.00     0.146 A 
ATOM     11  O   UNL     1     150.418 150.102 157.108  1.00  0.00    -0.452 OA
ENDROOT
BRANCH   1  12
ATOM     12  C   UNL     1     152.402 148.874 157.717  1.00  0.00     0.029 A 
ATOM     13  C   UNL     1     153.320 148.525 156.715  1.00  0.00     0.062 A 
ATOM     14  C   UNL     1     154.030 147.318 156.785  1.00  0.00     0.162 A 
ATOM     15  C   UNL     1     152.174 147.979 158.776  1.00  0.00     0.062 A 
ATOM     16  C   UNL     1     153.810 146.439 157.859  1.00  0.00     0.200 A 
ATOM     17  C   UNL     1     152.879 146.770 158.851  1.00  0.00     0.162 A 
BRANCH  14  18
ATOM     18  O   UNL     1     154.950 146.990 155.790  1.00  0.00    -0.504 OA
ATOM     19  H   UNL     1     154.655 146.766 154.847  1.00  0.00     0.293 HD
ENDBRANCH  14  18
BRANCH  16  20
ATOM     20  O   UNL     1     154.506 145.234 157.952  1.00  0.00    -0.502 OA
ATOM     21  H   UNL     1     154.701 144.660 157.140  1.00  0.00     0.293 HD
ENDBRANCH  16  20
BRANCH  17  22
ATOM     22  O   UNL     1     152.655 145.888 159.906  1.00  0.00    -0.504 OA
ATOM     23  H   UNL     1     153.251 145.083 160.059  1.00  0.00     0.293 HD
ENDBRANCH  17  22
ENDBRANCH   1  12
BRANCH   2  24
ATOM     24  O   UNL     1     153.523 151.447 158.456  1.00  0.00    -0.502 OA
ATOM     25  H   UNL     1     154.210 152.071 158.051  1.00  0.00     0.293 HD
ENDBRANCH   2  24
BRANCH   6  26
ATOM     26  O   UNL     1     149.693 154.852 157.574  1.00  0.00    -0.507 OA
ATOM     27  H   UNL     1     149.242 155.687 157.219  1.00  0.00     0.293 HD
ENDBRANCH   6  26
BRANCH   8  28
ATOM     28  O   UNL     1     146.247 152.001 155.765  1.00  0.00    -0.508 OA
ATOM     29  H   UNL     1     145.520 151.505 156.266  1.00  0.00     0.293 HD
ENDBRANCH   8  28
TORSDOF 7
ENDMDL
