MODEL 1
REMARK VINA RESULT:     3.004      0.000      0.000
REMARK INTER + INTRA:           4.009
REMARK INTER:                   3.443
REMARK INTRA:                   0.566
REMARK UNBOUND:                 0.566
REMARK SMILES CC(C)[C@H]([NH3+])C(=O)[O-]
REMARK SMILES IDX 4 1 5 2 6 6 7 7 8 8 2 9 1 10 3 11
REMARK H PARENT 5 3 5 4 5 5
REMARK Flexibility Score: inf
ROOT
ATOM      1  C   UNL     1       2.317  -0.306  -6.579  1.00  0.00     0.230 C 
ENDROOT
BRANCH   1   2
ATOM      2  N   UNL     1       3.770  -0.107  -6.475  1.00  0.00    -0.350 N 
ATOM      3  H   UNL     1       4.271  -0.747  -7.131  1.00  0.00     0.345 HD
ATOM      4  H   UNL     1       4.020   0.871  -6.748  1.00  0.00     0.345 HD
ATOM      5  H   UNL     1       4.098  -0.282  -5.497  1.00  0.00     0.345 HD
ENDBRANCH   1   2
BRANCH   1   6
ATOM      6  C   UNL     1       1.859   0.046  -7.972  1.00  0.00     0.099 C 
ATOM      7  O   UNL     1       0.694  -0.244  -8.354  1.00  0.00    -0.544 OA
ATOM      8  O   UNL     1       2.727   0.689  -8.847  1.00  0.00    -0.544 OA
ENDBRANCH   1   6
BRANCH   1   9
ATOM      9  C   UNL     1       1.538   0.523  -5.512  1.00  0.00     0.047 C 
ATOM     10  C   UNL     1       0.399   1.342  -6.140  1.00  0.00     0.014 C 
ATOM     11  C   UNL     1       2.480   1.473  -4.748  1.00  0.00     0.014 C 
ENDBRANCH   1   9
TORSDOF 3
ENDMDL
MODEL 2
REMARK VINA RESULT:     3.945      6.958      7.768
REMARK INTER + INTRA:           5.087
REMARK INTER:                   5.134
REMARK INTRA:                  -0.047
REMARK UNBOUND:                 0.566
REMARK SMILES CC(C)[C@H]([NH3+])C(=O)[O-]
REMARK SMILES IDX 4 1 5 2 6 6 7 7 8 8 2 9 1 10 3 11
REMARK H PARENT 5 3 5 4 5 5
REMARK Flexibility Score: inf
ROOT
ATOM      1  C   UNL     1      -2.897   5.501  -4.194  1.00  0.00     0.230 C 
ENDROOT
BRANCH   1   2
ATOM      2  N   UNL     1      -3.042   5.380  -5.653  1.00  0.00    -0.350 N 
ATOM      3  H   UNL     1      -4.038   5.187  -5.902  1.00  0.00     0.345 HD
ATOM      4  H   UNL     1      -2.778   6.280  -6.116  1.00  0.00     0.345 HD
ATOM      5  H   UNL     1      -2.433   4.615  -6.022  1.00  0.00     0.345 HD
ENDBRANCH   1   2
BRANCH   1   6
ATOM      6  C   UNL     1      -2.177   6.785  -3.865  1.00  0.00     0.099 C 
ATOM      7  O   UNL     1      -1.771   7.007  -2.692  1.00  0.00    -0.544 OA
ATOM      8  O   UNL     1      -1.961   7.735  -4.855  1.00  0.00    -0.544 OA
ENDBRANCH   1   6
BRANCH   1   9
ATOM      9  C   UNL     1      -2.156   4.274  -3.579  1.00  0.00     0.047 C 
ATOM     10  C   UNL     1      -1.878   3.187  -4.630  1.00  0.00     0.014 C 
ATOM     11  C   UNL     1      -2.962   3.660  -2.420  1.00  0.00     0.014 C 
ENDBRANCH   1   9
TORSDOF 3
ENDMDL
MODEL 3
REMARK VINA RESULT:     4.297      5.889      6.667
REMARK INTER + INTRA:           5.491
REMARK INTER:                   5.250
REMARK INTRA:                   0.240
REMARK UNBOUND:                 0.566
REMARK SMILES CC(C)[C@H]([NH3+])C(=O)[O-]
REMARK SMILES IDX 4 1 5 2 6 6 7 7 8 8 2 9 1 10 3 11
REMARK H PARENT 5 3 5 4 5 5
REMARK Flexibility Score: inf
ROOT
ATOM      1  C   UNL     1      -2.305   4.717  -4.761  1.00  0.00     0.230 C 
ENDROOT
BRANCH   1   2
ATOM      2  N   UNL     1      -3.508   4.988  -5.563  1.00  0.00    -0.350 N 
ATOM      3  H   UNL     1      -3.935   4.092  -5.888  1.00  0.00     0.345 HD
ATOM      4  H   UNL     1      -4.226   5.477  -4.981  1.00  0.00     0.345 HD
ATOM      5  H   UNL     1      -3.274   5.585  -6.389  1.00  0.00     0.345 HD
ENDBRANCH   1   2
BRANCH   1   6
ATOM      6  C   UNL     1      -2.086   3.228  -4.670  1.00  0.00     0.099 C 
ATOM      7  O   UNL     1      -2.772   2.529  -3.876  1.00  0.00    -0.544 OA
ATOM      8  O   UNL     1      -1.119   2.617  -5.459  1.00  0.00    -0.544 OA
ENDBRANCH   1   6
BRANCH   1   9
ATOM      9  C   UNL     1      -2.398   5.354  -3.340  1.00  0.00     0.047 C 
ATOM     10  C   UNL     1      -2.201   6.878  -3.380  1.00  0.00     0.014 C 
ATOM     11  C   UNL     1      -1.361   4.737  -2.384  1.00  0.00     0.014 C 
ENDBRANCH   1   9
TORSDOF 3
ENDMDL
MODEL 4
REMARK VINA RESULT:     4.658      2.431      3.144
REMARK INTER + INTRA:           5.905
REMARK INTER:                   5.157
REMARK INTRA:                   0.748
REMARK UNBOUND:                 0.566
REMARK SMILES CC(C)[C@H]([NH3+])C(=O)[O-]
REMARK SMILES IDX 4 1 5 2 6 6 7 7 8 8 2 9 1 10 3 11
REMARK H PARENT 5 3 5 4 5 5
REMARK Flexibility Score: inf
ROOT
ATOM      1  C   UNL     1       2.763   0.655  -6.329  1.00  0.00     0.230 C 
ENDROOT
BRANCH   1   2
ATOM      2  N   UNL     1       3.890  -0.289  -6.378  1.00  0.00    -0.350 N 
ATOM      3  H   UNL     1       3.574  -1.244  -6.096  1.00  0.00     0.345 HD
ATOM      4  H   UNL     1       4.256  -0.362  -7.355  1.00  0.00     0.345 HD
ATOM      5  H   UNL     1       4.662   0.026  -5.747  1.00  0.00     0.345 HD
ENDBRANCH   1   2
BRANCH   1   6
ATOM      6  C   UNL     1       2.523   1.079  -4.902  1.00  0.00     0.099 C 
ATOM      7  O   UNL     1       3.179   0.556  -3.962  1.00  0.00    -0.544 OA
ATOM      8  O   UNL     1       1.568   2.047  -4.615  1.00  0.00    -0.544 OA
ENDBRANCH   1   6
BRANCH   1   9
ATOM      9  C   UNL     1       1.469   0.049  -6.955  1.00  0.00     0.047 C 
ATOM     10  C   UNL     1       1.549  -0.016  -8.488  1.00  0.00     0.014 C 
ATOM     11  C   UNL     1       0.222   0.856  -6.549  1.00  0.00     0.014 C 
ENDBRANCH   1   9
TORSDOF 3
ENDMDL
MODEL 5
REMARK VINA RESULT:     4.701      6.665      7.487
REMARK INTER + INTRA:           5.954
REMARK INTER:                   5.892
REMARK INTRA:                   0.062
REMARK UNBOUND:                 0.566
REMARK SMILES CC(C)[C@H]([NH3+])C(=O)[O-]
REMARK SMILES IDX 4 1 5 2 6 6 7 7 8 8 2 9 1 10 3 11
REMARK H PARENT 5 3 5 4 5 5
REMARK Flexibility Score: inf
ROOT
ATOM      1  C   UNL     1      -1.977   4.145  -2.946  1.00  0.00     0.230 C 
ENDROOT
BRANCH   1   2
ATOM      2  N   UNL     1      -3.363   4.073  -2.460  1.00  0.00    -0.350 N 
ATOM      3  H   UNL     1      -4.018   3.914  -3.258  1.00  0.00     0.345 HD
ATOM      4  H   UNL     1      -3.473   3.264  -1.806  1.00  0.00     0.345 HD
ATOM      5  H   UNL     1      -3.625   4.953  -1.960  1.00  0.00     0.345 HD
ENDBRANCH   1   2
BRANCH   1   6
ATOM      6  C   UNL     1      -1.275   5.309  -2.293  1.00  0.00     0.099 C 
ATOM      7  O   UNL     1      -1.579   6.493  -2.601  1.00  0.00    -0.544 OA
ATOM      8  O   UNL     1      -0.280   5.082  -1.350  1.00  0.00    -0.544 OA
ENDBRANCH   1   6
BRANCH   1   9
ATOM      9  C   UNL     1      -1.911   4.257  -4.500  1.00  0.00     0.047 C 
ATOM     10  C   UNL     1      -3.120   5.015  -5.073  1.00  0.00     0.014 C 
ATOM     11  C   UNL     1      -1.832   2.866  -5.156  1.00  0.00     0.014 C 
ENDBRANCH   1   9
TORSDOF 3
ENDMDL
MODEL 6
REMARK VINA RESULT:     4.702      5.575      6.431
REMARK INTER + INTRA:           5.955
REMARK INTER:                   5.342
REMARK INTRA:                   0.613
REMARK UNBOUND:                 0.566
REMARK SMILES CC(C)[C@H]([NH3+])C(=O)[O-]
REMARK SMILES IDX 4 1 5 2 6 6 7 7 8 8 2 9 1 10 3 11
REMARK H PARENT 5 3 5 4 5 5
REMARK Flexibility Score: inf
ROOT
ATOM      1  C   UNL     1      -2.304   4.154  -3.557  1.00  0.00     0.230 C 
ENDROOT
BRANCH   1   2
ATOM      2  N   UNL     1      -1.388   4.474  -2.451  1.00  0.00    -0.350 N 
ATOM      3  H   UNL     1      -1.405   5.499  -2.252  1.00  0.00     0.345 HD
ATOM      4  H   UNL     1      -1.694   3.986  -1.578  1.00  0.00     0.345 HD
ATOM      5  H   UNL     1      -0.412   4.178  -2.683  1.00  0.00     0.345 HD
ENDBRANCH   1   2
BRANCH   1   6
ATOM      6  C   UNL     1      -1.591   3.289  -4.565  1.00  0.00     0.099 C 
ATOM      7  O   UNL     1      -2.218   2.798  -5.542  1.00  0.00    -0.544 OA
ATOM      8  O   UNL     1      -0.235   3.022  -4.418  1.00  0.00    -0.544 OA
ENDBRANCH   1   6
BRANCH   1   9
ATOM      9  C   UNL     1      -2.873   5.440  -4.230  1.00  0.00     0.047 C 
ATOM     10  C   UNL     1      -2.569   5.481  -5.737  1.00  0.00     0.014 C 
ATOM     11  C   UNL     1      -2.311   6.712  -3.568  1.00  0.00     0.014 C 
ENDBRANCH   1   9
TORSDOF 3
ENDMDL
MODEL 7
REMARK VINA RESULT:     4.734      1.573      2.033
REMARK INTER + INTRA:           5.991
REMARK INTER:                   5.890
REMARK INTRA:                   0.101
REMARK UNBOUND:                 0.566
REMARK SMILES CC(C)[C@H]([NH3+])C(=O)[O-]
REMARK SMILES IDX 4 1 5 2 6 6 7 7 8 8 2 9 1 10 3 11
REMARK H PARENT 5 3 5 4 5 5
REMARK Flexibility Score: inf
ROOT
ATOM      1  C   UNL     1       1.614   0.828  -7.020  1.00  0.00     0.230 C 
ENDROOT
BRANCH   1   2
ATOM      2  N   UNL     1       0.225   1.005  -6.570  1.00  0.00    -0.350 N 
ATOM      3  H   UNL     1      -0.169   1.893  -6.953  1.00  0.00     0.345 HD
ATOM      4  H   UNL     1      -0.372   0.223  -6.927  1.00  0.00     0.345 HD
ATOM      5  H   UNL     1       0.175   1.021  -5.525  1.00  0.00     0.345 HD
ENDBRANCH   1   2
BRANCH   1   6
ATOM      6  C   UNL     1       1.622   0.169  -8.377  1.00  0.00     0.099 C 
ATOM      7  O   UNL     1       0.756  -0.697  -8.672  1.00  0.00    -0.544 OA
ATOM      8  O   UNL     1       2.595   0.511  -9.310  1.00  0.00    -0.544 OA
ENDBRANCH   1   6
BRANCH   1   9
ATOM      9  C   UNL     1       2.456   0.005  -5.997  1.00  0.00     0.047 C 
ATOM     10  C   UNL     1       2.508   0.684  -4.619  1.00  0.00     0.014 C 
ATOM     11  C   UNL     1       3.893  -0.212  -6.506  1.00  0.00     0.014 C 
ENDBRANCH   1   9
TORSDOF 3
ENDMDL
MODEL 8
REMARK VINA RESULT:     4.948      2.406      3.473
REMARK INTER + INTRA:           6.237
REMARK INTER:                   5.923
REMARK INTRA:                   0.314
REMARK UNBOUND:                 0.566
REMARK SMILES CC(C)[C@H]([NH3+])C(=O)[O-]
REMARK SMILES IDX 4 1 5 2 6 6 7 7 8 8 2 9 1 10 3 11
REMARK H PARENT 5 3 5 4 5 5
REMARK Flexibility Score: inf
ROOT
ATOM      1  C   UNL     1       1.546   0.025  -6.618  1.00  0.00     0.230 C 
ENDROOT
BRANCH   1   2
ATOM      2  N   UNL     1       0.605   1.154  -6.550  1.00  0.00    -0.350 N 
ATOM      3  H   UNL     1       1.067   2.030  -6.883  1.00  0.00     0.345 HD
ATOM      4  H   UNL     1      -0.212   0.979  -7.179  1.00  0.00     0.345 HD
ATOM      5  H   UNL     1       0.261   1.289  -5.572  1.00  0.00     0.345 HD
ENDBRANCH   1   2
BRANCH   1   6
ATOM      6  C   UNL     1       2.745   0.317  -5.751  1.00  0.00     0.099 C 
ATOM      7  O   UNL     1       3.860  -0.213  -6.004  1.00  0.00    -0.544 OA
ATOM      8  O   UNL     1       2.624   1.170  -4.661  1.00  0.00    -0.544 OA
ENDBRANCH   1   6
BRANCH   1   9
ATOM      9  C   UNL     1       1.981  -0.282  -8.084  1.00  0.00     0.047 C 
ATOM     10  C   UNL     1       2.946   0.783  -8.631  1.00  0.00     0.014 C 
ATOM     11  C   UNL     1       0.761  -0.384  -9.018  1.00  0.00     0.014 C 
ENDBRANCH   1   9
TORSDOF 3
ENDMDL
MODEL 9
REMARK VINA RESULT:     5.065      5.130      5.979
REMARK INTER + INTRA:           6.371
REMARK INTER:                   6.421
REMARK INTRA:                  -0.050
REMARK UNBOUND:                 0.566
REMARK SMILES CC(C)[C@H]([NH3+])C(=O)[O-]
REMARK SMILES IDX 4 1 5 2 6 6 7 7 8 8 2 9 1 10 3 11
REMARK H PARENT 5 3 5 4 5 5
REMARK Flexibility Score: inf
ROOT
ATOM      1  C   UNL     1      -2.513   3.369  -4.436  1.00  0.00     0.230 C 
ENDROOT
BRANCH   1   2
ATOM      2  N   UNL     1      -3.062   2.456  -3.422  1.00  0.00    -0.350 N 
ATOM      3  H   UNL     1      -3.528   2.998  -2.661  1.00  0.00     0.345 HD
ATOM      4  H   UNL     1      -3.788   1.837  -3.850  1.00  0.00     0.345 HD
ATOM      5  H   UNL     1      -2.305   1.860  -3.014  1.00  0.00     0.345 HD
ENDBRANCH   1   2
BRANCH   1   6
ATOM      6  C   UNL     1      -1.416   2.671  -5.201  1.00  0.00     0.099 C 
ATOM      7  O   UNL     1      -1.677   2.047  -6.264  1.00  0.00    -0.544 OA
ATOM      8  O   UNL     1      -0.109   2.708  -4.732  1.00  0.00    -0.544 OA
ENDBRANCH   1   6
BRANCH   1   9
ATOM      9  C   UNL     1      -1.992   4.696  -3.803  1.00  0.00     0.047 C 
ATOM     10  C   UNL     1      -1.995   4.638  -2.267  1.00  0.00     0.014 C 
ATOM     11  C   UNL     1      -2.832   5.901  -4.263  1.00  0.00     0.014 C 
ENDBRANCH   1   9
TORSDOF 3
ENDMDL
