MODEL 1
REMARK VINA RESULT:    -4.224      0.000      0.000
REMARK INTER + INTRA:          -4.623
REMARK INTER:                  -4.471
REMARK INTRA:                  -0.153
REMARK UNBOUND:                -0.153
REMARK SMILES CC(C)[C@@H]1CC[C@@H](C)CC1=O
REMARK SMILES IDX 8 1 7 2 6 3 5 4 4 5 10 6 11 7 9 8 2 9 1 10 3 11
REMARK H PARENT
REMARK Flexibility Score: inf
ROOT
ATOM      1  C   UNL     1       7.314  -1.736   2.846  1.00  0.00     0.008 C 
ATOM      2  C   UNL     1       7.205  -2.805   1.754  1.00  0.00    -0.007 C 
ATOM      3  C   UNL     1       7.168  -4.215   2.377  1.00  0.00     0.004 C 
ATOM      4  C   UNL     1       7.021  -5.288   1.289  1.00  0.00     0.012 C 
ATOM      5  C   UNL     1       8.189  -5.232   0.278  1.00  0.00     0.058 C 
ATOM      6  C   UNL     1       8.345  -3.809  -0.238  1.00  0.00     0.136 C 
ATOM      7  O   UNL     1       8.552  -3.572  -1.418  1.00  0.00    -0.299 OA
ATOM      8  C   UNL     1       8.370  -2.679   0.755  1.00  0.00     0.079 C 
ENDROOT
BRANCH   5   9
ATOM      9  C   UNL     1       8.062  -6.346  -0.810  1.00  0.00    -0.007 C 
ATOM     10  C   UNL     1       9.399  -6.986  -1.224  1.00  0.00     0.008 C 
ATOM     11  C   UNL     1       7.047  -7.429  -0.408  1.00  0.00     0.008 C 
ENDBRANCH   5   9
TORSDOF 1
ENDMDL
MODEL 2
REMARK VINA RESULT:    -4.151      8.680      9.843
REMARK INTER + INTRA:          -4.546
REMARK INTER:                  -4.370
REMARK INTRA:                  -0.176
REMARK UNBOUND:                -0.153
REMARK SMILES CC(C)[C@@H]1CC[C@@H](C)CC1=O
REMARK SMILES IDX 8 1 7 2 6 3 5 4 4 5 10 6 11 7 9 8 2 9 1 10 3 11
REMARK H PARENT
REMARK Flexibility Score: inf
ROOT
ATOM      1  C   UNL     1      12.104   4.426  -5.168  1.00  0.00     0.008 C 
ATOM      2  C   UNL     1      11.513   3.163  -5.804  1.00  0.00    -0.007 C 
ATOM      3  C   UNL     1      10.456   3.534  -6.864  1.00  0.00     0.004 C 
ATOM      4  C   UNL     1       9.888   2.274  -7.531  1.00  0.00     0.012 C 
ATOM      5  C   UNL     1       9.230   1.334  -6.494  1.00  0.00     0.058 C 
ATOM      6  C   UNL     1      10.205   1.075  -5.354  1.00  0.00     0.136 C 
ATOM      7  O   UNL     1      10.351  -0.038  -4.874  1.00  0.00    -0.299 OA
ATOM      8  C   UNL     1      10.907   2.247  -4.725  1.00  0.00     0.079 C 
ENDROOT
BRANCH   5   9
ATOM      9  C   UNL     1       8.619   0.067  -7.175  1.00  0.00    -0.007 C 
ATOM     10  C   UNL     1       7.146   0.219  -7.594  1.00  0.00     0.008 C 
ATOM     11  C   UNL     1       9.470  -0.416  -8.361  1.00  0.00     0.008 C 
ENDBRANCH   5   9
TORSDOF 1
ENDMDL
MODEL 3
REMARK VINA RESULT:    -4.086      1.697      4.515
REMARK INTER + INTRA:          -4.477
REMARK INTER:                  -4.312
REMARK INTRA:                  -0.165
REMARK UNBOUND:                -0.153
REMARK SMILES CC(C)[C@@H]1CC[C@@H](C)CC1=O
REMARK SMILES IDX 8 1 7 2 6 3 5 4 4 5 10 6 11 7 9 8 2 9 1 10 3 11
REMARK H PARENT
REMARK Flexibility Score: inf
ROOT
ATOM      1  C   UNL     1       9.424  -4.990  -2.141  1.00  0.00     0.008 C 
ATOM      2  C   UNL     1       8.528  -4.400  -1.046  1.00  0.00    -0.007 C 
ATOM      3  C   UNL     1       9.293  -3.334  -0.236  1.00  0.00     0.004 C 
ATOM      4  C   UNL     1       8.388  -2.713   0.838  1.00  0.00     0.012 C 
ATOM      5  C   UNL     1       7.859  -3.784   1.819  1.00  0.00     0.058 C 
ATOM      6  C   UNL     1       7.233  -4.927   1.033  1.00  0.00     0.136 C 
ATOM      7  O   UNL     1       6.182  -5.444   1.377  1.00  0.00    -0.299 OA
ATOM      8  C   UNL     1       7.998  -5.513  -0.123  1.00  0.00     0.079 C 
ENDROOT
BRANCH   5   9
ATOM      9  C   UNL     1       6.967  -3.150   2.934  1.00  0.00    -0.007 C 
ATOM     10  C   UNL     1       7.334  -3.586   4.365  1.00  0.00     0.008 C 
ATOM     11  C   UNL     1       6.922  -1.617   2.833  1.00  0.00     0.008 C 
ENDBRANCH   5   9
TORSDOF 1
ENDMDL
MODEL 4
REMARK VINA RESULT:    -4.001      9.252     10.604
REMARK INTER + INTRA:          -4.388
REMARK INTER:                  -4.219
REMARK INTRA:                  -0.169
REMARK UNBOUND:                -0.153
REMARK SMILES CC(C)[C@@H]1CC[C@@H](C)CC1=O
REMARK SMILES IDX 8 1 7 2 6 3 5 4 4 5 10 6 11 7 9 8 2 9 1 10 3 11
REMARK H PARENT
REMARK Flexibility Score: inf
ROOT
ATOM      1  C   UNL     1       5.419   0.928 -10.301  1.00  0.00     0.008 C 
ATOM      2  C   UNL     1       6.699   0.604  -9.523  1.00  0.00    -0.007 C 
ATOM      3  C   UNL     1       6.376   0.316  -8.043  1.00  0.00     0.004 C 
ATOM      4  C   UNL     1       7.650  -0.046  -7.268  1.00  0.00     0.012 C 
ATOM      5  C   UNL     1       8.690   1.096  -7.326  1.00  0.00     0.058 C 
ATOM      6  C   UNL     1       8.913   1.506  -8.775  1.00  0.00     0.136 C 
ATOM      7  O   UNL     1      10.029   1.734  -9.214  1.00  0.00    -0.299 OA
ATOM      8  C   UNL     1       7.713   1.756  -9.647  1.00  0.00     0.079 C 
ENDROOT
BRANCH   5   9
ATOM      9  C   UNL     1       9.975   0.745  -6.508  1.00  0.00    -0.007 C 
ATOM     10  C   UNL     1      10.239   1.678  -5.311  1.00  0.00     0.008 C 
ATOM     11  C   UNL     1       9.987  -0.725  -6.059  1.00  0.00     0.008 C 
ENDBRANCH   5   9
TORSDOF 1
ENDMDL
MODEL 5
REMARK VINA RESULT:    -3.974      9.890     11.328
REMARK INTER + INTRA:          -4.358
REMARK INTER:                  -4.182
REMARK INTRA:                  -0.176
REMARK UNBOUND:                -0.153
REMARK SMILES CC(C)[C@@H]1CC[C@@H](C)CC1=O
REMARK SMILES IDX 8 1 7 2 6 3 5 4 4 5 10 6 11 7 9 8 2 9 1 10 3 11
REMARK H PARENT
REMARK Flexibility Score: inf
ROOT
ATOM      1  C   UNL     1       5.700  -0.610  -8.516  1.00  0.00     0.008 C 
ATOM      2  C   UNL     1       7.129  -0.064  -8.600  1.00  0.00    -0.007 C 
ATOM      3  C   UNL     1       7.651   0.306  -7.196  1.00  0.00     0.004 C 
ATOM      4  C   UNL     1       9.096   0.819  -7.271  1.00  0.00     0.012 C 
ATOM      5  C   UNL     1       9.207   2.067  -8.176  1.00  0.00     0.058 C 
ATOM      6  C   UNL     1       8.558   1.777  -9.521  1.00  0.00     0.136 C 
ATOM      7  O   UNL     1       9.071   2.129 -10.572  1.00  0.00    -0.299 OA
ATOM      8  C   UNL     1       7.189   1.152  -9.543  1.00  0.00     0.079 C 
ENDROOT
BRANCH   5   9
ATOM      9  C   UNL     1      10.670   2.613  -8.225  1.00  0.00    -0.007 C 
ATOM     10  C   UNL     1      10.991   3.668  -7.150  1.00  0.00     0.008 C 
ATOM     11  C   UNL     1      11.708   1.480  -8.194  1.00  0.00     0.008 C 
ENDBRANCH   5   9
TORSDOF 1
ENDMDL
MODEL 6
REMARK VINA RESULT:    -3.950      1.847      2.644
REMARK INTER + INTRA:          -4.333
REMARK INTER:                  -4.172
REMARK INTRA:                  -0.161
REMARK UNBOUND:                -0.153
REMARK SMILES CC(C)[C@@H]1CC[C@@H](C)CC1=O
REMARK SMILES IDX 8 1 7 2 6 3 5 4 4 5 10 6 11 7 9 8 2 9 1 10 3 11
REMARK H PARENT
REMARK Flexibility Score: inf
ROOT
ATOM      1  C   UNL     1       7.759  -1.629   2.934  1.00  0.00     0.008 C 
ATOM      2  C   UNL     1       8.003  -3.019   2.337  1.00  0.00    -0.007 C 
ATOM      3  C   UNL     1       7.611  -3.045   0.846  1.00  0.00     0.004 C 
ATOM      4  C   UNL     1       7.889  -4.425   0.235  1.00  0.00     0.012 C 
ATOM      5  C   UNL     1       7.100  -5.536   0.965  1.00  0.00     0.058 C 
ATOM      6  C   UNL     1       7.350  -5.434   2.463  1.00  0.00     0.136 C 
ATOM      7  O   UNL     1       7.546  -6.424   3.150  1.00  0.00    -0.299 OA
ATOM      8  C   UNL     1       7.226  -4.089   3.126  1.00  0.00     0.079 C 
ENDROOT
BRANCH   5   9
ATOM      9  C   UNL     1       7.352  -6.938   0.322  1.00  0.00    -0.007 C 
ATOM     10  C   UNL     1       6.088  -7.803   0.169  1.00  0.00     0.008 C 
ATOM     11  C   UNL     1       8.097  -6.829  -1.019  1.00  0.00     0.008 C 
ENDBRANCH   5   9
TORSDOF 1
ENDMDL
MODEL 7
REMARK VINA RESULT:    -3.945      1.005      4.298
REMARK INTER + INTRA:          -4.328
REMARK INTER:                  -4.199
REMARK INTRA:                  -0.129
REMARK UNBOUND:                -0.153
REMARK SMILES CC(C)[C@@H]1CC[C@@H](C)CC1=O
REMARK SMILES IDX 8 1 7 2 6 3 5 4 4 5 10 6 11 7 9 8 2 9 1 10 3 11
REMARK H PARENT
REMARK Flexibility Score: inf
ROOT
ATOM      1  C   UNL     1       7.999  -6.895  -1.113  1.00  0.00     0.008 C 
ATOM      2  C   UNL     1       8.259  -5.735  -0.145  1.00  0.00    -0.007 C 
ATOM      3  C   UNL     1       7.152  -5.665   0.926  1.00  0.00     0.004 C 
ATOM      4  C   UNL     1       7.428  -4.529   1.920  1.00  0.00     0.012 C 
ATOM      5  C   UNL     1       7.502  -3.159   1.206  1.00  0.00     0.058 C 
ATOM      6  C   UNL     1       8.478  -3.247   0.042  1.00  0.00     0.136 C 
ATOM      7  O   UNL     1       9.279  -2.356  -0.193  1.00  0.00    -0.299 OA
ATOM      8  C   UNL     1       8.362  -4.404  -0.913  1.00  0.00     0.079 C 
ENDROOT
BRANCH   5   9
ATOM      9  C   UNL     1       7.746  -1.996   2.220  1.00  0.00    -0.007 C 
ATOM     10  C   UNL     1       6.499  -1.579   3.020  1.00  0.00     0.008 C 
ATOM     11  C   UNL     1       8.919  -2.294   3.166  1.00  0.00     0.008 C 
ENDBRANCH   5   9
TORSDOF 1
ENDMDL
MODEL 8
REMARK VINA RESULT:    -3.943      9.377     10.888
REMARK INTER + INTRA:          -4.326
REMARK INTER:                  -4.212
REMARK INTRA:                  -0.114
REMARK UNBOUND:                -0.153
REMARK SMILES CC(C)[C@@H]1CC[C@@H](C)CC1=O
REMARK SMILES IDX 8 1 7 2 6 3 5 4 4 5 10 6 11 7 9 8 2 9 1 10 3 11
REMARK H PARENT
REMARK Flexibility Score: inf
ROOT
ATOM      1  C   UNL     1       5.500  -0.565  -8.335  1.00  0.00     0.008 C 
ATOM      2  C   UNL     1       6.700   0.335  -8.022  1.00  0.00    -0.007 C 
ATOM      3  C   UNL     1       7.288   0.925  -9.319  1.00  0.00     0.004 C 
ATOM      4  C   UNL     1       8.467   1.857  -9.008  1.00  0.00     0.012 C 
ATOM      5  C   UNL     1       9.595   1.110  -8.259  1.00  0.00     0.058 C 
ATOM      6  C   UNL     1       9.010   0.388  -7.053  1.00  0.00     0.136 C 
ATOM      7  O   UNL     1       9.573   0.387  -5.970  1.00  0.00    -0.299 OA
ATOM      8  C   UNL     1       7.773  -0.447  -7.242  1.00  0.00     0.079 C 
ENDROOT
BRANCH   5   9
ATOM      9  C   UNL     1      10.812   2.047  -7.972  1.00  0.00    -0.007 C 
ATOM     10  C   UNL     1      11.691   2.341  -9.202  1.00  0.00     0.008 C 
ATOM     11  C   UNL     1      10.383   3.356  -7.291  1.00  0.00     0.008 C 
ENDBRANCH   5   9
TORSDOF 1
ENDMDL
MODEL 9
REMARK VINA RESULT:    -3.911      9.445     10.509
REMARK INTER + INTRA:          -4.292
REMARK INTER:                  -4.156
REMARK INTRA:                  -0.136
REMARK UNBOUND:                -0.153
REMARK SMILES CC(C)[C@@H]1CC[C@@H](C)CC1=O
REMARK SMILES IDX 8 1 7 2 6 3 5 4 4 5 10 6 11 7 9 8 2 9 1 10 3 11
REMARK H PARENT
REMARK Flexibility Score: inf
ROOT
ATOM      1  C   UNL     1      11.162   3.267  -6.936  1.00  0.00     0.008 C 
ATOM      2  C   UNL     1       9.866   2.577  -7.375  1.00  0.00    -0.007 C 
ATOM      3  C   UNL     1       9.567   1.363  -6.472  1.00  0.00     0.004 C 
ATOM      4  C   UNL     1       8.249   0.691  -6.884  1.00  0.00     0.012 C 
ATOM      5  C   UNL     1       8.297   0.206  -8.351  1.00  0.00     0.058 C 
ATOM      6  C   UNL     1       8.742   1.352  -9.249  1.00  0.00     0.136 C 
ATOM      7  O   UNL     1       8.208   1.570 -10.324  1.00  0.00    -0.299 OA
ATOM      8  C   UNL     1       9.954   2.151  -8.852  1.00  0.00     0.079 C 
ENDROOT
BRANCH   5   9
ATOM      9  C   UNL     1       6.971  -0.511  -8.762  1.00  0.00    -0.007 C 
ATOM     10  C   UNL     1       6.846  -1.958  -8.250  1.00  0.00     0.008 C 
ATOM     11  C   UNL     1       5.730   0.307  -8.373  1.00  0.00     0.008 C 
ENDBRANCH   5   9
TORSDOF 1
ENDMDL
