MODEL 1
REMARK VINA RESULT:    -4.933      0.000      0.000
REMARK INTER + INTRA:          -5.996
REMARK INTER:                  -5.654
REMARK INTRA:                  -0.342
REMARK UNBOUND:                -0.342
REMARK SMILES COc1ccc(C(C)=O)c(O)c1
REMARK SMILES IDX 6 1 10 2 12 3 3 4 4 5 5 6 7 7 8 8 9 9 11 10 2 12 1 13
REMARK H PARENT 11 11
REMARK Flexibility Score: inf
ROOT
ATOM      1  C   UNL     1      13.440  22.251  -2.268  1.00  0.00     0.059 A 
ATOM      2  C   UNL     1      12.964  21.252  -1.388  1.00  0.00     0.130 A 
ATOM      3  C   UNL     1      12.231  20.164  -1.888  1.00  0.00     0.093 A 
ATOM      4  C   UNL     1      11.954  20.052  -3.253  1.00  0.00     0.122 A 
ATOM      5  C   UNL     1      12.422  21.044  -4.130  1.00  0.00     0.047 A 
ATOM      6  C   UNL     1      13.155  22.129  -3.643  1.00  0.00     0.019 A 
ENDROOT
BRANCH   1   7
ATOM      7  C   UNL     1      14.231  23.411  -1.766  1.00  0.00     0.163 C 
ATOM      8  C   UNL     1      13.902  24.821  -2.160  1.00  0.00     0.093 C 
ATOM      9  O   UNL     1      15.223  23.223  -1.011  1.00  0.00    -0.294 OA
ENDBRANCH   1   7
BRANCH   2  10
ATOM     10  O   UNL     1      13.207  21.336  -0.017  1.00  0.00    -0.507 OA
ATOM     11  H   UNL     1      12.504  21.079   0.667  1.00  0.00     0.293 HD
ENDBRANCH   2  10
BRANCH   4  12
ATOM     12  O   UNL     1      11.216  18.945  -3.694  1.00  0.00    -0.497 OA
ATOM     13  C   UNL     1      10.540  18.875  -4.946  1.00  0.00     0.278 C 
ENDBRANCH   4  12
TORSDOF 3
ENDMDL
MODEL 2
REMARK VINA RESULT:    -4.899      1.616      4.945
REMARK INTER + INTRA:          -5.957
REMARK INTER:                  -5.617
REMARK INTRA:                  -0.340
REMARK UNBOUND:                -0.342
REMARK SMILES COc1ccc(C(C)=O)c(O)c1
REMARK SMILES IDX 6 1 10 2 12 3 3 4 4 5 5 6 7 7 8 8 9 9 11 10 2 12 1 13
REMARK H PARENT 11 11
REMARK Flexibility Score: inf
ROOT
ATOM      1  C   UNL     1      12.370  20.775  -3.068  1.00  0.00     0.059 A 
ATOM      2  C   UNL     1      12.960  21.857  -3.761  1.00  0.00     0.130 A 
ATOM      3  C   UNL     1      13.252  23.052  -3.084  1.00  0.00     0.093 A 
ATOM      4  C   UNL     1      12.964  23.196  -1.725  1.00  0.00     0.122 A 
ATOM      5  C   UNL     1      12.375  22.125  -1.033  1.00  0.00     0.047 A 
ATOM      6  C   UNL     1      12.083  20.931  -1.696  1.00  0.00     0.019 A 
ENDROOT
BRANCH   1   7
ATOM      7  C   UNL     1      12.059  19.491  -3.759  1.00  0.00     0.163 C 
ATOM      8  C   UNL     1      10.691  18.877  -3.704  1.00  0.00     0.093 C 
ATOM      9  O   UNL     1      12.961  18.875  -4.388  1.00  0.00    -0.294 OA
ENDBRANCH   1   7
BRANCH   2  10
ATOM     10  O   UNL     1      13.249  21.758  -5.122  1.00  0.00    -0.507 OA
ATOM     11  H   UNL     1      12.519  21.656  -5.818  1.00  0.00     0.293 HD
ENDBRANCH   2  10
BRANCH   4  12
ATOM     12  O   UNL     1      13.277  24.413  -1.103  1.00  0.00    -0.497 OA
ATOM     13  C   UNL     1      14.441  25.184  -1.384  1.00  0.00     0.278 C 
ENDBRANCH   4  12
TORSDOF 3
ENDMDL
MODEL 3
REMARK VINA RESULT:    -4.854      1.338      2.182
REMARK INTER + INTRA:          -5.905
REMARK INTER:                  -5.561
REMARK INTRA:                  -0.344
REMARK UNBOUND:                -0.342
REMARK SMILES COc1ccc(C(C)=O)c(O)c1
REMARK SMILES IDX 6 1 10 2 12 3 3 4 4 5 5 6 7 7 8 8 9 9 11 10 2 12 1 13
REMARK H PARENT 11 11
REMARK Flexibility Score: inf
ROOT
ATOM      1  C   UNL     1      13.278  21.906  -1.949  1.00  0.00     0.059 A 
ATOM      2  C   UNL     1      12.908  21.979  -3.312  1.00  0.00     0.130 A 
ATOM      3  C   UNL     1      12.131  20.960  -3.885  1.00  0.00     0.093 A 
ATOM      4  C   UNL     1      11.715  19.862  -3.129  1.00  0.00     0.122 A 
ATOM      5  C   UNL     1      12.083  19.784  -1.776  1.00  0.00     0.047 A 
ATOM      6  C   UNL     1      12.854  20.794  -1.194  1.00  0.00     0.019 A 
ENDROOT
BRANCH   1   7
ATOM      7  C   UNL     1      14.094  22.979  -1.310  1.00  0.00     0.163 C 
ATOM      8  C   UNL     1      15.349  22.669  -0.549  1.00  0.00     0.093 C 
ATOM      9  O   UNL     1      13.723  24.182  -1.377  1.00  0.00    -0.294 OA
ENDBRANCH   1   7
BRANCH   2  10
ATOM     10  O   UNL     1      13.316  23.052  -4.104  1.00  0.00    -0.507 OA
ATOM     11  H   UNL     1      12.663  23.758  -4.425  1.00  0.00     0.293 HD
ENDBRANCH   2  10
BRANCH   4  12
ATOM     12  O   UNL     1      10.941  18.875  -3.756  1.00  0.00    -0.497 OA
ATOM     13  C   UNL     1      10.549  18.909  -5.125  1.00  0.00     0.278 C 
ENDBRANCH   4  12
TORSDOF 3
ENDMDL
MODEL 4
REMARK VINA RESULT:    -4.083      1.397      4.582
REMARK INTER + INTRA:          -5.021
REMARK INTER:                  -4.875
REMARK INTRA:                  -0.147
REMARK UNBOUND:                -0.342
REMARK SMILES COc1ccc(C(C)=O)c(O)c1
REMARK SMILES IDX 6 1 10 2 12 3 3 4 4 5 5 6 7 7 8 8 9 9 11 10 2 12 1 13
REMARK H PARENT 11 11
REMARK Flexibility Score: inf
ROOT
ATOM      1  C   UNL     1      12.437  20.725  -3.763  1.00  0.00     0.059 A 
ATOM      2  C   UNL     1      12.297  20.612  -2.360  1.00  0.00     0.130 A 
ATOM      3  C   UNL     1      12.568  21.714  -1.534  1.00  0.00     0.093 A 
ATOM      4  C   UNL     1      12.984  22.933  -2.076  1.00  0.00     0.122 A 
ATOM      5  C   UNL     1      13.128  23.049  -3.468  1.00  0.00     0.047 A 
ATOM      6  C   UNL     1      12.858  21.959  -4.300  1.00  0.00     0.019 A 
ENDROOT
BRANCH   1   7
ATOM      7  C   UNL     1      12.145  19.575  -4.665  1.00  0.00     0.163 C 
ATOM      8  C   UNL     1      10.741  19.192  -5.027  1.00  0.00     0.093 C 
ATOM      9  O   UNL     1      13.088  18.875  -5.125  1.00  0.00    -0.294 OA
ENDBRANCH   1   7
BRANCH   2  10
ATOM     10  O   UNL     1      11.898  19.408  -1.779  1.00  0.00    -0.507 OA
ATOM     11  H   UNL     1      11.357  19.381  -0.923  1.00  0.00     0.293 HD
ENDBRANCH   2  10
BRANCH   4  12
ATOM     12  O   UNL     1      13.242  23.998  -1.202  1.00  0.00    -0.497 OA
ATOM     13  C   UNL     1      14.249  24.983  -1.409  1.00  0.00     0.278 C 
ENDBRANCH   4  12
TORSDOF 3
ENDMDL
MODEL 5
REMARK VINA RESULT:    -3.442      1.489      4.743
REMARK INTER + INTRA:          -4.287
REMARK INTER:                  -3.954
REMARK INTRA:                  -0.333
REMARK UNBOUND:                -0.342
REMARK SMILES COc1ccc(C(C)=O)c(O)c1
REMARK SMILES IDX 6 1 10 2 12 3 3 4 4 5 5 6 7 7 8 8 9 9 11 10 2 12 1 13
REMARK H PARENT 11 11
REMARK Flexibility Score: inf
ROOT
ATOM      1  C   UNL     1      12.605  21.063  -2.513  1.00  0.00     0.059 A 
ATOM      2  C   UNL     1      12.120  22.094  -1.676  1.00  0.00     0.130 A 
ATOM      3  C   UNL     1      13.010  23.026  -1.120  1.00  0.00     0.093 A 
ATOM      4  C   UNL     1      14.381  22.952  -1.376  1.00  0.00     0.122 A 
ATOM      5  C   UNL     1      14.867  21.927  -2.204  1.00  0.00     0.047 A 
ATOM      6  C   UNL     1      13.990  20.995  -2.765  1.00  0.00     0.019 A 
ENDROOT
BRANCH   1   7
ATOM      7  C   UNL     1      11.682  20.065  -3.126  1.00  0.00     0.163 C 
ATOM      8  C   UNL     1      11.547  19.924  -4.614  1.00  0.00     0.093 C 
ATOM      9  O   UNL     1      10.966  19.330  -2.394  1.00  0.00    -0.294 OA
ENDBRANCH   1   7
BRANCH   2  10
ATOM     10  O   UNL     1      10.759  22.194  -1.384  1.00  0.00    -0.507 OA
ATOM     11  H   UNL     1      10.067  21.631  -1.865  1.00  0.00     0.293 HD
ENDBRANCH   2  10
BRANCH   4  12
ATOM     12  O   UNL     1      15.221  23.910  -0.792  1.00  0.00    -0.497 OA
ATOM     13  C   UNL     1      15.132  25.311  -1.030  1.00  0.00     0.278 C 
ENDBRANCH   4  12
TORSDOF 3
ENDMDL
MODEL 6
REMARK VINA RESULT:    -2.781      2.429      4.250
REMARK INTER + INTRA:          -3.529
REMARK INTER:                  -3.191
REMARK INTRA:                  -0.338
REMARK UNBOUND:                -0.342
REMARK SMILES COc1ccc(C(C)=O)c(O)c1
REMARK SMILES IDX 6 1 10 2 12 3 3 4 4 5 5 6 7 7 8 8 9 9 11 10 2 12 1 13
REMARK H PARENT 11 11
REMARK Flexibility Score: inf
ROOT
ATOM      1  C   UNL     1      13.544  22.949  -1.078  1.00  0.00     0.059 A 
ATOM      2  C   UNL     1      12.854  22.577  -2.255  1.00  0.00     0.130 A 
ATOM      3  C   UNL     1      12.865  23.423  -3.375  1.00  0.00     0.093 A 
ATOM      4  C   UNL     1      13.549  24.641  -3.348  1.00  0.00     0.122 A 
ATOM      5  C   UNL     1      14.233  25.016  -2.180  1.00  0.00     0.047 A 
ATOM      6  C   UNL     1      14.230  24.180  -1.061  1.00  0.00     0.019 A 
ENDROOT
BRANCH   1   7
ATOM      7  C   UNL     1      13.558  22.065   0.123  1.00  0.00     0.163 C 
ATOM      8  C   UNL     1      13.245  22.590   1.493  1.00  0.00     0.093 C 
ATOM      9  O   UNL     1      13.864  20.848   0.010  1.00  0.00    -0.294 OA
ENDBRANCH   1   7
BRANCH   2  10
ATOM     10  O   UNL     1      12.147  21.376  -2.317  1.00  0.00    -0.507 OA
ATOM     11  H   UNL     1      11.641  21.096  -3.149  1.00  0.00     0.293 HD
ENDBRANCH   2  10
BRANCH   4  12
ATOM     12  O   UNL     1      13.524  25.445  -4.496  1.00  0.00    -0.497 OA
ATOM     13  C   UNL     1      12.334  25.914  -5.125  1.00  0.00     0.278 C 
ENDBRANCH   4  12
TORSDOF 3
ENDMDL
MODEL 7
REMARK VINA RESULT:    -2.651     15.202     17.054
REMARK INTER + INTRA:          -3.380
REMARK INTER:                  -3.197
REMARK INTRA:                  -0.183
REMARK UNBOUND:                -0.342
REMARK SMILES COc1ccc(C(C)=O)c(O)c1
REMARK SMILES IDX 6 1 10 2 12 3 3 4 4 5 5 6 7 7 8 8 9 9 11 10 2 12 1 13
REMARK H PARENT 11 11
REMARK Flexibility Score: inf
ROOT
ATOM      1  C   UNL     1      20.977  22.560  12.693  1.00  0.00     0.059 A 
ATOM      2  C   UNL     1      21.065  23.966  12.574  1.00  0.00     0.130 A 
ATOM      3  C   UNL     1      21.109  24.564  11.305  1.00  0.00     0.093 A 
ATOM      4  C   UNL     1      21.073  23.788  10.144  1.00  0.00     0.122 A 
ATOM      5  C   UNL     1      20.989  22.391  10.257  1.00  0.00     0.047 A 
ATOM      6  C   UNL     1      20.942  21.786  11.515  1.00  0.00     0.019 A 
ENDROOT
BRANCH   1   7
ATOM      7  C   UNL     1      20.917  21.898  14.028  1.00  0.00     0.163 C 
ATOM      8  C   UNL     1      21.042  20.411  14.178  1.00  0.00     0.093 C 
ATOM      9  O   UNL     1      20.730  22.586  15.068  1.00  0.00    -0.294 OA
ENDBRANCH   1   7
BRANCH   2  10
ATOM     10  O   UNL     1      21.118  24.775  13.709  1.00  0.00    -0.507 OA
ATOM     11  H   UNL     1      20.343  25.370  13.979  1.00  0.00     0.293 HD
ENDBRANCH   2  10
BRANCH   4  12
ATOM     12  O   UNL     1      21.123  24.441   8.904  1.00  0.00    -0.497 OA
ATOM     13  C   UNL     1      21.071  25.855   8.736  1.00  0.00     0.278 C 
ENDBRANCH   4  12
TORSDOF 3
ENDMDL
MODEL 8
REMARK VINA RESULT:    -2.561      1.786      2.136
REMARK INTER + INTRA:          -3.277
REMARK INTER:                  -3.083
REMARK INTRA:                  -0.194
REMARK UNBOUND:                -0.342
REMARK SMILES COc1ccc(C(C)=O)c(O)c1
REMARK SMILES IDX 6 1 10 2 12 3 3 4 4 5 5 6 7 7 8 8 9 9 11 10 2 12 1 13
REMARK H PARENT 11 11
REMARK Flexibility Score: inf
ROOT
ATOM      1  C   UNL     1      13.003  23.443  -3.433  1.00  0.00     0.059 A 
ATOM      2  C   UNL     1      12.775  22.931  -2.134  1.00  0.00     0.130 A 
ATOM      3  C   UNL     1      12.478  21.571  -1.956  1.00  0.00     0.093 A 
ATOM      4  C   UNL     1      12.398  20.704  -3.049  1.00  0.00     0.122 A 
ATOM      5  C   UNL     1      12.621  21.209  -4.340  1.00  0.00     0.047 A 
ATOM      6  C   UNL     1      12.920  22.560  -4.529  1.00  0.00     0.019 A 
ENDROOT
BRANCH   1   7
ATOM      7  C   UNL     1      13.332  24.881  -3.651  1.00  0.00     0.163 C 
ATOM      8  C   UNL     1      13.304  25.498  -5.018  1.00  0.00     0.093 C 
ATOM      9  O   UNL     1      13.670  25.608  -2.678  1.00  0.00    -0.294 OA
ENDBRANCH   1   7
BRANCH   2  10
ATOM     10  O   UNL     1      12.831  23.767  -1.019  1.00  0.00    -0.507 OA
ATOM     11  H   UNL     1      11.992  24.130  -0.581  1.00  0.00     0.293 HD
ENDBRANCH   2  10
BRANCH   4  12
ATOM     12  O   UNL     1      12.096  19.356  -2.809  1.00  0.00    -0.497 OA
ATOM     13  C   UNL     1      11.065  18.905  -1.936  1.00  0.00     0.278 C 
ENDBRANCH   4  12
TORSDOF 3
ENDMDL
MODEL 9
REMARK VINA RESULT:    -2.492      2.113      4.701
REMARK INTER + INTRA:          -3.199
REMARK INTER:                  -3.028
REMARK INTRA:                  -0.171
REMARK UNBOUND:                -0.342
REMARK SMILES COc1ccc(C(C)=O)c(O)c1
REMARK SMILES IDX 6 1 10 2 12 3 3 4 4 5 5 6 7 7 8 8 9 9 11 10 2 12 1 13
REMARK H PARENT 11 11
REMARK Flexibility Score: inf
ROOT
ATOM      1  C   UNL     1      12.925  21.733  -2.757  1.00  0.00     0.059 A 
ATOM      2  C   UNL     1      13.315  23.062  -2.472  1.00  0.00     0.130 A 
ATOM      3  C   UNL     1      13.586  23.448  -1.150  1.00  0.00     0.093 A 
ATOM      4  C   UNL     1      13.473  22.536  -0.098  1.00  0.00     0.122 A 
ATOM      5  C   UNL     1      13.082  21.216  -0.376  1.00  0.00     0.047 A 
ATOM      6  C   UNL     1      12.812  20.821  -1.688  1.00  0.00     0.019 A 
ENDROOT
BRANCH   1   7
ATOM      7  C   UNL     1      12.640  21.292  -4.153  1.00  0.00     0.163 C 
ATOM      8  C   UNL     1      12.036  19.952  -4.449  1.00  0.00     0.093 C 
ATOM      9  O   UNL     1      12.934  22.039  -5.125  1.00  0.00    -0.294 OA
ENDBRANCH   1   7
BRANCH   2  10
ATOM     10  O   UNL     1      13.425  24.006  -3.493  1.00  0.00    -0.507 OA
ATOM     11  H   UNL     1      13.304  23.756  -4.467  1.00  0.00     0.293 HD
ENDBRANCH   2  10
BRANCH   4  12
ATOM     12  O   UNL     1      13.755  22.980   1.202  1.00  0.00    -0.497 OA
ATOM     13  C   UNL     1      13.109  22.497   2.376  1.00  0.00     0.278 C 
ENDBRANCH   4  12
TORSDOF 3
ENDMDL
