MODEL 1
REMARK VINA RESULT:    -2.235      0.000      0.000
REMARK INTER + INTRA:          -2.235
REMARK INTER:                  -2.235
REMARK INTRA:                   0.000
REMARK UNBOUND:                 0.000
REMARK SMILES CC(=O)[O-]
REMARK SMILES IDX 1 1 2 2 3 3 4 4
REMARK H PARENT
REMARK Flexibility Score: inf
ROOT
ATOM      1  C   UNL     1     128.011 124.781 132.987  1.00  0.00     0.063 C 
ATOM      2  C   UNL     1     128.900 125.861 132.468  1.00  0.00     0.038 C 
ATOM      3  O   UNL     1     128.543 127.065 132.548  1.00  0.00    -0.550 OA
ATOM      4  O   UNL     1     130.145 125.544 131.943  1.00  0.00    -0.550 OA
ENDROOT
TORSDOF 0
ENDMDL
MODEL 2
REMARK VINA RESULT:    -2.231      0.131      1.625
REMARK INTER + INTRA:          -2.231
REMARK INTER:                  -2.231
REMARK INTRA:                   0.000
REMARK UNBOUND:                 0.000
REMARK SMILES CC(=O)[O-]
REMARK SMILES IDX 1 1 2 2 3 3 4 4
REMARK H PARENT
REMARK Flexibility Score: inf
ROOT
ATOM      1  C   UNL     1     128.122 124.639 132.979  1.00  0.00     0.063 C 
ATOM      2  C   UNL     1     128.995 125.761 132.529  1.00  0.00     0.038 C 
ATOM      3  O   UNL     1     130.115 125.521 132.006  1.00  0.00    -0.550 OA
ATOM      4  O   UNL     1     128.552 127.073 132.636  1.00  0.00    -0.550 OA
ENDROOT
TORSDOF 0
ENDMDL
MODEL 3
REMARK VINA RESULT:    -2.184      1.720      1.938
REMARK INTER + INTRA:          -2.184
REMARK INTER:                  -2.184
REMARK INTRA:                   0.000
REMARK UNBOUND:                 0.000
REMARK SMILES CC(=O)[O-]
REMARK SMILES IDX 1 1 2 2 3 3 4 4
REMARK H PARENT
REMARK Flexibility Score: inf
ROOT
ATOM      1  C   UNL     1     129.631 125.623 132.367  1.00  0.00     0.063 C 
ATOM      2  C   UNL     1     128.388 125.933 133.130  1.00  0.00     0.038 C 
ATOM      3  O   UNL     1     128.081 127.128 133.380  1.00  0.00    -0.550 OA
ATOM      4  O   UNL     1     127.538 124.907 133.522  1.00  0.00    -0.550 OA
ENDROOT
TORSDOF 0
ENDMDL
MODEL 4
REMARK VINA RESULT:    -2.157      1.724      2.239
REMARK INTER + INTRA:          -2.157
REMARK INTER:                  -2.157
REMARK INTRA:                   0.000
REMARK UNBOUND:                 0.000
REMARK SMILES CC(=O)[O-]
REMARK SMILES IDX 1 1 2 2 3 3 4 4
REMARK H PARENT
REMARK Flexibility Score: inf
ROOT
ATOM      1  C   UNL     1     129.668 125.605 132.367  1.00  0.00     0.063 C 
ATOM      2  C   UNL     1     128.392 125.857 133.096  1.00  0.00     0.038 C 
ATOM      3  O   UNL     1     127.655 124.893 133.432  1.00  0.00    -0.550 OA
ATOM      4  O   UNL     1     128.038 127.152 133.453  1.00  0.00    -0.550 OA
ENDROOT
TORSDOF 0
ENDMDL
MODEL 5
REMARK VINA RESULT:    -2.022      1.693      2.126
REMARK INTER + INTRA:          -2.022
REMARK INTER:                  -2.022
REMARK INTRA:                   0.000
REMARK UNBOUND:                 0.000
REMARK SMILES CC(=O)[O-]
REMARK SMILES IDX 1 1 2 2 3 3 4 4
REMARK H PARENT
REMARK Flexibility Score: inf
ROOT
ATOM      1  C   UNL     1     127.241 124.219 133.279  1.00  0.00     0.063 C 
ATOM      2  C   UNL     1     127.997 125.390 133.808  1.00  0.00     0.038 C 
ATOM      3  O   UNL     1     128.431 125.382 134.990  1.00  0.00    -0.550 OA
ATOM      4  O   UNL     1     128.272 126.471 132.981  1.00  0.00    -0.550 OA
ENDROOT
TORSDOF 0
ENDMDL
MODEL 6
REMARK VINA RESULT:    -1.994      2.880      3.253
REMARK INTER + INTRA:          -1.994
REMARK INTER:                  -1.994
REMARK INTRA:                   0.000
REMARK UNBOUND:                 0.000
REMARK SMILES CC(=O)[O-]
REMARK SMILES IDX 1 1 2 2 3 3 4 4
REMARK H PARENT
REMARK Flexibility Score: inf
ROOT
ATOM      1  C   UNL     1     128.293 124.973 132.866  1.00  0.00     0.063 C 
ATOM      2  C   UNL     1     127.374 124.388 133.884  1.00  0.00     0.038 C 
ATOM      3  O   UNL     1     127.703 124.378 135.100  1.00  0.00    -0.550 OA
ATOM      4  O   UNL     1     126.131 123.902 133.502  1.00  0.00    -0.550 OA
ENDROOT
TORSDOF 0
ENDMDL
MODEL 7
REMARK VINA RESULT:    -1.807     16.193     16.564
REMARK INTER + INTRA:          -1.807
REMARK INTER:                  -1.807
REMARK INTRA:                   0.000
REMARK UNBOUND:                 0.000
REMARK SMILES CC(=O)[O-]
REMARK SMILES IDX 1 1 2 2 3 3 4 4
REMARK H PARENT
REMARK Flexibility Score: inf
ROOT
ATOM      1  C   UNL     1     135.737 134.157 143.241  1.00  0.00     0.063 C 
ATOM      2  C   UNL     1     135.580 135.122 144.367  1.00  0.00     0.038 C 
ATOM      3  O   UNL     1     136.591 135.528 144.997  1.00  0.00    -0.550 OA
ATOM      4  O   UNL     1     134.323 135.615 144.690  1.00  0.00    -0.550 OA
ENDROOT
TORSDOF 0
ENDMDL
MODEL 8
REMARK VINA RESULT:    -1.776     17.531     17.741
REMARK INTER + INTRA:          -1.776
REMARK INTER:                  -1.776
REMARK INTRA:                   0.000
REMARK UNBOUND:                 0.000
REMARK SMILES CC(=O)[O-]
REMARK SMILES IDX 1 1 2 2 3 3 4 4
REMARK H PARENT
REMARK Flexibility Score: inf
ROOT
ATOM      1  C   UNL     1     140.095 127.550 144.254  1.00  0.00     0.063 C 
ATOM      2  C   UNL     1     141.060 127.177 145.328  1.00  0.00     0.038 C 
ATOM      3  O   UNL     1     141.264 127.958 146.294  1.00  0.00    -0.550 OA
ATOM      4  O   UNL     1     141.696 125.943 145.293  1.00  0.00    -0.550 OA
ENDROOT
TORSDOF 0
ENDMDL
MODEL 9
REMARK VINA RESULT:    -1.744     18.066     18.359
REMARK INTER + INTRA:          -1.744
REMARK INTER:                  -1.744
REMARK INTRA:                   0.000
REMARK UNBOUND:                 0.000
REMARK SMILES CC(=O)[O-]
REMARK SMILES IDX 1 1 2 2 3 3 4 4
REMARK H PARENT
REMARK Flexibility Score: inf
ROOT
ATOM      1  C   UNL     1     141.253 127.006 145.136  1.00  0.00     0.063 C 
ATOM      2  C   UNL     1     141.616 125.620 145.549  1.00  0.00     0.038 C 
ATOM      3  O   UNL     1     141.609 124.686 144.704  1.00  0.00    -0.550 OA
ATOM      4  O   UNL     1     142.013 125.364 146.855  1.00  0.00    -0.550 OA
ENDROOT
TORSDOF 0
ENDMDL
