MODEL 1
REMARK VINA RESULT:    -5.302      0.000      0.000
REMARK INTER + INTRA:         -10.160
REMARK INTER:                  -8.092
REMARK INTRA:                  -2.069
REMARK UNBOUND:                -2.069
REMARK SMILES CC(=O)CCC=C(C)CCC=C(C)CCC=C(C)C
REMARK SMILES IDX 10 1 11 2 12 3 13 4 14 5 15 6 16 7 18 8 17 9 19 10 9 11 7 12
REMARK SMILES IDX 6 13 8 14 5 15 4 16 2 17 3 18 1 19
REMARK H PARENT
REMARK Flexibility Score: inf
ROOT
ATOM      1  C   UNL     1      18.429  -9.869  63.706  1.00  0.00     0.032 C 
ENDROOT
BRANCH   1   2
ATOM      2  C   UNL     1      17.179 -10.097  64.519  1.00  0.00    -0.028 C 
ATOM      3  C   UNL     1      16.687 -11.316  64.840  1.00  0.00    -0.077 C 
ATOM      4  C   UNL     1      17.335 -12.592  64.353  1.00  0.00     0.039 C 
BRANCH   3   5
ATOM      5  C   UNL     1      15.440 -11.405  65.697  1.00  0.00     0.034 C 
BRANCH   5   6
ATOM      6  C   UNL     1      14.215 -11.841  64.880  1.00  0.00     0.032 C 
BRANCH   6   7
ATOM      7  C   UNL     1      13.657 -10.704  64.056  1.00  0.00    -0.028 C 
ATOM      8  C   UNL     1      13.236  -9.360  62.044  1.00  0.00     0.039 C 
ATOM      9  C   UNL     1      13.808 -10.580  62.719  1.00  0.00    -0.080 C 
ATOM     10  C   UNL     1      14.510 -11.630  61.890  1.00  0.00     0.039 C 
ENDBRANCH   6   7
ENDBRANCH   5   6
ENDBRANCH   3   5
ENDBRANCH   1   2
BRANCH   1  11
ATOM     11  C   UNL     1      19.559  -9.334  64.591  1.00  0.00     0.034 C 
BRANCH  11  12
ATOM     12  C   UNL     1      20.844 -10.100  64.344  1.00  0.00    -0.077 C 
ATOM     13  C   UNL     1      21.245 -11.140  65.112  1.00  0.00    -0.028 C 
ATOM     14  C   UNL     1      21.734  -9.671  63.206  1.00  0.00     0.039 C 
BRANCH  13  15
ATOM     15  C   UNL     1      20.460 -11.738  66.256  1.00  0.00     0.035 C 
BRANCH  15  16
ATOM     16  C   UNL     1      20.848 -11.090  67.590  1.00  0.00     0.079 C 
BRANCH  16  17
ATOM     17  C   UNL     1      19.696 -11.086  68.560  1.00  0.00     0.130 C 
ATOM     18  O   UNL     1      19.870 -10.673  69.697  1.00  0.00    -0.300 OA
ATOM     19  C   UNL     1      18.337 -11.573  68.157  1.00  0.00     0.087 C 
ENDBRANCH  16  17
ENDBRANCH  15  16
ENDBRANCH  13  15
ENDBRANCH  11  12
ENDBRANCH   1  11
TORSDOF 9
ENDMDL
MODEL 2
REMARK VINA RESULT:    -5.259      2.298      3.916
REMARK INTER + INTRA:         -10.095
REMARK INTER:                  -9.093
REMARK INTRA:                  -1.002
REMARK UNBOUND:                -2.069
REMARK SMILES CC(=O)CCC=C(C)CCC=C(C)CCC=C(C)C
REMARK SMILES IDX 10 1 11 2 12 3 13 4 14 5 15 6 16 7 18 8 17 9 19 10 9 11 7 12
REMARK SMILES IDX 6 13 8 14 5 15 4 16 2 17 3 18 1 19
REMARK H PARENT
REMARK Flexibility Score: inf
ROOT
ATOM      1  C   UNL     1      17.383  -9.735  63.254  1.00  0.00     0.032 C 
ENDROOT
BRANCH   1   2
ATOM      2  C   UNL     1      16.065  -9.010  63.378  1.00  0.00    -0.028 C 
ATOM      3  C   UNL     1      14.934  -9.363  62.726  1.00  0.00    -0.077 C 
ATOM      4  C   UNL     1      14.903 -10.514  61.746  1.00  0.00     0.039 C 
BRANCH   3   5
ATOM      5  C   UNL     1      13.666  -8.569  62.968  1.00  0.00     0.034 C 
BRANCH   5   6
ATOM      6  C   UNL     1      13.916  -7.055  62.899  1.00  0.00     0.032 C 
BRANCH   6   7
ATOM      7  C   UNL     1      12.862  -6.349  62.080  1.00  0.00    -0.028 C 
ATOM      8  C   UNL     1      10.695  -5.296  61.599  1.00  0.00     0.039 C 
ATOM      9  C   UNL     1      11.665  -5.943  62.555  1.00  0.00    -0.080 C 
ATOM     10  C   UNL     1      11.284  -6.100  64.009  1.00  0.00     0.039 C 
ENDBRANCH   6   7
ENDBRANCH   5   6
ENDBRANCH   3   5
ENDBRANCH   1   2
BRANCH   1  11
ATOM     11  C   UNL     1      18.053  -9.876  64.625  1.00  0.00     0.034 C 
BRANCH  11  12
ATOM     12  C   UNL     1      17.420 -11.001  65.419  1.00  0.00    -0.077 C 
ATOM     13  C   UNL     1      17.200 -10.933  66.753  1.00  0.00    -0.028 C 
ATOM     14  C   UNL     1      17.040 -12.270  64.699  1.00  0.00     0.039 C 
BRANCH  13  15
ATOM     15  C   UNL     1      17.467  -9.729  67.626  1.00  0.00     0.035 C 
BRANCH  15  16
ATOM     16  C   UNL     1      18.964  -9.581  67.918  1.00  0.00     0.079 C 
BRANCH  16  17
ATOM     17  C   UNL     1      19.331 -10.184  69.249  1.00  0.00     0.130 C 
ATOM     18  O   UNL     1      19.289  -9.491  70.255  1.00  0.00    -0.300 OA
ATOM     19  C   UNL     1      19.743 -11.620  69.365  1.00  0.00     0.087 C 
ENDBRANCH  16  17
ENDBRANCH  15  16
ENDBRANCH  13  15
ENDBRANCH  11  12
ENDBRANCH   1  11
TORSDOF 9
ENDMDL
MODEL 3
REMARK VINA RESULT:    -5.170      1.466      2.678
REMARK INTER + INTRA:          -9.959
REMARK INTER:                  -8.077
REMARK INTRA:                  -1.882
REMARK UNBOUND:                -2.069
REMARK SMILES CC(=O)CCC=C(C)CCC=C(C)CCC=C(C)C
REMARK SMILES IDX 10 1 11 2 12 3 13 4 14 5 15 6 16 7 18 8 17 9 19 10 9 11 7 12
REMARK SMILES IDX 6 13 8 14 5 15 4 16 2 17 3 18 1 19
REMARK H PARENT
REMARK Flexibility Score: inf
ROOT
ATOM      1  C   UNL     1      16.088 -11.471  65.524  1.00  0.00     0.032 C 
ENDROOT
BRANCH   1   2
ATOM      2  C   UNL     1      15.152 -11.155  64.384  1.00  0.00    -0.028 C 
ATOM      3  C   UNL     1      15.278 -11.651  63.131  1.00  0.00    -0.077 C 
ATOM      4  C   UNL     1      16.431 -12.547  62.739  1.00  0.00     0.039 C 
BRANCH   3   5
ATOM      5  C   UNL     1      14.245 -11.281  62.086  1.00  0.00     0.034 C 
BRANCH   5   6
ATOM      6  C   UNL     1      14.574  -9.946  61.402  1.00  0.00     0.032 C 
BRANCH   6   7
ATOM      7  C   UNL     1      13.600  -8.861  61.793  1.00  0.00    -0.028 C 
ATOM      8  C   UNL     1      12.802  -6.835  62.930  1.00  0.00     0.039 C 
ATOM      9  C   UNL     1      13.899  -7.810  62.588  1.00  0.00    -0.080 C 
ATOM     10  C   UNL     1      15.293  -7.579  63.121  1.00  0.00     0.039 C 
ENDBRANCH   6   7
ENDBRANCH   5   6
ENDBRANCH   3   5
ENDBRANCH   1   2
BRANCH   1  11
ATOM     11  C   UNL     1      16.990 -10.271  65.831  1.00  0.00     0.034 C 
BRANCH  11  12
ATOM     12  C   UNL     1      18.273 -10.343  65.028  1.00  0.00    -0.077 C 
ATOM     13  C   UNL     1      19.342 -11.083  65.406  1.00  0.00    -0.028 C 
ATOM     14  C   UNL     1      18.380  -9.534  63.761  1.00  0.00     0.039 C 
BRANCH  13  15
ATOM     15  C   UNL     1      19.397 -11.992  66.611  1.00  0.00     0.035 C 
BRANCH  15  16
ATOM     16  C   UNL     1      20.493 -11.549  67.587  1.00  0.00     0.079 C 
BRANCH  16  17
ATOM     17  C   UNL     1      19.912 -11.060  68.888  1.00  0.00     0.130 C 
ATOM     18  O   UNL     1      20.098 -11.705  69.909  1.00  0.00    -0.300 OA
ATOM     19  C   UNL     1      19.115  -9.792  68.956  1.00  0.00     0.087 C 
ENDBRANCH  16  17
ENDBRANCH  15  16
ENDBRANCH  13  15
ENDBRANCH  11  12
ENDBRANCH   1  11
TORSDOF 9
ENDMDL
MODEL 4
REMARK VINA RESULT:    -5.047      1.534      2.963
REMARK INTER + INTRA:          -9.771
REMARK INTER:                  -7.915
REMARK INTRA:                  -1.857
REMARK UNBOUND:                -2.069
REMARK SMILES CC(=O)CCC=C(C)CCC=C(C)CCC=C(C)C
REMARK SMILES IDX 10 1 11 2 12 3 13 4 14 5 15 6 16 7 18 8 17 9 19 10 9 11 7 12
REMARK SMILES IDX 6 13 8 14 5 15 4 16 2 17 3 18 1 19
REMARK H PARENT
REMARK Flexibility Score: inf
ROOT
ATOM      1  C   UNL     1      17.275 -10.057  66.229  1.00  0.00     0.032 C 
ENDROOT
BRANCH   1   2
ATOM      2  C   UNL     1      16.614  -9.637  64.940  1.00  0.00    -0.028 C 
ATOM      3  C   UNL     1      17.268  -9.447  63.771  1.00  0.00    -0.077 C 
ATOM      4  C   UNL     1      18.769  -9.591  63.664  1.00  0.00     0.039 C 
BRANCH   3   5
ATOM      5  C   UNL     1      16.476  -9.060  62.538  1.00  0.00     0.034 C 
BRANCH   5   6
ATOM      6  C   UNL     1      14.974  -8.944  62.835  1.00  0.00     0.032 C 
BRANCH   6   7
ATOM      7  C   UNL     1      14.177 -10.008  62.118  1.00  0.00    -0.028 C 
ATOM      8  C   UNL     1      12.872 -12.074  61.862  1.00  0.00     0.039 C 
ATOM      9  C   UNL     1      13.593 -11.067  62.721  1.00  0.00    -0.080 C 
ATOM     10  C   UNL     1      13.626 -11.255  64.220  1.00  0.00     0.039 C 
ENDBRANCH   6   7
ENDBRANCH   5   6
ENDBRANCH   3   5
ENDBRANCH   1   2
BRANCH   1  11
ATOM     11  C   UNL     1      16.912 -11.505  66.576  1.00  0.00     0.034 C 
BRANCH  11  12
ATOM     12  C   UNL     1      17.619 -12.474  65.649  1.00  0.00    -0.077 C 
ATOM     13  C   UNL     1      18.947 -12.730  65.720  1.00  0.00    -0.028 C 
ATOM     14  C   UNL     1      16.817 -13.167  64.579  1.00  0.00     0.039 C 
BRANCH  13  15
ATOM     15  C   UNL     1      19.894 -12.171  66.755  1.00  0.00     0.035 C 
BRANCH  15  16
ATOM     16  C   UNL     1      19.700 -12.860  68.110  1.00  0.00     0.079 C 
BRANCH  16  17
ATOM     17  C   UNL     1      19.960 -11.917  69.255  1.00  0.00     0.130 C 
ATOM     18  O   UNL     1      20.642 -12.290  70.198  1.00  0.00    -0.300 OA
ATOM     19  C   UNL     1      19.401 -10.526  69.259  1.00  0.00     0.087 C 
ENDBRANCH  16  17
ENDBRANCH  15  16
ENDBRANCH  13  15
ENDBRANCH  11  12
ENDBRANCH   1  11
TORSDOF 9
ENDMDL
MODEL 5
REMARK VINA RESULT:    -5.012     14.488     17.475
REMARK INTER + INTRA:          -9.717
REMARK INTER:                  -7.111
REMARK INTRA:                  -2.606
REMARK UNBOUND:                -2.069
REMARK SMILES CC(=O)CCC=C(C)CCC=C(C)CCC=C(C)C
REMARK SMILES IDX 10 1 11 2 12 3 13 4 14 5 15 6 16 7 18 8 17 9 19 10 9 11 7 12
REMARK SMILES IDX 6 13 8 14 5 15 4 16 2 17 3 18 1 19
REMARK H PARENT
REMARK Flexibility Score: inf
ROOT
ATOM      1  C   UNL     1       7.978  -1.682  62.495  1.00  0.00     0.032 C 
ENDROOT
BRANCH   1   2
ATOM      2  C   UNL     1       8.511  -0.331  62.902  1.00  0.00    -0.028 C 
ATOM      3  C   UNL     1       9.389   0.397  62.174  1.00  0.00    -0.077 C 
ATOM      4  C   UNL     1       9.971  -0.119  60.878  1.00  0.00     0.039 C 
BRANCH   3   5
ATOM      5  C   UNL     1       9.816   1.759  62.682  1.00  0.00     0.034 C 
BRANCH   5   6
ATOM      6  C   UNL     1       8.893   2.270  63.797  1.00  0.00     0.032 C 
BRANCH   6   7
ATOM      7  C   UNL     1       7.977   3.367  63.308  1.00  0.00    -0.028 C 
ATOM      8  C   UNL     1       5.871   4.599  63.018  1.00  0.00     0.039 C 
ATOM      9  C   UNL     1       6.669   3.475  63.628  1.00  0.00    -0.080 C 
ATOM     10  C   UNL     1       5.996   2.520  64.586  1.00  0.00     0.039 C 
ENDBRANCH   6   7
ENDBRANCH   5   6
ENDBRANCH   3   5
ENDBRANCH   1   2
BRANCH   1  11
ATOM     11  C   UNL     1       6.777  -1.529  61.556  1.00  0.00     0.034 C 
BRANCH  11  12
ATOM     12  C   UNL     1       5.803  -0.499  62.093  1.00  0.00    -0.077 C 
ATOM     13  C   UNL     1       5.630   0.720  61.529  1.00  0.00    -0.028 C 
ATOM     14  C   UNL     1       5.007  -0.830  63.328  1.00  0.00     0.039 C 
BRANCH  13  15
ATOM     15  C   UNL     1       6.300   1.205  60.264  1.00  0.00     0.035 C 
BRANCH  15  16
ATOM     16  C   UNL     1       5.942   2.666  59.975  1.00  0.00     0.079 C 
BRANCH  16  17
ATOM     17  C   UNL     1       6.857   3.268  58.941  1.00  0.00     0.130 C 
ATOM     18  O   UNL     1       6.377   3.870  57.992  1.00  0.00    -0.300 OA
ATOM     19  C   UNL     1       8.346   3.148  59.056  1.00  0.00     0.087 C 
ENDBRANCH  16  17
ENDBRANCH  15  16
ENDBRANCH  13  15
ENDBRANCH  11  12
ENDBRANCH   1  11
TORSDOF 9
ENDMDL
MODEL 6
REMARK VINA RESULT:    -4.997     14.888     17.207
REMARK INTER + INTRA:          -9.695
REMARK INTER:                  -6.947
REMARK INTRA:                  -2.747
REMARK UNBOUND:                -2.069
REMARK SMILES CC(=O)CCC=C(C)CCC=C(C)CCC=C(C)C
REMARK SMILES IDX 10 1 11 2 12 3 13 4 14 5 15 6 16 7 18 8 17 9 19 10 9 11 7 12
REMARK SMILES IDX 6 13 8 14 5 15 4 16 2 17 3 18 1 19
REMARK H PARENT
REMARK Flexibility Score: inf
ROOT
ATOM      1  C   UNL     1       6.851  -0.357  63.332  1.00  0.00     0.032 C 
ENDROOT
BRANCH   1   2
ATOM      2  C   UNL     1       8.164   0.315  63.015  1.00  0.00    -0.028 C 
ATOM      3  C   UNL     1       8.706   1.318  63.743  1.00  0.00    -0.077 C 
ATOM      4  C   UNL     1       7.997   1.908  64.941  1.00  0.00     0.039 C 
BRANCH   3   5
ATOM      5  C   UNL     1      10.053   1.881  63.334  1.00  0.00     0.034 C 
BRANCH   5   6
ATOM      6  C   UNL     1      10.676   1.090  62.175  1.00  0.00     0.032 C 
BRANCH   6   7
ATOM      7  C   UNL     1      10.905   1.961  60.962  1.00  0.00    -0.028 C 
ATOM      8  C   UNL     1      10.717   2.676  58.619  1.00  0.00     0.039 C 
ATOM      9  C   UNL     1      10.350   1.748  59.749  1.00  0.00    -0.080 C 
ATOM     10  C   UNL     1       9.368   0.627  59.501  1.00  0.00     0.039 C 
ENDBRANCH   6   7
ENDBRANCH   5   6
ENDBRANCH   3   5
ENDBRANCH   1   2
BRANCH   1  11
ATOM     11  C   UNL     1       5.676   0.501  62.852  1.00  0.00     0.034 C 
BRANCH  11  12
ATOM     12  C   UNL     1       5.663   0.596  61.339  1.00  0.00    -0.077 C 
ATOM     13  C   UNL     1       5.904   1.747  60.668  1.00  0.00    -0.028 C 
ATOM     14  C   UNL     1       5.339  -0.640  60.539  1.00  0.00     0.039 C 
BRANCH  13  15
ATOM     15  C   UNL     1       6.294   3.064  61.297  1.00  0.00     0.035 C 
BRANCH  15  16
ATOM     16  C   UNL     1       7.518   3.668  60.599  1.00  0.00     0.079 C 
BRANCH  16  17
ATOM     17  C   UNL     1       8.248   4.633  61.495  1.00  0.00     0.130 C 
ATOM     18  O   UNL     1       9.300   5.125  61.117  1.00  0.00    -0.300 OA
ATOM     19  C   UNL     1       7.705   5.008  62.841  1.00  0.00     0.087 C 
ENDBRANCH  16  17
ENDBRANCH  15  16
ENDBRANCH  13  15
ENDBRANCH  11  12
ENDBRANCH   1  11
TORSDOF 9
ENDMDL
MODEL 7
REMARK VINA RESULT:    -4.941      2.325      4.123
REMARK INTER + INTRA:          -9.609
REMARK INTER:                  -7.124
REMARK INTRA:                  -2.485
REMARK UNBOUND:                -2.069
REMARK SMILES CC(=O)CCC=C(C)CCC=C(C)CCC=C(C)C
REMARK SMILES IDX 10 1 11 2 12 3 13 4 14 5 15 6 16 7 18 8 17 9 19 10 9 11 7 12
REMARK SMILES IDX 6 13 8 14 5 15 4 16 2 17 3 18 1 19
REMARK H PARENT
REMARK Flexibility Score: inf
ROOT
ATOM      1  C   UNL     1      17.252 -13.797  64.750  1.00  0.00     0.032 C 
ENDROOT
BRANCH   1   2
ATOM      2  C   UNL     1      16.907 -13.332  63.357  1.00  0.00    -0.028 C 
ATOM      3  C   UNL     1      15.669 -13.391  62.815  1.00  0.00    -0.077 C 
ATOM      4  C   UNL     1      14.500 -13.994  63.560  1.00  0.00     0.039 C 
BRANCH   3   5
ATOM      5  C   UNL     1      15.451 -12.855  61.414  1.00  0.00     0.034 C 
BRANCH   5   6
ATOM      6  C   UNL     1      14.353 -11.783  61.375  1.00  0.00     0.032 C 
BRANCH   6   7
ATOM      7  C   UNL     1      14.892 -10.415  61.721  1.00  0.00    -0.028 C 
ATOM      8  C   UNL     1      15.207  -8.376  63.054  1.00  0.00     0.039 C 
ATOM      9  C   UNL     1      14.638  -9.760  62.875  1.00  0.00    -0.080 C 
ATOM     10  C   UNL     1      13.824 -10.379  63.987  1.00  0.00     0.039 C 
ENDBRANCH   6   7
ENDBRANCH   5   6
ENDBRANCH   3   5
ENDBRANCH   1   2
BRANCH   1  11
ATOM     11  C   UNL     1      18.069 -12.732  65.488  1.00  0.00     0.034 C 
BRANCH  11  12
ATOM     12  C   UNL     1      17.236 -11.490  65.735  1.00  0.00    -0.077 C 
ATOM     13  C   UNL     1      17.470 -10.306  65.120  1.00  0.00    -0.028 C 
ATOM     14  C   UNL     1      16.108 -11.563  66.731  1.00  0.00     0.039 C 
BRANCH  13  15
ATOM     15  C   UNL     1      18.518 -10.062  64.059  1.00  0.00     0.035 C 
BRANCH  15  16
ATOM     16  C   UNL     1      19.691  -9.251  64.620  1.00  0.00     0.079 C 
BRANCH  16  17
ATOM     17  C   UNL     1      20.993  -9.631  63.964  1.00  0.00     0.130 C 
ATOM     18  O   UNL     1      21.457  -8.915  63.090  1.00  0.00    -0.300 OA
ATOM     19  C   UNL     1      21.734 -10.870  64.366  1.00  0.00     0.087 C 
ENDBRANCH  16  17
ENDBRANCH  15  16
ENDBRANCH  13  15
ENDBRANCH  11  12
ENDBRANCH   1  11
TORSDOF 9
ENDMDL
MODEL 8
REMARK VINA RESULT:    -4.916      2.763      6.507
REMARK INTER + INTRA:          -9.572
REMARK INTER:                  -7.845
REMARK INTRA:                  -1.726
REMARK UNBOUND:                -2.069
REMARK SMILES CC(=O)CCC=C(C)CCC=C(C)CCC=C(C)C
REMARK SMILES IDX 10 1 11 2 12 3 13 4 14 5 15 6 16 7 18 8 17 9 19 10 9 11 7 12
REMARK SMILES IDX 6 13 8 14 5 15 4 16 2 17 3 18 1 19
REMARK H PARENT
REMARK Flexibility Score: inf
ROOT
ATOM      1  C   UNL     1      15.788 -11.782  65.321  1.00  0.00     0.032 C 
ENDROOT
BRANCH   1   2
ATOM      2  C   UNL     1      16.488 -10.690  66.091  1.00  0.00    -0.028 C 
ATOM      3  C   UNL     1      17.338 -10.904  67.121  1.00  0.00    -0.077 C 
ATOM      4  C   UNL     1      17.628 -12.294  67.641  1.00  0.00     0.039 C 
BRANCH   3   5
ATOM      5  C   UNL     1      18.004  -9.716  67.786  1.00  0.00     0.034 C 
BRANCH   5   6
ATOM      6  C   UNL     1      19.516  -9.684  67.521  1.00  0.00     0.032 C 
BRANCH   6   7
ATOM      7  C   UNL     1      19.827  -9.310  66.091  1.00  0.00    -0.028 C 
ATOM      8  C   UNL     1      20.692  -9.602  63.810  1.00  0.00     0.039 C 
ATOM      9  C   UNL     1      20.395 -10.138  65.188  1.00  0.00    -0.080 C 
ATOM     10  C   UNL     1      20.720 -11.578  65.511  1.00  0.00     0.039 C 
ENDBRANCH   6   7
ENDBRANCH   5   6
ENDBRANCH   3   5
ENDBRANCH   1   2
BRANCH   1  11
ATOM     11  C   UNL     1      14.951 -11.190  64.183  1.00  0.00     0.034 C 
BRANCH  11  12
ATOM     12  C   UNL     1      15.817 -10.894  62.975  1.00  0.00    -0.077 C 
ATOM     13  C   UNL     1      16.131  -9.639  62.578  1.00  0.00    -0.028 C 
ATOM     14  C   UNL     1      16.335 -12.049  62.157  1.00  0.00     0.039 C 
BRANCH  13  15
ATOM     15  C   UNL     1      15.746  -8.369  63.300  1.00  0.00     0.035 C 
BRANCH  15  16
ATOM     16  C   UNL     1      14.810  -7.509  62.445  1.00  0.00     0.079 C 
BRANCH  16  17
ATOM     17  C   UNL     1      13.426  -8.099  62.373  1.00  0.00     0.130 C 
ATOM     18  O   UNL     1      12.694  -8.034  63.349  1.00  0.00    -0.300 OA
ATOM     19  C   UNL     1      12.925  -8.759  61.124  1.00  0.00     0.087 C 
ENDBRANCH  16  17
ENDBRANCH  15  16
ENDBRANCH  13  15
ENDBRANCH  11  12
ENDBRANCH   1  11
TORSDOF 9
ENDMDL
MODEL 9
REMARK VINA RESULT:    -4.884     12.767     16.843
REMARK INTER + INTRA:          -9.523
REMARK INTER:                  -7.384
REMARK INTRA:                  -2.139
REMARK UNBOUND:                -2.069
REMARK SMILES CC(=O)CCC=C(C)CCC=C(C)CCC=C(C)C
REMARK SMILES IDX 10 1 11 2 12 3 13 4 14 5 15 6 16 7 18 8 17 9 19 10 9 11 7 12
REMARK SMILES IDX 6 13 8 14 5 15 4 16 2 17 3 18 1 19
REMARK H PARENT
REMARK Flexibility Score: inf
ROOT
ATOM      1  C   UNL     1       7.977   2.271  64.181  1.00  0.00     0.032 C 
ENDROOT
BRANCH   1   2
ATOM      2  C   UNL     1       7.592   0.887  63.721  1.00  0.00    -0.028 C 
ATOM      3  C   UNL     1       6.359   0.349  63.862  1.00  0.00    -0.077 C 
ATOM      4  C   UNL     1       5.242   1.088  64.563  1.00  0.00     0.039 C 
BRANCH   3   5
ATOM      5  C   UNL     1       6.096  -1.042  63.322  1.00  0.00     0.034 C 
BRANCH   5   6
ATOM      6  C   UNL     1       7.002  -1.373  62.127  1.00  0.00     0.032 C 
BRANCH   6   7
ATOM      7  C   UNL     1       7.951  -2.506  62.440  1.00  0.00    -0.028 C 
ATOM      8  C   UNL     1      10.107  -3.669  62.624  1.00  0.00     0.039 C 
ATOM      9  C   UNL     1       9.295  -2.435  62.323  1.00  0.00    -0.080 C 
ATOM     10  C   UNL     1      10.000  -1.161  61.922  1.00  0.00     0.039 C 
ENDBRANCH   6   7
ENDBRANCH   5   6
ENDBRANCH   3   5
ENDBRANCH   1   2
BRANCH   1  11
ATOM     11  C   UNL     1       8.169   3.205  62.982  1.00  0.00     0.034 C 
BRANCH  11  12
ATOM     12  C   UNL     1       6.830   3.681  62.453  1.00  0.00    -0.077 C 
ATOM     13  C   UNL     1       6.290   3.232  61.296  1.00  0.00    -0.028 C 
ATOM     14  C   UNL     1       6.074   4.725  63.234  1.00  0.00     0.039 C 
BRANCH  13  15
ATOM     15  C   UNL     1       6.877   2.155  60.413  1.00  0.00     0.035 C 
BRANCH  15  16
ATOM     16  C   UNL     1       7.245   2.712  59.034  1.00  0.00     0.079 C 
BRANCH  16  17
ATOM     17  C   UNL     1       8.701   2.491  58.717  1.00  0.00     0.130 C 
ATOM     18  O   UNL     1       9.099   2.662  57.574  1.00  0.00    -0.300 OA
ATOM     19  C   UNL     1       9.673   2.071  59.777  1.00  0.00     0.087 C 
ENDBRANCH  16  17
ENDBRANCH  15  16
ENDBRANCH  13  15
ENDBRANCH  11  12
ENDBRANCH   1  11
TORSDOF 9
ENDMDL
