MODEL 1
REMARK VINA RESULT:     0.000      0.000      0.000
REMARK INTER + INTRA:          -1.548
REMARK INTER:                   0.000
REMARK INTRA:                  -1.548
REMARK UNBOUND:                -1.548
REMARK SMILES CCCCCCCCCCC(=O)[O-]
REMARK SMILES IDX 7 1 8 2 9 3 10 4 11 5 12 6 13 7 6 8 5 9 4 10 3 11 2 12 1 13
REMARK H PARENT
REMARK Flexibility Score: inf
ROOT
ATOM      1  C   UNL     1     179.555 191.044 198.225  1.00  0.00     0.000 C 
ENDROOT
BRANCH   1   2
ATOM      2  C   UNL     1     180.155 192.035 199.230  1.00  0.00     0.000 C 
BRANCH   2   3
ATOM      3  C   UNL     1     181.527 191.558 199.723  1.00  0.00     0.006 C 
BRANCH   3   4
ATOM      4  C   UNL     1     181.894 190.207 199.104  1.00  0.00     0.053 C 
BRANCH   4   5
ATOM      5  C   UNL     1     183.370 190.116 198.884  1.00  0.00     0.041 C 
ATOM      6  O   UNL     1     183.827 189.476 197.900  1.00  0.00    -0.550 OA
ATOM      7  O   UNL     1     184.243 190.777 199.739  1.00  0.00    -0.550 OA
ENDBRANCH   4   5
ENDBRANCH   3   4
ENDBRANCH   2   3
ENDBRANCH   1   2
BRANCH   1   8
ATOM      8  C   UNL     1     178.894 191.784 197.052  1.00  0.00     0.000 C 
BRANCH   8   9
ATOM      9  C   UNL     1     179.919 192.353 196.058  1.00  0.00    -0.000 C 
BRANCH   9  10
ATOM     10  C   UNL     1     180.971 191.318 195.633  1.00  0.00    -0.000 C 
BRANCH  10  11
ATOM     11  C   UNL     1     182.385 191.902 195.727  1.00  0.00    -0.000 C 
BRANCH  11  12
ATOM     12  C   UNL     1     182.376 193.255 196.448  1.00  0.00    -0.003 C 
ATOM     13  C   UNL     1     183.649 193.452 197.266  1.00  0.00     0.004 C 
ENDBRANCH  11  12
ENDBRANCH  10  11
ENDBRANCH   9  10
ENDBRANCH   8   9
ENDBRANCH   1   8
TORSDOF 9
ENDMDL
MODEL 2
REMARK VINA RESULT:     0.000     10.859     12.711
REMARK INTER + INTRA:          -1.548
REMARK INTER:                   0.000
REMARK INTRA:                  -1.548
REMARK UNBOUND:                -1.548
REMARK SMILES CCCCCCCCCCC(=O)[O-]
REMARK SMILES IDX 7 1 8 2 9 3 10 4 11 5 12 6 13 7 6 8 5 9 4 10 3 11 2 12 1 13
REMARK H PARENT
REMARK Flexibility Score: inf
ROOT
ATOM      1  C   UNL     1     172.221 189.040 196.055  1.00  0.00     0.000 C 
ENDROOT
BRANCH   1   2
ATOM      2  C   UNL     1     172.150 190.520 195.660  1.00  0.00     0.000 C 
BRANCH   2   3
ATOM      3  C   UNL     1     170.957 190.787 194.734  1.00  0.00     0.006 C 
BRANCH   3   4
ATOM      4  C   UNL     1     170.178 189.499 194.456  1.00  0.00     0.053 C 
BRANCH   4   5
ATOM      5  C   UNL     1     168.721 189.794 194.293  1.00  0.00     0.041 C 
ATOM      6  O   UNL     1     167.858 188.959 194.675  1.00  0.00    -0.550 OA
ATOM      7  O   UNL     1     168.312 191.012 193.765  1.00  0.00    -0.550 OA
ENDBRANCH   4   5
ENDBRANCH   3   4
ENDBRANCH   2   3
ENDBRANCH   1   2
BRANCH   1   8
ATOM      8  C   UNL     1     172.550 188.884 197.547  1.00  0.00     0.000 C 
BRANCH   8   9
ATOM      9  C   UNL     1     171.375 189.279 198.457  1.00  0.00    -0.000 C 
BRANCH   9  10
ATOM     10  C   UNL     1     170.073 188.551 198.092  1.00  0.00    -0.000 C 
BRANCH  10  11
ATOM     11  C   UNL     1     168.894 189.529 198.037  1.00  0.00    -0.000 C 
BRANCH  11  12
ATOM     12  C   UNL     1     169.375 190.979 198.167  1.00  0.00    -0.003 C 
ATOM     13  C   UNL     1     168.508 191.924 197.340  1.00  0.00     0.004 C 
ENDBRANCH  11  12
ENDBRANCH  10  11
ENDBRANCH   9  10
ENDBRANCH   8   9
ENDBRANCH   1   8
TORSDOF 9
ENDMDL
MODEL 3
REMARK VINA RESULT:     0.001      5.606      7.474
REMARK INTER + INTRA:          -1.547
REMARK INTER:                   0.000
REMARK INTRA:                  -1.547
REMARK UNBOUND:                -1.548
REMARK SMILES CCCCCCCCCCC(=O)[O-]
REMARK SMILES IDX 7 1 8 2 9 3 10 4 11 5 12 6 13 7 6 8 5 9 4 10 3 11 2 12 1 13
REMARK H PARENT
REMARK Flexibility Score: inf
ROOT
ATOM      1  C   UNL     1     176.829 194.337 200.809  1.00  0.00     0.000 C 
ENDROOT
BRANCH   1   2
ATOM      2  C   UNL     1     177.279 195.309 199.711  1.00  0.00     0.000 C 
BRANCH   2   3
ATOM      3  C   UNL     1     177.536 194.570 198.392  1.00  0.00     0.006 C 
BRANCH   3   4
ATOM      4  C   UNL     1     177.337 193.061 198.559  1.00  0.00     0.053 C 
BRANCH   4   5
ATOM      5  C   UNL     1     176.810 192.461 197.295  1.00  0.00     0.041 C 
ATOM      6  O   UNL     1     176.027 191.475 197.339  1.00  0.00    -0.550 OA
ATOM      7  O   UNL     1     177.144 193.018 196.067  1.00  0.00    -0.550 OA
ENDBRANCH   4   5
ENDBRANCH   3   4
ENDBRANCH   2   3
ENDBRANCH   1   2
BRANCH   1   8
ATOM      8  C   UNL     1     175.688 194.940 201.642  1.00  0.00     0.000 C 
BRANCH   8   9
ATOM      9  C   UNL     1     174.328 194.859 200.932  1.00  0.00    -0.000 C 
BRANCH   9  10
ATOM     10  C   UNL     1     174.054 193.472 200.332  1.00  0.00    -0.000 C 
BRANCH  10  11
ATOM     11  C   UNL     1     173.592 193.586 198.875  1.00  0.00    -0.000 C 
BRANCH  11  12
ATOM     12  C   UNL     1     173.776 195.014 198.348  1.00  0.00    -0.003 C 
ATOM     13  C   UNL     1     174.136 195.013 196.865  1.00  0.00     0.004 C 
ENDBRANCH  11  12
ENDBRANCH  10  11
ENDBRANCH   9  10
ENDBRANCH   8   9
ENDBRANCH   1   8
TORSDOF 9
ENDMDL
MODEL 4
REMARK VINA RESULT:     0.001     10.863     12.179
REMARK INTER + INTRA:          -1.547
REMARK INTER:                   0.000
REMARK INTRA:                  -1.547
REMARK UNBOUND:                -1.548
REMARK SMILES CCCCCCCCCCC(=O)[O-]
REMARK SMILES IDX 7 1 8 2 9 3 10 4 11 5 12 6 13 7 6 8 5 9 4 10 3 11 2 12 1 13
REMARK H PARENT
REMARK Flexibility Score: inf
ROOT
ATOM      1  C   UNL     1     170.846 193.152 197.355  1.00  0.00     0.000 C 
ENDROOT
BRANCH   1   2
ATOM      2  C   UNL     1     169.417 193.703 197.435  1.00  0.00     0.000 C 
BRANCH   2   3
ATOM      3  C   UNL     1     169.404 195.122 198.014  1.00  0.00     0.006 C 
BRANCH   3   4
ATOM      4  C   UNL     1     170.822 195.588 198.359  1.00  0.00     0.053 C 
BRANCH   4   5
ATOM      5  C   UNL     1     170.953 197.063 198.149  1.00  0.00     0.041 C 
ATOM      6  O   UNL     1     172.043 197.552 197.750  1.00  0.00    -0.550 OA
ATOM      7  O   UNL     1     169.858 197.895 198.347  1.00  0.00    -0.550 OA
ENDBRANCH   4   5
ENDBRANCH   3   4
ENDBRANCH   2   3
ENDBRANCH   1   2
BRANCH   1   8
ATOM      8  C   UNL     1     171.077 192.416 196.027  1.00  0.00     0.000 C 
BRANCH   8   9
ATOM      9  C   UNL     1     171.171 193.373 194.827  1.00  0.00    -0.000 C 
BRANCH   9  10
ATOM     10  C   UNL     1     172.203 194.490 195.039  1.00  0.00    -0.000 C 
BRANCH  10  11
ATOM     11  C   UNL     1     171.623 195.855 194.652  1.00  0.00    -0.000 C 
BRANCH  11  12
ATOM     12  C   UNL     1     170.122 195.751 194.354  1.00  0.00    -0.003 C 
ATOM     13  C   UNL     1     169.387 197.019 194.779  1.00  0.00     0.004 C 
ENDBRANCH  11  12
ENDBRANCH  10  11
ENDBRANCH   9  10
ENDBRANCH   8   9
ENDBRANCH   1   8
TORSDOF 9
ENDMDL
MODEL 5
REMARK VINA RESULT:     0.001      9.400     11.304
REMARK INTER + INTRA:          -1.547
REMARK INTER:                   0.000
REMARK INTRA:                  -1.547
REMARK UNBOUND:                -1.548
REMARK SMILES CCCCCCCCCCC(=O)[O-]
REMARK SMILES IDX 7 1 8 2 9 3 10 4 11 5 12 6 13 7 6 8 5 9 4 10 3 11 2 12 1 13
REMARK H PARENT
REMARK Flexibility Score: inf
ROOT
ATOM      1  C   UNL     1     176.294 198.162 189.512  1.00  0.00     0.000 C 
ENDROOT
BRANCH   1   2
ATOM      2  C   UNL     1     175.398 197.292 190.402  1.00  0.00     0.000 C 
BRANCH   2   3
ATOM      3  C   UNL     1     174.912 196.048 189.649  1.00  0.00     0.006 C 
BRANCH   3   4
ATOM      4  C   UNL     1     175.465 196.020 188.221  1.00  0.00     0.053 C 
BRANCH   4   5
ATOM      5  C   UNL     1     175.732 194.613 187.792  1.00  0.00     0.041 C 
ATOM      6  O   UNL     1     176.685 194.359 187.007  1.00  0.00    -0.550 OA
ATOM      7  O   UNL     1     174.960 193.573 188.295  1.00  0.00    -0.550 OA
ENDBRANCH   4   5
ENDBRANCH   3   4
ENDBRANCH   2   3
ENDBRANCH   1   2
BRANCH   1   8
ATOM      8  C   UNL     1     177.501 198.694 190.299  1.00  0.00     0.000 C 
BRANCH   8   9
ATOM      9  C   UNL     1     178.537 197.601 190.605  1.00  0.00    -0.000 C 
BRANCH   9  10
ATOM     10  C   UNL     1     178.969 196.827 189.350  1.00  0.00    -0.000 C 
BRANCH  10  11
ATOM     11  C   UNL     1     178.942 195.315 189.601  1.00  0.00    -0.000 C 
BRANCH  11  12
ATOM     12  C   UNL     1     178.311 194.993 190.961  1.00  0.00    -0.003 C 
ATOM     13  C   UNL     1     177.532 193.682 190.911  1.00  0.00     0.004 C 
ENDBRANCH  11  12
ENDBRANCH  10  11
ENDBRANCH   9  10
ENDBRANCH   8   9
ENDBRANCH   1   8
TORSDOF 9
ENDMDL
MODEL 6
REMARK VINA RESULT:     0.001     12.161     13.921
REMARK INTER + INTRA:          -1.547
REMARK INTER:                   0.000
REMARK INTRA:                  -1.547
REMARK UNBOUND:                -1.548
REMARK SMILES CCCCCCCCCCC(=O)[O-]
REMARK SMILES IDX 7 1 8 2 9 3 10 4 11 5 12 6 13 7 6 8 5 9 4 10 3 11 2 12 1 13
REMARK H PARENT
REMARK Flexibility Score: inf
ROOT
ATOM      1  C   UNL     1     171.103 184.229 196.043  1.00  0.00     0.000 C 
ENDROOT
BRANCH   1   2
ATOM      2  C   UNL     1     172.241 184.693 196.960  1.00  0.00     0.000 C 
BRANCH   2   3
ATOM      3  C   UNL     1     172.814 183.521 197.765  1.00  0.00     0.006 C 
BRANCH   3   4
ATOM      4  C   UNL     1     172.135 182.204 197.378  1.00  0.00     0.053 C 
BRANCH   4   5
ATOM      5  C   UNL     1     172.031 181.301 198.566  1.00  0.00     0.041 C 
ATOM      6  O   UNL     1     172.902 181.345 199.475  1.00  0.00    -0.550 OA
ATOM      7  O   UNL     1     170.946 180.443 198.695  1.00  0.00    -0.550 OA
ENDBRANCH   4   5
ENDBRANCH   3   4
ENDBRANCH   2   3
ENDBRANCH   1   2
BRANCH   1   8
ATOM      8  C   UNL     1     169.941 185.233 196.058  1.00  0.00     0.000 C 
BRANCH   8   9
ATOM      9  C   UNL     1     169.089 185.134 197.333  1.00  0.00    -0.000 C 
BRANCH   9  10
ATOM     10  C   UNL     1     168.695 183.689 197.672  1.00  0.00    -0.000 C 
BRANCH  10  11
ATOM     11  C   UNL     1     168.967 183.378 199.148  1.00  0.00    -0.000 C 
BRANCH  11  12
ATOM     12  C   UNL     1     169.780 184.498 199.807  1.00  0.00    -0.003 C 
ATOM     13  C   UNL     1     170.735 183.941 200.859  1.00  0.00     0.004 C 
ENDBRANCH  11  12
ENDBRANCH  10  11
ENDBRANCH   9  10
ENDBRANCH   8   9
ENDBRANCH   1   8
TORSDOF 9
ENDMDL
MODEL 7
REMARK VINA RESULT:     0.001     11.627     13.011
REMARK INTER + INTRA:          -1.547
REMARK INTER:                   0.000
REMARK INTRA:                  -1.547
REMARK UNBOUND:                -1.548
REMARK SMILES CCCCCCCCCCC(=O)[O-]
REMARK SMILES IDX 7 1 8 2 9 3 10 4 11 5 12 6 13 7 6 8 5 9 4 10 3 11 2 12 1 13
REMARK H PARENT
REMARK Flexibility Score: inf
ROOT
ATOM      1  C   UNL     1     169.982 191.841 196.083  1.00  0.00     0.000 C 
ENDROOT
BRANCH   1   2
ATOM      2  C   UNL     1     170.994 190.723 196.361  1.00  0.00     0.000 C 
BRANCH   2   3
ATOM      3  C   UNL     1     170.284 189.396 196.655  1.00  0.00     0.006 C 
BRANCH   3   4
ATOM      4  C   UNL     1     168.765 189.545 196.526  1.00  0.00     0.053 C 
BRANCH   4   5
ATOM      5  C   UNL     1     168.068 188.668 197.517  1.00  0.00     0.041 C 
ATOM      6  O   UNL     1     168.589 187.579 197.877  1.00  0.00    -0.550 OA
ATOM      7  O   UNL     1     166.865 189.074 198.080  1.00  0.00    -0.550 OA
ENDBRANCH   4   5
ENDBRANCH   3   4
ENDBRANCH   2   3
ENDBRANCH   1   2
BRANCH   1   8
ATOM      8  C   UNL     1     170.403 193.147 196.772  1.00  0.00     0.000 C 
BRANCH   8   9
ATOM      9  C   UNL     1     170.140 193.130 198.287  1.00  0.00    -0.000 C 
BRANCH   9  10
ATOM     10  C   UNL     1     168.722 192.657 198.636  1.00  0.00    -0.000 C 
BRANCH  10  11
ATOM     11  C   UNL     1     168.754 191.600 199.747  1.00  0.00    -0.000 C 
BRANCH  11  12
ATOM     12  C   UNL     1     170.188 191.130 200.019  1.00  0.00    -0.003 C 
ATOM     13  C   UNL     1     170.221 189.652 200.398  1.00  0.00     0.004 C 
ENDBRANCH  11  12
ENDBRANCH  10  11
ENDBRANCH   9  10
ENDBRANCH   8   9
ENDBRANCH   1   8
TORSDOF 9
ENDMDL
MODEL 8
REMARK VINA RESULT:     0.001      5.614      6.884
REMARK INTER + INTRA:          -1.546
REMARK INTER:                   0.000
REMARK INTRA:                  -1.546
REMARK UNBOUND:                -1.548
REMARK SMILES CCCCCCCCCCC(=O)[O-]
REMARK SMILES IDX 7 1 8 2 9 3 10 4 11 5 12 6 13 7 6 8 5 9 4 10 3 11 2 12 1 13
REMARK H PARENT
REMARK Flexibility Score: inf
ROOT
ATOM      1  C   UNL     1     175.231 191.310 199.096  1.00  0.00     0.000 C 
ENDROOT
BRANCH   1   2
ATOM      2  C   UNL     1     175.578 190.029 199.865  1.00  0.00     0.000 C 
BRANCH   2   3
ATOM      3  C   UNL     1     175.033 188.789 199.145  1.00  0.00     0.006 C 
BRANCH   3   4
ATOM      4  C   UNL     1     174.208 189.184 197.917  1.00  0.00     0.053 C 
BRANCH   4   5
ATOM      5  C   UNL     1     174.369 188.169 196.831  1.00  0.00     0.041 C 
ATOM      6  O   UNL     1     174.354 188.526 195.623  1.00  0.00    -0.550 OA
ATOM      7  O   UNL     1     174.585 186.835 197.151  1.00  0.00    -0.550 OA
ENDBRANCH   4   5
ENDBRANCH   3   4
ENDBRANCH   2   3
ENDBRANCH   1   2
BRANCH   1   8
ATOM      8  C   UNL     1     176.422 192.280 199.080  1.00  0.00     0.000 C 
BRANCH   8   9
ATOM      9  C   UNL     1     177.478 191.906 198.028  1.00  0.00    -0.000 C 
BRANCH   9  10
ATOM     10  C   UNL     1     176.858 191.534 196.673  1.00  0.00    -0.000 C 
BRANCH  10  11
ATOM     11  C   UNL     1     177.442 190.219 196.144  1.00  0.00    -0.000 C 
BRANCH  11  12
ATOM     12  C   UNL     1     178.230 189.487 197.237  1.00  0.00    -0.003 C 
ATOM     13  C   UNL     1     178.078 187.974 197.108  1.00  0.00     0.004 C 
ENDBRANCH  11  12
ENDBRANCH  10  11
ENDBRANCH   9  10
ENDBRANCH   8   9
ENDBRANCH   1   8
TORSDOF 9
ENDMDL
MODEL 9
REMARK VINA RESULT:     0.002      9.321     10.464
REMARK INTER + INTRA:          -1.546
REMARK INTER:                   0.000
REMARK INTRA:                  -1.546
REMARK UNBOUND:                -1.548
REMARK SMILES CCCCCCCCCCC(=O)[O-]
REMARK SMILES IDX 7 1 8 2 9 3 10 4 11 5 12 6 13 7 6 8 5 9 4 10 3 11 2 12 1 13
REMARK H PARENT
REMARK Flexibility Score: inf
ROOT
ATOM      1  C   UNL     1     179.472 181.592 193.417  1.00  0.00     0.000 C 
ENDROOT
BRANCH   1   2
ATOM      2  C   UNL     1     180.078 180.349 194.081  1.00  0.00     0.000 C 
BRANCH   2   3
ATOM      3  C   UNL     1     181.569 180.217 193.748  1.00  0.00     0.006 C 
BRANCH   3   4
ATOM      4  C   UNL     1     182.041 181.379 192.868  1.00  0.00     0.053 C 
BRANCH   4   5
ATOM      5  C   UNL     1     183.466 181.718 193.170  1.00  0.00     0.041 C 
ATOM      6  O   UNL     1     183.864 182.910 193.091  1.00  0.00    -0.550 OA
ATOM      7  O   UNL     1     184.345 180.726 193.586  1.00  0.00    -0.550 OA
ENDBRANCH   4   5
ENDBRANCH   3   4
ENDBRANCH   2   3
ENDBRANCH   1   2
BRANCH   1   8
ATOM      8  C   UNL     1     178.552 182.341 194.392  1.00  0.00     0.000 C 
BRANCH   8   9
ATOM      9  C   UNL     1     179.323 182.997 195.549  1.00  0.00    -0.000 C 
BRANCH   9  10
ATOM     10  C   UNL     1     180.411 183.965 195.062  1.00  0.00    -0.000 C 
BRANCH  10  11
ATOM     11  C   UNL     1     181.725 183.741 195.820  1.00  0.00    -0.000 C 
BRANCH  11  12
ATOM     12  C   UNL     1     181.625 182.522 196.745  1.00  0.00    -0.003 C 
ATOM     13  C   UNL     1     182.966 181.800 196.852  1.00  0.00     0.004 C 
ENDBRANCH  11  12
ENDBRANCH  10  11
ENDBRANCH   9  10
ENDBRANCH   8   9
ENDBRANCH   1   8
TORSDOF 9
ENDMDL
