MODEL 1
REMARK VINA RESULT:    -4.982      0.000      0.000
REMARK INTER + INTRA:          -5.817
REMARK INTER:                  -5.565
REMARK INTRA:                  -0.252
REMARK UNBOUND:                -0.252
REMARK SMILES COc1cc(C)ccc1C(C)C
REMARK SMILES IDX 6 1 5 2 4 3 3 4 9 5 8 6 7 7 2 8 1 9 10 10 11 11 12 12
REMARK H PARENT
REMARK Flexibility Score: inf
ROOT
ATOM      1  C   UNL     1      14.821  18.881  57.854  1.00  0.00     0.044 C 
ATOM      2  C   UNL     1      13.527  18.934  58.613  1.00  0.00    -0.047 A 
ATOM      3  C   UNL     1      12.651  20.013  58.439  1.00  0.00     0.050 A 
ATOM      4  C   UNL     1      11.415  20.056  59.118  1.00  0.00     0.122 A 
ATOM      5  C   UNL     1      11.054  18.988  59.976  1.00  0.00    -0.003 A 
ATOM      6  C   UNL     1      11.939  17.902  60.124  1.00  0.00     0.008 A 
ATOM      7  C   UNL     1      13.156  17.873  59.445  1.00  0.00     0.004 A 
ENDROOT
BRANCH   4   8
ATOM      8  O   UNL     1      10.536  21.139  58.957  1.00  0.00    -0.496 OA
ATOM      9  C   UNL     1       9.726  21.368  57.809  1.00  0.00     0.278 C 
ENDBRANCH   4   8
BRANCH   5  10
ATOM     10  C   UNL     1       9.738  18.965  60.743  1.00  0.00     0.017 C 
ATOM     11  C   UNL     1       9.932  19.316  62.224  1.00  0.00     0.012 C 
ATOM     12  C   UNL     1       8.998  17.631  60.572  1.00  0.00     0.012 C 
ENDBRANCH   5  10
TORSDOF 2
ENDMDL
MODEL 2
REMARK VINA RESULT:    -4.921      2.629      4.163
REMARK INTER + INTRA:          -5.748
REMARK INTER:                  -5.516
REMARK INTRA:                  -0.232
REMARK UNBOUND:                -0.252
REMARK SMILES COc1cc(C)ccc1C(C)C
REMARK SMILES IDX 6 1 5 2 4 3 3 4 9 5 8 6 7 7 2 8 1 9 10 10 11 11 12 12
REMARK H PARENT
REMARK Flexibility Score: inf
ROOT
ATOM      1  C   UNL     1      17.515  18.994  56.651  1.00  0.00     0.044 C 
ATOM      2  C   UNL     1      16.105  18.727  57.091  1.00  0.00    -0.047 A 
ATOM      3  C   UNL     1      15.297  17.840  56.368  1.00  0.00     0.050 A 
ATOM      4  C   UNL     1      13.983  17.552  56.792  1.00  0.00     0.122 A 
ATOM      5  C   UNL     1      13.482  18.160  57.969  1.00  0.00    -0.003 A 
ATOM      6  C   UNL     1      14.315  19.034  58.693  1.00  0.00     0.008 A 
ATOM      7  C   UNL     1      15.612  19.308  58.263  1.00  0.00     0.004 A 
ENDROOT
BRANCH   4   8
ATOM      8  O   UNL     1      13.164  16.671  56.068  1.00  0.00    -0.496 OA
ATOM      9  C   UNL     1      13.456  16.166  54.769  1.00  0.00     0.278 C 
ENDBRANCH   4   8
BRANCH   5  10
ATOM     10  C   UNL     1      12.073  17.898  58.488  1.00  0.00     0.017 C 
ATOM     11  C   UNL     1      11.051  18.866  57.879  1.00  0.00     0.012 C 
ATOM     12  C   UNL     1      12.016  17.908  60.022  1.00  0.00     0.012 C 
ENDBRANCH   5  10
TORSDOF 2
ENDMDL
MODEL 3
REMARK VINA RESULT:    -4.869      2.019      4.451
REMARK INTER + INTRA:          -5.690
REMARK INTER:                  -5.471
REMARK INTRA:                  -0.219
REMARK UNBOUND:                -0.252
REMARK SMILES COc1cc(C)ccc1C(C)C
REMARK SMILES IDX 6 1 5 2 4 3 3 4 9 5 8 6 7 7 2 8 1 9 10 10 11 11 12 12
REMARK H PARENT
REMARK Flexibility Score: inf
ROOT
ATOM      1  C   UNL     1       7.219  17.836  60.355  1.00  0.00     0.044 C 
ATOM      2  C   UNL     1       8.677  17.883  60.002  1.00  0.00    -0.047 A 
ATOM      3  C   UNL     1       9.082  17.773  58.666  1.00  0.00     0.050 A 
ATOM      4  C   UNL     1      10.446  17.852  58.316  1.00  0.00     0.122 A 
ATOM      5  C   UNL     1      11.414  18.058  59.331  1.00  0.00    -0.003 A 
ATOM      6  C   UNL     1      10.987  18.185  60.666  1.00  0.00     0.008 A 
ATOM      7  C   UNL     1       9.634  18.106  60.996  1.00  0.00     0.004 A 
ENDROOT
BRANCH   4   8
ATOM      8  O   UNL     1      10.862  17.733  56.980  1.00  0.00    -0.496 OA
ATOM      9  C   UNL     1      10.948  16.509  56.259  1.00  0.00     0.278 C 
ENDBRANCH   4   8
BRANCH   5  10
ATOM     10  C   UNL     1      12.905  18.153  59.031  1.00  0.00     0.017 C 
ATOM     11  C   UNL     1      13.759  17.724  60.231  1.00  0.00     0.012 C 
ATOM     12  C   UNL     1      13.300  19.547  58.526  1.00  0.00     0.012 C 
ENDBRANCH   5  10
TORSDOF 2
ENDMDL
MODEL 4
REMARK VINA RESULT:    -4.849      2.597      5.092
REMARK INTER + INTRA:          -5.668
REMARK INTER:                  -5.427
REMARK INTRA:                  -0.240
REMARK UNBOUND:                -0.252
REMARK SMILES COc1cc(C)ccc1C(C)C
REMARK SMILES IDX 6 1 5 2 4 3 3 4 9 5 8 6 7 7 2 8 1 9 10 10 11 11 12 12
REMARK H PARENT
REMARK Flexibility Score: inf
ROOT
ATOM      1  C   UNL     1      10.146  21.169  57.951  1.00  0.00     0.044 C 
ATOM      2  C   UNL     1      11.325  20.289  57.652  1.00  0.00    -0.047 A 
ATOM      3  C   UNL     1      12.196  19.905  58.680  1.00  0.00     0.050 A 
ATOM      4  C   UNL     1      13.286  19.049  58.419  1.00  0.00     0.122 A 
ATOM      5  C   UNL     1      13.493  18.566  57.103  1.00  0.00    -0.003 A 
ATOM      6  C   UNL     1      12.597  18.947  56.087  1.00  0.00     0.008 A 
ATOM      7  C   UNL     1      11.523  19.793  56.361  1.00  0.00     0.004 A 
ENDROOT
BRANCH   4   8
ATOM      8  O   UNL     1      14.170  18.667  59.442  1.00  0.00    -0.496 OA
ATOM      9  C   UNL     1      13.893  17.684  60.433  1.00  0.00     0.278 C 
ENDBRANCH   4   8
BRANCH   5  10
ATOM     10  C   UNL     1      14.649  17.640  56.746  1.00  0.00     0.017 C 
ATOM     11  C   UNL     1      15.935  18.420  56.444  1.00  0.00     0.012 C 
ATOM     12  C   UNL     1      14.286  16.685  55.600  1.00  0.00     0.012 C 
ENDBRANCH   5  10
TORSDOF 2
ENDMDL
MODEL 5
REMARK VINA RESULT:    -4.764     12.508     13.990
REMARK INTER + INTRA:          -5.573
REMARK INTER:                  -5.292
REMARK INTRA:                  -0.282
REMARK UNBOUND:                -0.252
REMARK SMILES COc1cc(C)ccc1C(C)C
REMARK SMILES IDX 6 1 5 2 4 3 3 4 9 5 8 6 7 7 2 8 1 9 10 10 11 11 12 12
REMARK H PARENT
REMARK Flexibility Score: inf
ROOT
ATOM      1  C   UNL     1      16.752   8.489  55.131  1.00  0.00     0.044 C 
ATOM      2  C   UNL     1      18.015   9.137  54.642  1.00  0.00    -0.047 A 
ATOM      3  C   UNL     1      17.964  10.371  53.982  1.00  0.00     0.050 A 
ATOM      4  C   UNL     1      19.145  11.008  53.551  1.00  0.00     0.122 A 
ATOM      5  C   UNL     1      20.398  10.394  53.799  1.00  0.00    -0.003 A 
ATOM      6  C   UNL     1      20.431   9.163  54.480  1.00  0.00     0.008 A 
ATOM      7  C   UNL     1      19.254   8.546  54.902  1.00  0.00     0.004 A 
ENDROOT
BRANCH   4   8
ATOM      8  O   UNL     1      19.102  12.242  52.880  1.00  0.00    -0.496 OA
ATOM      9  C   UNL     1      18.757  12.413  51.510  1.00  0.00     0.278 C 
ENDBRANCH   4   8
BRANCH   5  10
ATOM     10  C   UNL     1      21.716  11.021  53.362  1.00  0.00     0.017 C 
ATOM     11  C   UNL     1      22.113  10.589  51.945  1.00  0.00     0.012 C 
ATOM     12  C   UNL     1      22.841  10.752  54.370  1.00  0.00     0.012 C 
ENDBRANCH   5  10
TORSDOF 2
ENDMDL
MODEL 6
REMARK VINA RESULT:    -4.764      2.090      4.702
REMARK INTER + INTRA:          -5.573
REMARK INTER:                  -5.380
REMARK INTRA:                  -0.193
REMARK UNBOUND:                -0.252
REMARK SMILES COc1cc(C)ccc1C(C)C
REMARK SMILES IDX 6 1 5 2 4 3 3 4 9 5 8 6 7 7 2 8 1 9 10 10 11 11 12 12
REMARK H PARENT
REMARK Flexibility Score: inf
ROOT
ATOM      1  C   UNL     1      10.355  17.874  60.652  1.00  0.00     0.044 C 
ATOM      2  C   UNL     1      11.453  17.934  59.630  1.00  0.00    -0.047 A 
ATOM      3  C   UNL     1      11.148  18.149  58.280  1.00  0.00     0.050 A 
ATOM      4  C   UNL     1      12.172  18.244  57.315  1.00  0.00     0.122 A 
ATOM      5  C   UNL     1      13.525  18.132  57.723  1.00  0.00    -0.003 A 
ATOM      6  C   UNL     1      13.813  17.936  59.087  1.00  0.00     0.008 A 
ATOM      7  C   UNL     1      12.790  17.845  60.029  1.00  0.00     0.004 A 
ENDROOT
BRANCH   4   8
ATOM      8  O   UNL     1      11.875  18.450  55.958  1.00  0.00    -0.496 OA
ATOM      9  C   UNL     1      11.529  19.703  55.381  1.00  0.00     0.278 C 
ENDBRANCH   4   8
BRANCH   5  10
ATOM     10  C   UNL     1      14.685  18.224  56.739  1.00  0.00     0.017 C 
ATOM     11  C   UNL     1      14.858  16.928  55.936  1.00  0.00     0.012 C 
ATOM     12  C   UNL     1      15.991  18.639  57.429  1.00  0.00     0.012 C 
ENDBRANCH   5  10
TORSDOF 2
ENDMDL
MODEL 7
REMARK VINA RESULT:    -4.728      2.835      5.373
REMARK INTER + INTRA:          -5.533
REMARK INTER:                  -5.264
REMARK INTRA:                  -0.269
REMARK UNBOUND:                -0.252
REMARK SMILES COc1cc(C)ccc1C(C)C
REMARK SMILES IDX 6 1 5 2 4 3 3 4 9 5 8 6 7 7 2 8 1 9 10 10 11 11 12 12
REMARK H PARENT
REMARK Flexibility Score: inf
ROOT
ATOM      1  C   UNL     1      11.294  18.255  60.351  1.00  0.00     0.044 C 
ATOM      2  C   UNL     1      12.081  18.046  59.090  1.00  0.00    -0.047 A 
ATOM      3  C   UNL     1      13.463  18.274  59.076  1.00  0.00     0.050 A 
ATOM      4  C   UNL     1      14.220  18.046  57.908  1.00  0.00     0.122 A 
ATOM      5  C   UNL     1      13.573  17.571  56.740  1.00  0.00    -0.003 A 
ATOM      6  C   UNL     1      12.186  17.330  56.779  1.00  0.00     0.008 A 
ATOM      7  C   UNL     1      11.452  17.558  57.941  1.00  0.00     0.004 A 
ENDROOT
BRANCH   4   8
ATOM      8  O   UNL     1      15.604  18.281  57.883  1.00  0.00    -0.496 OA
ATOM      9  C   UNL     1      16.219  19.553  58.055  1.00  0.00     0.278 C 
ENDBRANCH   4   8
BRANCH   5  10
ATOM     10  C   UNL     1      14.323  17.303  55.442  1.00  0.00     0.017 C 
ATOM     11  C   UNL     1      14.456  18.569  54.586  1.00  0.00     0.012 C 
ATOM     12  C   UNL     1      13.700  16.147  54.647  1.00  0.00     0.012 C 
ENDBRANCH   5  10
TORSDOF 2
ENDMDL
MODEL 8
REMARK VINA RESULT:    -4.640      2.548      4.342
REMARK INTER + INTRA:          -5.434
REMARK INTER:                  -5.205
REMARK INTRA:                  -0.230
REMARK UNBOUND:                -0.252
REMARK SMILES COc1cc(C)ccc1C(C)C
REMARK SMILES IDX 6 1 5 2 4 3 3 4 9 5 8 6 7 7 2 8 1 9 10 10 11 11 12 12
REMARK H PARENT
REMARK Flexibility Score: inf
ROOT
ATOM      1  C   UNL     1      17.100  19.287  57.648  1.00  0.00     0.044 C 
ATOM      2  C   UNL     1      15.757  18.671  57.384  1.00  0.00    -0.047 A 
ATOM      3  C   UNL     1      14.679  18.938  58.238  1.00  0.00     0.050 A 
ATOM      4  C   UNL     1      13.403  18.395  57.981  1.00  0.00     0.122 A 
ATOM      5  C   UNL     1      13.210  17.579  56.838  1.00  0.00    -0.003 A 
ATOM      6  C   UNL     1      14.301  17.338  55.981  1.00  0.00     0.008 A 
ATOM      7  C   UNL     1      15.556  17.882  56.247  1.00  0.00     0.004 A 
ENDROOT
BRANCH   4   8
ATOM      8  O   UNL     1      12.319  18.650  58.837  1.00  0.00    -0.496 OA
ATOM      9  C   UNL     1      12.048  17.942  60.042  1.00  0.00     0.278 C 
ENDBRANCH   4   8
BRANCH   5  10
ATOM     10  C   UNL     1      11.862  16.957  56.496  1.00  0.00     0.017 C 
ATOM     11  C   UNL     1      12.019  15.616  55.768  1.00  0.00     0.012 C 
ATOM     12  C   UNL     1      10.967  17.925  55.710  1.00  0.00     0.012 C 
ENDBRANCH   5  10
TORSDOF 2
ENDMDL
MODEL 9
REMARK VINA RESULT:    -4.581     12.736     14.124
REMARK INTER + INTRA:          -5.369
REMARK INTER:                  -5.094
REMARK INTRA:                  -0.275
REMARK UNBOUND:                -0.252
REMARK SMILES COc1cc(C)ccc1C(C)C
REMARK SMILES IDX 6 1 5 2 4 3 3 4 9 5 8 6 7 7 2 8 1 9 10 10 11 11 12 12
REMARK H PARENT
REMARK Flexibility Score: inf
ROOT
ATOM      1  C   UNL     1      17.447   7.723  55.127  1.00  0.00     0.044 C 
ATOM      2  C   UNL     1      18.155   8.844  54.422  1.00  0.00    -0.047 A 
ATOM      3  C   UNL     1      19.506   8.716  54.075  1.00  0.00     0.050 A 
ATOM      4  C   UNL     1      20.173   9.746  53.381  1.00  0.00     0.122 A 
ATOM      5  C   UNL     1      19.462  10.918  53.021  1.00  0.00    -0.003 A 
ATOM      6  C   UNL     1      18.100  11.020  53.361  1.00  0.00     0.008 A 
ATOM      7  C   UNL     1      17.454   9.993  54.047  1.00  0.00     0.004 A 
ENDROOT
BRANCH   4   8
ATOM      8  O   UNL     1      21.530   9.630  53.038  1.00  0.00    -0.496 OA
ATOM      9  C   UNL     1      22.617   9.802  53.941  1.00  0.00     0.278 C 
ENDBRANCH   4   8
BRANCH   5  10
ATOM     10  C   UNL     1      20.115  12.072  52.272  1.00  0.00     0.017 C 
ATOM     11  C   UNL     1      20.810  13.053  53.225  1.00  0.00     0.012 C 
ATOM     12  C   UNL     1      19.123  12.790  51.348  1.00  0.00     0.012 C 
ENDBRANCH   5  10
TORSDOF 2
ENDMDL
