MODEL 1
REMARK VINA RESULT:    -3.277      0.000      0.000
REMARK INTER + INTRA:          -4.893
REMARK INTER:                  -4.426
REMARK INTRA:                  -0.467
REMARK UNBOUND:                -0.467
REMARK SMILES CCCCCCCC(=O)[O-]
REMARK SMILES IDX 5 1 6 2 7 3 8 4 9 5 10 6 4 7 3 8 2 9 1 10
REMARK H PARENT
REMARK Flexibility Score: inf
ROOT
ATOM      1  C   UNL     1      11.893  20.430  15.970  1.00  0.00     0.000 C 
ENDROOT
BRANCH   1   2
ATOM      2  C   UNL     1      10.425  20.883  16.042  1.00  0.00     0.006 C 
BRANCH   2   3
ATOM      3  C   UNL     1       9.507  19.784  16.592  1.00  0.00     0.053 C 
BRANCH   3   4
ATOM      4  C   UNL     1       9.803  19.481  18.029  1.00  0.00     0.041 C 
ATOM      5  O   UNL     1       9.501  20.310  18.928  1.00  0.00    -0.550 OA
ATOM      6  O   UNL     1      10.445  18.298  18.373  1.00  0.00    -0.550 OA
ENDBRANCH   3   4
ENDBRANCH   2   3
ENDBRANCH   1   2
BRANCH   1   7
ATOM      7  C   UNL     1      12.882  21.591  16.160  1.00  0.00     0.000 C 
BRANCH   7   8
ATOM      8  C   UNL     1      12.293  22.736  17.003  1.00  0.00    -0.000 C 
BRANCH   8   9
ATOM      9  C   UNL     1      13.031  22.922  18.339  1.00  0.00    -0.003 C 
ATOM     10  C   UNL     1      12.352  22.192  19.497  1.00  0.00     0.004 C 
ENDBRANCH   8   9
ENDBRANCH   7   8
ENDBRANCH   1   7
TORSDOF 6
ENDMDL
MODEL 2
REMARK VINA RESULT:    -3.232      1.287      3.318
REMARK INTER + INTRA:          -4.833
REMARK INTER:                  -4.300
REMARK INTRA:                  -0.533
REMARK UNBOUND:                -0.467
REMARK SMILES CCCCCCCC(=O)[O-]
REMARK SMILES IDX 5 1 6 2 7 3 8 4 9 5 10 6 4 7 3 8 2 9 1 10
REMARK H PARENT
REMARK Flexibility Score: inf
ROOT
ATOM      1  C   UNL     1      13.167  22.962  18.305  1.00  0.00     0.000 C 
ENDROOT
BRANCH   1   2
ATOM      2  C   UNL     1      12.566  22.384  19.598  1.00  0.00     0.006 C 
BRANCH   2   3
ATOM      3  C   UNL     1      11.072  22.070  19.452  1.00  0.00     0.053 C 
BRANCH   3   4
ATOM      4  C   UNL     1      10.702  20.797  20.149  1.00  0.00     0.041 C 
ATOM      5  O   UNL     1      10.670  19.711  19.514  1.00  0.00    -0.550 OA
ATOM      6  O   UNL     1      10.358  20.816  21.495  1.00  0.00    -0.550 OA
ENDBRANCH   3   4
ENDBRANCH   2   3
ENDBRANCH   1   2
BRANCH   1   7
ATOM      7  C   UNL     1      12.273  22.725  17.078  1.00  0.00     0.000 C 
BRANCH   7   8
ATOM      8  C   UNL     1      12.807  21.605  16.167  1.00  0.00    -0.000 C 
BRANCH   8   9
ATOM      9  C   UNL     1      11.839  20.415  16.068  1.00  0.00    -0.003 C 
ATOM     10  C   UNL     1      10.381  20.848  15.921  1.00  0.00     0.004 C 
ENDBRANCH   8   9
ENDBRANCH   7   8
ENDBRANCH   1   7
TORSDOF 6
ENDMDL
MODEL 3
REMARK VINA RESULT:    -3.204      0.954      1.554
REMARK INTER + INTRA:          -4.795
REMARK INTER:                  -4.324
REMARK INTRA:                  -0.470
REMARK UNBOUND:                -0.467
REMARK SMILES CCCCCCCC(=O)[O-]
REMARK SMILES IDX 5 1 6 2 7 3 8 4 9 5 10 6 4 7 3 8 2 9 1 10
REMARK H PARENT
REMARK Flexibility Score: inf
ROOT
ATOM      1  C   UNL     1      12.687  21.654  16.258  1.00  0.00     0.000 C 
ENDROOT
BRANCH   1   2
ATOM      2  C   UNL     1      11.740  20.488  15.927  1.00  0.00     0.006 C 
BRANCH   2   3
ATOM      3  C   UNL     1      10.349  20.679  16.545  1.00  0.00     0.053 C 
BRANCH   3   4
ATOM      4  C   UNL     1       9.850  19.421  17.188  1.00  0.00     0.041 C 
ATOM      5  O   UNL     1      10.457  18.928  18.174  1.00  0.00    -0.550 OA
ATOM      6  O   UNL     1       8.733  18.774  16.674  1.00  0.00    -0.550 OA
ENDBRANCH   3   4
ENDBRANCH   2   3
ENDBRANCH   1   2
BRANCH   1   7
ATOM      7  C   UNL     1      12.121  22.590  17.338  1.00  0.00     0.000 C 
BRANCH   7   8
ATOM      8  C   UNL     1      13.207  23.111  18.296  1.00  0.00    -0.000 C 
BRANCH   8   9
ATOM      9  C   UNL     1      12.905  22.779  19.765  1.00  0.00    -0.003 C 
ATOM     10  C   UNL     1      11.818  21.716  19.920  1.00  0.00     0.004 C 
ENDBRANCH   8   9
ENDBRANCH   7   8
ENDBRANCH   1   7
TORSDOF 6
ENDMDL
MODEL 4
REMARK VINA RESULT:    -3.072     21.761     23.407
REMARK INTER + INTRA:          -4.616
REMARK INTER:                  -4.181
REMARK INTRA:                  -0.435
REMARK UNBOUND:                -0.467
REMARK SMILES CCCCCCCC(=O)[O-]
REMARK SMILES IDX 5 1 6 2 7 3 8 4 9 5 10 6 4 7 3 8 2 9 1 10
REMARK H PARENT
REMARK Flexibility Score: inf
ROOT
ATOM      1  C   UNL     1       9.953   4.556  36.125  1.00  0.00     0.000 C 
ENDROOT
BRANCH   1   2
ATOM      2  C   UNL     1       8.863   5.479  35.554  1.00  0.00     0.006 C 
BRANCH   2   3
ATOM      3  C   UNL     1       8.916   5.559  34.022  1.00  0.00     0.053 C 
BRANCH   3   4
ATOM      4  C   UNL     1       9.504   6.854  33.555  1.00  0.00     0.041 C 
ATOM      5  O   UNL     1       9.007   7.949  33.927  1.00  0.00    -0.550 OA
ATOM      6  O   UNL     1      10.582   6.852  32.678  1.00  0.00    -0.550 OA
ENDBRANCH   3   4
ENDBRANCH   2   3
ENDBRANCH   1   2
BRANCH   1   7
ATOM      7  C   UNL     1      11.361   5.166  36.021  1.00  0.00     0.000 C 
BRANCH   7   8
ATOM      8  C   UNL     1      12.455   4.097  35.852  1.00  0.00    -0.000 C 
BRANCH   8   9
ATOM      9  C   UNL     1      12.086   3.039  34.800  1.00  0.00    -0.003 C 
ATOM     10  C   UNL     1      12.172   3.571  33.370  1.00  0.00     0.004 C 
ENDBRANCH   8   9
ENDBRANCH   7   8
ENDBRANCH   1   7
TORSDOF 6
ENDMDL
MODEL 5
REMARK VINA RESULT:    -3.050     22.365     23.985
REMARK INTER + INTRA:          -4.587
REMARK INTER:                  -4.128
REMARK INTRA:                  -0.459
REMARK UNBOUND:                -0.467
REMARK SMILES CCCCCCCC(=O)[O-]
REMARK SMILES IDX 5 1 6 2 7 3 8 4 9 5 10 6 4 7 3 8 2 9 1 10
REMARK H PARENT
REMARK Flexibility Score: inf
ROOT
ATOM      1  C   UNL     1      12.590   4.023  35.828  1.00  0.00     0.000 C 
ENDROOT
BRANCH   1   2
ATOM      2  C   UNL     1      11.556   5.123  36.124  1.00  0.00     0.006 C 
BRANCH   2   3
ATOM      3  C   UNL     1      10.115   4.624  35.956  1.00  0.00     0.053 C 
BRANCH   3   4
ATOM      4  C   UNL     1       9.216   5.694  35.418  1.00  0.00     0.041 C 
ATOM      5  O   UNL     1       9.506   6.288  34.348  1.00  0.00    -0.550 OA
ATOM      6  O   UNL     1       8.073   6.059  36.120  1.00  0.00    -0.550 OA
ENDBRANCH   3   4
ENDBRANCH   2   3
ENDBRANCH   1   2
BRANCH   1   7
ATOM      7  C   UNL     1      12.081   2.989  34.810  1.00  0.00     0.000 C 
BRANCH   7   8
ATOM      8  C   UNL     1      12.997   2.875  33.578  1.00  0.00    -0.000 C 
BRANCH   8   9
ATOM      9  C   UNL     1      12.225   3.011  32.257  1.00  0.00    -0.003 C 
ATOM     10  C   UNL     1      11.520   4.360  32.118  1.00  0.00     0.004 C 
ENDBRANCH   8   9
ENDBRANCH   7   8
ENDBRANCH   1   7
TORSDOF 6
ENDMDL
MODEL 6
REMARK VINA RESULT:    -3.036     11.591     12.240
REMARK INTER + INTRA:          -4.568
REMARK INTER:                  -4.411
REMARK INTRA:                  -0.157
REMARK UNBOUND:                -0.467
REMARK SMILES CCCCCCCC(=O)[O-]
REMARK SMILES IDX 5 1 6 2 7 3 8 4 9 5 10 6 4 7 3 8 2 9 1 10
REMARK H PARENT
REMARK Flexibility Score: inf
ROOT
ATOM      1  C   UNL     1      11.129  22.092  30.126  1.00  0.00     0.000 C 
ENDROOT
BRANCH   1   2
ATOM      2  C   UNL     1       9.802  22.869  30.110  1.00  0.00     0.006 C 
BRANCH   2   3
ATOM      3  C   UNL     1       9.047  22.700  28.785  1.00  0.00     0.053 C 
BRANCH   3   4
ATOM      4  C   UNL     1       8.088  21.551  28.835  1.00  0.00     0.041 C 
ATOM      5  O   UNL     1       7.831  20.985  29.930  1.00  0.00    -0.550 OA
ATOM      6  O   UNL     1       7.504  21.082  27.665  1.00  0.00    -0.550 OA
ENDBRANCH   3   4
ENDBRANCH   2   3
ENDBRANCH   1   2
BRANCH   1   7
ATOM      7  C   UNL     1      12.200  22.726  29.224  1.00  0.00     0.000 C 
BRANCH   7   8
ATOM      8  C   UNL     1      13.474  23.105  29.999  1.00  0.00    -0.000 C 
BRANCH   8   9
ATOM      9  C   UNL     1      14.752  22.879  29.176  1.00  0.00    -0.003 C 
ATOM     10  C   UNL     1      15.795  22.043  29.917  1.00  0.00     0.004 C 
ENDBRANCH   8   9
ENDBRANCH   7   8
ENDBRANCH   1   7
TORSDOF 6
ENDMDL
MODEL 7
REMARK VINA RESULT:    -3.030      1.233      2.798
REMARK INTER + INTRA:          -4.560
REMARK INTER:                  -4.004
REMARK INTRA:                  -0.556
REMARK UNBOUND:                -0.467
REMARK SMILES CCCCCCCC(=O)[O-]
REMARK SMILES IDX 5 1 6 2 7 3 8 4 9 5 10 6 4 7 3 8 2 9 1 10
REMARK H PARENT
REMARK Flexibility Score: inf
ROOT
ATOM      1  C   UNL     1      11.719  22.105  19.975  1.00  0.00     0.000 C 
ENDROOT
BRANCH   1   2
ATOM      2  C   UNL     1      11.106  20.694  20.000  1.00  0.00     0.006 C 
BRANCH   2   3
ATOM      3  C   UNL     1       9.841  20.597  19.137  1.00  0.00     0.053 C 
BRANCH   3   4
ATOM      4  C   UNL     1       9.927  19.472  18.151  1.00  0.00     0.041 C 
ATOM      5  O   UNL     1      10.453  18.377  18.481  1.00  0.00    -0.550 OA
ATOM      6  O   UNL     1       9.457  19.646  16.855  1.00  0.00    -0.550 OA
ENDBRANCH   3   4
ENDBRANCH   2   3
ENDBRANCH   1   2
BRANCH   1   7
ATOM      7  C   UNL     1      12.617  22.340  18.749  1.00  0.00     0.000 C 
BRANCH   7   8
ATOM      8  C   UNL     1      11.900  23.124  17.636  1.00  0.00    -0.000 C 
BRANCH   8   9
ATOM      9  C   UNL     1      11.773  22.315  16.335  1.00  0.00    -0.003 C 
ATOM     10  C   UNL     1      12.845  21.234  16.203  1.00  0.00     0.004 C 
ENDBRANCH   8   9
ENDBRANCH   7   8
ENDBRANCH   1   7
TORSDOF 6
ENDMDL
