MODEL 1
REMARK VINA RESULT:    -3.576      0.000      0.000
REMARK INTER + INTRA:          -4.468
REMARK INTER:                  -4.412
REMARK INTRA:                  -0.055
REMARK UNBOUND:                -0.055
REMARK SMILES CCCCCC=O
REMARK SMILES IDX 4 1 3 2 2 3 1 4 5 5 6 6 7 7
REMARK H PARENT
REMARK Flexibility Score: inf
ROOT
ATOM      1  C   UNL     1      24.990  57.793  -8.421  1.00  0.00     0.008 C 
ENDROOT
BRANCH   1   2
ATOM      2  C   UNL     1      26.275  58.131  -9.194  1.00  0.00     0.000 C 
BRANCH   2   3
ATOM      3  C   UNL     1      26.794  59.543  -8.887  1.00  0.00    -0.003 C 
ATOM      4  C   UNL     1      28.044  59.858  -9.704  1.00  0.00     0.004 C 
ENDBRANCH   2   3
ENDBRANCH   1   2
BRANCH   1   5
ATOM      5  C   UNL     1      24.589  56.317  -8.558  1.00  0.00     0.072 C 
BRANCH   5   6
ATOM      6  C   UNL     1      25.002  55.537  -7.347  1.00  0.00     0.224 C 
ATOM      7  O   UNL     1      25.953  54.773  -7.397  1.00  0.00    -0.303 OA
ENDBRANCH   5   6
ENDBRANCH   1   5
TORSDOF 4
ENDMDL
MODEL 2
REMARK VINA RESULT:    -3.425      2.484      4.596
REMARK INTER + INTRA:          -4.282
REMARK INTER:                  -4.249
REMARK INTRA:                  -0.033
REMARK UNBOUND:                -0.055
REMARK SMILES CCCCCC=O
REMARK SMILES IDX 4 1 3 2 2 3 1 4 5 5 6 6 7 7
REMARK H PARENT
REMARK Flexibility Score: inf
ROOT
ATOM      1  C   UNL     1      25.617  57.905  -8.426  1.00  0.00     0.008 C 
ENDROOT
BRANCH   1   2
ATOM      2  C   UNL     1      25.083  56.527  -8.848  1.00  0.00     0.000 C 
BRANCH   2   3
ATOM      3  C   UNL     1      25.010  55.538  -7.675  1.00  0.00    -0.003 C 
ATOM      4  C   UNL     1      23.563  55.170  -7.358  1.00  0.00     0.004 C 
ENDBRANCH   2   3
ENDBRANCH   1   2
BRANCH   1   5
ATOM      5  C   UNL     1      26.569  58.514  -9.465  1.00  0.00     0.072 C 
BRANCH   5   6
ATOM      6  C   UNL     1      26.979  59.899  -9.066  1.00  0.00     0.224 C 
ATOM      7  O   UNL     1      28.061  60.348  -9.412  1.00  0.00    -0.303 OA
ENDBRANCH   5   6
ENDBRANCH   1   5
TORSDOF 4
ENDMDL
MODEL 3
REMARK VINA RESULT:    -3.287     16.598     17.776
REMARK INTER + INTRA:          -4.110
REMARK INTER:                  -3.994
REMARK INTRA:                  -0.116
REMARK UNBOUND:                -0.055
REMARK SMILES CCCCCC=O
REMARK SMILES IDX 4 1 3 2 2 3 1 4 5 5 6 6 7 7
REMARK H PARENT
REMARK Flexibility Score: inf
ROOT
ATOM      1  C   UNL     1      19.091  44.295   1.718  1.00  0.00     0.008 C 
ENDROOT
BRANCH   1   2
ATOM      2  C   UNL     1      19.432  44.992   0.391  1.00  0.00     0.000 C 
BRANCH   2   3
ATOM      3  C   UNL     1      18.270  45.843  -0.143  1.00  0.00    -0.003 C 
ATOM      4  C   UNL     1      16.928  45.167   0.121  1.00  0.00     0.004 C 
ENDBRANCH   2   3
ENDBRANCH   1   2
BRANCH   1   5
ATOM      5  C   UNL     1      19.642  42.864   1.793  1.00  0.00     0.072 C 
BRANCH   5   6
ATOM      6  C   UNL     1      21.049  42.805   1.281  1.00  0.00     0.224 C 
ATOM      7  O   UNL     1      21.343  42.054   0.364  1.00  0.00    -0.303 OA
ENDBRANCH   5   6
ENDBRANCH   1   5
TORSDOF 4
ENDMDL
MODEL 4
REMARK VINA RESULT:    -3.146     16.769     17.829
REMARK INTER + INTRA:          -3.937
REMARK INTER:                  -3.807
REMARK INTRA:                  -0.130
REMARK UNBOUND:                -0.055
REMARK SMILES CCCCCC=O
REMARK SMILES IDX 4 1 3 2 2 3 1 4 5 5 6 6 7 7
REMARK H PARENT
REMARK Flexibility Score: inf
ROOT
ATOM      1  C   UNL     1      19.482  45.057   0.263  1.00  0.00     0.008 C 
ENDROOT
BRANCH   1   2
ATOM      2  C   UNL     1      19.495  44.529   1.706  1.00  0.00     0.000 C 
BRANCH   2   3
ATOM      3  C   UNL     1      19.828  43.032   1.783  1.00  0.00    -0.003 C 
ATOM      4  C   UNL     1      20.947  42.668   0.811  1.00  0.00     0.004 C 
ENDBRANCH   2   3
ENDBRANCH   1   2
BRANCH   1   5
ATOM      5  C   UNL     1      18.166  45.762  -0.097  1.00  0.00     0.072 C 
BRANCH   5   6
ATOM      6  C   UNL     1      16.990  44.880   0.192  1.00  0.00     0.224 C 
ATOM      7  O   UNL     1      16.104  45.255   0.944  1.00  0.00    -0.303 OA
ENDBRANCH   5   6
ENDBRANCH   1   5
TORSDOF 4
ENDMDL
MODEL 5
REMARK VINA RESULT:    -3.125     17.282     18.347
REMARK INTER + INTRA:          -3.911
REMARK INTER:                  -3.795
REMARK INTRA:                  -0.116
REMARK UNBOUND:                -0.055
REMARK SMILES CCCCCC=O
REMARK SMILES IDX 4 1 3 2 2 3 1 4 5 5 6 6 7 7
REMARK H PARENT
REMARK Flexibility Score: inf
ROOT
ATOM      1  C   UNL     1      19.169  44.705   0.544  1.00  0.00     0.008 C 
ENDROOT
BRANCH   1   2
ATOM      2  C   UNL     1      17.662  44.955   0.373  1.00  0.00     0.000 C 
BRANCH   2   3
ATOM      3  C   UNL     1      16.814  44.152   1.372  1.00  0.00    -0.003 C 
ATOM      4  C   UNL     1      15.559  44.924   1.770  1.00  0.00     0.004 C 
ENDBRANCH   2   3
ENDBRANCH   1   2
BRANCH   1   5
ATOM      5  C   UNL     1      19.499  43.932   1.828  1.00  0.00     0.072 C 
BRANCH   5   6
ATOM      6  C   UNL     1      20.734  43.102   1.651  1.00  0.00     0.224 C 
ATOM      7  O   UNL     1      20.958  42.545   0.587  1.00  0.00    -0.303 OA
ENDBRANCH   5   6
ENDBRANCH   1   5
TORSDOF 4
ENDMDL
MODEL 6
REMARK VINA RESULT:    -3.060     16.885     17.838
REMARK INTER + INTRA:          -3.831
REMARK INTER:                  -3.715
REMARK INTRA:                  -0.117
REMARK UNBOUND:                -0.055
REMARK SMILES CCCCCC=O
REMARK SMILES IDX 4 1 3 2 2 3 1 4 5 5 6 6 7 7
REMARK H PARENT
REMARK Flexibility Score: inf
ROOT
ATOM      1  C   UNL     1      18.079  45.708  -0.073  1.00  0.00     0.008 C 
ENDROOT
BRANCH   1   2
ATOM      2  C   UNL     1      19.513  45.267   0.261  1.00  0.00     0.000 C 
BRANCH   2   3
ATOM      3  C   UNL     1      19.582  44.387   1.518  1.00  0.00    -0.003 C 
ATOM      4  C   UNL     1      20.435  43.145   1.272  1.00  0.00     0.004 C 
ENDBRANCH   2   3
ENDBRANCH   1   2
BRANCH   1   5
ATOM      5  C   UNL     1      17.031  44.658   0.321  1.00  0.00     0.072 C 
BRANCH   5   6
ATOM      6  C   UNL     1      15.744  45.313   0.724  1.00  0.00     0.224 C 
ATOM      7  O   UNL     1      15.369  45.278   1.885  1.00  0.00    -0.303 OA
ENDBRANCH   5   6
ENDBRANCH   1   5
TORSDOF 4
ENDMDL
MODEL 7
REMARK VINA RESULT:    -3.002      1.568      2.716
REMARK INTER + INTRA:          -3.759
REMARK INTER:                  -3.659
REMARK INTRA:                  -0.100
REMARK UNBOUND:                -0.055
REMARK SMILES CCCCCC=O
REMARK SMILES IDX 4 1 3 2 2 3 1 4 5 5 6 6 7 7
REMARK H PARENT
REMARK Flexibility Score: inf
ROOT
ATOM      1  C   UNL     1      26.836  59.921  -8.790  1.00  0.00     0.008 C 
ENDROOT
BRANCH   1   2
ATOM      2  C   UNL     1      28.158  60.533  -9.280  1.00  0.00     0.000 C 
BRANCH   2   3
ATOM      3  C   UNL     1      28.929  59.596 -10.221  1.00  0.00    -0.003 C 
ATOM      4  C   UNL     1      30.416  59.574  -9.877  1.00  0.00     0.004 C 
ENDBRANCH   2   3
ENDBRANCH   1   2
BRANCH   1   5
ATOM      5  C   UNL     1      26.621  58.491  -9.304  1.00  0.00     0.072 C 
BRANCH   5   6
ATOM      6  C   UNL     1      25.518  57.812  -8.549  1.00  0.00     0.224 C 
ATOM      7  O   UNL     1      25.250  56.640  -8.765  1.00  0.00    -0.303 OA
ENDBRANCH   5   6
ENDBRANCH   1   5
TORSDOF 4
ENDMDL
MODEL 8
REMARK VINA RESULT:    -2.967     16.876     18.654
REMARK INTER + INTRA:          -3.716
REMARK INTER:                  -3.482
REMARK INTRA:                  -0.234
REMARK UNBOUND:                -0.055
REMARK SMILES CCCCCC=O
REMARK SMILES IDX 4 1 3 2 2 3 1 4 5 5 6 6 7 7
REMARK H PARENT
REMARK Flexibility Score: inf
ROOT
ATOM      1  C   UNL     1      18.706  42.404   0.333  1.00  0.00     0.008 C 
ENDROOT
BRANCH   1   2
ATOM      2  C   UNL     1      19.994  42.938   0.979  1.00  0.00     0.000 C 
BRANCH   2   3
ATOM      3  C   UNL     1      19.869  44.404   1.421  1.00  0.00    -0.003 C 
ATOM      4  C   UNL     1      19.466  45.297   0.250  1.00  0.00     0.004 C 
ENDBRANCH   2   3
ENDBRANCH   1   2
BRANCH   1   5
ATOM      5  C   UNL     1      17.608  42.104   1.363  1.00  0.00     0.072 C 
BRANCH   5   6
ATOM      6  C   UNL     1      16.411  42.978   1.140  1.00  0.00     0.224 C 
ATOM      7  O   UNL     1      16.351  44.087   1.647  1.00  0.00    -0.303 OA
ENDBRANCH   5   6
ENDBRANCH   1   5
TORSDOF 4
ENDMDL
MODEL 9
REMARK VINA RESULT:    -2.954     16.889     18.667
REMARK INTER + INTRA:          -3.700
REMARK INTER:                  -3.474
REMARK INTRA:                  -0.226
REMARK UNBOUND:                -0.055
REMARK SMILES CCCCCC=O
REMARK SMILES IDX 4 1 3 2 2 3 1 4 5 5 6 6 7 7
REMARK H PARENT
REMARK Flexibility Score: inf
ROOT
ATOM      1  C   UNL     1      17.615  43.550   1.422  1.00  0.00     0.008 C 
ENDROOT
BRANCH   1   2
ATOM      2  C   UNL     1      18.858  43.788   2.295  1.00  0.00     0.000 C 
BRANCH   2   3
ATOM      3  C   UNL     1      19.972  44.533   1.545  1.00  0.00    -0.003 C 
ATOM      4  C   UNL     1      19.429  45.210   0.289  1.00  0.00     0.004 C 
ENDBRANCH   2   3
ENDBRANCH   1   2
BRANCH   1   5
ATOM      5  C   UNL     1      17.302  42.059   1.232  1.00  0.00     0.072 C 
BRANCH   5   6
ATOM      6  C   UNL     1      17.667  41.608  -0.149  1.00  0.00     0.224 C 
ATOM      7  O   UNL     1      18.832  41.619  -0.517  1.00  0.00    -0.303 OA
ENDBRANCH   5   6
ENDBRANCH   1   5
TORSDOF 4
ENDMDL
