MODEL 1
REMARK VINA RESULT:     6.104      0.000      0.000
REMARK INTER + INTRA:           7.303
REMARK INTER:                   6.461
REMARK INTRA:                   0.842
REMARK UNBOUND:                 0.842
REMARK SMILES CC1=CC[C@]23[C@H]([C@@H](C(C)C)CC[C@@H]2C)[C@@H]13
REMARK SMILES IDX 14 1 13 2 12 3 11 4 7 5 6 6 5 7 15 8 2 9 3 10 4 11 1 12 8 13
REMARK SMILES IDX 9 14 10 15
REMARK H PARENT
REMARK Flexibility Score: inf
ROOT
ATOM      1  C   UNL     1       4.044   4.875  12.013  1.00  0.00     0.008 C 
ATOM      2  C   UNL     1       4.670   5.990  12.871  1.00  0.00    -0.007 C 
ATOM      3  C   UNL     1       5.729   5.405  13.832  1.00  0.00     0.004 C 
ATOM      4  C   UNL     1       7.052   5.148  13.114  1.00  0.00     0.004 C 
ATOM      5  C   UNL     1       7.730   6.456  12.648  1.00  0.00    -0.004 C 
ATOM      6  C   UNL     1       6.746   7.371  11.863  1.00  0.00     0.007 C 
ATOM      7  C   UNL     1       5.229   7.125  11.968  1.00  0.00    -0.013 C 
ATOM      8  C   UNL     1       5.866   8.297  12.715  1.00  0.00     0.025 C 
ATOM      9  C   UNL     1       5.351   9.511  12.020  1.00  0.00    -0.073 C 
ATOM     10  C   UNL     1       4.517   9.220  11.032  1.00  0.00    -0.027 C 
ATOM     11  C   UNL     1       4.327   7.752  10.885  1.00  0.00     0.035 C 
ATOM     12  C   UNL     1       5.739  10.907  12.393  1.00  0.00     0.039 C 
ENDROOT
BRANCH   5  13
ATOM     13  C   UNL     1       8.521   7.217  13.768  1.00  0.00    -0.014 C 
ATOM     14  C   UNL     1       7.564   8.008  14.682  1.00  0.00     0.007 C 
ATOM     15  C   UNL     1       9.563   8.195  13.190  1.00  0.00     0.007 C 
ENDBRANCH   5  13
TORSDOF 1
ENDMDL
MODEL 2
REMARK VINA RESULT:     8.155      1.040      3.636
REMARK INTER + INTRA:           9.473
REMARK INTER:                   8.429
REMARK INTRA:                   1.044
REMARK UNBOUND:                 0.842
REMARK SMILES CC1=CC[C@]23[C@H]([C@@H](C(C)C)CC[C@@H]2C)[C@@H]13
REMARK SMILES IDX 14 1 13 2 12 3 11 4 7 5 6 6 5 7 15 8 2 9 3 10 4 11 1 12 8 13
REMARK SMILES IDX 9 14 10 15
REMARK H PARENT
REMARK Flexibility Score: inf
ROOT
ATOM      1  C   UNL     1       9.324   7.184  13.217  1.00  0.00     0.008 C 
ATOM      2  C   UNL     1       8.119   6.917  12.295  1.00  0.00    -0.007 C 
ATOM      3  C   UNL     1       7.797   5.407  12.249  1.00  0.00     0.004 C 
ATOM      4  C   UNL     1       7.014   4.965  13.483  1.00  0.00     0.004 C 
ATOM      5  C   UNL     1       5.602   5.592  13.537  1.00  0.00    -0.004 C 
ATOM      6  C   UNL     1       5.645   7.134  13.327  1.00  0.00     0.007 C 
ATOM      7  C   UNL     1       6.903   7.785  12.722  1.00  0.00    -0.013 C 
ATOM      8  C   UNL     1       5.647   7.612  11.867  1.00  0.00     0.025 C 
ATOM      9  C   UNL     1       5.149   8.999  11.645  1.00  0.00    -0.073 C 
ATOM     10  C   UNL     1       5.922   9.917  12.206  1.00  0.00    -0.027 C 
ATOM     11  C   UNL     1       7.081   9.306  12.911  1.00  0.00     0.035 C 
ATOM     12  C   UNL     1       3.905   9.319  10.877  1.00  0.00     0.039 C 
ENDROOT
BRANCH   5  13
ATOM     13  C   UNL     1       4.534   4.876  12.640  1.00  0.00    -0.014 C 
ATOM     14  C   UNL     1       4.459   5.523  11.243  1.00  0.00     0.007 C 
ATOM     15  C   UNL     1       3.127   4.904  13.267  1.00  0.00     0.007 C 
ENDBRANCH   5  13
TORSDOF 1
ENDMDL
MODEL 3
REMARK VINA RESULT:     8.706      1.327      3.155
REMARK INTER + INTRA:          10.057
REMARK INTER:                   9.362
REMARK INTRA:                   0.695
REMARK UNBOUND:                 0.842
REMARK SMILES CC1=CC[C@]23[C@H]([C@@H](C(C)C)CC[C@@H]2C)[C@@H]13
REMARK SMILES IDX 14 1 13 2 12 3 11 4 7 5 6 6 5 7 15 8 2 9 3 10 4 11 1 12 8 13
REMARK SMILES IDX 9 14 10 15
REMARK H PARENT
REMARK Flexibility Score: inf
ROOT
ATOM      1  C   UNL     1       3.375   9.136  12.953  1.00  0.00     0.008 C 
ATOM      2  C   UNL     1       4.457   8.267  13.621  1.00  0.00    -0.007 C 
ATOM      3  C   UNL     1       4.061   6.775  13.572  1.00  0.00     0.004 C 
ATOM      4  C   UNL     1       4.349   6.166  12.201  1.00  0.00     0.004 C 
ATOM      5  C   UNL     1       5.863   6.106  11.893  1.00  0.00    -0.004 C 
ATOM      6  C   UNL     1       6.559   7.475  12.142  1.00  0.00     0.007 C 
ATOM      7  C   UNL     1       5.850   8.548  12.989  1.00  0.00    -0.013 C 
ATOM      8  C   UNL     1       7.008   7.747  13.585  1.00  0.00     0.025 C 
ATOM      9  C   UNL     1       8.110   8.738  13.739  1.00  0.00    -0.073 C 
ATOM     10  C   UNL     1       7.760   9.957  13.356  1.00  0.00    -0.027 C 
ATOM     11  C   UNL     1       6.354  10.001  12.872  1.00  0.00     0.035 C 
ATOM     12  C   UNL     1       9.469   8.392  14.262  1.00  0.00     0.039 C 
ENDROOT
BRANCH   5  13
ATOM     13  C   UNL     1       6.616   4.900  12.554  1.00  0.00    -0.014 C 
ATOM     14  C   UNL     1       6.462   4.923  14.087  1.00  0.00     0.007 C 
ATOM     15  C   UNL     1       8.119   4.891  12.215  1.00  0.00     0.007 C 
ENDBRANCH   5  13
TORSDOF 1
ENDMDL
MODEL 4
REMARK VINA RESULT:     8.991      1.534      3.768
REMARK INTER + INTRA:          10.359
REMARK INTER:                   9.586
REMARK INTRA:                   0.772
REMARK UNBOUND:                 0.842
REMARK SMILES CC1=CC[C@]23[C@H]([C@@H](C(C)C)CC[C@@H]2C)[C@@H]13
REMARK SMILES IDX 14 1 13 2 12 3 11 4 7 5 6 6 5 7 15 8 2 9 3 10 4 11 1 12 8 13
REMARK SMILES IDX 9 14 10 15
REMARK H PARENT
REMARK Flexibility Score: inf
ROOT
ATOM      1  C   UNL     1       8.170   4.875  12.128  1.00  0.00     0.008 C 
ATOM      2  C   UNL     1       7.423   6.207  11.925  1.00  0.00    -0.007 C 
ATOM      3  C   UNL     1       6.000   5.952  11.381  1.00  0.00     0.004 C 
ATOM      4  C   UNL     1       5.045   5.529  12.496  1.00  0.00     0.004 C 
ATOM      5  C   UNL     1       4.799   6.662  13.519  1.00  0.00    -0.004 C 
ATOM      6  C   UNL     1       6.133   7.284  14.024  1.00  0.00     0.007 C 
ATOM      7  C   UNL     1       7.433   7.043  13.235  1.00  0.00    -0.013 C 
ATOM      8  C   UNL     1       6.728   8.397  13.149  1.00  0.00     0.025 C 
ATOM      9  C   UNL     1       7.643   9.343  13.847  1.00  0.00    -0.073 C 
ATOM     10  C   UNL     1       8.748   8.758  14.286  1.00  0.00    -0.027 C 
ATOM     11  C   UNL     1       8.768   7.306  13.961  1.00  0.00     0.035 C 
ATOM     12  C   UNL     1       7.343  10.797  14.039  1.00  0.00     0.039 C 
ENDROOT
BRANCH   5  13
ATOM     13  C   UNL     1       3.748   7.734  13.066  1.00  0.00    -0.014 C 
ATOM     14  C   UNL     1       4.322   8.637  11.956  1.00  0.00     0.007 C 
ATOM     15  C   UNL     1       3.283   8.628  14.231  1.00  0.00     0.007 C 
ENDBRANCH   5  13
TORSDOF 1
ENDMDL
