MODEL 1
REMARK VINA RESULT:    -6.546      0.000      0.000
REMARK INTER + INTRA:          -8.208
REMARK INTER:                  -7.885
REMARK INTRA:                  -0.323
REMARK UNBOUND:                -0.323
REMARK SMILES O=c1c(O)c(-c2ccc(O)c(O)c2)oc2cc(O)cc(O)c12
REMARK SMILES IDX 5 1 3 2 2 3 1 4 22 5 20 6 19 7 17 8 16 9 15 10 14 11 6 12
REMARK SMILES IDX 7 13 8 14 9 15 13 16 11 17 10 18 12 20 4 22 21 24 18 26
REMARK H PARENT 10 19 12 21 4 23 21 25 18 27
REMARK Flexibility Score: inf
ROOT
ATOM      1  C   UNL     1       1.114  -4.379   5.647  1.00  0.00     0.180 A 
ATOM      2  C   UNL     1       2.232  -4.253   4.804  1.00  0.00     0.208 A 
ATOM      3  C   UNL     1       2.542  -2.993   4.267  1.00  0.00     0.238 A 
ATOM      4  O   UNL     1       3.573  -2.876   3.557  1.00  0.00    -0.285 OA
ATOM      5  C   UNL     1       1.721  -1.879   4.567  1.00  0.00     0.111 A 
ATOM      6  C   UNL     1       1.917  -0.565   4.046  1.00  0.00     0.134 A 
ATOM      7  C   UNL     1       1.123   0.489   4.513  1.00  0.00     0.093 A 
ATOM      8  C   UNL     1       0.096   0.264   5.433  1.00  0.00     0.123 A 
ATOM      9  C   UNL     1      -0.142  -1.026   5.902  1.00  0.00     0.094 A 
ATOM     10  C   UNL     1       0.657  -2.091   5.483  1.00  0.00     0.146 A 
ATOM     11  O   UNL     1       0.403  -3.303   5.962  1.00  0.00    -0.452 OA
ENDROOT
BRANCH   1  12
ATOM     12  C   UNL     1       0.710  -5.679   6.231  1.00  0.00     0.025 A 
ATOM     13  C   UNL     1       1.231  -6.125   7.458  1.00  0.00     0.016 A 
ATOM     14  C   UNL     1       0.853  -7.365   7.977  1.00  0.00     0.051 A 
ATOM     15  C   UNL     1      -0.039  -8.184   7.273  1.00  0.00     0.157 A 
ATOM     16  C   UNL     1      -0.168  -6.513   5.519  1.00  0.00     0.062 A 
ATOM     17  C   UNL     1      -0.549  -7.756   6.036  1.00  0.00     0.158 A 
BRANCH  15  18
ATOM     18  O   UNL     1      -0.416  -9.421   7.795  1.00  0.00    -0.504 OA
ATOM     19  H   UNL     1       0.252 -10.176   7.908  1.00  0.00     0.293 HD
ENDBRANCH  15  18
BRANCH  17  20
ATOM     20  O   UNL     1      -1.434  -8.551   5.308  1.00  0.00    -0.504 OA
ATOM     21  H   UNL     1      -2.180  -9.072   5.753  1.00  0.00     0.293 HD
ENDBRANCH  17  20
ENDBRANCH   1  12
BRANCH   2  22
ATOM     22  O   UNL     1       3.041  -5.362   4.539  1.00  0.00    -0.502 OA
ATOM     23  H   UNL     1       3.927  -5.285   4.056  1.00  0.00     0.293 HD
ENDBRANCH   2  22
BRANCH   6  24
ATOM     24  O   UNL     1       2.853  -0.249   3.057  1.00  0.00    -0.507 OA
ATOM     25  H   UNL     1       2.628   0.156   2.161  1.00  0.00     0.293 HD
ENDBRANCH   6  24
BRANCH   8  26
ATOM     26  O   UNL     1      -0.700   1.316   5.882  1.00  0.00    -0.508 OA
ATOM     27  H   UNL     1      -0.297   2.139   6.314  1.00  0.00     0.293 HD
ENDBRANCH   8  26
TORSDOF 6
ENDMDL
MODEL 2
REMARK VINA RESULT:    -6.298      1.684      7.284
REMARK INTER + INTRA:          -7.909
REMARK INTER:                  -7.623
REMARK INTRA:                  -0.286
REMARK UNBOUND:                -0.323
REMARK SMILES O=c1c(O)c(-c2ccc(O)c(O)c2)oc2cc(O)cc(O)c12
REMARK SMILES IDX 5 1 3 2 2 3 1 4 22 5 20 6 19 7 17 8 16 9 15 10 14 11 6 12
REMARK SMILES IDX 7 13 8 14 9 15 13 16 11 17 10 18 12 20 4 22 21 24 18 26
REMARK H PARENT 10 19 12 21 4 23 21 25 18 27
REMARK Flexibility Score: inf
ROOT
ATOM      1  C   UNL     1       0.857  -5.646   6.101  1.00  0.00     0.180 A 
ATOM      2  C   UNL     1       1.190  -5.986   7.423  1.00  0.00     0.208 A 
ATOM      3  C   UNL     1       0.586  -7.109   8.011  1.00  0.00     0.238 A 
ATOM      4  O   UNL     1       0.929  -7.439   9.175  1.00  0.00    -0.285 OA
ATOM      5  C   UNL     1      -0.356  -7.868   7.275  1.00  0.00     0.111 A 
ATOM      6  C   UNL     1      -1.058  -9.001   7.785  1.00  0.00     0.134 A 
ATOM      7  C   UNL     1      -1.868  -9.755   6.926  1.00  0.00     0.093 A 
ATOM      8  C   UNL     1      -2.051  -9.378   5.594  1.00  0.00     0.123 A 
ATOM      9  C   UNL     1      -1.416  -8.240   5.103  1.00  0.00     0.094 A 
ATOM     10  C   UNL     1      -0.574  -7.488   5.925  1.00  0.00     0.146 A 
ATOM     11  O   UNL     1       0.021  -6.416   5.415  1.00  0.00    -0.452 OA
ENDROOT
BRANCH   1  12
ATOM     12  C   UNL     1       1.432  -4.463   5.422  1.00  0.00     0.025 A 
ATOM     13  C   UNL     1       2.500  -4.585   4.516  1.00  0.00     0.016 A 
ATOM     14  C   UNL     1       3.043  -3.452   3.906  1.00  0.00     0.051 A 
ATOM     15  C   UNL     1       2.538  -2.179   4.202  1.00  0.00     0.157 A 
ATOM     16  C   UNL     1       0.943  -3.182   5.731  1.00  0.00     0.062 A 
ATOM     17  C   UNL     1       1.484  -2.045   5.121  1.00  0.00     0.158 A 
BRANCH  15  18
ATOM     18  O   UNL     1       3.080  -1.049   3.589  1.00  0.00    -0.504 OA
ATOM     19  H   UNL     1       3.864  -0.551   3.995  1.00  0.00     0.293 HD
ENDBRANCH  15  18
BRANCH  17  20
ATOM     20  O   UNL     1       0.962  -0.791   5.442  1.00  0.00    -0.504 OA
ATOM     21  H   UNL     1       0.692  -0.123   4.730  1.00  0.00     0.293 HD
ENDBRANCH  17  20
ENDBRANCH   1  12
BRANCH   2  22
ATOM     22  O   UNL     1       2.139  -5.235   8.124  1.00  0.00    -0.502 OA
ATOM     23  H   UNL     1       3.129  -5.441   8.087  1.00  0.00     0.293 HD
ENDBRANCH   2  22
BRANCH   6  24
ATOM     24  O   UNL     1      -1.017  -9.408   9.121  1.00  0.00    -0.507 OA
ATOM     25  H   UNL     1      -1.780  -9.315   9.775  1.00  0.00     0.293 HD
ENDBRANCH   6  24
BRANCH   8  26
ATOM     26  O   UNL     1      -2.871 -10.125   4.750  1.00  0.00    -0.508 OA
ATOM     27  H   UNL     1      -3.364 -10.946   5.081  1.00  0.00     0.293 HD
ENDBRANCH   8  26
TORSDOF 6
ENDMDL
MODEL 3
REMARK VINA RESULT:    -6.171     11.379     13.891
REMARK INTER + INTRA:          -7.757
REMARK INTER:                  -7.458
REMARK INTRA:                  -0.299
REMARK UNBOUND:                -0.323
REMARK SMILES O=c1c(O)c(-c2ccc(O)c(O)c2)oc2cc(O)cc(O)c12
REMARK SMILES IDX 5 1 3 2 2 3 1 4 22 5 20 6 19 7 17 8 16 9 15 10 14 11 6 12
REMARK SMILES IDX 7 13 8 14 9 15 13 16 11 17 10 18 12 20 4 22 21 24 18 26
REMARK H PARENT 10 19 12 21 4 23 21 25 18 27
REMARK Flexibility Score: inf
ROOT
ATOM      1  C   UNL     1      -2.269   3.211  -4.872  1.00  0.00     0.180 A 
ATOM      2  C   UNL     1      -1.824   2.095  -4.143  1.00  0.00     0.208 A 
ATOM      3  C   UNL     1      -0.467   2.007  -3.792  1.00  0.00     0.238 A 
ATOM      4  O   UNL     1      -0.086   1.033  -3.094  1.00  0.00    -0.285 OA
ATOM      5  C   UNL     1       0.430   3.029  -4.187  1.00  0.00     0.111 A 
ATOM      6  C   UNL     1       1.832   3.024  -3.920  1.00  0.00     0.134 A 
ATOM      7  C   UNL     1       2.601   4.149  -4.243  1.00  0.00     0.093 A 
ATOM      8  C   UNL     1       2.029   5.252  -4.882  1.00  0.00     0.123 A 
ATOM      9  C   UNL     1       0.674   5.242  -5.200  1.00  0.00     0.094 A 
ATOM     10  C   UNL     1      -0.127   4.149  -4.858  1.00  0.00     0.146 A 
ATOM     11  O   UNL     1      -1.417   4.185  -5.170  1.00  0.00    -0.452 OA
ENDROOT
BRANCH   1  12
ATOM     12  C   UNL     1      -3.678   3.362  -5.300  1.00  0.00     0.025 A 
ATOM     13  C   UNL     1      -4.589   4.139  -4.564  1.00  0.00     0.016 A 
ATOM     14  C   UNL     1      -5.919   4.247  -4.975  1.00  0.00     0.051 A 
ATOM     15  C   UNL     1      -6.364   3.570  -6.117  1.00  0.00     0.157 A 
ATOM     16  C   UNL     1      -4.134   2.667  -6.434  1.00  0.00     0.062 A 
ATOM     17  C   UNL     1      -5.467   2.773  -6.848  1.00  0.00     0.158 A 
BRANCH  15  18
ATOM     18  O   UNL     1      -7.693   3.681  -6.526  1.00  0.00    -0.504 OA
ATOM     19  H   UNL     1      -8.366   2.945  -6.348  1.00  0.00     0.293 HD
ENDBRANCH  15  18
BRANCH  17  20
ATOM     20  O   UNL     1      -5.880   2.081  -7.986  1.00  0.00    -0.504 OA
ATOM     21  H   UNL     1      -6.679   2.376  -8.534  1.00  0.00     0.293 HD
ENDBRANCH  17  20
ENDBRANCH   1  12
BRANCH   2  22
ATOM     22  O   UNL     1      -2.731   1.108  -3.745  1.00  0.00    -0.502 OA
ATOM     23  H   UNL     1      -2.838   0.235  -4.246  1.00  0.00     0.293 HD
ENDBRANCH   2  22
BRANCH   6  24
ATOM     24  O   UNL     1       2.517   1.937  -3.369  1.00  0.00    -0.507 OA
ATOM     25  H   UNL     1       3.520   1.829  -3.371  1.00  0.00     0.293 HD
ENDBRANCH   6  24
BRANCH   8  26
ATOM     26  O   UNL     1       2.804   6.362  -5.214  1.00  0.00    -0.508 OA
ATOM     27  H   UNL     1       2.685   7.251  -4.744  1.00  0.00     0.293 HD
ENDBRANCH   8  26
TORSDOF 6
ENDMDL
MODEL 4
REMARK VINA RESULT:    -6.117      2.171      7.585
REMARK INTER + INTRA:          -7.692
REMARK INTER:                  -7.421
REMARK INTRA:                  -0.271
REMARK UNBOUND:                -0.323
REMARK SMILES O=c1c(O)c(-c2ccc(O)c(O)c2)oc2cc(O)cc(O)c12
REMARK SMILES IDX 5 1 3 2 2 3 1 4 22 5 20 6 19 7 17 8 16 9 15 10 14 11 6 12
REMARK SMILES IDX 7 13 8 14 9 15 13 16 11 17 10 18 12 20 4 22 21 24 18 26
REMARK H PARENT 10 19 12 21 4 23 21 25 18 27
REMARK Flexibility Score: inf
ROOT
ATOM      1  C   UNL     1       1.449  -1.212   5.086  1.00  0.00     0.180 A 
ATOM      2  C   UNL     1       1.088  -1.160   6.443  1.00  0.00     0.208 A 
ATOM      3  C   UNL     1       1.027  -2.354   7.179  1.00  0.00     0.238 A 
ATOM      4  O   UNL     1       0.756  -2.295   8.406  1.00  0.00    -0.285 OA
ATOM      5  C   UNL     1       1.312  -3.588   6.544  1.00  0.00     0.111 A 
ATOM      6  C   UNL     1       1.242  -4.862   7.181  1.00  0.00     0.134 A 
ATOM      7  C   UNL     1       1.672  -6.003   6.493  1.00  0.00     0.093 A 
ATOM      8  C   UNL     1       2.108  -5.923   5.168  1.00  0.00     0.123 A 
ATOM      9  C   UNL     1       2.124  -4.692   4.518  1.00  0.00     0.094 A 
ATOM     10  C   UNL     1       1.735  -3.531   5.190  1.00  0.00     0.146 A 
ATOM     11  O   UNL     1       1.775  -2.376   4.536  1.00  0.00    -0.452 OA
ENDROOT
BRANCH   1  12
ATOM     12  C   UNL     1       1.510   0.002   4.240  1.00  0.00     0.025 A 
ATOM     13  C   UNL     1       0.342   0.648   3.800  1.00  0.00     0.016 A 
ATOM     14  C   UNL     1       0.424   1.778   2.983  1.00  0.00     0.051 A 
ATOM     15  C   UNL     1       1.672   2.270   2.580  1.00  0.00     0.157 A 
ATOM     16  C   UNL     1       2.759   0.488   3.817  1.00  0.00     0.062 A 
ATOM     17  C   UNL     1       2.845   1.619   2.998  1.00  0.00     0.158 A 
BRANCH  15  18
ATOM     18  O   UNL     1       1.752   3.400   1.766  1.00  0.00    -0.504 OA
ATOM     19  H   UNL     1       1.579   4.330   2.130  1.00  0.00     0.293 HD
ENDBRANCH  15  18
BRANCH  17  20
ATOM     20  O   UNL     1       4.103   2.081   2.610  1.00  0.00    -0.504 OA
ATOM     21  H   UNL     1       4.944   1.846   3.124  1.00  0.00     0.293 HD
ENDBRANCH  17  20
ENDBRANCH   1  12
BRANCH   2  22
ATOM     22  O   UNL     1       0.832   0.071   7.055  1.00  0.00    -0.502 OA
ATOM     23  H   UNL     1       0.108   0.190   7.754  1.00  0.00     0.293 HD
ENDBRANCH   2  22
BRANCH   6  24
ATOM     24  O   UNL     1       0.737  -5.064   8.469  1.00  0.00    -0.507 OA
ATOM     25  H   UNL     1       1.147  -5.675   9.159  1.00  0.00     0.293 HD
ENDBRANCH   6  24
BRANCH   8  26
ATOM     26  O   UNL     1       2.520  -7.066   4.485  1.00  0.00    -0.508 OA
ATOM     27  H   UNL     1       3.501  -7.295   4.380  1.00  0.00     0.293 HD
ENDBRANCH   8  26
TORSDOF 6
ENDMDL
MODEL 5
REMARK VINA RESULT:    -6.107      1.427      2.969
REMARK INTER + INTRA:          -7.679
REMARK INTER:                  -7.377
REMARK INTRA:                  -0.302
REMARK UNBOUND:                -0.323
REMARK SMILES O=c1c(O)c(-c2ccc(O)c(O)c2)oc2cc(O)cc(O)c12
REMARK SMILES IDX 5 1 3 2 2 3 1 4 22 5 20 6 19 7 17 8 16 9 15 10 14 11 6 12
REMARK SMILES IDX 7 13 8 14 9 15 13 16 11 17 10 18 12 20 4 22 21 24 18 26
REMARK H PARENT 10 19 12 21 4 23 21 25 18 27
REMARK Flexibility Score: inf
ROOT
ATOM      1  C   UNL     1       0.029  -4.672   6.087  1.00  0.00     0.180 A 
ATOM      2  C   UNL     1      -0.982  -3.700   5.992  1.00  0.00     0.208 A 
ATOM      3  C   UNL     1      -0.685  -2.463   5.396  1.00  0.00     0.238 A 
ATOM      4  O   UNL     1      -1.607  -1.619   5.266  1.00  0.00    -0.285 OA
ATOM      5  C   UNL     1       0.623  -2.209   4.917  1.00  0.00     0.111 A 
ATOM      6  C   UNL     1       1.046  -0.978   4.331  1.00  0.00     0.134 A 
ATOM      7  C   UNL     1       2.326  -0.883   3.773  1.00  0.00     0.093 A 
ATOM      8  C   UNL     1       3.221  -1.954   3.838  1.00  0.00     0.123 A 
ATOM      9  C   UNL     1       2.838  -3.140   4.459  1.00  0.00     0.094 A 
ATOM     10  C   UNL     1       1.555  -3.277   4.994  1.00  0.00     0.146 A 
ATOM     11  O   UNL     1       1.227  -4.428   5.569  1.00  0.00    -0.452 OA
ENDROOT
BRANCH   1  12
ATOM     12  C   UNL     1      -0.201  -5.988   6.725  1.00  0.00     0.025 A 
ATOM     13  C   UNL     1       0.211  -6.245   8.044  1.00  0.00     0.016 A 
ATOM     14  C   UNL     1       0.005  -7.502   8.617  1.00  0.00     0.051 A 
ATOM     15  C   UNL     1      -0.603  -8.525   7.877  1.00  0.00     0.157 A 
ATOM     16  C   UNL     1      -0.792  -7.023   5.981  1.00  0.00     0.062 A 
ATOM     17  C   UNL     1      -1.000  -8.284   6.552  1.00  0.00     0.158 A 
BRANCH  15  18
ATOM     18  O   UNL     1      -0.809  -9.779   8.453  1.00  0.00    -0.504 OA
ATOM     19  H   UNL     1      -1.742 -10.129   8.640  1.00  0.00     0.293 HD
ENDBRANCH  15  18
BRANCH  17  20
ATOM     20  O   UNL     1      -1.602  -9.283   5.786  1.00  0.00    -0.504 OA
ATOM     21  H   UNL     1      -2.605  -9.430   5.787  1.00  0.00     0.293 HD
ENDBRANCH  17  20
ENDBRANCH   1  12
BRANCH   2  22
ATOM     22  O   UNL     1      -2.272  -3.980   6.453  1.00  0.00    -0.502 OA
ATOM     23  H   UNL     1      -3.085  -3.934   5.852  1.00  0.00     0.293 HD
ENDBRANCH   2  22
BRANCH   6  24
ATOM     24  O   UNL     1       0.263   0.179   4.298  1.00  0.00    -0.507 OA
ATOM     25  H   UNL     1      -0.441   0.417   4.980  1.00  0.00     0.293 HD
ENDBRANCH   6  24
BRANCH   8  26
ATOM     26  O   UNL     1       4.499  -1.846   3.293  1.00  0.00    -0.508 OA
ATOM     27  H   UNL     1       4.645  -1.779   2.292  1.00  0.00     0.293 HD
ENDBRANCH   8  26
TORSDOF 6
ENDMDL
MODEL 6
REMARK VINA RESULT:    -6.010      1.924      6.862
REMARK INTER + INTRA:          -7.562
REMARK INTER:                  -7.259
REMARK INTRA:                  -0.303
REMARK UNBOUND:                -0.323
REMARK SMILES O=c1c(O)c(-c2ccc(O)c(O)c2)oc2cc(O)cc(O)c12
REMARK SMILES IDX 5 1 3 2 2 3 1 4 22 5 20 6 19 7 17 8 16 9 15 10 14 11 6 12
REMARK SMILES IDX 7 13 8 14 9 15 13 16 11 17 10 18 12 20 4 22 21 24 18 26
REMARK H PARENT 10 19 12 21 4 23 21 25 18 27
REMARK Flexibility Score: inf
ROOT
ATOM      1  C   UNL     1       1.444  -2.436   4.972  1.00  0.00     0.180 A 
ATOM      2  C   UNL     1       2.325  -3.446   4.549  1.00  0.00     0.208 A 
ATOM      3  C   UNL     1       2.041  -4.781   4.881  1.00  0.00     0.238 A 
ATOM      4  O   UNL     1       2.804  -5.685   4.454  1.00  0.00    -0.285 OA
ATOM      5  C   UNL     1       0.889  -5.087   5.645  1.00  0.00     0.111 A 
ATOM      6  C   UNL     1       0.525  -6.399   6.072  1.00  0.00     0.134 A 
ATOM      7  C   UNL     1      -0.705  -6.601   6.711  1.00  0.00     0.093 A 
ATOM      8  C   UNL     1      -1.553  -5.528   6.996  1.00  0.00     0.123 A 
ATOM      9  C   UNL     1      -1.180  -4.236   6.636  1.00  0.00     0.094 A 
ATOM     10  C   UNL     1       0.024  -4.007   5.965  1.00  0.00     0.146 A 
ATOM     11  O   UNL     1       0.337  -2.761   5.630  1.00  0.00    -0.452 OA
ENDROOT
BRANCH   1  12
ATOM     12  C   UNL     1       1.689  -1.005   4.683  1.00  0.00     0.025 A 
ATOM     13  C   UNL     1       1.345  -0.439   3.443  1.00  0.00     0.016 A 
ATOM     14  C   UNL     1       1.608   0.909   3.184  1.00  0.00     0.051 A 
ATOM     15  C   UNL     1       2.230   1.707   4.153  1.00  0.00     0.157 A 
ATOM     16  C   UNL     1       2.332  -0.206   5.643  1.00  0.00     0.062 A 
ATOM     17  C   UNL     1       2.597   1.145   5.387  1.00  0.00     0.158 A 
BRANCH  15  18
ATOM     18  O   UNL     1       2.489   3.052   3.892  1.00  0.00    -0.504 OA
ATOM     19  H   UNL     1       3.233   3.337   3.265  1.00  0.00     0.293 HD
ENDBRANCH  15  18
BRANCH  17  20
ATOM     20  O   UNL     1       3.223   1.911   6.370  1.00  0.00    -0.504 OA
ATOM     21  H   UNL     1       2.698   2.457   7.043  1.00  0.00     0.293 HD
ENDBRANCH  17  20
ENDBRANCH   1  12
BRANCH   2  22
ATOM     22  O   UNL     1       3.445  -3.124   3.778  1.00  0.00    -0.502 OA
ATOM     23  H   UNL     1       3.513  -2.260   3.253  1.00  0.00     0.293 HD
ENDBRANCH   2  22
BRANCH   6  24
ATOM     24  O   UNL     1       1.341  -7.523   5.920  1.00  0.00    -0.507 OA
ATOM     25  H   UNL     1       1.302  -8.346   6.503  1.00  0.00     0.293 HD
ENDBRANCH   6  24
BRANCH   8  26
ATOM     26  O   UNL     1      -2.768  -5.736   7.646  1.00  0.00    -0.508 OA
ATOM     27  H   UNL     1      -3.117  -6.669   7.832  1.00  0.00     0.293 HD
ENDBRANCH   8  26
TORSDOF 6
ENDMDL
MODEL 7
REMARK VINA RESULT:    -5.889      1.557      3.093
REMARK INTER + INTRA:          -7.417
REMARK INTER:                  -7.276
REMARK INTRA:                  -0.141
REMARK UNBOUND:                -0.323
REMARK SMILES O=c1c(O)c(-c2ccc(O)c(O)c2)oc2cc(O)cc(O)c12
REMARK SMILES IDX 5 1 3 2 2 3 1 4 22 5 20 6 19 7 17 8 16 9 15 10 14 11 6 12
REMARK SMILES IDX 7 13 8 14 9 15 13 16 11 17 10 18 12 20 4 22 21 24 18 26
REMARK H PARENT 10 19 12 21 4 23 21 25 18 27
REMARK Flexibility Score: inf
ROOT
ATOM      1  C   UNL     1       0.071  -3.139   5.583  1.00  0.00     0.180 A 
ATOM      2  C   UNL     1      -1.147  -2.455   5.735  1.00  0.00     0.208 A 
ATOM      3  C   UNL     1      -1.236  -1.119   5.313  1.00  0.00     0.238 A 
ATOM      4  O   UNL     1      -2.344  -0.529   5.402  1.00  0.00    -0.285 OA
ATOM      5  C   UNL     1      -0.101  -0.479   4.758  1.00  0.00     0.111 A 
ATOM      6  C   UNL     1      -0.066   0.883   4.334  1.00  0.00     0.134 A 
ATOM      7  C   UNL     1       1.071   1.374   3.680  1.00  0.00     0.093 A 
ATOM      8  C   UNL     1       2.198   0.569   3.494  1.00  0.00     0.123 A 
ATOM      9  C   UNL     1       2.195  -0.744   3.957  1.00  0.00     0.094 A 
ATOM     10  C   UNL     1       1.062  -1.273   4.581  1.00  0.00     0.146 A 
ATOM     11  O   UNL     1       1.097  -2.533   4.999  1.00  0.00    -0.452 OA
ENDROOT
BRANCH   1  12
ATOM     12  C   UNL     1       0.248  -4.540   6.028  1.00  0.00     0.025 A 
ATOM     13  C   UNL     1       1.177  -4.880   7.027  1.00  0.00     0.016 A 
ATOM     14  C   UNL     1       1.344  -6.211   7.414  1.00  0.00     0.051 A 
ATOM     15  C   UNL     1       0.599  -7.225   6.799  1.00  0.00     0.157 A 
ATOM     16  C   UNL     1      -0.482  -5.563   5.400  1.00  0.00     0.062 A 
ATOM     17  C   UNL     1      -0.317  -6.898   5.785  1.00  0.00     0.158 A 
BRANCH  15  18
ATOM     18  O   UNL     1       0.766  -8.554   7.188  1.00  0.00    -0.504 OA
ATOM     19  H   UNL     1       1.410  -9.171   6.706  1.00  0.00     0.293 HD
ENDBRANCH  15  18
BRANCH  17  20
ATOM     20  O   UNL     1      -1.071  -7.885   5.148  1.00  0.00    -0.504 OA
ATOM     21  H   UNL     1      -1.463  -7.749   4.224  1.00  0.00     0.293 HD
ENDBRANCH  17  20
ENDBRANCH   1  12
BRANCH   2  22
ATOM     22  O   UNL     1      -2.261  -3.113   6.265  1.00  0.00    -0.502 OA
ATOM     23  H   UNL     1      -2.424  -4.103   6.128  1.00  0.00     0.293 HD
ENDBRANCH   2  22
BRANCH   6  24
ATOM     24  O   UNL     1      -1.101   1.796   4.554  1.00  0.00    -0.507 OA
ATOM     25  H   UNL     1      -1.162   2.709   4.130  1.00  0.00     0.293 HD
ENDBRANCH   6  24
BRANCH   8  26
ATOM     26  O   UNL     1       3.331   1.069   2.855  1.00  0.00    -0.508 OA
ATOM     27  H   UNL     1       3.878   0.498   2.222  1.00  0.00     0.293 HD
ENDBRANCH   8  26
TORSDOF 6
ENDMDL
MODEL 8
REMARK VINA RESULT:    -5.836      3.493      6.583
REMARK INTER + INTRA:          -7.353
REMARK INTER:                  -7.063
REMARK INTRA:                  -0.290
REMARK UNBOUND:                -0.323
REMARK SMILES O=c1c(O)c(-c2ccc(O)c(O)c2)oc2cc(O)cc(O)c12
REMARK SMILES IDX 5 1 3 2 2 3 1 4 22 5 20 6 19 7 17 8 16 9 15 10 14 11 6 12
REMARK SMILES IDX 7 13 8 14 9 15 13 16 11 17 10 18 12 20 4 22 21 24 18 26
REMARK H PARENT 10 19 12 21 4 23 21 25 18 27
REMARK Flexibility Score: inf
ROOT
ATOM      1  C   UNL     1      -2.181  -0.895   5.632  1.00  0.00     0.180 A 
ATOM      2  C   UNL     1      -1.870  -2.227   5.957  1.00  0.00     0.208 A 
ATOM      3  C   UNL     1      -0.612  -2.740   5.602  1.00  0.00     0.238 A 
ATOM      4  O   UNL     1      -0.321  -3.915   5.944  1.00  0.00    -0.285 OA
ATOM      5  C   UNL     1       0.314  -1.919   4.914  1.00  0.00     0.111 A 
ATOM      6  C   UNL     1       1.602  -2.347   4.471  1.00  0.00     0.134 A 
ATOM      7  C   UNL     1       2.486  -1.413   3.916  1.00  0.00     0.093 A 
ATOM      8  C   UNL     1       2.104  -0.083   3.728  1.00  0.00     0.123 A 
ATOM      9  C   UNL     1       0.828   0.330   4.103  1.00  0.00     0.094 A 
ATOM     10  C   UNL     1      -0.064  -0.569   4.693  1.00  0.00     0.146 A 
ATOM     11  O   UNL     1      -1.267  -0.132   5.045  1.00  0.00    -0.452 OA
ENDROOT
BRANCH   1  12
ATOM     12  C   UNL     1      -3.495  -0.293   5.949  1.00  0.00     0.025 A 
ATOM     13  C   UNL     1      -3.801   0.157   7.246  1.00  0.00     0.016 A 
ATOM     14  C   UNL     1      -5.056   0.701   7.527  1.00  0.00     0.051 A 
ATOM     15  C   UNL     1      -6.029   0.791   6.524  1.00  0.00     0.157 A 
ATOM     16  C   UNL     1      -4.481  -0.219   4.951  1.00  0.00     0.062 A 
ATOM     17  C   UNL     1      -5.740   0.325   5.230  1.00  0.00     0.158 A 
BRANCH  15  18
ATOM     18  O   UNL     1      -7.281   1.336   6.808  1.00  0.00    -0.504 OA
ATOM     19  H   UNL     1      -8.129   0.786   6.730  1.00  0.00     0.293 HD
ENDBRANCH  15  18
BRANCH  17  20
ATOM     20  O   UNL     1      -6.689   0.395   4.210  1.00  0.00    -0.504 OA
ATOM     21  H   UNL     1      -6.699  -0.262   3.439  1.00  0.00     0.293 HD
ENDBRANCH  17  20
ENDBRANCH   1  12
BRANCH   2  22
ATOM     22  O   UNL     1      -2.792  -3.013   6.656  1.00  0.00    -0.502 OA
ATOM     23  H   UNL     1      -3.792  -2.918   6.530  1.00  0.00     0.293 HD
ENDBRANCH   2  22
BRANCH   6  24
ATOM     24  O   UNL     1       2.047  -3.670   4.527  1.00  0.00    -0.507 OA
ATOM     25  H   UNL     1       1.490  -4.475   4.282  1.00  0.00     0.293 HD
ENDBRANCH   6  24
BRANCH   8  26
ATOM     26  O   UNL     1       2.984   0.836   3.161  1.00  0.00    -0.508 OA
ATOM     27  H   UNL     1       2.836   1.835   3.246  1.00  0.00     0.293 HD
ENDBRANCH   8  26
TORSDOF 6
ENDMDL
MODEL 9
REMARK VINA RESULT:    -5.740      2.903      5.149
REMARK INTER + INTRA:          -7.238
REMARK INTER:                  -6.917
REMARK INTRA:                  -0.321
REMARK UNBOUND:                -0.323
REMARK SMILES O=c1c(O)c(-c2ccc(O)c(O)c2)oc2cc(O)cc(O)c12
REMARK SMILES IDX 5 1 3 2 2 3 1 4 22 5 20 6 19 7 17 8 16 9 15 10 14 11 6 12
REMARK SMILES IDX 7 13 8 14 9 15 13 16 11 17 10 18 12 20 4 22 21 24 18 26
REMARK H PARENT 10 19 12 21 4 23 21 25 18 27
REMARK Flexibility Score: inf
ROOT
ATOM      1  C   UNL     1       1.815  -0.072   4.263  1.00  0.00     0.180 A 
ATOM      2  C   UNL     1       2.424   0.878   5.101  1.00  0.00     0.208 A 
ATOM      3  C   UNL     1       2.135   2.239   4.911  1.00  0.00     0.238 A 
ATOM      4  O   UNL     1       2.641   3.080   5.698  1.00  0.00    -0.285 OA
ATOM      5  C   UNL     1       1.253   2.634   3.876  1.00  0.00     0.111 A 
ATOM      6  C   UNL     1       0.921   3.987   3.567  1.00  0.00     0.134 A 
ATOM      7  C   UNL     1      -0.063   4.255   2.608  1.00  0.00     0.093 A 
ATOM      8  C   UNL     1      -0.679   3.220   1.900  1.00  0.00     0.123 A 
ATOM      9  C   UNL     1      -0.318   1.899   2.151  1.00  0.00     0.094 A 
ATOM     10  C   UNL     1       0.634   1.598   3.128  1.00  0.00     0.146 A 
ATOM     11  O   UNL     1       0.942   0.325   3.344  1.00  0.00    -0.452 OA
ENDROOT
BRANCH   1  12
ATOM     12  C   UNL     1       2.090  -1.521   4.385  1.00  0.00     0.025 A 
ATOM     13  C   UNL     1       3.067  -2.151   3.595  1.00  0.00     0.016 A 
ATOM     14  C   UNL     1       3.292  -3.525   3.711  1.00  0.00     0.051 A 
ATOM     15  C   UNL     1       2.536  -4.292   4.606  1.00  0.00     0.157 A 
ATOM     16  C   UNL     1       1.321  -2.299   5.267  1.00  0.00     0.062 A 
ATOM     17  C   UNL     1       1.544  -3.676   5.386  1.00  0.00     0.158 A 
BRANCH  15  18
ATOM     18  O   UNL     1       2.765  -5.663   4.721  1.00  0.00    -0.504 OA
ATOM     19  H   UNL     1       3.507  -6.123   4.205  1.00  0.00     0.293 HD
ENDBRANCH  15  18
BRANCH  17  20
ATOM     20  O   UNL     1       0.770  -4.413   6.282  1.00  0.00    -0.504 OA
ATOM     21  H   UNL     1       0.429  -5.341   6.062  1.00  0.00     0.293 HD
ENDBRANCH  17  20
ENDBRANCH   1  12
BRANCH   2  22
ATOM     22  O   UNL     1       3.275   0.464   6.130  1.00  0.00    -0.502 OA
ATOM     23  H   UNL     1       3.690   1.115   6.786  1.00  0.00     0.293 HD
ENDBRANCH   2  22
BRANCH   6  24
ATOM     24  O   UNL     1       1.541   5.096   4.150  1.00  0.00    -0.507 OA
ATOM     25  H   UNL     1       1.234   5.546   4.999  1.00  0.00     0.293 HD
ENDBRANCH   6  24
BRANCH   8  26
ATOM     26  O   UNL     1      -1.646   3.496   0.935  1.00  0.00    -0.508 OA
ATOM     27  H   UNL     1      -1.783   2.891   0.134  1.00  0.00     0.293 HD
ENDBRANCH   8  26
TORSDOF 6
ENDMDL
