MODEL 1
REMARK VINA RESULT:    -3.223      0.000      0.000
REMARK INTER + INTRA:          -3.435
REMARK INTER:                  -3.412
REMARK INTRA:                  -0.024
REMARK UNBOUND:                -0.024
REMARK SMILES O=C([O-])[C@H]1CCC[NH2+]1
REMARK SMILES IDX 4 1 8 2 7 3 5 4 6 5 2 8 1 9 3 10
REMARK H PARENT 8 6 8 7
REMARK Flexibility Score: inf
ROOT
ATOM      1  C   UNL     1      -4.495  -3.121  -2.544  1.00  0.00     0.229 C 
ATOM      2  N   UNL     1      -5.875  -3.181  -2.053  1.00  0.00    -0.339 N 
ATOM      3  C   UNL     1      -6.587  -2.085  -2.715  1.00  0.00     0.261 C 
ATOM      4  C   UNL     1      -4.567  -2.583  -3.964  1.00  0.00     0.077 C 
ATOM      5  C   UNL     1      -5.797  -1.694  -3.964  1.00  0.00     0.068 C 
ATOM      6  H   UNL     1      -5.901  -3.065  -1.012  1.00  0.00     0.346 HD
ATOM      7  H   UNL     1      -6.330  -4.089  -2.314  1.00  0.00     0.346 HD
ENDROOT
BRANCH   1   8
ATOM      8  C   UNL     1      -3.814  -4.462  -2.475  1.00  0.00     0.099 C 
ATOM      9  O   UNL     1      -4.382  -5.429  -1.903  1.00  0.00    -0.544 OA
ATOM     10  O   UNL     1      -2.557  -4.645  -3.040  1.00  0.00    -0.544 OA
ENDBRANCH   1   8
TORSDOF 1
ENDMDL
MODEL 2
REMARK VINA RESULT:    -3.090      1.934      2.542
REMARK INTER + INTRA:          -3.294
REMARK INTER:                  -3.262
REMARK INTRA:                  -0.032
REMARK UNBOUND:                -0.024
REMARK SMILES O=C([O-])[C@H]1CCC[NH2+]1
REMARK SMILES IDX 4 1 8 2 7 3 5 4 6 5 2 8 1 9 3 10
REMARK H PARENT 8 6 8 7
REMARK Flexibility Score: inf
ROOT
ATOM      1  C   UNL     1      -5.618  -1.640  -3.987  1.00  0.00     0.229 C 
ATOM      2  N   UNL     1      -5.812  -1.743  -2.538  1.00  0.00    -0.339 N 
ATOM      3  C   UNL     1      -7.260  -1.684  -2.320  1.00  0.00     0.261 C 
ATOM      4  C   UNL     1      -6.835  -2.286  -4.632  1.00  0.00     0.077 C 
ATOM      5  C   UNL     1      -7.952  -2.056  -3.631  1.00  0.00     0.068 C 
ATOM      6  H   UNL     1      -5.330  -0.956  -2.045  1.00  0.00     0.346 HD
ATOM      7  H   UNL     1      -5.451  -2.658  -2.173  1.00  0.00     0.346 HD
ENDROOT
BRANCH   1   8
ATOM      8  C   UNL     1      -4.330  -2.281  -4.430  1.00  0.00     0.099 C 
ATOM      9  O   UNL     1      -4.042  -3.446  -4.051  1.00  0.00    -0.544 OA
ATOM     10  O   UNL     1      -3.448  -1.595  -5.259  1.00  0.00    -0.544 OA
ENDBRANCH   1   8
TORSDOF 1
ENDMDL
MODEL 3
REMARK VINA RESULT:    -3.056      9.113      9.809
REMARK INTER + INTRA:          -3.258
REMARK INTER:                  -3.238
REMARK INTRA:                  -0.020
REMARK UNBOUND:                -0.024
REMARK SMILES O=C([O-])[C@H]1CCC[NH2+]1
REMARK SMILES IDX 4 1 8 2 7 3 5 4 6 5 2 8 1 9 3 10
REMARK H PARENT 8 6 8 7
REMARK Flexibility Score: inf
ROOT
ATOM      1  C   UNL     1       4.694  -1.417  -4.071  1.00  0.00     0.229 C 
ATOM      2  N   UNL     1       5.103  -0.033  -3.816  1.00  0.00    -0.339 N 
ATOM      3  C   UNL     1       5.763   0.425  -5.042  1.00  0.00     0.261 C 
ATOM      4  C   UNL     1       4.392  -1.510  -5.558  1.00  0.00     0.077 C 
ATOM      5  C   UNL     1       5.308  -0.477  -6.189  1.00  0.00     0.068 C 
ATOM      6  H   UNL     1       5.760   0.013  -3.002  1.00  0.00     0.346 HD
ATOM      7  H   UNL     1       4.271   0.578  -3.629  1.00  0.00     0.346 HD
ENDROOT
BRANCH   1   8
ATOM      8  C   UNL     1       3.517  -1.822  -3.223  1.00  0.00     0.099 C 
ATOM      9  O   UNL     1       3.599  -1.775  -1.968  1.00  0.00    -0.544 OA
ATOM     10  O   UNL     1       2.334  -2.249  -3.815  1.00  0.00    -0.544 OA
ENDBRANCH   1   8
TORSDOF 1
ENDMDL
MODEL 4
REMARK VINA RESULT:    -2.995      1.662      2.119
REMARK INTER + INTRA:          -3.194
REMARK INTER:                  -3.172
REMARK INTRA:                  -0.021
REMARK UNBOUND:                -0.024
REMARK SMILES O=C([O-])[C@H]1CCC[NH2+]1
REMARK SMILES IDX 4 1 8 2 7 3 5 4 6 5 2 8 1 9 3 10
REMARK H PARENT 8 6 8 7
REMARK Flexibility Score: inf
ROOT
ATOM      1  C   UNL     1      -4.367  -3.701  -3.920  1.00  0.00     0.229 C 
ATOM      2  N   UNL     1      -3.305  -3.383  -4.879  1.00  0.00    -0.339 N 
ATOM      3  C   UNL     1      -3.740  -2.170  -5.576  1.00  0.00     0.261 C 
ATOM      4  C   UNL     1      -4.977  -2.374  -3.498  1.00  0.00     0.077 C 
ATOM      5  C   UNL     1      -4.789  -1.477  -4.708  1.00  0.00     0.068 C 
ATOM      6  H   UNL     1      -3.171  -4.172  -5.555  1.00  0.00     0.346 HD
ATOM      7  H   UNL     1      -2.399  -3.187  -4.387  1.00  0.00     0.346 HD
ENDROOT
BRANCH   1   8
ATOM      8  C   UNL     1      -3.850  -4.490  -2.747  1.00  0.00     0.099 C 
ATOM      9  O   UNL     1      -4.632  -4.831  -1.822  1.00  0.00    -0.544 OA
ATOM     10  O   UNL     1      -2.508  -4.849  -2.674  1.00  0.00    -0.544 OA
ENDBRANCH   1   8
TORSDOF 1
ENDMDL
MODEL 5
REMARK VINA RESULT:    -2.977      7.694      8.514
REMARK INTER + INTRA:          -3.174
REMARK INTER:                  -3.144
REMARK INTRA:                  -0.030
REMARK UNBOUND:                -0.024
REMARK SMILES O=C([O-])[C@H]1CCC[NH2+]1
REMARK SMILES IDX 4 1 8 2 7 3 5 4 6 5 2 8 1 9 3 10
REMARK H PARENT 8 6 8 7
REMARK Flexibility Score: inf
ROOT
ATOM      1  C   UNL     1       3.186  -2.610  -4.420  1.00  0.00     0.229 C 
ATOM      2  N   UNL     1       2.871  -2.057  -3.100  1.00  0.00    -0.339 N 
ATOM      3  C   UNL     1       4.092  -1.390  -2.640  1.00  0.00     0.261 C 
ATOM      4  C   UNL     1       4.205  -1.672  -5.047  1.00  0.00     0.077 C 
ATOM      5  C   UNL     1       4.960  -1.097  -3.863  1.00  0.00     0.068 C 
ATOM      6  H   UNL     1       2.593  -2.820  -2.438  1.00  0.00     0.346 HD
ATOM      7  H   UNL     1       2.099  -1.350  -3.161  1.00  0.00     0.346 HD
ENDROOT
BRANCH   1   8
ATOM      8  C   UNL     1       1.955  -2.768  -5.273  1.00  0.00     0.099 C 
ATOM      9  O   UNL     1       1.501  -1.784  -5.913  1.00  0.00    -0.544 OA
ATOM     10  O   UNL     1       1.310  -3.997  -5.361  1.00  0.00    -0.544 OA
ENDBRANCH   1   8
TORSDOF 1
ENDMDL
MODEL 6
REMARK VINA RESULT:    -2.941      8.869      9.996
REMARK INTER + INTRA:          -3.137
REMARK INTER:                  -3.111
REMARK INTRA:                  -0.026
REMARK UNBOUND:                -0.024
REMARK SMILES O=C([O-])[C@H]1CCC[NH2+]1
REMARK SMILES IDX 4 1 8 2 7 3 5 4 6 5 2 8 1 9 3 10
REMARK H PARENT 8 6 8 7
REMARK Flexibility Score: inf
ROOT
ATOM      1  C   UNL     1       4.623  -2.909  -3.725  1.00  0.00     0.229 C 
ATOM      2  N   UNL     1       4.500  -4.335  -3.412  1.00  0.00    -0.339 N 
ATOM      3  C   UNL     1       5.869  -4.848  -3.317  1.00  0.00     0.261 C 
ATOM      4  C   UNL     1       5.910  -2.434  -3.068  1.00  0.00     0.077 C 
ATOM      5  C   UNL     1       6.801  -3.662  -3.064  1.00  0.00     0.068 C 
ATOM      6  H   UNL     1       3.969  -4.833  -4.165  1.00  0.00     0.346 HD
ATOM      7  H   UNL     1       4.018  -4.479  -2.492  1.00  0.00     0.346 HD
ENDROOT
BRANCH   1   8
ATOM      8  C   UNL     1       3.423  -2.125  -3.262  1.00  0.00     0.099 C 
ATOM      9  O   UNL     1       3.516  -1.359  -2.268  1.00  0.00    -0.544 OA
ATOM     10  O   UNL     1       2.207  -2.238  -3.927  1.00  0.00    -0.544 OA
ENDBRANCH   1   8
TORSDOF 1
ENDMDL
MODEL 7
REMARK VINA RESULT:    -2.889      8.518      9.582
REMARK INTER + INTRA:          -3.082
REMARK INTER:                  -3.051
REMARK INTRA:                  -0.031
REMARK UNBOUND:                -0.024
REMARK SMILES O=C([O-])[C@H]1CCC[NH2+]1
REMARK SMILES IDX 4 1 8 2 7 3 5 4 6 5 2 8 1 9 3 10
REMARK H PARENT 8 6 8 7
REMARK Flexibility Score: inf
ROOT
ATOM      1  C   UNL     1       4.409  -2.850  -4.140  1.00  0.00     0.229 C 
ATOM      2  N   UNL     1       4.453  -4.222  -3.626  1.00  0.00    -0.339 N 
ATOM      3  C   UNL     1       5.644  -4.295  -2.775  1.00  0.00     0.261 C 
ATOM      4  C   UNL     1       5.024  -1.967  -3.065  1.00  0.00     0.077 C 
ATOM      5  C   UNL     1       6.023  -2.872  -2.368  1.00  0.00     0.068 C 
ATOM      6  H   UNL     1       4.518  -4.908  -4.414  1.00  0.00     0.346 HD
ATOM      7  H   UNL     1       3.606  -4.434  -3.045  1.00  0.00     0.346 HD
ENDROOT
BRANCH   1   8
ATOM      8  C   UNL     1       3.008  -2.426  -4.494  1.00  0.00     0.099 C 
ATOM      9  O   UNL     1       2.160  -2.228  -3.585  1.00  0.00    -0.544 OA
ATOM     10  O   UNL     1       2.638  -2.249  -5.822  1.00  0.00    -0.544 OA
ENDBRANCH   1   8
TORSDOF 1
ENDMDL
MODEL 8
REMARK VINA RESULT:    -2.828      2.836      3.592
REMARK INTER + INTRA:          -3.017
REMARK INTER:                  -2.995
REMARK INTRA:                  -0.022
REMARK UNBOUND:                -0.024
REMARK SMILES O=C([O-])[C@H]1CCC[NH2+]1
REMARK SMILES IDX 4 1 8 2 7 3 5 4 6 5 2 8 1 9 3 10
REMARK H PARENT 8 6 8 7
REMARK Flexibility Score: inf
ROOT
ATOM      1  C   UNL     1      -4.577  -2.605  -4.635  1.00  0.00     0.229 C 
ATOM      2  N   UNL     1      -4.777  -2.087  -3.278  1.00  0.00    -0.339 N 
ATOM      3  C   UNL     1      -4.693  -3.247  -2.387  1.00  0.00     0.261 C 
ATOM      4  C   UNL     1      -3.649  -3.802  -4.506  1.00  0.00     0.077 C 
ATOM      5  C   UNL     1      -3.948  -4.358  -3.126  1.00  0.00     0.068 C 
ATOM      6  H   UNL     1      -5.711  -1.622  -3.196  1.00  0.00     0.346 HD
ATOM      7  H   UNL     1      -4.023  -1.404  -3.020  1.00  0.00     0.346 HD
ENDROOT
BRANCH   1   8
ATOM      8  C   UNL     1      -4.027  -1.554  -5.564  1.00  0.00     0.099 C 
ATOM      9  O   UNL     1      -4.800  -0.713  -6.092  1.00  0.00    -0.544 OA
ATOM     10  O   UNL     1      -2.667  -1.504  -5.846  1.00  0.00    -0.544 OA
ENDBRANCH   1   8
TORSDOF 1
ENDMDL
MODEL 9
REMARK VINA RESULT:    -2.682      2.507      3.596
REMARK INTER + INTRA:          -2.863
REMARK INTER:                  -2.837
REMARK INTRA:                  -0.026
REMARK UNBOUND:                -0.024
REMARK SMILES O=C([O-])[C@H]1CCC[NH2+]1
REMARK SMILES IDX 4 1 8 2 7 3 5 4 6 5 2 8 1 9 3 10
REMARK H PARENT 8 6 8 7
REMARK Flexibility Score: inf
ROOT
ATOM      1  C   UNL     1      -4.812  -3.354  -3.751  1.00  0.00     0.229 C 
ATOM      2  N   UNL     1      -4.309  -3.706  -2.420  1.00  0.00    -0.339 N 
ATOM      3  C   UNL     1      -3.379  -4.820  -2.622  1.00  0.00     0.261 C 
ATOM      4  C   UNL     1      -3.690  -3.659  -4.731  1.00  0.00     0.077 C 
ATOM      5  C   UNL     1      -2.934  -4.806  -4.085  1.00  0.00     0.068 C 
ATOM      6  H   UNL     1      -5.096  -3.990  -1.792  1.00  0.00     0.346 HD
ATOM      7  H   UNL     1      -3.789  -2.903  -1.989  1.00  0.00     0.346 HD
ENDROOT
BRANCH   1   8
ATOM      8  C   UNL     1      -5.258  -1.918  -3.823  1.00  0.00     0.099 C 
ATOM      9  O   UNL     1      -4.543  -1.065  -4.410  1.00  0.00    -0.544 OA
ATOM     10  O   UNL     1      -6.459  -1.521  -3.245  1.00  0.00    -0.544 OA
ENDBRANCH   1   8
TORSDOF 1
ENDMDL
