MODEL 1
REMARK VINA RESULT:    -3.668      0.000      0.000
REMARK INTER + INTRA:          -5.452
REMARK INTER:                  -4.847
REMARK INTRA:                  -0.605
REMARK UNBOUND:                -0.605
REMARK SMILES C=C[C@@H](O)CCCCC
REMARK SMILES IDX 6 1 7 2 8 3 9 4 5 5 3 6 2 7 1 8 4 9
REMARK H PARENT 4 10
REMARK Flexibility Score: inf
ROOT
ATOM      1  C   UNL     1     122.067 132.731 129.744  1.00  0.00     0.003 C 
ENDROOT
BRANCH   1   2
ATOM      2  C   UNL     1     121.252 131.429 129.757  1.00  0.00    -0.000 C 
BRANCH   2   3
ATOM      3  C   UNL     1     120.500 131.266 131.083  1.00  0.00    -0.003 C 
ATOM      4  C   UNL     1     119.045 130.871 130.847  1.00  0.00     0.004 C 
ENDBRANCH   2   3
ENDBRANCH   1   2
BRANCH   1   5
ATOM      5  C   UNL     1     121.552 133.767 130.760  1.00  0.00     0.036 C 
BRANCH   5   6
ATOM      6  C   UNL     1     120.769 134.925 130.112  1.00  0.00     0.136 C 
BRANCH   6   7
ATOM      7  C   UNL     1     119.287 134.637 130.122  1.00  0.00    -0.004 C 
ATOM      8  C   UNL     1     118.633 134.215 129.035  1.00  0.00     0.007 C 
ENDBRANCH   6   7
BRANCH   6   9
ATOM      9  O   UNL     1     121.032 136.125 130.794  1.00  0.00    -0.389 OA
ATOM     10  H   UNL     1     120.191 136.652 130.780  1.00  0.00     0.211 HD
ENDBRANCH   6   9
ENDBRANCH   5   6
ENDBRANCH   1   5
TORSDOF 6
ENDMDL
MODEL 2
REMARK VINA RESULT:    -3.629     12.178     13.377
REMARK INTER + INTRA:          -5.401
REMARK INTER:                  -5.060
REMARK INTRA:                  -0.341
REMARK UNBOUND:                -0.605
REMARK SMILES C=C[C@@H](O)CCCCC
REMARK SMILES IDX 6 1 7 2 8 3 9 4 5 5 3 6 2 7 1 8 4 9
REMARK H PARENT 4 10
REMARK Flexibility Score: inf
ROOT
ATOM      1  C   UNL     1     114.083 120.729 131.472  1.00  0.00     0.003 C 
ENDROOT
BRANCH   1   2
ATOM      2  C   UNL     1     113.691 120.156 132.842  1.00  0.00    -0.000 C 
BRANCH   2   3
ATOM      3  C   UNL     1     114.471 120.846 133.969  1.00  0.00    -0.003 C 
ATOM      4  C   UNL     1     115.528 119.915 134.557  1.00  0.00     0.004 C 
ENDBRANCH   2   3
ENDBRANCH   1   2
BRANCH   1   5
ATOM      5  C   UNL     1     114.836 122.067 131.579  1.00  0.00     0.036 C 
BRANCH   5   6
ATOM      6  C   UNL     1     114.023 123.271 131.066  1.00  0.00     0.136 C 
BRANCH   6   7
ATOM      7  C   UNL     1     113.232 122.897 129.836  1.00  0.00    -0.004 C 
ATOM      8  C   UNL     1     113.735 123.005 128.601  1.00  0.00     0.007 C 
ENDBRANCH   6   7
BRANCH   6   9
ATOM      9  O   UNL     1     113.159 123.733 132.073  1.00  0.00    -0.389 OA
ATOM     10  H   UNL     1     113.721 124.215 132.734  1.00  0.00     0.211 HD
ENDBRANCH   6   9
ENDBRANCH   5   6
ENDBRANCH   1   5
TORSDOF 6
ENDMDL
MODEL 3
REMARK VINA RESULT:    -3.616     13.274     14.469
REMARK INTER + INTRA:          -5.383
REMARK INTER:                  -5.165
REMARK INTRA:                  -0.218
REMARK UNBOUND:                -0.605
REMARK SMILES C=C[C@@H](O)CCCCC
REMARK SMILES IDX 6 1 7 2 8 3 9 4 5 5 3 6 2 7 1 8 4 9
REMARK H PARENT 4 10
REMARK Flexibility Score: inf
ROOT
ATOM      1  C   UNL     1     113.919 120.927 131.411  1.00  0.00     0.003 C 
ENDROOT
BRANCH   1   2
ATOM      2  C   UNL     1     114.418 119.951 130.335  1.00  0.00    -0.000 C 
BRANCH   2   3
ATOM      3  C   UNL     1     114.126 120.491 128.929  1.00  0.00    -0.003 C 
ATOM      4  C   UNL     1     113.908 122.001 128.953  1.00  0.00     0.004 C 
ENDBRANCH   2   3
ENDBRANCH   1   2
BRANCH   1   5
ATOM      5  C   UNL     1     113.684 120.247 132.772  1.00  0.00     0.036 C 
BRANCH   5   6
ATOM      6  C   UNL     1     114.449 120.912 133.931  1.00  0.00     0.136 C 
BRANCH   6   7
ATOM      7  C   UNL     1     115.368 119.920 134.604  1.00  0.00    -0.004 C 
ATOM      8  C   UNL     1     116.690 120.102 134.672  1.00  0.00     0.007 C 
ENDBRANCH   6   7
BRANCH   6   9
ATOM      9  O   UNL     1     115.189 122.008 133.454  1.00  0.00    -0.389 OA
ATOM     10  H   UNL     1     114.531 122.706 133.195  1.00  0.00     0.211 HD
ENDBRANCH   6   9
ENDBRANCH   5   6
ENDBRANCH   1   5
TORSDOF 6
ENDMDL
MODEL 4
REMARK VINA RESULT:    -3.549     13.536     14.388
REMARK INTER + INTRA:          -5.295
REMARK INTER:                  -4.926
REMARK INTRA:                  -0.369
REMARK UNBOUND:                -0.605
REMARK SMILES C=C[C@@H](O)CCCCC
REMARK SMILES IDX 6 1 7 2 8 3 9 4 5 5 3 6 2 7 1 8 4 9
REMARK H PARENT 4 10
REMARK Flexibility Score: inf
ROOT
ATOM      1  C   UNL     1     113.695 120.286 132.770  1.00  0.00     0.003 C 
ENDROOT
BRANCH   1   2
ATOM      2  C   UNL     1     114.313 120.632 134.133  1.00  0.00    -0.000 C 
BRANCH   2   3
ATOM      3  C   UNL     1     115.652 119.909 134.326  1.00  0.00    -0.003 C 
ATOM      4  C   UNL     1     116.777 120.625 133.584  1.00  0.00     0.004 C 
ENDBRANCH   2   3
ENDBRANCH   1   2
BRANCH   1   5
ATOM      5  C   UNL     1     113.501 121.521 131.872  1.00  0.00     0.036 C 
BRANCH   5   6
ATOM      6  C   UNL     1     114.273 121.439 130.541  1.00  0.00     0.136 C 
BRANCH   6   7
ATOM      7  C   UNL     1     114.510 120.001 130.149  1.00  0.00    -0.004 C 
ATOM      8  C   UNL     1     114.337 119.563 128.897  1.00  0.00     0.007 C 
ENDBRANCH   6   7
BRANCH   6   9
ATOM      9  O   UNL     1     113.561 122.105 129.529  1.00  0.00    -0.389 OA
ATOM     10  H   UNL     1     112.797 122.561 129.970  1.00  0.00     0.211 HD
ENDBRANCH   6   9
ENDBRANCH   5   6
ENDBRANCH   1   5
TORSDOF 6
ENDMDL
MODEL 5
REMARK VINA RESULT:    -3.529     11.723     13.450
REMARK INTER + INTRA:          -5.268
REMARK INTER:                  -4.686
REMARK INTRA:                  -0.583
REMARK UNBOUND:                -0.605
REMARK SMILES C=C[C@@H](O)CCCCC
REMARK SMILES IDX 6 1 7 2 8 3 9 4 5 5 3 6 2 7 1 8 4 9
REMARK H PARENT 4 10
REMARK Flexibility Score: inf
ROOT
ATOM      1  C   UNL     1     113.718 120.252 132.712  1.00  0.00     0.003 C 
ENDROOT
BRANCH   1   2
ATOM      2  C   UNL     1     114.302 120.772 134.034  1.00  0.00    -0.000 C 
BRANCH   2   3
ATOM      3  C   UNL     1     115.535 119.958 134.446  1.00  0.00    -0.003 C 
ATOM      4  C   UNL     1     116.816 120.766 134.260  1.00  0.00     0.004 C 
ENDBRANCH   2   3
ENDBRANCH   1   2
BRANCH   1   5
ATOM      5  C   UNL     1     113.741 121.307 131.593  1.00  0.00     0.036 C 
BRANCH   5   6
ATOM      6  C   UNL     1     114.318 122.664 132.040  1.00  0.00     0.136 C 
BRANCH   6   7
ATOM      7  C   UNL     1     115.490 123.058 131.173  1.00  0.00    -0.004 C 
ATOM      8  C   UNL     1     116.459 122.197 130.846  1.00  0.00     0.007 C 
ENDBRANCH   6   7
BRANCH   6   9
ATOM      9  O   UNL     1     113.321 123.653 131.982  1.00  0.00    -0.389 OA
ATOM     10  H   UNL     1     113.669 124.375 131.396  1.00  0.00     0.211 HD
ENDBRANCH   6   9
ENDBRANCH   5   6
ENDBRANCH   1   5
TORSDOF 6
ENDMDL
MODEL 6
REMARK VINA RESULT:    -3.494      2.027      4.240
REMARK INTER + INTRA:          -5.222
REMARK INTER:                  -4.900
REMARK INTRA:                  -0.322
REMARK UNBOUND:                -0.605
REMARK SMILES C=C[C@@H](O)CCCCC
REMARK SMILES IDX 6 1 7 2 8 3 9 4 5 5 3 6 2 7 1 8 4 9
REMARK H PARENT 4 10
REMARK Flexibility Score: inf
ROOT
ATOM      1  C   UNL     1     119.033 133.171 129.412  1.00  0.00     0.003 C 
ENDROOT
BRANCH   1   2
ATOM      2  C   UNL     1     119.374 134.420 130.238  1.00  0.00    -0.000 C 
BRANCH   2   3
ATOM      3  C   UNL     1     120.737 134.992 129.829  1.00  0.00    -0.003 C 
ATOM      4  C   UNL     1     121.777 134.777 130.925  1.00  0.00     0.004 C 
ENDBRANCH   2   3
ENDBRANCH   1   2
BRANCH   1   5
ATOM      5  C   UNL     1     119.251 131.862 130.192  1.00  0.00     0.036 C 
BRANCH   5   6
ATOM      6  C   UNL     1     120.688 131.318 130.090  1.00  0.00     0.136 C 
BRANCH   6   7
ATOM      7  C   UNL     1     120.718 129.833 130.360  1.00  0.00    -0.004 C 
ATOM      8  C   UNL     1     119.842 128.988 129.805  1.00  0.00     0.007 C 
ENDBRANCH   6   7
BRANCH   6   9
ATOM      9  O   UNL     1     121.216 131.588 128.816  1.00  0.00    -0.389 OA
ATOM     10  H   UNL     1     121.582 132.511 128.847  1.00  0.00     0.211 HD
ENDBRANCH   6   9
ENDBRANCH   5   6
ENDBRANCH   1   5
TORSDOF 6
ENDMDL
MODEL 7
REMARK VINA RESULT:    -3.464     13.287     14.124
REMARK INTER + INTRA:          -5.183
REMARK INTER:                  -4.929
REMARK INTRA:                  -0.254
REMARK UNBOUND:                -0.605
REMARK SMILES C=C[C@@H](O)CCCCC
REMARK SMILES IDX 6 1 7 2 8 3 9 4 5 5 3 6 2 7 1 8 4 9
REMARK H PARENT 4 10
REMARK Flexibility Score: inf
ROOT
ATOM      1  C   UNL     1     114.085 120.523 129.773  1.00  0.00     0.003 C 
ENDROOT
BRANCH   1   2
ATOM      2  C   UNL     1     113.971 120.644 128.246  1.00  0.00    -0.000 C 
BRANCH   2   3
ATOM      3  C   UNL     1     113.776 122.106 127.826  1.00  0.00    -0.003 C 
ATOM      4  C   UNL     1     112.819 122.217 126.643  1.00  0.00     0.004 C 
ENDBRANCH   2   3
ENDBRANCH   1   2
BRANCH   1   5
ATOM      5  C   UNL     1     113.831 121.856 130.498  1.00  0.00     0.036 C 
BRANCH   5   6
ATOM      6  C   UNL     1     113.577 121.695 132.009  1.00  0.00     0.136 C 
BRANCH   6   7
ATOM      7  C   UNL     1     113.894 120.288 132.456  1.00  0.00    -0.004 C 
ATOM      8  C   UNL     1     114.674 120.032 133.511  1.00  0.00     0.007 C 
ENDBRANCH   6   7
BRANCH   6   9
ATOM      9  O   UNL     1     114.355 122.617 132.729  1.00  0.00    -0.389 OA
ATOM     10  H   UNL     1     115.005 123.006 132.087  1.00  0.00     0.211 HD
ENDBRANCH   6   9
ENDBRANCH   5   6
ENDBRANCH   1   5
TORSDOF 6
ENDMDL
MODEL 8
REMARK VINA RESULT:    -3.448     12.684     13.618
REMARK INTER + INTRA:          -5.161
REMARK INTER:                  -4.619
REMARK INTRA:                  -0.542
REMARK UNBOUND:                -0.605
REMARK SMILES C=C[C@@H](O)CCCCC
REMARK SMILES IDX 6 1 7 2 8 3 9 4 5 5 3 6 2 7 1 8 4 9
REMARK H PARENT 4 10
REMARK Flexibility Score: inf
ROOT
ATOM      1  C   UNL     1     114.438 122.109 129.328  1.00  0.00     0.003 C 
ENDROOT
BRANCH   1   2
ATOM      2  C   UNL     1     114.046 120.972 128.372  1.00  0.00    -0.000 C 
BRANCH   2   3
ATOM      3  C   UNL     1     114.389 119.605 128.977  1.00  0.00    -0.003 C 
ATOM      4  C   UNL     1     115.874 119.508 129.313  1.00  0.00     0.004 C 
ENDBRANCH   2   3
ENDBRANCH   1   2
BRANCH   1   5
ATOM      5  C   UNL     1     113.238 122.670 130.111  1.00  0.00     0.036 C 
BRANCH   5   6
ATOM      6  C   UNL     1     113.491 122.781 131.626  1.00  0.00     0.136 C 
BRANCH   6   7
ATOM      7  C   UNL     1     114.297 121.604 132.121  1.00  0.00    -0.004 C 
ATOM      8  C   UNL     1     113.724 120.484 132.572  1.00  0.00     0.007 C 
ENDBRANCH   6   7
BRANCH   6   9
ATOM      9  O   UNL     1     114.163 123.981 131.916  1.00  0.00    -0.389 OA
ATOM     10  H   UNL     1     113.467 124.649 132.154  1.00  0.00     0.211 HD
ENDBRANCH   6   9
ENDBRANCH   5   6
ENDBRANCH   1   5
TORSDOF 6
ENDMDL
MODEL 9
REMARK VINA RESULT:    -3.434     12.464     13.497
REMARK INTER + INTRA:          -5.143
REMARK INTER:                  -4.919
REMARK INTRA:                  -0.224
REMARK UNBOUND:                -0.605
REMARK SMILES C=C[C@@H](O)CCCCC
REMARK SMILES IDX 6 1 7 2 8 3 9 4 5 5 3 6 2 7 1 8 4 9
REMARK H PARENT 4 10
REMARK Flexibility Score: inf
ROOT
ATOM      1  C   UNL     1     114.123 120.996 129.963  1.00  0.00     0.003 C 
ENDROOT
BRANCH   1   2
ATOM      2  C   UNL     1     114.744 120.434 131.251  1.00  0.00    -0.000 C 
BRANCH   2   3
ATOM      3  C   UNL     1     113.734 120.467 132.405  1.00  0.00    -0.003 C 
ATOM      4  C   UNL     1     114.435 120.343 133.755  1.00  0.00     0.004 C 
ENDBRANCH   2   3
ENDBRANCH   1   2
BRANCH   1   5
ATOM      5  C   UNL     1     113.364 122.314 130.192  1.00  0.00     0.036 C 
BRANCH   5   6
ATOM      6  C   UNL     1     113.479 123.302 129.016  1.00  0.00     0.136 C 
BRANCH   6   7
ATOM      7  C   UNL     1     113.649 122.561 127.711  1.00  0.00    -0.004 C 
ATOM      8  C   UNL     1     112.753 122.639 126.722  1.00  0.00     0.007 C 
ENDBRANCH   6   7
BRANCH   6   9
ATOM      9  O   UNL     1     112.338 124.121 128.960  1.00  0.00    -0.389 OA
ATOM     10  H   UNL     1     112.226 124.517 129.864  1.00  0.00     0.211 HD
ENDBRANCH   6   9
ENDBRANCH   5   6
ENDBRANCH   1   5
TORSDOF 6
ENDMDL
