MODEL 1
REMARK VINA RESULT:    -4.657      0.000      0.000
REMARK INTER + INTRA:         -10.382
REMARK INTER:                  -8.196
REMARK INTRA:                  -2.186
REMARK UNBOUND:                -2.186
REMARK SMILES CCCCCCCCCCCCCCC(=O)[O-]
REMARK SMILES IDX 9 1 10 2 11 3 12 4 13 5 14 6 15 7 16 8 17 9 8 10 7 11 6 12
REMARK SMILES IDX 5 13 4 14 3 15 2 16 1 17
REMARK H PARENT
REMARK Flexibility Score: inf
ROOT
ATOM      1  C   UNL     1      -3.862 -48.859  16.774  1.00  0.00     0.000 C 
ENDROOT
BRANCH   1   2
ATOM      2  C   UNL     1      -5.017 -48.687  17.774  1.00  0.00     0.000 C 
BRANCH   2   3
ATOM      3  C   UNL     1      -4.555 -48.783  19.238  1.00  0.00     0.000 C 
BRANCH   3   4
ATOM      4  C   UNL     1      -4.633 -47.422  19.963  1.00  0.00     0.000 C 
BRANCH   4   5
ATOM      5  C   UNL     1      -5.414 -46.352  19.180  1.00  0.00     0.006 C 
BRANCH   5   6
ATOM      6  C   UNL     1      -5.173 -44.932  19.706  1.00  0.00     0.053 C 
BRANCH   6   7
ATOM      7  C   UNL     1      -6.467 -44.296  20.106  1.00  0.00     0.041 C 
ATOM      8  O   UNL     1      -7.309 -44.944  20.779  1.00  0.00    -0.550 OA
ATOM      9  O   UNL     1      -6.762 -43.004  19.692  1.00  0.00    -0.550 OA
ENDBRANCH   6   7
ENDBRANCH   5   6
ENDBRANCH   4   5
ENDBRANCH   3   4
ENDBRANCH   2   3
ENDBRANCH   1   2
BRANCH   1  10
ATOM     10  C   UNL     1      -2.499 -49.014  17.464  1.00  0.00     0.000 C 
BRANCH  10  11
ATOM     11  C   UNL     1      -1.589 -47.820  17.156  1.00  0.00    -0.000 C 
BRANCH  11  12
ATOM     12  C   UNL     1      -1.606 -46.802  18.304  1.00  0.00    -0.000 C 
BRANCH  12  13
ATOM     13  C   UNL     1      -1.994 -45.405  17.795  1.00  0.00    -0.000 C 
BRANCH  13  14
ATOM     14  C   UNL     1      -1.736 -45.230  16.290  1.00  0.00    -0.000 C 
BRANCH  14  15
ATOM     15  C   UNL     1      -2.857 -44.453  15.583  1.00  0.00    -0.000 C 
BRANCH  15  16
ATOM     16  C   UNL     1      -4.119 -45.312  15.447  1.00  0.00    -0.003 C 
ATOM     17  C   UNL     1      -4.024 -46.246  14.245  1.00  0.00     0.004 C 
ENDBRANCH  15  16
ENDBRANCH  14  15
ENDBRANCH  13  14
ENDBRANCH  12  13
ENDBRANCH  11  12
ENDBRANCH  10  11
ENDBRANCH   1  10
TORSDOF 13
ENDMDL
MODEL 2
REMARK VINA RESULT:    -4.531      2.197      4.847
REMARK INTER + INTRA:         -10.160
REMARK INTER:                  -8.034
REMARK INTRA:                  -2.127
REMARK UNBOUND:                -2.186
REMARK SMILES CCCCCCCCCCCCCCC(=O)[O-]
REMARK SMILES IDX 9 1 10 2 11 3 12 4 13 5 14 6 15 7 16 8 17 9 8 10 7 11 6 12
REMARK SMILES IDX 5 13 4 14 3 15 2 16 1 17
REMARK H PARENT
REMARK Flexibility Score: inf
ROOT
ATOM      1  C   UNL     1      -1.627 -46.733  18.320  1.00  0.00     0.000 C 
ENDROOT
BRANCH   1   2
ATOM      2  C   UNL     1      -2.026 -45.360  17.755  1.00  0.00     0.000 C 
BRANCH   2   3
ATOM      3  C   UNL     1      -1.705 -45.218  16.257  1.00  0.00     0.000 C 
BRANCH   3   4
ATOM      4  C   UNL     1      -2.891 -44.634  15.461  1.00  0.00     0.000 C 
BRANCH   4   5
ATOM      5  C   UNL     1      -3.938 -45.686  15.057  1.00  0.00     0.006 C 
BRANCH   5   6
ATOM      6  C   UNL     1      -5.337 -45.377  15.602  1.00  0.00     0.053 C 
BRANCH   6   7
ATOM      7  C   UNL     1      -6.256 -44.978  14.491  1.00  0.00     0.041 C 
ATOM      8  O   UNL     1      -5.829 -44.278  13.536  1.00  0.00    -0.550 OA
ATOM      9  O   UNL     1      -7.597 -45.338  14.536  1.00  0.00    -0.550 OA
ENDBRANCH   6   7
ENDBRANCH   5   6
ENDBRANCH   4   5
ENDBRANCH   3   4
ENDBRANCH   2   3
ENDBRANCH   1   2
BRANCH   1  10
ATOM     10  C   UNL     1      -1.549 -47.819  17.238  1.00  0.00     0.000 C 
BRANCH  10  11
ATOM     11  C   UNL     1      -2.453 -49.007  17.587  1.00  0.00    -0.000 C 
BRANCH  11  12
ATOM     12  C   UNL     1      -3.778 -48.937  16.817  1.00  0.00    -0.000 C 
BRANCH  12  13
ATOM     13  C   UNL     1      -4.942 -48.585  17.757  1.00  0.00    -0.000 C 
BRANCH  13  14
ATOM     14  C   UNL     1      -4.571 -48.731  19.241  1.00  0.00    -0.000 C 
BRANCH  14  15
ATOM     15  C   UNL     1      -4.663 -47.403  20.008  1.00  0.00    -0.000 C 
BRANCH  15  16
ATOM     16  C   UNL     1      -5.315 -46.316  19.146  1.00  0.00    -0.003 C 
ATOM     17  C   UNL     1      -6.270 -45.458  19.969  1.00  0.00     0.004 C 
ENDBRANCH  15  16
ENDBRANCH  14  15
ENDBRANCH  13  14
ENDBRANCH  12  13
ENDBRANCH  11  12
ENDBRANCH  10  11
ENDBRANCH   1  10
TORSDOF 13
ENDMDL
MODEL 3
REMARK VINA RESULT:    -4.494      1.276      3.492
REMARK INTER + INTRA:         -10.095
REMARK INTER:                  -7.628
REMARK INTRA:                  -2.467
REMARK UNBOUND:                -2.186
REMARK SMILES CCCCCCCCCCCCCCC(=O)[O-]
REMARK SMILES IDX 9 1 10 2 11 3 12 4 13 5 14 6 15 7 16 8 17 9 8 10 7 11 6 12
REMARK SMILES IDX 5 13 4 14 3 15 2 16 1 17
REMARK H PARENT
REMARK Flexibility Score: inf
ROOT
ATOM      1  C   UNL     1      -2.783 -44.784  15.465  1.00  0.00     0.000 C 
ENDROOT
BRANCH   1   2
ATOM      2  C   UNL     1      -3.664 -45.959  15.014  1.00  0.00     0.000 C 
BRANCH   2   3
ATOM      3  C   UNL     1      -5.016 -46.004  15.747  1.00  0.00     0.000 C 
BRANCH   3   4
ATOM      4  C   UNL     1      -5.542 -44.593  16.084  1.00  0.00     0.000 C 
BRANCH   4   5
ATOM      5  C   UNL     1      -6.176 -44.491  17.482  1.00  0.00     0.006 C 
BRANCH   5   6
ATOM      6  C   UNL     1      -5.977 -45.758  18.322  1.00  0.00     0.053 C 
BRANCH   6   7
ATOM      7  C   UNL     1      -5.452 -45.410  19.679  1.00  0.00     0.041 C 
ATOM      8  O   UNL     1      -5.336 -46.300  20.561  1.00  0.00    -0.550 OA
ATOM      9  O   UNL     1      -5.139 -44.092  19.986  1.00  0.00    -0.550 OA
ENDBRANCH   6   7
ENDBRANCH   5   6
ENDBRANCH   4   5
ENDBRANCH   3   4
ENDBRANCH   2   3
ENDBRANCH   1   2
BRANCH   1  10
ATOM     10  C   UNL     1      -1.690 -45.209  16.457  1.00  0.00     0.000 C 
BRANCH  10  11
ATOM     11  C   UNL     1      -2.150 -44.997  17.904  1.00  0.00    -0.000 C 
BRANCH  11  12
ATOM     12  C   UNL     1      -2.115 -46.312  18.692  1.00  0.00    -0.000 C 
BRANCH  12  13
ATOM     13  C   UNL     1      -1.444 -47.426  17.874  1.00  0.00    -0.000 C 
BRANCH  13  14
ATOM     14  C   UNL     1      -2.195 -48.764  17.967  1.00  0.00    -0.000 C 
BRANCH  14  15
ATOM     15  C   UNL     1      -3.652 -48.595  18.423  1.00  0.00    -0.000 C 
BRANCH  15  16
ATOM     16  C   UNL     1      -4.621 -49.175  17.386  1.00  0.00    -0.003 C 
ATOM     17  C   UNL     1      -3.894 -49.544  16.096  1.00  0.00     0.004 C 
ENDBRANCH  15  16
ENDBRANCH  14  15
ENDBRANCH  13  14
ENDBRANCH  12  13
ENDBRANCH  11  12
ENDBRANCH  10  11
ENDBRANCH   1  10
TORSDOF 13
ENDMDL
MODEL 4
REMARK VINA RESULT:    -4.410      1.031      2.321
REMARK INTER + INTRA:          -9.948
REMARK INTER:                  -7.938
REMARK INTRA:                  -2.010
REMARK UNBOUND:                -2.186
REMARK SMILES CCCCCCCCCCCCCCC(=O)[O-]
REMARK SMILES IDX 9 1 10 2 11 3 12 4 13 5 14 6 15 7 16 8 17 9 8 10 7 11 6 12
REMARK SMILES IDX 5 13 4 14 3 15 2 16 1 17
REMARK H PARENT
REMARK Flexibility Score: inf
ROOT
ATOM      1  C   UNL     1      -1.573 -47.811  17.100  1.00  0.00     0.000 C 
ENDROOT
BRANCH   1   2
ATOM      2  C   UNL     1      -2.423 -49.032  17.484  1.00  0.00     0.000 C 
BRANCH   2   3
ATOM      3  C   UNL     1      -3.891 -48.898  17.044  1.00  0.00     0.000 C 
BRANCH   3   4
ATOM      4  C   UNL     1      -4.843 -48.714  18.244  1.00  0.00     0.000 C 
BRANCH   4   5
ATOM      5  C   UNL     1      -5.285 -47.257  18.461  1.00  0.00     0.006 C 
BRANCH   5   6
ATOM      6  C   UNL     1      -4.946 -46.733  19.862  1.00  0.00     0.053 C 
BRANCH   6   7
ATOM      7  C   UNL     1      -5.542 -45.376  20.072  1.00  0.00     0.041 C 
ATOM      8  O   UNL     1      -6.742 -45.262  20.434  1.00  0.00    -0.550 OA
ATOM      9  O   UNL     1      -4.787 -44.239  19.818  1.00  0.00    -0.550 OA
ENDBRANCH   6   7
ENDBRANCH   5   6
ENDBRANCH   4   5
ENDBRANCH   3   4
ENDBRANCH   2   3
ENDBRANCH   1   2
BRANCH   1  10
ATOM     10  C   UNL     1      -1.592 -46.714  18.175  1.00  0.00     0.000 C 
BRANCH  10  11
ATOM     11  C   UNL     1      -2.234 -45.430  17.638  1.00  0.00    -0.000 C 
BRANCH  11  12
ATOM     12  C   UNL     1      -1.636 -45.041  16.281  1.00  0.00    -0.000 C 
BRANCH  12  13
ATOM     13  C   UNL     1      -2.734 -44.593  15.304  1.00  0.00    -0.000 C 
BRANCH  13  14
ATOM     14  C   UNL     1      -3.966 -45.511  15.336  1.00  0.00    -0.000 C 
BRANCH  14  15
ATOM     15  C   UNL     1      -4.228 -46.198  13.987  1.00  0.00    -0.000 C 
BRANCH  15  16
ATOM     16  C   UNL     1      -3.487 -47.537  13.902  1.00  0.00    -0.003 C 
ATOM     17  C   UNL     1      -3.831 -48.277  12.612  1.00  0.00     0.004 C 
ENDBRANCH  15  16
ENDBRANCH  14  15
ENDBRANCH  13  14
ENDBRANCH  12  13
ENDBRANCH  11  12
ENDBRANCH  10  11
ENDBRANCH   1  10
TORSDOF 13
ENDMDL
MODEL 5
REMARK VINA RESULT:    -4.390      2.407      4.784
REMARK INTER + INTRA:          -9.912
REMARK INTER:                  -7.567
REMARK INTRA:                  -2.345
REMARK UNBOUND:                -2.186
REMARK SMILES CCCCCCCCCCCCCCC(=O)[O-]
REMARK SMILES IDX 9 1 10 2 11 3 12 4 13 5 14 6 15 7 16 8 17 9 8 10 7 11 6 12
REMARK SMILES IDX 5 13 4 14 3 15 2 16 1 17
REMARK H PARENT
REMARK Flexibility Score: inf
ROOT
ATOM      1  C   UNL     1      -1.353 -47.680  17.407  1.00  0.00     0.000 C 
ENDROOT
BRANCH   1   2
ATOM      2  C   UNL     1      -1.695 -46.635  18.482  1.00  0.00     0.000 C 
BRANCH   2   3
ATOM      3  C   UNL     1      -2.062 -45.266  17.885  1.00  0.00     0.000 C 
BRANCH   3   4
ATOM      4  C   UNL     1      -1.777 -45.196  16.370  1.00  0.00     0.000 C 
BRANCH   4   5
ATOM      5  C   UNL     1      -3.009 -44.820  15.528  1.00  0.00     0.006 C 
BRANCH   5   6
ATOM      6  C   UNL     1      -3.655 -46.029  14.841  1.00  0.00     0.053 C 
BRANCH   6   7
ATOM      7  C   UNL     1      -4.876 -45.611  14.084  1.00  0.00     0.041 C 
ATOM      8  O   UNL     1      -5.905 -45.232  14.702  1.00  0.00    -0.550 OA
ATOM      9  O   UNL     1      -4.894 -45.688  12.698  1.00  0.00    -0.550 OA
ENDBRANCH   6   7
ENDBRANCH   5   6
ENDBRANCH   4   5
ENDBRANCH   3   4
ENDBRANCH   2   3
ENDBRANCH   1   2
BRANCH   1  10
ATOM     10  C   UNL     1      -2.038 -49.031  17.655  1.00  0.00     0.000 C 
BRANCH  10  11
ATOM     11  C   UNL     1      -3.070 -49.332  16.563  1.00  0.00    -0.000 C 
BRANCH  11  12
ATOM     12  C   UNL     1      -4.474 -48.893  16.994  1.00  0.00    -0.000 C 
BRANCH  12  13
ATOM     13  C   UNL     1      -4.618 -48.934  18.524  1.00  0.00    -0.000 C 
BRANCH  13  14
ATOM     14  C   UNL     1      -5.033 -47.578  19.117  1.00  0.00    -0.000 C 
BRANCH  14  15
ATOM     15  C   UNL     1      -5.658 -46.641  18.072  1.00  0.00    -0.000 C 
BRANCH  15  16
ATOM     16  C   UNL     1      -5.584 -45.181  18.533  1.00  0.00    -0.003 C 
ATOM     17  C   UNL     1      -5.400 -45.088  20.045  1.00  0.00     0.004 C 
ENDBRANCH  15  16
ENDBRANCH  14  15
ENDBRANCH  13  14
ENDBRANCH  12  13
ENDBRANCH  11  12
ENDBRANCH  10  11
ENDBRANCH   1  10
TORSDOF 13
ENDMDL
MODEL 6
REMARK VINA RESULT:    -4.301      1.558      3.960
REMARK INTER + INTRA:          -9.756
REMARK INTER:                  -7.267
REMARK INTRA:                  -2.489
REMARK UNBOUND:                -2.186
REMARK SMILES CCCCCCCCCCCCCCC(=O)[O-]
REMARK SMILES IDX 9 1 10 2 11 3 12 4 13 5 14 6 15 7 16 8 17 9 8 10 7 11 6 12
REMARK SMILES IDX 5 13 4 14 3 15 2 16 1 17
REMARK H PARENT
REMARK Flexibility Score: inf
ROOT
ATOM      1  C   UNL     1      -2.335 -45.286  18.113  1.00  0.00     0.000 C 
ENDROOT
BRANCH   1   2
ATOM      2  C   UNL     1      -1.753 -45.276  16.691  1.00  0.00     0.000 C 
BRANCH   2   3
ATOM      3  C   UNL     1      -2.760 -44.778  15.640  1.00  0.00     0.000 C 
BRANCH   3   4
ATOM      4  C   UNL     1      -4.144 -44.480  16.255  1.00  0.00     0.000 C 
BRANCH   4   5
ATOM      5  C   UNL     1      -5.288 -45.284  15.615  1.00  0.00     0.006 C 
BRANCH   5   6
ATOM      6  C   UNL     1      -6.385 -45.664  16.616  1.00  0.00     0.053 C 
BRANCH   6   7
ATOM      7  C   UNL     1      -6.811 -44.466  17.406  1.00  0.00     0.041 C 
ATOM      8  O   UNL     1      -6.654 -44.443  18.654  1.00  0.00    -0.550 OA
ATOM      9  O   UNL     1      -7.427 -43.398  16.769  1.00  0.00    -0.550 OA
ENDBRANCH   6   7
ENDBRANCH   5   6
ENDBRANCH   4   5
ENDBRANCH   3   4
ENDBRANCH   2   3
ENDBRANCH   1   2
BRANCH   1  10
ATOM     10  C   UNL     1      -2.446 -46.701  18.698  1.00  0.00     0.000 C 
BRANCH  10  11
ATOM     11  C   UNL     1      -3.889 -47.011  19.113  1.00  0.00    -0.000 C 
BRANCH  11  12
ATOM     12  C   UNL     1      -4.213 -48.497  18.911  1.00  0.00    -0.000 C 
BRANCH  12  13
ATOM     13  C   UNL     1      -4.906 -48.729  17.559  1.00  0.00    -0.000 C 
BRANCH  13  14
ATOM     14  C   UNL     1      -3.995 -49.427  16.538  1.00  0.00    -0.000 C 
BRANCH  14  15
ATOM     15  C   UNL     1      -3.412 -48.455  15.501  1.00  0.00    -0.000 C 
BRANCH  15  16
ATOM     16  C   UNL     1      -1.903 -48.668  15.337  1.00  0.00    -0.003 C 
ATOM     17  C   UNL     1      -1.323 -49.440  16.518  1.00  0.00     0.004 C 
ENDBRANCH  15  16
ENDBRANCH  14  15
ENDBRANCH  13  14
ENDBRANCH  12  13
ENDBRANCH  11  12
ENDBRANCH  10  11
ENDBRANCH   1  10
TORSDOF 13
ENDMDL
MODEL 7
REMARK VINA RESULT:    -4.260      3.315      5.513
REMARK INTER + INTRA:          -9.683
REMARK INTER:                  -7.311
REMARK INTRA:                  -2.372
REMARK UNBOUND:                -2.186
REMARK SMILES CCCCCCCCCCCCCCC(=O)[O-]
REMARK SMILES IDX 9 1 10 2 11 3 12 4 13 5 14 6 15 7 16 8 17 9 8 10 7 11 6 12
REMARK SMILES IDX 5 13 4 14 3 15 2 16 1 17
REMARK H PARENT
REMARK Flexibility Score: inf
ROOT
ATOM      1  C   UNL     1      -2.199 -46.322  18.871  1.00  0.00     0.000 C 
ENDROOT
BRANCH   1   2
ATOM      2  C   UNL     1      -2.328 -45.148  17.888  1.00  0.00     0.000 C 
BRANCH   2   3
ATOM      3  C   UNL     1      -2.024 -45.552  16.435  1.00  0.00     0.000 C 
BRANCH   3   4
ATOM      4  C   UNL     1      -3.241 -45.346  15.508  1.00  0.00     0.000 C 
BRANCH   4   5
ATOM      5  C   UNL     1      -3.623 -46.602  14.706  1.00  0.00     0.006 C 
BRANCH   5   6
ATOM      6  C   UNL     1      -2.626 -47.753  14.887  1.00  0.00     0.053 C 
BRANCH   6   7
ATOM      7  C   UNL     1      -3.189 -49.025  14.337  1.00  0.00     0.041 C 
ATOM      8  O   UNL     1      -3.475 -49.115  13.115  1.00  0.00    -0.550 OA
ATOM      9  O   UNL     1      -3.445 -50.095  15.185  1.00  0.00    -0.550 OA
ENDBRANCH   6   7
ENDBRANCH   5   6
ENDBRANCH   4   5
ENDBRANCH   3   4
ENDBRANCH   2   3
ENDBRANCH   1   2
BRANCH   1  10
ATOM     10  C   UNL     1      -1.761 -47.624  18.185  1.00  0.00     0.000 C 
BRANCH  10  11
ATOM     11  C   UNL     1      -2.722 -48.770  18.520  1.00  0.00    -0.000 C 
BRANCH  11  12
ATOM     12  C   UNL     1      -4.102 -48.235  18.920  1.00  0.00    -0.000 C 
BRANCH  12  13
ATOM     13  C   UNL     1      -5.088 -48.321  17.744  1.00  0.00    -0.000 C 
BRANCH  13  14
ATOM     14  C   UNL     1      -5.942 -47.053  17.593  1.00  0.00    -0.000 C 
BRANCH  14  15
ATOM     15  C   UNL     1      -5.841 -46.121  18.810  1.00  0.00    -0.000 C 
BRANCH  15  16
ATOM     16  C   UNL     1      -6.097 -44.665  18.408  1.00  0.00    -0.003 C 
ATOM     17  C   UNL     1      -6.781 -43.893  19.532  1.00  0.00     0.004 C 
ENDBRANCH  15  16
ENDBRANCH  14  15
ENDBRANCH  13  14
ENDBRANCH  12  13
ENDBRANCH  11  12
ENDBRANCH  10  11
ENDBRANCH   1  10
TORSDOF 13
ENDMDL
MODEL 8
REMARK VINA RESULT:    -4.246      1.236      2.469
REMARK INTER + INTRA:          -9.660
REMARK INTER:                  -7.685
REMARK INTRA:                  -1.974
REMARK UNBOUND:                -2.186
REMARK SMILES CCCCCCCCCCCCCCC(=O)[O-]
REMARK SMILES IDX 9 1 10 2 11 3 12 4 13 5 14 6 15 7 16 8 17 9 8 10 7 11 6 12
REMARK SMILES IDX 5 13 4 14 3 15 2 16 1 17
REMARK H PARENT
REMARK Flexibility Score: inf
ROOT
ATOM      1  C   UNL     1      -1.533 -47.803  17.372  1.00  0.00     0.000 C 
ENDROOT
BRANCH   1   2
ATOM      2  C   UNL     1      -2.443 -48.968  17.791  1.00  0.00     0.000 C 
BRANCH   2   3
ATOM      3  C   UNL     1      -3.792 -48.966  17.052  1.00  0.00     0.000 C 
BRANCH   3   4
ATOM      4  C   UNL     1      -4.988 -48.917  18.025  1.00  0.00     0.000 C 
BRANCH   4   5
ATOM      5  C   UNL     1      -4.825 -47.880  19.149  1.00  0.00     0.006 C 
BRANCH   5   6
ATOM      6  C   UNL     1      -5.446 -46.521  18.803  1.00  0.00     0.053 C 
BRANCH   6   7
ATOM      7  C   UNL     1      -5.370 -45.597  19.977  1.00  0.00     0.041 C 
ATOM      8  O   UNL     1      -5.710 -45.997  21.121  1.00  0.00    -0.550 OA
ATOM      9  O   UNL     1      -4.973 -44.278  19.799  1.00  0.00    -0.550 OA
ENDBRANCH   6   7
ENDBRANCH   5   6
ENDBRANCH   4   5
ENDBRANCH   3   4
ENDBRANCH   2   3
ENDBRANCH   1   2
BRANCH   1  10
ATOM     10  C   UNL     1      -1.613 -46.612  18.338  1.00  0.00     0.000 C 
BRANCH  10  11
ATOM     11  C   UNL     1      -2.314 -45.418  17.681  1.00  0.00    -0.000 C 
BRANCH  11  12
ATOM     12  C   UNL     1      -1.677 -45.081  16.327  1.00  0.00    -0.000 C 
BRANCH  12  13
ATOM     13  C   UNL     1      -2.752 -44.747  15.281  1.00  0.00    -0.000 C 
BRANCH  13  14
ATOM     14  C   UNL     1      -3.866 -45.804  15.219  1.00  0.00    -0.000 C 
BRANCH  14  15
ATOM     15  C   UNL     1      -5.266 -45.200  15.404  1.00  0.00    -0.000 C 
BRANCH  15  16
ATOM     16  C   UNL     1      -5.190 -43.852  16.131  1.00  0.00    -0.003 C 
ATOM     17  C   UNL     1      -5.821 -42.740  15.298  1.00  0.00     0.004 C 
ENDBRANCH  15  16
ENDBRANCH  14  15
ENDBRANCH  13  14
ENDBRANCH  12  13
ENDBRANCH  11  12
ENDBRANCH  10  11
ENDBRANCH   1  10
TORSDOF 13
ENDMDL
MODEL 9
REMARK VINA RESULT:    -4.157      1.615      4.135
REMARK INTER + INTRA:          -9.503
REMARK INTER:                  -7.527
REMARK INTRA:                  -1.975
REMARK UNBOUND:                -2.186
REMARK SMILES CCCCCCCCCCCCCCC(=O)[O-]
REMARK SMILES IDX 9 1 10 2 11 3 12 4 13 5 14 6 15 7 16 8 17 9 8 10 7 11 6 12
REMARK SMILES IDX 5 13 4 14 3 15 2 16 1 17
REMARK H PARENT
REMARK Flexibility Score: inf
ROOT
ATOM      1  C   UNL     1      -2.096 -45.385  17.775  1.00  0.00     0.000 C 
ENDROOT
BRANCH   1   2
ATOM      2  C   UNL     1      -2.007 -45.437  16.242  1.00  0.00     0.000 C 
BRANCH   2   3
ATOM      3  C   UNL     1      -3.389 -45.474  15.567  1.00  0.00     0.000 C 
BRANCH   3   4
ATOM      4  C   UNL     1      -4.132 -44.127  15.688  1.00  0.00     0.000 C 
BRANCH   4   5
ATOM      5  C   UNL     1      -5.664 -44.268  15.697  1.00  0.00     0.006 C 
BRANCH   5   6
ATOM      6  C   UNL     1      -6.361 -43.156  16.490  1.00  0.00     0.053 C 
BRANCH   6   7
ATOM      7  C   UNL     1      -7.574 -43.690  17.185  1.00  0.00     0.041 C 
ATOM      8  O   UNL     1      -8.513 -44.199  16.518  1.00  0.00    -0.550 OA
ATOM      9  O   UNL     1      -7.690 -43.580  18.564  1.00  0.00    -0.550 OA
ENDBRANCH   6   7
ENDBRANCH   5   6
ENDBRANCH   4   5
ENDBRANCH   3   4
ENDBRANCH   2   3
ENDBRANCH   1   2
BRANCH   1  10
ATOM     10  C   UNL     1      -1.586 -46.670  18.442  1.00  0.00     0.000 C 
BRANCH  10  11
ATOM     11  C   UNL     1      -1.393 -47.785  17.408  1.00  0.00    -0.000 C 
BRANCH  11  12
ATOM     12  C   UNL     1      -2.253 -49.009  17.749  1.00  0.00    -0.000 C 
BRANCH  12  13
ATOM     13  C   UNL     1      -3.540 -49.027  16.909  1.00  0.00    -0.000 C 
BRANCH  13  14
ATOM     14  C   UNL     1      -4.794 -48.717  17.741  1.00  0.00    -0.000 C 
BRANCH  14  15
ATOM     15  C   UNL     1      -4.510 -48.680  19.251  1.00  0.00    -0.000 C 
BRANCH  15  16
ATOM     16  C   UNL     1      -4.780 -47.285  19.825  1.00  0.00    -0.003 C 
ATOM     17  C   UNL     1      -5.455 -46.385  18.794  1.00  0.00     0.004 C 
ENDBRANCH  15  16
ENDBRANCH  14  15
ENDBRANCH  13  14
ENDBRANCH  12  13
ENDBRANCH  11  12
ENDBRANCH  10  11
ENDBRANCH   1  10
TORSDOF 13
ENDMDL
