MODEL 1
REMARK VINA RESULT:    -4.636      0.000      0.000
REMARK INTER + INTRA:         -15.094
REMARK INTER:                 -12.090
REMARK INTRA:                  -3.004
REMARK UNBOUND:                -3.004
REMARK SMILES CCCCCCCCCCCCCCCCCCCCCCCCCCCCCO
REMARK SMILES IDX 16 1 15 2 14 3 13 4 12 5 11 6 10 7 9 8 8 9 7 10 6 11 5 12
REMARK SMILES IDX 4 13 3 14 2 15 1 16 17 17 18 18 19 19 20 20 21 21 22 22
REMARK SMILES IDX 23 23 24 24 25 25 26 26 27 27 28 28 29 29 30 30
REMARK H PARENT 30 31
REMARK Flexibility Score: inf
ROOT
ATOM      1  C   UNL     1      -1.862  -9.605  21.305  1.00  0.00     0.000 C 
ENDROOT
BRANCH   1   2
ATOM      2  C   UNL     1      -0.957 -10.716  21.877  1.00  0.00     0.000 C 
BRANCH   2   3
ATOM      3  C   UNL     1       0.506 -10.303  22.135  1.00  0.00     0.000 C 
BRANCH   3   4
ATOM      4  C   UNL     1       1.487 -10.639  20.993  1.00  0.00     0.000 C 
BRANCH   4   5
ATOM      5  C   UNL     1       1.225 -11.978  20.280  1.00  0.00     0.000 C 
BRANCH   5   6
ATOM      6  C   UNL     1       1.166 -11.836  18.750  1.00  0.00     0.000 C 
BRANCH   6   7
ATOM      7  C   UNL     1       1.347 -10.382  18.276  1.00  0.00     0.000 C 
BRANCH   7   8
ATOM      8  C   UNL     1       2.637 -10.101  17.477  1.00  0.00    -0.000 C 
BRANCH   8   9
ATOM      9  C   UNL     1       3.843 -10.981  17.847  1.00  0.00    -0.000 C 
BRANCH   9  10
ATOM     10  C   UNL     1       4.151 -12.049  16.786  1.00  0.00    -0.000 C 
BRANCH  10  11
ATOM     11  C   UNL     1       5.639 -12.035  16.408  1.00  0.00    -0.000 C 
BRANCH  11  12
ATOM     12  C   UNL     1       6.515 -12.848  17.378  1.00  0.00    -0.000 C 
BRANCH  12  13
ATOM     13  C   UNL     1       7.812 -12.150  17.827  1.00  0.00    -0.000 C 
BRANCH  13  14
ATOM     14  C   UNL     1       7.628 -10.648  18.085  1.00  0.00    -0.000 C 
BRANCH  14  15
ATOM     15  C   UNL     1       8.710  -9.832  17.370  1.00  0.00    -0.003 C 
ATOM     16  C   UNL     1       8.536  -9.891  15.856  1.00  0.00     0.004 C 
ENDBRANCH  14  15
ENDBRANCH  13  14
ENDBRANCH  12  13
ENDBRANCH  11  12
ENDBRANCH  10  11
ENDBRANCH   9  10
ENDBRANCH   8   9
ENDBRANCH   7   8
ENDBRANCH   6   7
ENDBRANCH   5   6
ENDBRANCH   4   5
ENDBRANCH   3   4
ENDBRANCH   2   3
ENDBRANCH   1   2
BRANCH   1  17
ATOM     17  C   UNL     1      -3.104  -9.263  22.149  1.00  0.00     0.000 C 
BRANCH  17  18
ATOM     18  C   UNL     1      -4.375  -9.064  21.309  1.00  0.00     0.000 C 
BRANCH  18  19
ATOM     19  C   UNL     1      -5.233 -10.337  21.211  1.00  0.00     0.000 C 
BRANCH  19  20
ATOM     20  C   UNL     1      -4.778 -11.331  20.120  1.00  0.00     0.000 C 
BRANCH  20  21
ATOM     21  C   UNL     1      -4.004 -12.566  20.633  1.00  0.00     0.000 C 
BRANCH  21  22
ATOM     22  C   UNL     1      -2.823 -13.031  19.760  1.00  0.00     0.000 C 
BRANCH  22  23
ATOM     23  C   UNL     1      -1.939 -14.086  20.442  1.00  0.00     0.000 C 
BRANCH  23  24
ATOM     24  C   UNL     1      -1.100 -14.849  19.404  1.00  0.00     0.000 C 
BRANCH  24  25
ATOM     25  C   UNL     1      -1.222 -16.375  19.546  1.00  0.00     0.000 C 
BRANCH  25  26
ATOM     26  C   UNL     1      -1.908 -16.794  20.855  1.00  0.00     0.000 C 
BRANCH  26  27
ATOM     27  C   UNL     1      -3.208 -17.559  20.571  1.00  0.00     0.002 C 
BRANCH  27  28
ATOM     28  C   UNL     1      -3.946 -17.986  21.852  1.00  0.00     0.028 C 
BRANCH  28  29
ATOM     29  C   UNL     1      -4.352 -19.467  21.862  1.00  0.00     0.156 C 
BRANCH  29  30
ATOM     30  O   UNL     1      -4.465 -19.971  20.558  1.00  0.00    -0.396 OA
ATOM     31  H   UNL     1      -3.549 -20.223  20.269  1.00  0.00     0.210 HD
ENDBRANCH  29  30
ENDBRANCH  28  29
ENDBRANCH  27  28
ENDBRANCH  26  27
ENDBRANCH  25  26
ENDBRANCH  24  25
ENDBRANCH  23  24
ENDBRANCH  22  23
ENDBRANCH  21  22
ENDBRANCH  20  21
ENDBRANCH  19  20
ENDBRANCH  18  19
ENDBRANCH  17  18
ENDBRANCH   1  17
TORSDOF 28
ENDMDL
MODEL 2
REMARK VINA RESULT:    -4.229      1.270      2.009
REMARK INTER + INTRA:         -14.032
REMARK INTER:                 -11.133
REMARK INTRA:                  -2.899
REMARK UNBOUND:                -3.004
REMARK SMILES CCCCCCCCCCCCCCCCCCCCCCCCCCCCCO
REMARK SMILES IDX 16 1 15 2 14 3 13 4 12 5 11 6 10 7 9 8 8 9 7 10 6 11 5 12
REMARK SMILES IDX 4 13 3 14 2 15 1 16 17 17 18 18 19 19 20 20 21 21 22 22
REMARK SMILES IDX 23 23 24 24 25 25 26 26 27 27 28 28 29 29 30 30
REMARK H PARENT 30 31
REMARK Flexibility Score: inf
ROOT
ATOM      1  C   UNL     1      -1.980  -9.287  21.677  1.00  0.00     0.000 C 
ENDROOT
BRANCH   1   2
ATOM      2  C   UNL     1      -1.417  -9.888  22.982  1.00  0.00     0.000 C 
BRANCH   2   3
ATOM      3  C   UNL     1       0.116  -9.828  23.125  1.00  0.00     0.000 C 
BRANCH   3   4
ATOM      4  C   UNL     1       0.886  -9.667  21.798  1.00  0.00     0.000 C 
BRANCH   4   5
ATOM      5  C   UNL     1       1.476 -10.968  21.223  1.00  0.00     0.000 C 
BRANCH   5   6
ATOM      6  C   UNL     1       1.400 -11.028  19.689  1.00  0.00     0.000 C 
BRANCH   6   7
ATOM      7  C   UNL     1       1.028  -9.676  19.054  1.00  0.00     0.000 C 
BRANCH   7   8
ATOM      8  C   UNL     1       1.979  -9.180  17.944  1.00  0.00    -0.000 C 
BRANCH   8   9
ATOM      9  C   UNL     1       3.478  -9.253  18.284  1.00  0.00    -0.000 C 
BRANCH   9  10
ATOM     10  C   UNL     1       4.180 -10.455  17.635  1.00  0.00    -0.000 C 
BRANCH  10  11
ATOM     11  C   UNL     1       5.559 -10.059  17.090  1.00  0.00    -0.000 C 
BRANCH  11  12
ATOM     12  C   UNL     1       6.274 -11.213  16.363  1.00  0.00    -0.000 C 
BRANCH  12  13
ATOM     13  C   UNL     1       6.686 -12.393  17.263  1.00  0.00    -0.000 C 
BRANCH  13  14
ATOM     14  C   UNL     1       5.895 -13.676  16.972  1.00  0.00    -0.000 C 
BRANCH  14  15
ATOM     15  C   UNL     1       5.074 -13.535  15.685  1.00  0.00    -0.003 C 
ATOM     16  C   UNL     1       5.603 -14.455  14.590  1.00  0.00     0.004 C 
ENDBRANCH  14  15
ENDBRANCH  13  14
ENDBRANCH  12  13
ENDBRANCH  11  12
ENDBRANCH  10  11
ENDBRANCH   9  10
ENDBRANCH   8   9
ENDBRANCH   7   8
ENDBRANCH   6   7
ENDBRANCH   5   6
ENDBRANCH   4   5
ENDBRANCH   3   4
ENDBRANCH   2   3
ENDBRANCH   1   2
BRANCH   1  17
ATOM     17  C   UNL     1      -3.489  -8.976  21.690  1.00  0.00     0.000 C 
BRANCH  17  18
ATOM     18  C   UNL     1      -4.327  -9.997  20.905  1.00  0.00     0.000 C 
BRANCH  18  19
ATOM     19  C   UNL     1      -4.478 -11.340  21.640  1.00  0.00     0.000 C 
BRANCH  19  20
ATOM     20  C   UNL     1      -3.976 -12.564  20.843  1.00  0.00     0.000 C 
BRANCH  20  21
ATOM     21  C   UNL     1      -2.525 -13.001  21.146  1.00  0.00     0.000 C 
BRANCH  21  22
ATOM     22  C   UNL     1      -1.532 -12.897  19.973  1.00  0.00     0.000 C 
BRANCH  22  23
ATOM     23  C   UNL     1      -0.983 -14.257  19.517  1.00  0.00     0.000 C 
BRANCH  23  24
ATOM     24  C   UNL     1      -2.129 -15.236  19.215  1.00  0.00     0.000 C 
BRANCH  24  25
ATOM     25  C   UNL     1      -1.769 -16.694  19.546  1.00  0.00     0.000 C 
BRANCH  25  26
ATOM     26  C   UNL     1      -1.989 -17.035  21.026  1.00  0.00     0.000 C 
BRANCH  26  27
ATOM     27  C   UNL     1      -3.486 -17.154  21.345  1.00  0.00     0.002 C 
BRANCH  27  28
ATOM     28  C   UNL     1      -3.946 -18.610  21.535  1.00  0.00     0.028 C 
BRANCH  28  29
ATOM     29  C   UNL     1      -4.457 -19.266  20.244  1.00  0.00     0.156 C 
BRANCH  29  30
ATOM     30  O   UNL     1      -5.194 -20.426  20.522  1.00  0.00    -0.396 OA
ATOM     31  H   UNL     1      -5.771 -20.218  21.302  1.00  0.00     0.210 HD
ENDBRANCH  29  30
ENDBRANCH  28  29
ENDBRANCH  27  28
ENDBRANCH  26  27
ENDBRANCH  25  26
ENDBRANCH  24  25
ENDBRANCH  23  24
ENDBRANCH  22  23
ENDBRANCH  21  22
ENDBRANCH  20  21
ENDBRANCH  19  20
ENDBRANCH  18  19
ENDBRANCH  17  18
ENDBRANCH   1  17
TORSDOF 28
ENDMDL
MODEL 3
REMARK VINA RESULT:    -3.838      3.441      9.793
REMARK INTER + INTRA:         -13.012
REMARK INTER:                 -10.366
REMARK INTRA:                  -2.646
REMARK UNBOUND:                -3.004
REMARK SMILES CCCCCCCCCCCCCCCCCCCCCCCCCCCCCO
REMARK SMILES IDX 16 1 15 2 14 3 13 4 12 5 11 6 10 7 9 8 8 9 7 10 6 11 5 12
REMARK SMILES IDX 4 13 3 14 2 15 1 16 17 17 18 18 19 19 20 20 21 21 22 22
REMARK SMILES IDX 23 23 24 24 25 25 26 26 27 27 28 28 29 29 30 30
REMARK H PARENT 30 31
REMARK Flexibility Score: inf
ROOT
ATOM      1  C   UNL     1       1.005 -10.967  21.570  1.00  0.00     0.000 C 
ENDROOT
BRANCH   1   2
ATOM      2  C   UNL     1      -0.341 -10.374  22.036  1.00  0.00     0.000 C 
BRANCH   2   3
ATOM      3  C   UNL     1      -1.220  -9.780  20.918  1.00  0.00     0.000 C 
BRANCH   3   4
ATOM      4  C   UNL     1      -2.471  -9.022  21.408  1.00  0.00     0.000 C 
BRANCH   4   5
ATOM      5  C   UNL     1      -3.075  -9.540  22.725  1.00  0.00     0.000 C 
BRANCH   5   6
ATOM      6  C   UNL     1      -4.551  -9.948  22.583  1.00  0.00     0.000 C 
BRANCH   6   7
ATOM      7  C   UNL     1      -4.796 -11.433  22.906  1.00  0.00     0.000 C 
BRANCH   7   8
ATOM      8  C   UNL     1      -4.006 -12.439  22.042  1.00  0.00    -0.000 C 
BRANCH   8   9
ATOM      9  C   UNL     1      -4.026 -12.162  20.529  1.00  0.00    -0.000 C 
BRANCH   9  10
ATOM     10  C   UNL     1      -3.302 -13.244  19.714  1.00  0.00    -0.000 C 
BRANCH  10  11
ATOM     11  C   UNL     1      -2.311 -14.022  20.592  1.00  0.00    -0.000 C 
BRANCH  11  12
ATOM     12  C   UNL     1      -1.227 -14.750  19.775  1.00  0.00    -0.000 C 
BRANCH  12  13
ATOM     13  C   UNL     1      -1.431 -16.270  19.631  1.00  0.00    -0.000 C 
BRANCH  13  14
ATOM     14  C   UNL     1      -2.039 -16.916  20.885  1.00  0.00    -0.000 C 
BRANCH  14  15
ATOM     15  C   UNL     1      -3.287 -17.731  20.532  1.00  0.00    -0.003 C 
ATOM     16  C   UNL     1      -3.675 -18.667  21.672  1.00  0.00     0.004 C 
ENDBRANCH  14  15
ENDBRANCH  13  14
ENDBRANCH  12  13
ENDBRANCH  11  12
ENDBRANCH  10  11
ENDBRANCH   9  10
ENDBRANCH   8   9
ENDBRANCH   7   8
ENDBRANCH   6   7
ENDBRANCH   5   6
ENDBRANCH   4   5
ENDBRANCH   3   4
ENDBRANCH   2   3
ENDBRANCH   1   2
BRANCH   1  17
ATOM     17  C   UNL     1       2.236 -10.541  22.391  1.00  0.00     0.000 C 
BRANCH  17  18
ATOM     18  C   UNL     1       3.089  -9.468  21.697  1.00  0.00     0.000 C 
BRANCH  18  19
ATOM     19  C   UNL     1       2.435  -8.919  20.418  1.00  0.00     0.000 C 
BRANCH  19  20
ATOM     20  C   UNL     1       3.372  -8.875  19.190  1.00  0.00     0.000 C 
BRANCH  20  21
ATOM     21  C   UNL     1       2.763  -9.415  17.877  1.00  0.00     0.000 C 
BRANCH  21  22
ATOM     22  C   UNL     1       2.091 -10.798  17.965  1.00  0.00     0.000 C 
BRANCH  22  23
ATOM     23  C   UNL     1       3.029 -11.957  17.595  1.00  0.00     0.000 C 
BRANCH  23  24
ATOM     24  C   UNL     1       4.283 -11.437  16.875  1.00  0.00     0.000 C 
BRANCH  24  25
ATOM     25  C   UNL     1       5.538 -11.478  17.762  1.00  0.00     0.000 C 
BRANCH  25  26
ATOM     26  C   UNL     1       6.823 -11.720  16.958  1.00  0.00     0.000 C 
BRANCH  26  27
ATOM     27  C   UNL     1       8.064 -11.551  17.846  1.00  0.00     0.002 C 
BRANCH  27  28
ATOM     28  C   UNL     1       9.073 -10.536  17.280  1.00  0.00     0.028 C 
BRANCH  28  29
ATOM     29  C   UNL     1       8.479  -9.614  16.205  1.00  0.00     0.156 C 
BRANCH  29  30
ATOM     30  O   UNL     1       9.081  -9.836  14.958  1.00  0.00    -0.396 OA
ATOM     31  H   UNL     1       9.154 -10.820  14.848  1.00  0.00     0.210 HD
ENDBRANCH  29  30
ENDBRANCH  28  29
ENDBRANCH  27  28
ENDBRANCH  26  27
ENDBRANCH  25  26
ENDBRANCH  24  25
ENDBRANCH  23  24
ENDBRANCH  22  23
ENDBRANCH  21  22
ENDBRANCH  20  21
ENDBRANCH  19  20
ENDBRANCH  18  19
ENDBRANCH  17  18
ENDBRANCH   1  17
TORSDOF 28
ENDMDL
MODEL 4
REMARK VINA RESULT:    -3.658      1.538      3.411
REMARK INTER + INTRA:         -12.544
REMARK INTER:                 -10.070
REMARK INTRA:                  -2.473
REMARK UNBOUND:                -3.004
REMARK SMILES CCCCCCCCCCCCCCCCCCCCCCCCCCCCCO
REMARK SMILES IDX 16 1 15 2 14 3 13 4 12 5 11 6 10 7 9 8 8 9 7 10 6 11 5 12
REMARK SMILES IDX 4 13 3 14 2 15 1 16 17 17 18 18 19 19 20 20 21 21 22 22
REMARK SMILES IDX 23 23 24 24 25 25 26 26 27 27 28 28 29 29 30 30
REMARK H PARENT 30 31
REMARK Flexibility Score: inf
ROOT
ATOM      1  C   UNL     1      -4.631 -10.670  20.097  1.00  0.00     0.000 C 
ENDROOT
BRANCH   1   2
ATOM      2  C   UNL     1      -5.080 -10.048  21.436  1.00  0.00     0.000 C 
BRANCH   2   3
ATOM      3  C   UNL     1      -4.192  -8.901  21.957  1.00  0.00     0.000 C 
BRANCH   3   4
ATOM      4  C   UNL     1      -3.238  -9.288  23.106  1.00  0.00     0.000 C 
BRANCH   4   5
ATOM      5  C   UNL     1      -1.740  -9.239  22.755  1.00  0.00     0.000 C 
BRANCH   5   6
ATOM      6  C   UNL     1      -1.483  -9.263  21.239  1.00  0.00     0.000 C 
BRANCH   6   7
ATOM      7  C   UNL     1      -0.040  -8.875  20.870  1.00  0.00     0.000 C 
BRANCH   7   8
ATOM      8  C   UNL     1       0.617  -9.736  19.771  1.00  0.00    -0.000 C 
BRANCH   8   9
ATOM      9  C   UNL     1       2.135  -9.943  19.918  1.00  0.00    -0.000 C 
BRANCH   9  10
ATOM     10  C   UNL     1       2.890  -9.796  18.588  1.00  0.00    -0.000 C 
BRANCH  10  11
ATOM     11  C   UNL     1       2.513 -10.923  17.615  1.00  0.00    -0.000 C 
BRANCH  11  12
ATOM     12  C   UNL     1       3.663 -11.917  17.371  1.00  0.00    -0.000 C 
BRANCH  12  13
ATOM     13  C   UNL     1       5.022 -11.272  17.040  1.00  0.00    -0.000 C 
BRANCH  13  14
ATOM     14  C   UNL     1       6.212 -12.203  17.313  1.00  0.00    -0.000 C 
BRANCH  14  15
ATOM     15  C   UNL     1       5.925 -13.622  16.811  1.00  0.00    -0.003 C 
ATOM     16  C   UNL     1       5.510 -13.615  15.343  1.00  0.00     0.004 C 
ENDBRANCH  14  15
ENDBRANCH  13  14
ENDBRANCH  12  13
ENDBRANCH  11  12
ENDBRANCH  10  11
ENDBRANCH   9  10
ENDBRANCH   8   9
ENDBRANCH   7   8
ENDBRANCH   6   7
ENDBRANCH   5   6
ENDBRANCH   4   5
ENDBRANCH   3   4
ENDBRANCH   2   3
ENDBRANCH   1   2
BRANCH   1  17
ATOM     17  C   UNL     1      -4.126 -12.123  20.179  1.00  0.00     0.000 C 
BRANCH  17  18
ATOM     18  C   UNL     1      -3.657 -12.526  21.586  1.00  0.00     0.000 C 
BRANCH  18  19
ATOM     19  C   UNL     1      -2.213 -13.053  21.607  1.00  0.00     0.000 C 
BRANCH  19  20
ATOM     20  C   UNL     1      -1.381 -12.688  20.358  1.00  0.00     0.000 C 
BRANCH  20  21
ATOM     21  C   UNL     1      -1.009 -13.876  19.442  1.00  0.00     0.000 C 
BRANCH  21  22
ATOM     22  C   UNL     1      -2.163 -14.825  19.070  1.00  0.00     0.000 C 
BRANCH  22  23
ATOM     23  C   UNL     1      -1.810 -16.311  19.236  1.00  0.00     0.000 C 
BRANCH  23  24
ATOM     24  C   UNL     1      -1.593 -16.658  20.718  1.00  0.00     0.000 C 
BRANCH  24  25
ATOM     25  C   UNL     1      -2.710 -16.117  21.625  1.00  0.00     0.000 C 
BRANCH  25  26
ATOM     26  C   UNL     1      -3.825 -17.145  21.868  1.00  0.00     0.000 C 
BRANCH  26  27
ATOM     27  C   UNL     1      -3.256 -18.571  21.904  1.00  0.00     0.002 C 
BRANCH  27  28
ATOM     28  C   UNL     1      -4.336 -19.653  21.733  1.00  0.00     0.028 C 
BRANCH  28  29
ATOM     29  C   UNL     1      -4.841 -19.793  20.289  1.00  0.00     0.156 C 
BRANCH  29  30
ATOM     30  O   UNL     1      -5.737 -20.865  20.168  1.00  0.00    -0.396 OA
ATOM     31  H   UNL     1      -5.519 -21.325  19.316  1.00  0.00     0.210 HD
ENDBRANCH  29  30
ENDBRANCH  28  29
ENDBRANCH  27  28
ENDBRANCH  26  27
ENDBRANCH  25  26
ENDBRANCH  24  25
ENDBRANCH  23  24
ENDBRANCH  22  23
ENDBRANCH  21  22
ENDBRANCH  20  21
ENDBRANCH  19  20
ENDBRANCH  18  19
ENDBRANCH  17  18
ENDBRANCH   1  17
TORSDOF 28
ENDMDL
MODEL 5
REMARK VINA RESULT:    -3.615      1.405      3.359
REMARK INTER + INTRA:         -12.430
REMARK INTER:                  -9.940
REMARK INTRA:                  -2.490
REMARK UNBOUND:                -3.004
REMARK SMILES CCCCCCCCCCCCCCCCCCCCCCCCCCCCCO
REMARK SMILES IDX 16 1 15 2 14 3 13 4 12 5 11 6 10 7 9 8 8 9 7 10 6 11 5 12
REMARK SMILES IDX 4 13 3 14 2 15 1 16 17 17 18 18 19 19 20 20 21 21 22 22
REMARK SMILES IDX 23 23 24 24 25 25 26 26 27 27 28 28 29 29 30 30
REMARK H PARENT 30 31
REMARK Flexibility Score: inf
ROOT
ATOM      1  C   UNL     1      -4.481 -10.969  20.114  1.00  0.00     0.000 C 
ENDROOT
BRANCH   1   2
ATOM      2  C   UNL     1      -4.492 -10.134  21.411  1.00  0.00     0.000 C 
BRANCH   2   3
ATOM      3  C   UNL     1      -3.359  -9.096  21.533  1.00  0.00     0.000 C 
BRANCH   3   4
ATOM      4  C   UNL     1      -2.379  -9.337  22.700  1.00  0.00     0.000 C 
BRANCH   4   5
ATOM      5  C   UNL     1      -0.928  -9.634  22.284  1.00  0.00     0.000 C 
BRANCH   5   6
ATOM      6  C   UNL     1      -0.649  -9.291  20.811  1.00  0.00     0.000 C 
BRANCH   6   7
ATOM      7  C   UNL     1       0.737  -9.765  20.338  1.00  0.00     0.000 C 
BRANCH   7   8
ATOM      8  C   UNL     1       1.232  -9.148  19.014  1.00  0.00    -0.000 C 
BRANCH   8   9
ATOM      9  C   UNL     1       1.557 -10.159  17.900  1.00  0.00    -0.000 C 
BRANCH   9  10
ATOM     10  C   UNL     1       1.555 -11.613  18.393  1.00  0.00    -0.000 C 
BRANCH  10  11
ATOM     11  C   UNL     1       2.834 -12.343  17.958  1.00  0.00    -0.000 C 
BRANCH  11  12
ATOM     12  C   UNL     1       3.842 -11.420  17.250  1.00  0.00    -0.000 C 
BRANCH  12  13
ATOM     13  C   UNL     1       5.275 -11.977  17.147  1.00  0.00    -0.000 C 
BRANCH  13  14
ATOM     14  C   UNL     1       6.077 -11.362  15.992  1.00  0.00    -0.000 C 
BRANCH  14  15
ATOM     15  C   UNL     1       6.876 -10.143  16.465  1.00  0.00    -0.003 C 
ATOM     16  C   UNL     1       6.677  -9.900  17.958  1.00  0.00     0.004 C 
ENDBRANCH  14  15
ENDBRANCH  13  14
ENDBRANCH  12  13
ENDBRANCH  11  12
ENDBRANCH  10  11
ENDBRANCH   9  10
ENDBRANCH   8   9
ENDBRANCH   7   8
ENDBRANCH   6   7
ENDBRANCH   5   6
ENDBRANCH   4   5
ENDBRANCH   3   4
ENDBRANCH   2   3
ENDBRANCH   1   2
BRANCH   1  17
ATOM     17  C   UNL     1      -4.138 -12.461  20.291  1.00  0.00     0.000 C 
BRANCH  17  18
ATOM     18  C   UNL     1      -3.146 -12.726  21.434  1.00  0.00     0.000 C 
BRANCH  18  19
ATOM     19  C   UNL     1      -1.690 -12.827  20.950  1.00  0.00     0.000 C 
BRANCH  19  20
ATOM     20  C   UNL     1      -1.524 -13.454  19.549  1.00  0.00     0.000 C 
BRANCH  20  21
ATOM     21  C   UNL     1      -0.461 -14.571  19.446  1.00  0.00     0.000 C 
BRANCH  21  22
ATOM     22  C   UNL     1      -0.988 -16.014  19.559  1.00  0.00     0.000 C 
BRANCH  22  23
ATOM     23  C   UNL     1      -2.370 -16.109  20.223  1.00  0.00     0.000 C 
BRANCH  23  24
ATOM     24  C   UNL     1      -2.674 -17.555  20.646  1.00  0.00     0.000 C 
BRANCH  24  25
ATOM     25  C   UNL     1      -3.777 -17.642  21.714  1.00  0.00     0.000 C 
BRANCH  25  26
ATOM     26  C   UNL     1      -4.244 -19.082  21.966  1.00  0.00     0.000 C 
BRANCH  26  27
ATOM     27  C   UNL     1      -4.497 -19.815  20.641  1.00  0.00     0.002 C 
BRANCH  27  28
ATOM     28  C   UNL     1      -5.867 -20.513  20.593  1.00  0.00     0.028 C 
BRANCH  28  29
ATOM     29  C   UNL     1      -6.014 -21.496  19.421  1.00  0.00     0.156 C 
BRANCH  29  30
ATOM     30  O   UNL     1      -6.948 -22.500  19.717  1.00  0.00    -0.396 OA
ATOM     31  H   UNL     1      -6.551 -23.057  20.436  1.00  0.00     0.210 HD
ENDBRANCH  29  30
ENDBRANCH  28  29
ENDBRANCH  27  28
ENDBRANCH  26  27
ENDBRANCH  25  26
ENDBRANCH  24  25
ENDBRANCH  23  24
ENDBRANCH  22  23
ENDBRANCH  21  22
ENDBRANCH  20  21
ENDBRANCH  19  20
ENDBRANCH  18  19
ENDBRANCH  17  18
ENDBRANCH   1  17
TORSDOF 28
ENDMDL
MODEL 6
REMARK VINA RESULT:    -3.250      2.949      9.566
REMARK INTER + INTRA:         -11.479
REMARK INTER:                 -11.238
REMARK INTRA:                  -0.240
REMARK UNBOUND:                -3.004
REMARK SMILES CCCCCCCCCCCCCCCCCCCCCCCCCCCCCO
REMARK SMILES IDX 16 1 15 2 14 3 13 4 12 5 11 6 10 7 9 8 8 9 7 10 6 11 5 12
REMARK SMILES IDX 4 13 3 14 2 15 1 16 17 17 18 18 19 19 20 20 21 21 22 22
REMARK SMILES IDX 23 23 24 24 25 25 26 26 27 27 28 28 29 29 30 30
REMARK H PARENT 30 31
REMARK Flexibility Score: inf
ROOT
ATOM      1  C   UNL     1       1.020 -10.853  20.520  1.00  0.00     0.000 C 
ENDROOT
BRANCH   1   2
ATOM      2  C   UNL     1      -0.473 -10.539  20.754  1.00  0.00     0.000 C 
BRANCH   2   3
ATOM      3  C   UNL     1      -0.780  -9.721  22.024  1.00  0.00     0.000 C 
BRANCH   3   4
ATOM      4  C   UNL     1      -1.740 -10.403  23.020  1.00  0.00     0.000 C 
BRANCH   4   5
ATOM      5  C   UNL     1      -3.047 -10.937  22.406  1.00  0.00     0.000 C 
BRANCH   5   6
ATOM      6  C   UNL     1      -3.149 -10.667  20.896  1.00  0.00     0.000 C 
BRANCH   6   7
ATOM      7  C   UNL     1      -3.977 -11.730  20.152  1.00  0.00     0.000 C 
BRANCH   7   8
ATOM      8  C   UNL     1      -3.536 -13.191  20.377  1.00  0.00    -0.000 C 
BRANCH   8   9
ATOM      9  C   UNL     1      -2.020 -13.404  20.527  1.00  0.00    -0.000 C 
BRANCH   9  10
ATOM     10  C   UNL     1      -1.410 -14.199  19.363  1.00  0.00    -0.000 C 
BRANCH  10  11
ATOM     11  C   UNL     1      -2.176 -15.510  19.131  1.00  0.00    -0.000 C 
BRANCH  11  12
ATOM     12  C   UNL     1      -1.989 -16.525  20.273  1.00  0.00    -0.000 C 
BRANCH  12  13
ATOM     13  C   UNL     1      -3.243 -17.345  20.628  1.00  0.00    -0.000 C 
BRANCH  13  14
ATOM     14  C   UNL     1      -3.116 -18.090  21.964  1.00  0.00    -0.000 C 
BRANCH  14  15
ATOM     15  C   UNL     1      -4.008 -19.336  21.985  1.00  0.00    -0.003 C 
ATOM     16  C   UNL     1      -4.644 -19.582  20.620  1.00  0.00     0.004 C 
ENDBRANCH  14  15
ENDBRANCH  13  14
ENDBRANCH  12  13
ENDBRANCH  11  12
ENDBRANCH  10  11
ENDBRANCH   9  10
ENDBRANCH   8   9
ENDBRANCH   7   8
ENDBRANCH   6   7
ENDBRANCH   5   6
ENDBRANCH   4   5
ENDBRANCH   3   4
ENDBRANCH   2   3
ENDBRANCH   1   2
BRANCH   1  17
ATOM     17  C   UNL     1       1.981 -10.351  21.614  1.00  0.00     0.000 C 
BRANCH  17  18
ATOM     18  C   UNL     1       2.699  -9.045  21.242  1.00  0.00     0.000 C 
BRANCH  18  19
ATOM     19  C   UNL     1       2.889  -8.878  19.725  1.00  0.00     0.000 C 
BRANCH  19  20
ATOM     20  C   UNL     1       4.361  -8.916  19.258  1.00  0.00     0.000 C 
BRANCH  20  21
ATOM     21  C   UNL     1       4.577  -9.335  17.787  1.00  0.00     0.000 C 
BRANCH  21  22
ATOM     22  C   UNL     1       5.898  -8.875  17.143  1.00  0.00     0.000 C 
BRANCH  22  23
ATOM     23  C   UNL     1       7.125  -9.648  17.648  1.00  0.00     0.000 C 
BRANCH  23  24
ATOM     24  C   UNL     1       7.403 -10.873  16.762  1.00  0.00     0.000 C 
BRANCH  24  25
ATOM     25  C   UNL     1       6.646 -12.127  17.227  1.00  0.00     0.000 C 
BRANCH  25  26
ATOM     26  C   UNL     1       5.166 -12.112  16.817  1.00  0.00     0.000 C 
BRANCH  26  27
ATOM     27  C   UNL     1       4.662 -13.534  16.534  1.00  0.00     0.002 C 
BRANCH  27  28
ATOM     28  C   UNL     1       4.571 -13.851  15.031  1.00  0.00     0.028 C 
BRANCH  28  29
ATOM     29  C   UNL     1       5.713 -14.742  14.521  1.00  0.00     0.156 C 
BRANCH  29  30
ATOM     30  O   UNL     1       5.876 -14.614  13.134  1.00  0.00    -0.396 OA
ATOM     31  H   UNL     1       6.654 -15.177  12.885  1.00  0.00     0.210 HD
ENDBRANCH  29  30
ENDBRANCH  28  29
ENDBRANCH  27  28
ENDBRANCH  26  27
ENDBRANCH  25  26
ENDBRANCH  24  25
ENDBRANCH  23  24
ENDBRANCH  22  23
ENDBRANCH  21  22
ENDBRANCH  20  21
ENDBRANCH  19  20
ENDBRANCH  18  19
ENDBRANCH  17  18
ENDBRANCH   1  17
TORSDOF 28
ENDMDL
MODEL 7
REMARK VINA RESULT:    -2.996      2.501      5.336
REMARK INTER + INTRA:         -10.816
REMARK INTER:                  -9.032
REMARK INTRA:                  -1.784
REMARK UNBOUND:                -3.004
REMARK SMILES CCCCCCCCCCCCCCCCCCCCCCCCCCCCCO
REMARK SMILES IDX 16 1 15 2 14 3 13 4 12 5 11 6 10 7 9 8 8 9 7 10 6 11 5 12
REMARK SMILES IDX 4 13 3 14 2 15 1 16 17 17 18 18 19 19 20 20 21 21 22 22
REMARK SMILES IDX 23 23 24 24 25 25 26 26 27 27 28 28 29 29 30 30
REMARK H PARENT 30 31
REMARK Flexibility Score: inf
ROOT
ATOM      1  C   UNL     1       0.164 -13.729  19.014  1.00  0.00     0.000 C 
ENDROOT
BRANCH   1   2
ATOM      2  C   UNL     1       1.274 -12.701  19.318  1.00  0.00     0.000 C 
BRANCH   2   3
ATOM      3  C   UNL     1       1.669 -11.793  18.137  1.00  0.00     0.000 C 
BRANCH   3   4
ATOM      4  C   UNL     1       2.703 -10.699  18.477  1.00  0.00     0.000 C 
BRANCH   4   5
ATOM      5  C   UNL     1       2.316  -9.774  19.645  1.00  0.00     0.000 C 
BRANCH   5   6
ATOM      6  C   UNL     1       3.477  -8.875  20.101  1.00  0.00     0.000 C 
BRANCH   6   7
ATOM      7  C   UNL     1       4.676  -8.909  19.136  1.00  0.00     0.000 C 
BRANCH   7   8
ATOM      8  C   UNL     1       6.064  -8.983  19.806  1.00  0.00    -0.000 C 
BRANCH   8   9
ATOM      9  C   UNL     1       7.259  -9.010  18.838  1.00  0.00    -0.000 C 
BRANCH   9  10
ATOM     10  C   UNL     1       8.417  -9.885  19.342  1.00  0.00    -0.000 C 
BRANCH  10  11
ATOM     11  C   UNL     1       8.917 -10.825  18.236  1.00  0.00    -0.000 C 
BRANCH  11  12
ATOM     12  C   UNL     1       7.998 -12.041  18.019  1.00  0.00    -0.000 C 
BRANCH  12  13
ATOM     13  C   UNL     1       6.797 -11.791  17.088  1.00  0.00    -0.000 C 
BRANCH  13  14
ATOM     14  C   UNL     1       5.940 -13.045  16.862  1.00  0.00    -0.000 C 
BRANCH  14  15
ATOM     15  C   UNL     1       5.345 -13.057  15.450  1.00  0.00    -0.003 C 
ATOM     16  C   UNL     1       5.280 -14.474  14.890  1.00  0.00     0.004 C 
ENDBRANCH  14  15
ENDBRANCH  13  14
ENDBRANCH  12  13
ENDBRANCH  11  12
ENDBRANCH  10  11
ENDBRANCH   9  10
ENDBRANCH   8   9
ENDBRANCH   7   8
ENDBRANCH   6   7
ENDBRANCH   5   6
ENDBRANCH   4   5
ENDBRANCH   3   4
ENDBRANCH   2   3
ENDBRANCH   1   2
BRANCH   1  17
ATOM     17  C   UNL     1      -1.158 -13.520  19.776  1.00  0.00     0.000 C 
BRANCH  17  18
ATOM     18  C   UNL     1      -1.747 -14.822  20.342  1.00  0.00     0.000 C 
BRANCH  18  19
ATOM     19  C   UNL     1      -2.642 -14.590  21.571  1.00  0.00     0.000 C 
BRANCH  19  20
ATOM     20  C   UNL     1      -3.373 -13.229  21.581  1.00  0.00     0.000 C 
BRANCH  20  21
ATOM     21  C   UNL     1      -3.190 -12.391  22.866  1.00  0.00     0.000 C 
BRANCH  21  22
ATOM     22  C   UNL     1      -1.768 -11.858  23.125  1.00  0.00     0.000 C 
BRANCH  22  23
ATOM     23  C   UNL     1      -1.555 -10.421  22.626  1.00  0.00     0.000 C 
BRANCH  23  24
ATOM     24  C   UNL     1      -2.430 -10.134  21.395  1.00  0.00     0.000 C 
BRANCH  24  25
ATOM     25  C   UNL     1      -3.479  -9.041  21.653  1.00  0.00     0.000 C 
BRANCH  25  26
ATOM     26  C   UNL     1      -4.366  -9.347  22.869  1.00  0.00     0.000 C 
BRANCH  26  27
ATOM     27  C   UNL     1      -5.536 -10.262  22.476  1.00  0.00     0.002 C 
BRANCH  27  28
ATOM     28  C   UNL     1      -6.247  -9.809  21.189  1.00  0.00     0.028 C 
BRANCH  28  29
ATOM     29  C   UNL     1      -6.478 -10.947  20.183  1.00  0.00     0.156 C 
BRANCH  29  30
ATOM     30  O   UNL     1      -5.523 -10.919  19.157  1.00  0.00    -0.396 OA
ATOM     31  H   UNL     1      -5.809 -10.216  18.518  1.00  0.00     0.210 HD
ENDBRANCH  29  30
ENDBRANCH  28  29
ENDBRANCH  27  28
ENDBRANCH  26  27
ENDBRANCH  25  26
ENDBRANCH  24  25
ENDBRANCH  23  24
ENDBRANCH  22  23
ENDBRANCH  21  22
ENDBRANCH  20  21
ENDBRANCH  19  20
ENDBRANCH  18  19
ENDBRANCH  17  18
ENDBRANCH   1  17
TORSDOF 28
ENDMDL
MODEL 8
REMARK VINA RESULT:    -2.791      3.052      5.739
REMARK INTER + INTRA:         -10.282
REMARK INTER:                  -8.170
REMARK INTRA:                  -2.112
REMARK UNBOUND:                -3.004
REMARK SMILES CCCCCCCCCCCCCCCCCCCCCCCCCCCCCO
REMARK SMILES IDX 16 1 15 2 14 3 13 4 12 5 11 6 10 7 9 8 8 9 7 10 6 11 5 12
REMARK SMILES IDX 4 13 3 14 2 15 1 16 17 17 18 18 19 19 20 20 21 21 22 22
REMARK SMILES IDX 23 23 24 24 25 25 26 26 27 27 28 28 29 29 30 30
REMARK H PARENT 30 31
REMARK Flexibility Score: inf
ROOT
ATOM      1  C   UNL     1       0.960 -13.445  19.310  1.00  0.00     0.000 C 
ENDROOT
BRANCH   1   2
ATOM      2  C   UNL     1       1.505 -12.330  20.226  1.00  0.00     0.000 C 
BRANCH   2   3
ATOM      3  C   UNL     1       1.118 -10.895  19.816  1.00  0.00     0.000 C 
BRANCH   3   4
ATOM      4  C   UNL     1       1.732  -9.782  20.690  1.00  0.00     0.000 C 
BRANCH   4   5
ATOM      5  C   UNL     1       2.294 -10.249  22.044  1.00  0.00     0.000 C 
BRANCH   5   6
ATOM      6  C   UNL     1       3.072  -9.145  22.779  1.00  0.00     0.000 C 
BRANCH   6   7
ATOM      7  C   UNL     1       4.456  -8.875  22.161  1.00  0.00     0.000 C 
BRANCH   7   8
ATOM      8  C   UNL     1       5.644  -9.550  22.878  1.00  0.00    -0.000 C 
BRANCH   8   9
ATOM      9  C   UNL     1       7.037  -9.060  22.443  1.00  0.00    -0.000 C 
BRANCH   9  10
ATOM     10  C   UNL     1       8.164 -10.013  22.868  1.00  0.00    -0.000 C 
BRANCH  10  11
ATOM     11  C   UNL     1       9.086 -10.336  21.684  1.00  0.00    -0.000 C 
BRANCH  11  12
ATOM     12  C   UNL     1       8.331 -10.450  20.347  1.00  0.00    -0.000 C 
BRANCH  12  13
ATOM     13  C   UNL     1       8.860 -11.535  19.390  1.00  0.00    -0.000 C 
BRANCH  13  14
ATOM     14  C   UNL     1       7.827 -11.964  18.338  1.00  0.00    -0.000 C 
BRANCH  14  15
ATOM     15  C   UNL     1       7.428 -10.783  17.447  1.00  0.00    -0.003 C 
ATOM     16  C   UNL     1       8.640  -9.930  17.086  1.00  0.00     0.004 C 
ENDBRANCH  14  15
ENDBRANCH  13  14
ENDBRANCH  12  13
ENDBRANCH  11  12
ENDBRANCH  10  11
ENDBRANCH   9  10
ENDBRANCH   8   9
ENDBRANCH   7   8
ENDBRANCH   6   7
ENDBRANCH   5   6
ENDBRANCH   4   5
ENDBRANCH   3   4
ENDBRANCH   2   3
ENDBRANCH   1   2
BRANCH   1  17
ATOM     17  C   UNL     1      -0.530 -13.325  18.936  1.00  0.00     0.000 C 
BRANCH  17  18
ATOM     18  C   UNL     1      -1.360 -14.552  19.342  1.00  0.00     0.000 C 
BRANCH  18  19
ATOM     19  C   UNL     1      -2.238 -14.299  20.579  1.00  0.00     0.000 C 
BRANCH  19  20
ATOM     20  C   UNL     1      -3.266 -13.159  20.410  1.00  0.00     0.000 C 
BRANCH  20  21
ATOM     21  C   UNL     1      -3.748 -12.504  21.723  1.00  0.00     0.000 C 
BRANCH  21  22
ATOM     22  C   UNL     1      -2.660 -11.816  22.570  1.00  0.00     0.000 C 
BRANCH  22  23
ATOM     23  C   UNL     1      -1.670 -10.989  21.736  1.00  0.00     0.000 C 
BRANCH  23  24
ATOM     24  C   UNL     1      -2.327  -9.691  21.238  1.00  0.00     0.000 C 
BRANCH  24  25
ATOM     25  C   UNL     1      -2.967  -8.875  22.373  1.00  0.00     0.000 C 
BRANCH  25  26
ATOM     26  C   UNL     1      -4.498  -8.988  22.392  1.00  0.00     0.000 C 
BRANCH  26  27
ATOM     27  C   UNL     1      -5.022  -9.544  21.060  1.00  0.00     0.002 C 
BRANCH  27  28
ATOM     28  C   UNL     1      -6.461 -10.081  21.158  1.00  0.00     0.028 C 
BRANCH  28  29
ATOM     29  C   UNL     1      -7.248  -9.514  22.349  1.00  0.00     0.156 C 
BRANCH  29  30
ATOM     30  O   UNL     1      -8.508  -9.047  21.948  1.00  0.00    -0.396 OA
ATOM     31  H   UNL     1      -8.349  -8.347  21.263  1.00  0.00     0.210 HD
ENDBRANCH  29  30
ENDBRANCH  28  29
ENDBRANCH  27  28
ENDBRANCH  26  27
ENDBRANCH  25  26
ENDBRANCH  24  25
ENDBRANCH  23  24
ENDBRANCH  22  23
ENDBRANCH  21  22
ENDBRANCH  20  21
ENDBRANCH  19  20
ENDBRANCH  18  19
ENDBRANCH  17  18
ENDBRANCH   1  17
TORSDOF 28
ENDMDL
