MODEL 1
REMARK VINA RESULT:    -5.905      0.000      0.000
REMARK INTER + INTRA:          -7.894
REMARK INTER:                  -8.321
REMARK INTRA:                   0.427
REMARK UNBOUND:                 0.427
REMARK SMILES CC1=CCC(=C(C)C)C(=O)CC(C)=CCC1
REMARK SMILES IDX 12 1 14 2 13 3 15 4 16 5 2 6 1 7 3 8 11 10 9 11 10 12 5 13
REMARK SMILES IDX 6 14 7 15 8 16 4 17
REMARK H PARENT
REMARK Flexibility Score: 60.00
ROOT
ATOM      1  C   UNL     1      84.868  62.926   9.002  1.00  0.00    -0.070 C 
ATOM      2  C   UNL     1      83.935  63.877   8.779  1.00  0.00    -0.027 C 
ATOM      3  C   UNL     1      84.405  61.597   9.543  1.00  0.00     0.039 C 
ENDROOT
BRANCH   2   4
ATOM      4  C   UNL     1      84.187  65.231   8.151  1.00  0.00     0.032 C 
BRANCH   4   5
ATOM      5  C   UNL     1      85.332  66.040   8.796  1.00  0.00     0.034 C 
BRANCH   5   6
ATOM      6  C   UNL     1      85.166  66.221  10.294  1.00  0.00    -0.077 C 
ATOM      7  C   UNL     1      83.918  66.912  10.782  1.00  0.00     0.039 C 
ATOM      8  C   UNL     1      86.031  65.744  11.223  1.00  0.00    -0.023 CG0
ATOM      9  G   UNL     1      87.350  65.042  10.968  1.00  0.00     0.000 G0
ENDBRANCH   5   6
ENDBRANCH   4   5
ENDBRANCH   2   4
BRANCH   1  10
ATOM     10  C   UNL     1      86.332  63.098   8.652  1.00  0.00     0.111 C 
BRANCH  10  11
ATOM     11  C   UNL     1      87.226  62.747   9.811  1.00  0.00     0.163 C 
ATOM     12  O   UNL     1      88.039  61.794   9.667  1.00  0.00    -0.294 OA
BRANCH  11  13
ATOM     13  C   UNL     1      87.224  63.522  11.088  1.00  0.00    -0.002 C 
ATOM     14  C   UNL     1      87.188  62.880  12.294  1.00  0.00    -0.069 C 
ATOM     15  C   UNL     1      87.344  63.625  13.602  1.00  0.00     0.039 C 
ATOM     16  C   UNL     1      86.990  61.383  12.382  1.00  0.00     0.039 C 
BRANCH  13  17
ATOM     17  C   UNL     1      87.361  65.033  10.985  1.00  0.00     0.066 CG0
ATOM     18  G   UNL     1      86.045  65.746  11.227  1.00  0.00     0.000 G0
ENDBRANCH  13  17
ENDBRANCH  11  13
ENDBRANCH  10  11
ENDBRANCH   1  10
TORSDOF 0
ENDMDL
MODEL 2
REMARK VINA RESULT:    -5.403      1.992      4.535
REMARK INTER + INTRA:          -7.186
REMARK INTER:                  -7.445
REMARK INTRA:                   0.259
REMARK UNBOUND:                 0.427
REMARK SMILES CC1=CCC(=C(C)C)C(=O)CC(C)=CCC1
REMARK SMILES IDX 12 1 14 2 13 3 15 4 16 5 2 6 1 7 3 8 11 10 9 11 10 12 5 13
REMARK SMILES IDX 6 14 7 15 8 16 4 17
REMARK H PARENT
REMARK Flexibility Score: 60.00
ROOT
ATOM      1  C   UNL     1      85.676  65.851  10.493  1.00  0.00    -0.070 C 
ATOM      2  C   UNL     1      86.545  65.504  11.467  1.00  0.00    -0.027 C 
ATOM      3  C   UNL     1      84.377  66.498  10.906  1.00  0.00     0.039 C 
ENDROOT
BRANCH   2   4
ATOM      4  C   UNL     1      87.932  64.938  11.250  1.00  0.00     0.032 C 
BRANCH   4   5
ATOM      5  C   UNL     1      87.964  63.520  10.641  1.00  0.00     0.034 C 
BRANCH   5   6
ATOM      6  C   UNL     1      86.923  62.590  11.237  1.00  0.00    -0.077 C 
ATOM      7  C   UNL     1      87.082  62.195  12.683  1.00  0.00     0.039 C 
ATOM      8  C   UNL     1      85.825  62.147  10.575  1.00  0.00    -0.023 CG0
ATOM      9  G   UNL     1      85.471  62.396   9.122  1.00  0.00     0.000 G0
ENDBRANCH   5   6
ENDBRANCH   4   5
ENDBRANCH   2   4
BRANCH   1  10
ATOM     10  C   UNL     1      85.979  65.709   9.015  1.00  0.00     0.111 C 
BRANCH  10  11
ATOM     11  C   UNL     1      84.988  64.805   8.329  1.00  0.00     0.163 C 
ATOM     12  O   UNL     1      84.628  65.100   7.158  1.00  0.00    -0.294 OA
BRANCH  11  13
ATOM     13  C   UNL     1      84.475  63.553   8.961  1.00  0.00    -0.002 C 
ATOM     14  C   UNL     1      83.155  63.430   9.295  1.00  0.00    -0.069 C 
ATOM     15  C   UNL     1      82.573  62.123   9.788  1.00  0.00     0.039 C 
ATOM     16  C   UNL     1      82.205  64.602   9.186  1.00  0.00     0.039 C 
BRANCH  13  17
ATOM     17  C   UNL     1      85.456  62.402   9.123  1.00  0.00     0.066 CG0
ATOM     18  G   UNL     1      85.824  62.160  10.573  1.00  0.00     0.000 G0
ENDBRANCH  13  17
ENDBRANCH  11  13
ENDBRANCH  10  11
ENDBRANCH   1  10
TORSDOF 0
ENDMDL
MODEL 3
REMARK VINA RESULT:    -5.219      1.973      4.515
REMARK INTER + INTRA:          -6.927
REMARK INTER:                  -7.396
REMARK INTRA:                   0.470
REMARK UNBOUND:                 0.427
REMARK SMILES CC1=CCC(=C(C)C)C(=O)CC(C)=CCC1
REMARK SMILES IDX 12 1 14 2 13 3 15 4 16 5 2 6 1 7 3 8 11 10 9 11 10 12 5 13
REMARK SMILES IDX 6 14 7 15 8 16 4 17
REMARK H PARENT
REMARK Flexibility Score: 60.00
ROOT
ATOM      1  C   UNL     1      82.887  64.324   9.272  1.00  0.00    -0.070 C 
ATOM      2  C   UNL     1      83.097  62.999   9.116  1.00  0.00    -0.027 C 
ATOM      3  C   UNL     1      82.073  65.038   8.221  1.00  0.00     0.039 C 
ENDROOT
BRANCH   2   4
ATOM      4  C   UNL     1      83.800  62.095  10.105  1.00  0.00     0.032 C 
BRANCH   4   5
ATOM      5  C   UNL     1      85.260  61.749   9.742  1.00  0.00     0.034 C 
BRANCH   5   6
ATOM      6  C   UNL     1      86.275  62.628  10.450  1.00  0.00    -0.077 C 
ATOM      7  C   UNL     1      86.853  62.126  11.749  1.00  0.00     0.039 C 
ATOM      8  C   UNL     1      86.746  63.801   9.958  1.00  0.00    -0.023 CG0
ATOM      9  G   UNL     1      86.300  64.506   8.692  1.00  0.00     0.000 G0
ENDBRANCH   5   6
ENDBRANCH   4   5
ENDBRANCH   2   4
BRANCH   1  10
ATOM     10  C   UNL     1      83.347  65.103  10.487  1.00  0.00     0.111 C 
BRANCH  10  11
ATOM     11  C   UNL     1      84.692  65.742  10.262  1.00  0.00     0.163 C 
ATOM     12  O   UNL     1      85.263  66.285  11.246  1.00  0.00    -0.294 OA
BRANCH  11  13
ATOM     13  C   UNL     1      85.389  65.699   8.942  1.00  0.00    -0.002 C 
ATOM     14  C   UNL     1      85.262  66.728   8.052  1.00  0.00    -0.069 C 
ATOM     15  C   UNL     1      86.077  66.789   6.778  1.00  0.00     0.039 C 
ATOM     16  C   UNL     1      84.296  67.866   8.299  1.00  0.00     0.039 C 
BRANCH  13  17
ATOM     17  C   UNL     1      86.309  64.518   8.680  1.00  0.00     0.066 CG0
ATOM     18  G   UNL     1      86.725  63.818   9.959  1.00  0.00     0.000 G0
ENDBRANCH  13  17
ENDBRANCH  11  13
ENDBRANCH  10  11
ENDBRANCH   1  10
TORSDOF 0
ENDMDL
MODEL 4
REMARK VINA RESULT:    -5.217      2.131      4.344
REMARK INTER + INTRA:          -6.924
REMARK INTER:                  -7.310
REMARK INTRA:                   0.385
REMARK UNBOUND:                 0.427
REMARK SMILES CC1=CCC(=C(C)C)C(=O)CC(C)=CCC1
REMARK SMILES IDX 12 1 14 2 13 3 15 4 16 5 2 6 1 7 3 8 11 10 9 11 10 12 5 13
REMARK SMILES IDX 6 14 7 15 8 16 4 17
REMARK H PARENT
REMARK Flexibility Score: 60.00
ROOT
ATOM      1  C   UNL     1      86.046  62.219   9.921  1.00  0.00    -0.070 C 
ATOM      2  C   UNL     1      84.790  61.757  10.109  1.00  0.00    -0.027 C 
ATOM      3  C   UNL     1      87.139  61.669  10.802  1.00  0.00     0.039 C 
ENDROOT
BRANCH   2   4
ATOM      4  C   UNL     1      83.584  62.111   9.267  1.00  0.00     0.032 C 
BRANCH   4   5
ATOM      5  C   UNL     1      82.730  63.273   9.815  1.00  0.00     0.034 C 
BRANCH   5   6
ATOM      6  C   UNL     1      82.273  64.239   8.738  1.00  0.00    -0.077 C 
ATOM      7  C   UNL     1      81.050  63.869   7.936  1.00  0.00     0.039 C 
ATOM      8  C   UNL     1      82.850  65.442   8.495  1.00  0.00    -0.023 CG0
ATOM      9  G   UNL     1      84.089  66.012   9.155  1.00  0.00     0.000 G0
ENDBRANCH   5   6
ENDBRANCH   4   5
ENDBRANCH   2   4
BRANCH   1  10
ATOM     10  C   UNL     1      86.421  63.185   8.815  1.00  0.00     0.111 C 
BRANCH  10  11
ATOM     11  C   UNL     1      86.244  64.618   9.245  1.00  0.00     0.163 C 
ATOM     12  O   UNL     1      86.890  65.020  10.250  1.00  0.00    -0.294 OA
BRANCH  11  13
ATOM     13  C   UNL     1      85.386  65.580   8.491  1.00  0.00    -0.002 C 
ATOM     14  C   UNL     1      85.722  65.973   7.226  1.00  0.00    -0.069 C 
ATOM     15  C   UNL     1      84.798  66.819   6.378  1.00  0.00     0.039 C 
ATOM     16  C   UNL     1      87.045  65.578   6.607  1.00  0.00     0.039 C 
BRANCH  13  17
ATOM     17  C   UNL     1      84.088  66.020   9.151  1.00  0.00     0.066 CG0
ATOM     18  G   UNL     1      82.869  65.425   8.474  1.00  0.00     0.000 G0
ENDBRANCH  13  17
ENDBRANCH  11  13
ENDBRANCH  10  11
ENDBRANCH   1  10
TORSDOF 0
ENDMDL
MODEL 5
REMARK VINA RESULT:    -5.134      2.263      4.322
REMARK INTER + INTRA:          -6.807
REMARK INTER:                  -7.349
REMARK INTRA:                   0.542
REMARK UNBOUND:                 0.427
REMARK SMILES CC1=CCC(=C(C)C)C(=O)CC(C)=CCC1
REMARK SMILES IDX 12 1 14 2 13 3 15 4 16 5 2 6 1 7 3 8 11 10 9 11 10 12 5 13
REMARK SMILES IDX 6 14 7 15 8 16 4 17
REMARK H PARENT
REMARK Flexibility Score: 60.00
ROOT
ATOM      1  C   UNL     1      86.088  62.960  10.396  1.00  0.00    -0.070 C 
ATOM      2  C   UNL     1      86.446  64.105  11.018  1.00  0.00    -0.027 C 
ATOM      3  C   UNL     1      86.206  61.671  11.169  1.00  0.00     0.039 C 
ENDROOT
BRANCH   2   4
ATOM      4  C   UNL     1      86.308  65.499  10.448  1.00  0.00     0.032 C 
BRANCH   4   5
ATOM      5  C   UNL     1      85.056  66.270  10.916  1.00  0.00     0.034 C 
BRANCH   5   6
ATOM      6  C   UNL     1      84.072  66.549   9.794  1.00  0.00    -0.077 C 
ATOM      7  C   UNL     1      84.211  67.854   9.050  1.00  0.00     0.039 C 
ATOM      8  C   UNL     1      83.124  65.676   9.373  1.00  0.00    -0.023 CG0
ATOM      9  G   UNL     1      82.791  64.327   9.977  1.00  0.00     0.000 G0
ENDBRANCH   5   6
ENDBRANCH   4   5
ENDBRANCH   2   4
BRANCH   1  10
ATOM     10  C   UNL     1      85.492  62.921   9.003  1.00  0.00     0.111 C 
BRANCH  10  11
ATOM     11  C   UNL     1      84.106  62.332   9.008  1.00  0.00     0.163 C 
ATOM     12  O   UNL     1      83.993  61.080   9.091  1.00  0.00    -0.294 OA
BRANCH  11  13
ATOM     13  C   UNL     1      82.876  63.179   8.981  1.00  0.00    -0.002 C 
ATOM     14  C   UNL     1      81.840  62.879   8.142  1.00  0.00    -0.069 C 
ATOM     15  C   UNL     1      80.521  63.619   8.202  1.00  0.00     0.039 C 
ATOM     16  C   UNL     1      81.960  61.783   7.106  1.00  0.00     0.039 C 
BRANCH  13  17
ATOM     17  C   UNL     1      82.793  64.318   9.985  1.00  0.00     0.066 CG0
ATOM     18  G   UNL     1      83.113  65.661   9.359  1.00  0.00     0.000 G0
ENDBRANCH  13  17
ENDBRANCH  11  13
ENDBRANCH  10  11
ENDBRANCH   1  10
TORSDOF 0
ENDMDL
MODEL 6
REMARK VINA RESULT:    -5.131      2.075      4.955
REMARK INTER + INTRA:          -6.804
REMARK INTER:                  -7.487
REMARK INTRA:                   0.684
REMARK UNBOUND:                 0.427
REMARK SMILES CC1=CCC(=C(C)C)C(=O)CC(C)=CCC1
REMARK SMILES IDX 12 1 14 2 13 3 15 4 16 5 2 6 1 7 3 8 11 10 9 11 10 12 5 13
REMARK SMILES IDX 6 14 7 15 8 16 4 17
REMARK H PARENT
REMARK Flexibility Score: 60.00
ROOT
ATOM      1  C   UNL     1      84.475  66.005  10.567  1.00  0.00    -0.070 C 
ATOM      2  C   UNL     1      85.713  65.978  11.107  1.00  0.00    -0.027 C 
ATOM      3  C   UNL     1      83.912  67.343  10.161  1.00  0.00     0.039 C 
ENDROOT
BRANCH   2   4
ATOM      4  C   UNL     1      86.484  64.732  11.485  1.00  0.00     0.032 C 
BRANCH   4   5
ATOM      5  C   UNL     1      87.768  64.491  10.663  1.00  0.00     0.034 C 
BRANCH   5   6
ATOM      6  C   UNL     1      87.577  63.489   9.539  1.00  0.00    -0.077 C 
ATOM      7  C   UNL     1      88.124  62.097   9.740  1.00  0.00     0.039 C 
ATOM      8  C   UNL     1      86.890  63.741   8.397  1.00  0.00    -0.023 CG0
ATOM      9  G   UNL     1      86.276  65.060   7.973  1.00  0.00     0.000 G0
ENDBRANCH   5   6
ENDBRANCH   4   5
ENDBRANCH   2   4
BRANCH   1  10
ATOM     10  C   UNL     1      83.670  64.756  10.268  1.00  0.00     0.111 C 
BRANCH  10  11
ATOM     11  C   UNL     1      84.046  64.158   8.938  1.00  0.00     0.163 C 
ATOM     12  O   UNL     1      83.706  62.966   8.706  1.00  0.00    -0.294 OA
BRANCH  11  13
ATOM     13  C   UNL     1      84.744  64.941   7.875  1.00  0.00    -0.002 C 
ATOM     14  C   UNL     1      84.032  65.600   6.912  1.00  0.00    -0.069 C 
ATOM     15  C   UNL     1      84.698  66.528   5.920  1.00  0.00     0.039 C 
ATOM     16  C   UNL     1      82.533  65.434   6.792  1.00  0.00     0.039 C 
BRANCH  13  17
ATOM     17  C   UNL     1      86.258  65.049   7.971  1.00  0.00     0.066 CG0
ATOM     18  G   UNL     1      86.900  63.747   8.406  1.00  0.00     0.000 G0
ENDBRANCH  13  17
ENDBRANCH  11  13
ENDBRANCH  10  11
ENDBRANCH   1  10
TORSDOF 0
ENDMDL
MODEL 7
REMARK VINA RESULT:    -5.078     12.809     14.921
REMARK INTER + INTRA:          -6.729
REMARK INTER:                  -7.066
REMARK INTRA:                   0.337
REMARK UNBOUND:                 0.427
REMARK SMILES CC1=CCC(=C(C)C)C(=O)CC(C)=CCC1
REMARK SMILES IDX 12 1 14 2 13 3 15 4 16 5 2 6 1 7 3 8 11 10 9 11 10 12 5 13
REMARK SMILES IDX 6 14 7 15 8 16 4 17
REMARK H PARENT
REMARK Flexibility Score: 60.00
ROOT
ATOM      1  C   UNL     1      74.538  64.563  -0.361  1.00  0.00    -0.070 C 
ATOM      2  C   UNL     1      73.206  64.521  -0.139  1.00  0.00    -0.027 C 
ATOM      3  C   UNL     1      75.208  65.914  -0.378  1.00  0.00     0.039 C 
ENDROOT
BRANCH   2   4
ATOM      4  C   UNL     1      72.376  63.265   0.011  1.00  0.00     0.032 C 
BRANCH   4   5
ATOM      5  C   UNL     1      72.080  62.854   1.469  1.00  0.00     0.034 C 
BRANCH   5   6
ATOM      6  C   UNL     1      72.598  61.471   1.817  1.00  0.00    -0.077 C 
ATOM      7  C   UNL     1      71.680  60.298   1.580  1.00  0.00     0.039 C 
ATOM      8  C   UNL     1      73.854  61.213   2.261  1.00  0.00    -0.023 CG0
ATOM      9  G   UNL     1      74.933  62.226   2.589  1.00  0.00     0.000 G0
ENDBRANCH   5   6
ENDBRANCH   4   5
ENDBRANCH   2   4
BRANCH   1  10
ATOM     10  C   UNL     1      75.398  63.324  -0.501  1.00  0.00     0.111 C 
BRANCH  10  11
ATOM     11  C   UNL     1      76.337  63.164   0.666  1.00  0.00     0.163 C 
ATOM     12  O   UNL     1      77.272  63.999   0.794  1.00  0.00    -0.294 OA
BRANCH  11  13
ATOM     13  C   UNL     1      76.159  62.097   1.696  1.00  0.00    -0.002 C 
ATOM     14  C   UNL     1      77.099  61.119   1.859  1.00  0.00    -0.069 C 
ATOM     15  C   UNL     1      77.028  60.122   2.994  1.00  0.00     0.039 C 
ATOM     16  C   UNL     1      78.267  60.987   0.907  1.00  0.00     0.039 C 
BRANCH  13  17
ATOM     17  C   UNL     1      74.946  62.207   2.608  1.00  0.00     0.066 CG0
ATOM     18  G   UNL     1      73.868  61.203   2.252  1.00  0.00     0.000 G0
ENDBRANCH  13  17
ENDBRANCH  11  13
ENDBRANCH  10  11
ENDBRANCH   1  10
TORSDOF 0
ENDMDL
MODEL 8
REMARK VINA RESULT:    -4.945      2.172      4.626
REMARK INTER + INTRA:          -6.541
REMARK INTER:                  -7.026
REMARK INTRA:                   0.485
REMARK UNBOUND:                 0.427
REMARK SMILES CC1=CCC(=C(C)C)C(=O)CC(C)=CCC1
REMARK SMILES IDX 12 1 14 2 13 3 15 4 16 5 2 6 1 7 3 8 11 10 9 11 10 12 5 13
REMARK SMILES IDX 6 14 7 15 8 16 4 17
REMARK H PARENT
REMARK Flexibility Score: 60.00
ROOT
ATOM      1  C   UNL     1      83.251  62.673   9.061  1.00  0.00    -0.070 C 
ATOM      2  C   UNL     1      84.323  61.891   9.313  1.00  0.00    -0.027 C 
ATOM      3  C   UNL     1      82.380  62.319   7.882  1.00  0.00     0.039 C 
ENDROOT
BRANCH   2   4
ATOM      4  C   UNL     1      85.254  62.025  10.498  1.00  0.00     0.032 C 
BRANCH   4   5
ATOM      5  C   UNL     1      86.657  62.572  10.161  1.00  0.00     0.034 C 
BRANCH   5   6
ATOM      6  C   UNL     1      86.804  64.055  10.449  1.00  0.00    -0.077 C 
ATOM      7  C   UNL     1      87.465  64.455  11.744  1.00  0.00     0.039 C 
ATOM      8  C   UNL     1      86.444  65.041   9.590  1.00  0.00    -0.023 CG0
ATOM      9  G   UNL     1      85.751  64.879   8.252  1.00  0.00     0.000 G0
ENDBRANCH   5   6
ENDBRANCH   4   5
ENDBRANCH   2   4
BRANCH   1  10
ATOM     10  C   UNL     1      82.832  63.824   9.953  1.00  0.00     0.111 C 
BRANCH  10  11
ATOM     11  C   UNL     1      83.562  65.094   9.603  1.00  0.00     0.163 C 
ATOM     12  O   UNL     1      83.615  66.007  10.471  1.00  0.00    -0.294 OA
BRANCH  11  13
ATOM     13  C   UNL     1      84.269  65.278   8.301  1.00  0.00    -0.002 C 
ATOM     14  C   UNL     1      83.638  65.866   7.240  1.00  0.00    -0.069 C 
ATOM     15  C   UNL     1      84.372  66.210   5.963  1.00  0.00     0.039 C 
ATOM     16  C   UNL     1      82.165  66.205   7.293  1.00  0.00     0.039 C 
BRANCH  13  17
ATOM     17  C   UNL     1      85.734  64.875   8.241  1.00  0.00     0.066 CG0
ATOM     18  G   UNL     1      86.431  65.044   9.577  1.00  0.00     0.000 G0
ENDBRANCH  13  17
ENDBRANCH  11  13
ENDBRANCH  10  11
ENDBRANCH   1  10
TORSDOF 0
ENDMDL
MODEL 9
REMARK VINA RESULT:    -4.889     12.669     14.852
REMARK INTER + INTRA:          -6.463
REMARK INTER:                  -6.706
REMARK INTRA:                   0.243
REMARK UNBOUND:                 0.427
REMARK SMILES CC1=CCC(=C(C)C)C(=O)CC(C)=CCC1
REMARK SMILES IDX 12 1 14 2 13 3 15 4 16 5 2 6 1 7 3 8 11 10 9 11 10 12 5 13
REMARK SMILES IDX 6 14 7 15 8 16 4 17
REMARK H PARENT
REMARK Flexibility Score: 60.00
ROOT
ATOM      1  C   UNL     1      75.400  61.217   2.393  1.00  0.00    -0.070 C 
ATOM      2  C   UNL     1      74.110  61.387   2.759  1.00  0.00    -0.027 C 
ATOM      3  C   UNL     1      76.470  61.578   3.393  1.00  0.00     0.039 C 
ENDROOT
BRANCH   2   4
ATOM      4  C   UNL     1      72.901  60.993   1.938  1.00  0.00     0.032 C 
BRANCH   4   5
ATOM      5  C   UNL     1      72.821  61.652   0.545  1.00  0.00     0.034 C 
BRANCH   5   6
ATOM      6  C   UNL     1      73.009  63.158   0.586  1.00  0.00    -0.077 C 
ATOM      7  C   UNL     1      71.995  63.971   1.352  1.00  0.00     0.039 C 
ATOM      8  C   UNL     1      74.063  63.812   0.038  1.00  0.00    -0.023 CG0
ATOM      9  G   UNL     1      75.184  63.212  -0.787  1.00  0.00     0.000 G0
ENDBRANCH   5   6
ENDBRANCH   4   5
ENDBRANCH   2   4
BRANCH   1  10
ATOM     10  C   UNL     1      75.817  60.599   1.074  1.00  0.00     0.111 C 
BRANCH  10  11
ATOM     11  C   UNL     1      76.751  61.499   0.309  1.00  0.00     0.163 C 
ATOM     12  O   UNL     1      77.815  61.001  -0.147  1.00  0.00    -0.294 OA
BRANCH  11  13
ATOM     13  C   UNL     1      76.430  62.930   0.024  1.00  0.00    -0.002 C 
ATOM     14  C   UNL     1      77.277  63.927   0.417  1.00  0.00    -0.069 C 
ATOM     15  C   UNL     1      77.063  65.368   0.007  1.00  0.00     0.039 C 
ATOM     16  C   UNL     1      78.481  63.637   1.287  1.00  0.00     0.039 C 
BRANCH  13  17
ATOM     17  C   UNL     1      75.183  63.213  -0.799  1.00  0.00     0.066 CG0
ATOM     18  G   UNL     1      74.070  63.818   0.034  1.00  0.00     0.000 G0
ENDBRANCH  13  17
ENDBRANCH  11  13
ENDBRANCH  10  11
ENDBRANCH   1  10
TORSDOF 0
ENDMDL
