MODEL 1
REMARK VINA RESULT:    -5.685      0.000      0.000
REMARK INTER + INTRA:         -10.825
REMARK INTER:                 -10.006
REMARK INTRA:                  -0.820
REMARK UNBOUND:                -0.820
REMARK SMILES CCCCCCCCCCCCCCC(=O)[O-]
REMARK SMILES IDX 9 1 10 2 11 3 12 4 13 5 14 6 15 7 16 8 17 9 8 10 7 11 6 12
REMARK SMILES IDX 5 13 4 14 3 15 2 16 1 17
REMARK H PARENT
REMARK Flexibility Score: inf
ROOT
ATOM      1  C   UNL     1     -13.093  11.520   8.266  1.00  0.00     0.000 C 
ENDROOT
BRANCH   1   2
ATOM      2  C   UNL     1     -12.376  12.790   8.766  1.00  0.00     0.000 C 
BRANCH   2   3
ATOM      3  C   UNL     1     -10.843  12.642   8.873  1.00  0.00     0.000 C 
BRANCH   3   4
ATOM      4  C   UNL     1     -10.198  13.803   9.645  1.00  0.00     0.000 C 
BRANCH   4   5
ATOM      5  C   UNL     1      -9.043  14.422   8.846  1.00  0.00     0.006 C 
BRANCH   5   6
ATOM      6  C   UNL     1      -7.769  14.570   9.687  1.00  0.00     0.053 C 
BRANCH   6   7
ATOM      7  C   UNL     1      -7.939  15.579  10.780  1.00  0.00     0.041 C 
ATOM      8  O   UNL     1      -8.182  16.783  10.501  1.00  0.00    -0.550 OA
ATOM      9  O   UNL     1      -7.861  15.184  12.110  1.00  0.00    -0.550 OA
ENDBRANCH   6   7
ENDBRANCH   5   6
ENDBRANCH   4   5
ENDBRANCH   3   4
ENDBRANCH   2   3
ENDBRANCH   1   2
BRANCH   1  10
ATOM     10  C   UNL     1     -12.178  10.462   7.628  1.00  0.00     0.000 C 
BRANCH  10  11
ATOM     11  C   UNL     1     -12.227  10.477   6.090  1.00  0.00    -0.000 C 
BRANCH  11  12
ATOM     12  C   UNL     1     -11.166  11.406   5.478  1.00  0.00    -0.000 C 
BRANCH  12  13
ATOM     13  C   UNL     1     -10.987  11.189   3.966  1.00  0.00    -0.000 C 
BRANCH  13  14
ATOM     14  C   UNL     1      -9.644  11.728   3.441  1.00  0.00    -0.000 C 
BRANCH  14  15
ATOM     15  C   UNL     1      -9.272  13.136   3.940  1.00  0.00    -0.000 C 
BRANCH  15  16
ATOM     16  C   UNL     1      -7.756  13.345   4.067  1.00  0.00    -0.003 C 
ATOM     17  C   UNL     1      -6.989  12.342   3.211  1.00  0.00     0.004 C 
ENDBRANCH  15  16
ENDBRANCH  14  15
ENDBRANCH  13  14
ENDBRANCH  12  13
ENDBRANCH  11  12
ENDBRANCH  10  11
ENDBRANCH   1  10
TORSDOF 13
ENDMDL
MODEL 2
REMARK VINA RESULT:    -5.544      1.611      3.589
REMARK INTER + INTRA:         -10.577
REMARK INTER:                  -9.514
REMARK INTRA:                  -1.064
REMARK UNBOUND:                -0.820
REMARK SMILES CCCCCCCCCCCCCCC(=O)[O-]
REMARK SMILES IDX 9 1 10 2 11 3 12 4 13 5 14 6 15 7 16 8 17 9 8 10 7 11 6 12
REMARK SMILES IDX 5 13 4 14 3 15 2 16 1 17
REMARK H PARENT
REMARK Flexibility Score: inf
ROOT
ATOM      1  C   UNL     1     -11.043  11.507   5.393  1.00  0.00     0.000 C 
ENDROOT
BRANCH   1   2
ATOM      2  C   UNL     1     -11.975  10.444   6.008  1.00  0.00     0.000 C 
BRANCH   2   3
ATOM      3  C   UNL     1     -12.210  10.620   7.524  1.00  0.00     0.000 C 
BRANCH   3   4
ATOM      4  C   UNL     1     -13.158  11.788   7.834  1.00  0.00     0.000 C 
BRANCH   4   5
ATOM      5  C   UNL     1     -12.500  12.795   8.788  1.00  0.00     0.006 C 
BRANCH   5   6
ATOM      6  C   UNL     1     -10.987  12.572   8.915  1.00  0.00     0.053 C 
BRANCH   6   7
ATOM      7  C   UNL     1     -10.313  13.717   9.605  1.00  0.00     0.041 C 
ATOM      8  O   UNL     1      -9.317  13.514  10.347  1.00  0.00    -0.550 OA
ATOM      9  O   UNL     1     -10.766  15.015   9.402  1.00  0.00    -0.550 OA
ENDBRANCH   6   7
ENDBRANCH   5   6
ENDBRANCH   4   5
ENDBRANCH   3   4
ENDBRANCH   2   3
ENDBRANCH   1   2
BRANCH   1  10
ATOM     10  C   UNL     1     -10.691  11.288   3.912  1.00  0.00     0.000 C 
BRANCH  10  11
ATOM     11  C   UNL     1     -10.057  12.528   3.258  1.00  0.00    -0.000 C 
BRANCH  11  12
ATOM     12  C   UNL     1      -9.230  13.358   4.252  1.00  0.00    -0.000 C 
BRANCH  12  13
ATOM     13  C   UNL     1      -7.715  13.216   4.029  1.00  0.00    -0.000 C 
BRANCH  13  14
ATOM     14  C   UNL     1      -7.368  12.230   2.898  1.00  0.00    -0.000 C 
BRANCH  14  15
ATOM     15  C   UNL     1      -6.511  12.820   1.764  1.00  0.00    -0.000 C 
BRANCH  15  16
ATOM     16  C   UNL     1      -7.306  13.055   0.472  1.00  0.00    -0.003 C 
ATOM     17  C   UNL     1      -8.032  14.396   0.510  1.00  0.00     0.004 C 
ENDBRANCH  15  16
ENDBRANCH  14  15
ENDBRANCH  13  14
ENDBRANCH  12  13
ENDBRANCH  11  12
ENDBRANCH  10  11
ENDBRANCH   1  10
TORSDOF 13
ENDMDL
MODEL 3
REMARK VINA RESULT:    -5.515      3.323      6.490
REMARK INTER + INTRA:         -10.526
REMARK INTER:                  -9.860
REMARK INTRA:                  -0.666
REMARK UNBOUND:                -0.820
REMARK SMILES CCCCCCCCCCCCCCC(=O)[O-]
REMARK SMILES IDX 9 1 10 2 11 3 12 4 13 5 14 6 15 7 16 8 17 9 8 10 7 11 6 12
REMARK SMILES IDX 5 13 4 14 3 15 2 16 1 17
REMARK H PARENT
REMARK Flexibility Score: inf
ROOT
ATOM      1  C   UNL     1     -11.982  10.542   7.345  1.00  0.00     0.000 C 
ENDROOT
BRANCH   1   2
ATOM      2  C   UNL     1     -12.094  10.558   5.807  1.00  0.00     0.000 C 
BRANCH   2   3
ATOM      3  C   UNL     1     -11.118  11.537   5.119  1.00  0.00     0.000 C 
BRANCH   3   4
ATOM      4  C   UNL     1     -10.694  11.052   3.724  1.00  0.00     0.000 C 
BRANCH   4   5
ATOM      5  C   UNL     1     -10.530  12.232   2.756  1.00  0.00     0.006 C 
BRANCH   5   6
ATOM      6  C   UNL     1      -9.530  13.274   3.273  1.00  0.00     0.053 C 
BRANCH   6   7
ATOM      7  C   UNL     1      -8.884  14.027   2.151  1.00  0.00     0.041 C 
ATOM      8  O   UNL     1      -8.315  13.406   1.214  1.00  0.00    -0.550 OA
ATOM      9  O   UNL     1      -8.937  15.415   2.124  1.00  0.00    -0.550 OA
ENDBRANCH   6   7
ENDBRANCH   5   6
ENDBRANCH   4   5
ENDBRANCH   3   4
ENDBRANCH   2   3
ENDBRANCH   1   2
BRANCH   1  10
ATOM     10  C   UNL     1     -13.014  11.411   8.083  1.00  0.00     0.000 C 
BRANCH  10  11
ATOM     11  C   UNL     1     -12.378  12.617   8.797  1.00  0.00    -0.000 C 
BRANCH  11  12
ATOM     12  C   UNL     1     -10.850  12.652   8.643  1.00  0.00    -0.000 C 
BRANCH  12  13
ATOM     13  C   UNL     1     -10.162  13.502   9.725  1.00  0.00    -0.000 C 
BRANCH  13  14
ATOM     14  C   UNL     1      -9.153  14.508   9.143  1.00  0.00    -0.000 C 
BRANCH  14  15
ATOM     15  C   UNL     1      -7.776  14.517   9.831  1.00  0.00    -0.000 C 
BRANCH  15  16
ATOM     16  C   UNL     1      -7.661  15.585  10.928  1.00  0.00    -0.003 C 
ATOM     17  C   UNL     1      -8.715  16.673  10.747  1.00  0.00     0.004 C 
ENDBRANCH  15  16
ENDBRANCH  14  15
ENDBRANCH  13  14
ENDBRANCH  12  13
ENDBRANCH  11  12
ENDBRANCH  10  11
ENDBRANCH   1  10
TORSDOF 13
ENDMDL
MODEL 4
REMARK VINA RESULT:    -5.492      3.323      6.461
REMARK INTER + INTRA:         -10.486
REMARK INTER:                  -9.533
REMARK INTRA:                  -0.953
REMARK UNBOUND:                -0.820
REMARK SMILES CCCCCCCCCCCCCCC(=O)[O-]
REMARK SMILES IDX 9 1 10 2 11 3 12 4 13 5 14 6 15 7 16 8 17 9 8 10 7 11 6 12
REMARK SMILES IDX 5 13 4 14 3 15 2 16 1 17
REMARK H PARENT
REMARK Flexibility Score: inf
ROOT
ATOM      1  C   UNL     1     -11.629  11.045   7.782  1.00  0.00     0.000 C 
ENDROOT
BRANCH   1   2
ATOM      2  C   UNL     1     -12.409  11.026   6.453  1.00  0.00     0.000 C 
BRANCH   2   3
ATOM      3  C   UNL     1     -11.511  10.914   5.202  1.00  0.00     0.000 C 
BRANCH   3   4
ATOM      4  C   UNL     1     -10.460  12.033   5.138  1.00  0.00     0.000 C 
BRANCH   4   5
ATOM      5  C   UNL     1      -9.847  12.134   3.734  1.00  0.00     0.006 C 
BRANCH   5   6
ATOM      6  C   UNL     1      -8.831  13.278   3.625  1.00  0.00     0.053 C 
BRANCH   6   7
ATOM      7  C   UNL     1      -8.953  14.007   2.323  1.00  0.00     0.041 C 
ATOM      8  O   UNL     1      -9.446  15.166   2.288  1.00  0.00    -0.550 OA
ATOM      9  O   UNL     1      -8.492  13.420   1.151  1.00  0.00    -0.550 OA
ENDBRANCH   6   7
ENDBRANCH   5   6
ENDBRANCH   4   5
ENDBRANCH   3   4
ENDBRANCH   2   3
ENDBRANCH   1   2
BRANCH   1  10
ATOM     10  C   UNL     1     -11.896  12.267   8.678  1.00  0.00     0.000 C 
BRANCH  10  11
ATOM     11  C   UNL     1     -10.659  12.699   9.485  1.00  0.00    -0.000 C 
BRANCH  11  12
ATOM     12  C   UNL     1     -10.344  14.194   9.322  1.00  0.00    -0.000 C 
BRANCH  12  13
ATOM     13  C   UNL     1      -9.076  14.446   8.488  1.00  0.00    -0.000 C 
BRANCH  13  14
ATOM     14  C   UNL     1      -7.794  14.464   9.340  1.00  0.00    -0.000 C 
BRANCH  14  15
ATOM     15  C   UNL     1      -7.866  15.346  10.600  1.00  0.00    -0.000 C 
BRANCH  15  16
ATOM     16  C   UNL     1      -7.272  14.668  11.842  1.00  0.00    -0.003 C 
ATOM     17  C   UNL     1      -7.569  13.172  11.846  1.00  0.00     0.004 C 
ENDBRANCH  15  16
ENDBRANCH  14  15
ENDBRANCH  13  14
ENDBRANCH  12  13
ENDBRANCH  11  12
ENDBRANCH  10  11
ENDBRANCH   1  10
TORSDOF 13
ENDMDL
MODEL 5
REMARK VINA RESULT:    -5.438      3.618      6.583
REMARK INTER + INTRA:         -10.390
REMARK INTER:                  -9.628
REMARK INTRA:                  -0.762
REMARK UNBOUND:                -0.820
REMARK SMILES CCCCCCCCCCCCCCC(=O)[O-]
REMARK SMILES IDX 9 1 10 2 11 3 12 4 13 5 14 6 15 7 16 8 17 9 8 10 7 11 6 12
REMARK SMILES IDX 5 13 4 14 3 15 2 16 1 17
REMARK H PARENT
REMARK Flexibility Score: inf
ROOT
ATOM      1  C   UNL     1     -11.098  11.465   5.328  1.00  0.00     0.000 C 
ENDROOT
BRANCH   1   2
ATOM      2  C   UNL     1     -10.839  11.202   3.830  1.00  0.00     0.000 C 
BRANCH   2   3
ATOM      3  C   UNL     1      -9.442  11.652   3.349  1.00  0.00     0.000 C 
BRANCH   3   4
ATOM      4  C   UNL     1      -9.108  13.086   3.791  1.00  0.00     0.000 C 
BRANCH   4   5
ATOM      5  C   UNL     1      -7.590  13.315   3.820  1.00  0.00     0.006 C 
BRANCH   5   6
ATOM      6  C   UNL     1      -6.825  12.232   3.049  1.00  0.00     0.053 C 
BRANCH   6   7
ATOM      7  C   UNL     1      -6.454  12.689   1.672  1.00  0.00     0.041 C 
ATOM      8  O   UNL     1      -6.239  11.848   0.760  1.00  0.00    -0.550 OA
ATOM      9  O   UNL     1      -6.379  14.047   1.387  1.00  0.00    -0.550 OA
ENDBRANCH   6   7
ENDBRANCH   5   6
ENDBRANCH   4   5
ENDBRANCH   3   4
ENDBRANCH   2   3
ENDBRANCH   1   2
BRANCH   1  10
ATOM     10  C   UNL     1     -12.044  10.464   6.011  1.00  0.00     0.000 C 
BRANCH  10  11
ATOM     11  C   UNL     1     -12.059  10.606   7.544  1.00  0.00    -0.000 C 
BRANCH  11  12
ATOM     12  C   UNL     1     -13.090  11.638   8.027  1.00  0.00    -0.000 C 
BRANCH  12  13
ATOM     13  C   UNL     1     -12.447  12.802   8.800  1.00  0.00    -0.000 C 
BRANCH  13  14
ATOM     14  C   UNL     1     -10.940  12.599   9.040  1.00  0.00    -0.000 C 
BRANCH  14  15
ATOM     15  C   UNL     1     -10.120  13.897   9.151  1.00  0.00    -0.000 C 
BRANCH  15  16
ATOM     16  C   UNL     1      -9.088  13.859  10.287  1.00  0.00    -0.003 C 
ATOM     17  C   UNL     1      -8.544  15.253  10.582  1.00  0.00     0.004 C 
ENDBRANCH  15  16
ENDBRANCH  14  15
ENDBRANCH  13  14
ENDBRANCH  12  13
ENDBRANCH  11  12
ENDBRANCH  10  11
ENDBRANCH   1  10
TORSDOF 13
ENDMDL
MODEL 6
REMARK VINA RESULT:    -5.343      4.810      6.537
REMARK INTER + INTRA:         -10.224
REMARK INTER:                  -9.217
REMARK INTRA:                  -1.007
REMARK UNBOUND:                -0.820
REMARK SMILES CCCCCCCCCCCCCCC(=O)[O-]
REMARK SMILES IDX 9 1 10 2 11 3 12 4 13 5 14 6 15 7 16 8 17 9 8 10 7 11 6 12
REMARK SMILES IDX 5 13 4 14 3 15 2 16 1 17
REMARK H PARENT
REMARK Flexibility Score: inf
ROOT
ATOM      1  C   UNL     1     -11.079  11.855   5.368  1.00  0.00     0.000 C 
ENDROOT
BRANCH   1   2
ATOM      2  C   UNL     1     -12.215  11.233   6.204  1.00  0.00     0.000 C 
BRANCH   2   3
ATOM      3  C   UNL     1     -11.828  10.949   7.671  1.00  0.00     0.000 C 
BRANCH   3   4
ATOM      4  C   UNL     1     -12.532   9.701   8.228  1.00  0.00     0.000 C 
BRANCH   4   5
ATOM      5  C   UNL     1     -13.043   8.803   7.092  1.00  0.00     0.006 C 
BRANCH   5   6
ATOM      6  C   UNL     1     -14.257   7.967   7.515  1.00  0.00     0.053 C 
BRANCH   6   7
ATOM      7  C   UNL     1     -13.922   6.511   7.612  1.00  0.00     0.041 C 
ATOM      8  O   UNL     1     -12.935   6.131   8.297  1.00  0.00    -0.550 OA
ATOM      9  O   UNL     1     -14.719   5.569   6.972  1.00  0.00    -0.550 OA
ENDBRANCH   6   7
ENDBRANCH   5   6
ENDBRANCH   4   5
ENDBRANCH   3   4
ENDBRANCH   2   3
ENDBRANCH   1   2
BRANCH   1  10
ATOM     10  C   UNL     1     -10.788  11.148   4.033  1.00  0.00     0.000 C 
BRANCH  10  11
ATOM     11  C   UNL     1     -10.028  12.040   3.036  1.00  0.00    -0.000 C 
BRANCH  11  12
ATOM     12  C   UNL     1      -9.443  13.296   3.700  1.00  0.00    -0.000 C 
BRANCH  12  13
ATOM     13  C   UNL     1      -7.935  13.176   3.975  1.00  0.00    -0.000 C 
BRANCH  13  14
ATOM     14  C   UNL     1      -7.219  12.245   2.978  1.00  0.00    -0.000 C 
BRANCH  14  15
ATOM     15  C   UNL     1      -6.540  12.962   1.797  1.00  0.00    -0.000 C 
BRANCH  15  16
ATOM     16  C   UNL     1      -7.459  13.106   0.575  1.00  0.00    -0.003 C 
ATOM     17  C   UNL     1      -7.877  14.559   0.371  1.00  0.00     0.004 C 
ENDBRANCH  15  16
ENDBRANCH  14  15
ENDBRANCH  13  14
ENDBRANCH  12  13
ENDBRANCH  11  12
ENDBRANCH  10  11
ENDBRANCH   1  10
TORSDOF 13
ENDMDL
MODEL 7
REMARK VINA RESULT:    -5.326      2.212      4.195
REMARK INTER + INTRA:         -10.193
REMARK INTER:                  -9.030
REMARK INTRA:                  -1.163
REMARK UNBOUND:                -0.820
REMARK SMILES CCCCCCCCCCCCCCC(=O)[O-]
REMARK SMILES IDX 9 1 10 2 11 3 12 4 13 5 14 6 15 7 16 8 17 9 8 10 7 11 6 12
REMARK SMILES IDX 5 13 4 14 3 15 2 16 1 17
REMARK H PARENT
REMARK Flexibility Score: inf
ROOT
ATOM      1  C   UNL     1     -10.548  15.150   9.347  1.00  0.00     0.000 C 
ENDROOT
BRANCH   1   2
ATOM      2  C   UNL     1      -9.705  16.133  10.184  1.00  0.00     0.000 C 
BRANCH   2   3
ATOM      3  C   UNL     1      -8.203  15.779  10.238  1.00  0.00     0.000 C 
BRANCH   3   4
ATOM      4  C   UNL     1      -7.717  15.520  11.672  1.00  0.00     0.000 C 
BRANCH   4   5
ATOM      5  C   UNL     1      -7.245  14.068  11.841  1.00  0.00     0.006 C 
BRANCH   5   6
ATOM      6  C   UNL     1      -8.214  13.238  12.693  1.00  0.00     0.053 C 
BRANCH   6   7
ATOM      7  C   UNL     1      -8.113  11.777  12.382  1.00  0.00     0.041 C 
ATOM      8  O   UNL     1      -6.992  11.254  12.144  1.00  0.00    -0.550 OA
ATOM      9  O   UNL     1      -9.255  10.984  12.386  1.00  0.00    -0.550 OA
ENDBRANCH   6   7
ENDBRANCH   5   6
ENDBRANCH   4   5
ENDBRANCH   3   4
ENDBRANCH   2   3
ENDBRANCH   1   2
BRANCH   1  10
ATOM     10  C   UNL     1      -9.831  13.849   8.950  1.00  0.00     0.000 C 
BRANCH  10  11
ATOM     11  C   UNL     1     -10.556  12.588   9.454  1.00  0.00    -0.000 C 
BRANCH  11  12
ATOM     12  C   UNL     1     -11.767  12.220   8.582  1.00  0.00    -0.000 C 
BRANCH  12  13
ATOM     13  C   UNL     1     -11.930  10.701   8.402  1.00  0.00    -0.000 C 
BRANCH  13  14
ATOM     14  C   UNL     1     -12.077  10.288   6.926  1.00  0.00    -0.000 C 
BRANCH  14  15
ATOM     15  C   UNL     1     -11.967  11.444   5.916  1.00  0.00    -0.000 C 
BRANCH  15  16
ATOM     16  C   UNL     1     -11.096  11.097   4.700  1.00  0.00    -0.003 C 
ATOM     17  C   UNL     1     -10.284  12.304   4.243  1.00  0.00     0.004 C 
ENDBRANCH  15  16
ENDBRANCH  14  15
ENDBRANCH  13  14
ENDBRANCH  12  13
ENDBRANCH  11  12
ENDBRANCH  10  11
ENDBRANCH   1  10
TORSDOF 13
ENDMDL
MODEL 8
REMARK VINA RESULT:    -5.308      5.320      7.711
REMARK INTER + INTRA:         -10.161
REMARK INTER:                  -9.317
REMARK INTRA:                  -0.844
REMARK UNBOUND:                -0.820
REMARK SMILES CCCCCCCCCCCCCCC(=O)[O-]
REMARK SMILES IDX 9 1 10 2 11 3 12 4 13 5 14 6 15 7 16 8 17 9 8 10 7 11 6 12
REMARK SMILES IDX 5 13 4 14 3 15 2 16 1 17
REMARK H PARENT
REMARK Flexibility Score: inf
ROOT
ATOM      1  C   UNL     1      -5.360  10.888   3.380  1.00  0.00     0.000 C 
ENDROOT
BRANCH   1   2
ATOM      2  C   UNL     1      -4.961   9.710   4.291  1.00  0.00     0.000 C 
BRANCH   2   3
ATOM      3  C   UNL     1      -4.192  10.135   5.561  1.00  0.00     0.000 C 
BRANCH   3   4
ATOM      4  C   UNL     1      -4.280   9.081   6.675  1.00  0.00     0.000 C 
BRANCH   4   5
ATOM      5  C   UNL     1      -5.151   7.893   6.243  1.00  0.00     0.006 C 
BRANCH   5   6
ATOM      6  C   UNL     1      -5.666   7.084   7.440  1.00  0.00     0.053 C 
BRANCH   6   7
ATOM      7  C   UNL     1      -5.026   5.733   7.514  1.00  0.00     0.041 C 
ATOM      8  O   UNL     1      -5.737   4.695   7.568  1.00  0.00    -0.550 OA
ATOM      9  O   UNL     1      -3.641   5.617   7.490  1.00  0.00    -0.550 OA
ENDBRANCH   6   7
ENDBRANCH   5   6
ENDBRANCH   4   5
ENDBRANCH   3   4
ENDBRANCH   2   3
ENDBRANCH   1   2
BRANCH   1  10
ATOM     10  C   UNL     1      -6.799  10.837   2.840  1.00  0.00     0.000 C 
BRANCH  10  11
ATOM     11  C   UNL     1      -7.405  12.235   2.618  1.00  0.00    -0.000 C 
BRANCH  11  12
ATOM     12  C   UNL     1      -7.555  13.024   3.928  1.00  0.00    -0.000 C 
BRANCH  12  13
ATOM     13  C   UNL     1      -9.025  13.253   4.318  1.00  0.00    -0.000 C 
BRANCH  13  14
ATOM     14  C   UNL     1     -10.009  12.501   3.404  1.00  0.00    -0.000 C 
BRANCH  14  15
ATOM     15  C   UNL     1     -10.705  11.292   4.056  1.00  0.00    -0.000 C 
BRANCH  15  16
ATOM     16  C   UNL     1     -11.311  11.618   5.428  1.00  0.00    -0.003 C 
ATOM     17  C   UNL     1     -11.987  10.392   6.035  1.00  0.00     0.004 C 
ENDBRANCH  15  16
ENDBRANCH  14  15
ENDBRANCH  13  14
ENDBRANCH  12  13
ENDBRANCH  11  12
ENDBRANCH  10  11
ENDBRANCH   1  10
TORSDOF 13
ENDMDL
MODEL 9
REMARK VINA RESULT:    -5.196      4.695      6.626
REMARK INTER + INTRA:          -9.965
REMARK INTER:                  -9.338
REMARK INTRA:                  -0.628
REMARK UNBOUND:                -0.820
REMARK SMILES CCCCCCCCCCCCCCC(=O)[O-]
REMARK SMILES IDX 9 1 10 2 11 3 12 4 13 5 14 6 15 7 16 8 17 9 8 10 7 11 6 12
REMARK SMILES IDX 5 13 4 14 3 15 2 16 1 17
REMARK H PARENT
REMARK Flexibility Score: inf
ROOT
ATOM      1  C   UNL     1     -10.743  12.120   3.314  1.00  0.00     0.000 C 
ENDROOT
BRANCH   1   2
ATOM      2  C   UNL     1     -10.533  11.812   4.810  1.00  0.00     0.000 C 
BRANCH   2   3
ATOM      3  C   UNL     1     -11.650  10.949   5.434  1.00  0.00     0.000 C 
BRANCH   3   4
ATOM      4  C   UNL     1     -11.703  11.082   6.964  1.00  0.00     0.000 C 
BRANCH   4   5
ATOM      5  C   UNL     1     -12.360   9.851   7.603  1.00  0.00     0.006 C 
BRANCH   5   6
ATOM      6  C   UNL     1     -13.165   9.030   6.588  1.00  0.00     0.053 C 
BRANCH   6   7
ATOM      7  C   UNL     1     -13.934   7.929   7.250  1.00  0.00     0.041 C 
ATOM      8  O   UNL     1     -13.945   6.773   6.751  1.00  0.00    -0.550 OA
ATOM      9  O   UNL     1     -14.612   8.171   8.439  1.00  0.00    -0.550 OA
ENDBRANCH   6   7
ENDBRANCH   5   6
ENDBRANCH   4   5
ENDBRANCH   3   4
ENDBRANCH   2   3
ENDBRANCH   1   2
BRANCH   1  10
ATOM     10  C   UNL     1      -9.894  13.276   2.759  1.00  0.00     0.000 C 
BRANCH  10  11
ATOM     11  C   UNL     1      -8.688  13.615   3.653  1.00  0.00    -0.000 C 
BRANCH  11  12
ATOM     12  C   UNL     1      -7.347  13.296   2.974  1.00  0.00    -0.000 C 
BRANCH  12  13
ATOM     13  C   UNL     1      -7.157  11.792   2.710  1.00  0.00    -0.000 C 
BRANCH  13  14
ATOM     14  C   UNL     1      -5.858  11.238   3.322  1.00  0.00    -0.000 C 
BRANCH  14  15
ATOM     15  C   UNL     1      -5.710   9.707   3.252  1.00  0.00    -0.000 C 
BRANCH  15  16
ATOM     16  C   UNL     1      -4.464   9.191   3.986  1.00  0.00    -0.003 C 
ATOM     17  C   UNL     1      -4.850   8.350   5.198  1.00  0.00     0.004 C 
ENDBRANCH  15  16
ENDBRANCH  14  15
ENDBRANCH  13  14
ENDBRANCH  12  13
ENDBRANCH  11  12
ENDBRANCH  10  11
ENDBRANCH   1  10
TORSDOF 13
ENDMDL
