MODEL 1
REMARK VINA RESULT:    -8.859      0.000      0.000
REMARK INTER + INTRA:         -10.359
REMARK INTER:                 -10.672
REMARK INTRA:                   0.312
REMARK UNBOUND:                 0.312
REMARK SMILES O=c1c(O)c(-c2ccc(O)c(O)c2)oc2cc(O)cc(O)c12
REMARK SMILES IDX 5 1 3 2 2 3 1 4 22 5 20 6 19 7 17 8 16 9 15 10 14 11 6 12
REMARK SMILES IDX 7 13 8 14 9 15 13 16 11 17 10 18 12 20 4 22 21 24 18 26
REMARK H PARENT 10 19 12 21 4 23 21 25 18 27
REMARK Flexibility Score: inf
ROOT
ATOM      1  C   UNL     1     -35.636  -5.858 -16.348  1.00  0.00     0.180 A 
ATOM      2  C   UNL     1     -36.255  -5.148 -17.395  1.00  0.00     0.208 A 
ATOM      3  C   UNL     1     -35.486  -4.255 -18.157  1.00  0.00     0.238 A 
ATOM      4  O   UNL     1     -36.033  -3.606 -19.090  1.00  0.00    -0.285 OA
ATOM      5  C   UNL     1     -34.112  -4.104 -17.876  1.00  0.00     0.111 A 
ATOM      6  C   UNL     1     -33.267  -3.228 -18.599  1.00  0.00     0.134 A 
ATOM      7  C   UNL     1     -31.907  -3.140 -18.264  1.00  0.00     0.093 A 
ATOM      8  C   UNL     1     -31.378  -3.910 -17.222  1.00  0.00     0.123 A 
ATOM      9  C   UNL     1     -32.209  -4.773 -16.506  1.00  0.00     0.094 A 
ATOM     10  C   UNL     1     -33.567  -4.875 -16.823  1.00  0.00     0.146 A 
ATOM     11  O   UNL     1     -34.335  -5.700 -16.121  1.00  0.00    -0.452 OA
ENDROOT
BRANCH   1  12
ATOM     12  C   UNL     1     -36.384  -6.803 -15.488  1.00  0.00     0.025 A 
ATOM     13  C   UNL     1     -35.971  -7.005 -14.161  1.00  0.00     0.016 A 
ATOM     14  C   UNL     1     -36.674  -7.875 -13.325  1.00  0.00     0.051 A 
ATOM     15  C   UNL     1     -37.810  -8.545 -13.797  1.00  0.00     0.157 A 
ATOM     16  C   UNL     1     -37.537  -7.461 -15.951  1.00  0.00     0.062 A 
ATOM     17  C   UNL     1     -38.245  -8.333 -15.116  1.00  0.00     0.158 A 
BRANCH  15  18
ATOM     18  O   UNL     1     -38.508  -9.415 -12.961  1.00  0.00    -0.504 OA
ATOM     19  H   UNL     1     -39.404  -9.805 -13.230  1.00  0.00     0.293 HD
ENDBRANCH  15  18
BRANCH  17  20
ATOM     20  O   UNL     1     -39.380  -8.973 -15.611  1.00  0.00    -0.504 OA
ATOM     21  H   UNL     1     -40.160  -9.224 -15.016  1.00  0.00     0.293 HD
ENDBRANCH  17  20
ENDBRANCH   1  12
BRANCH   2  22
ATOM     22  O   UNL     1     -37.606  -5.354 -17.684  1.00  0.00    -0.502 OA
ATOM     23  H   UNL     1     -38.216  -5.888 -17.077  1.00  0.00     0.293 HD
ENDBRANCH   2  22
BRANCH   6  24
ATOM     24  O   UNL     1     -33.765  -2.449 -19.645  1.00  0.00    -0.507 OA
ATOM     25  H   UNL     1     -34.744  -2.470 -19.906  1.00  0.00     0.293 HD
ENDBRANCH   6  24
BRANCH   8  26
ATOM     26  O   UNL     1     -30.028  -3.823 -16.890  1.00  0.00    -0.508 OA
ATOM     27  H   UNL     1     -29.563  -4.555 -16.367  1.00  0.00     0.293 HD
ENDBRANCH   8  26
TORSDOF 6
ENDMDL
MODEL 2
REMARK VINA RESULT:    -8.572      2.068      6.927
REMARK INTER + INTRA:         -10.013
REMARK INTER:                  -9.756
REMARK INTRA:                  -0.258
REMARK UNBOUND:                 0.312
REMARK SMILES O=c1c(O)c(-c2ccc(O)c(O)c2)oc2cc(O)cc(O)c12
REMARK SMILES IDX 5 1 3 2 2 3 1 4 22 5 20 6 19 7 17 8 16 9 15 10 14 11 6 12
REMARK SMILES IDX 7 13 8 14 9 15 13 16 11 17 10 18 12 20 4 22 21 24 18 26
REMARK H PARENT 10 19 12 21 4 23 21 25 18 27
REMARK Flexibility Score: inf
ROOT
ATOM      1  C   UNL     1     -34.726  -3.976 -16.832  1.00  0.00     0.180 A 
ATOM      2  C   UNL     1     -35.634  -3.088 -16.224  1.00  0.00     0.208 A 
ATOM      3  C   UNL     1     -36.683  -3.613 -15.452  1.00  0.00     0.238 A 
ATOM      4  O   UNL     1     -37.509  -2.826 -14.912  1.00  0.00    -0.285 OA
ATOM      5  C   UNL     1     -36.794  -5.008 -15.284  1.00  0.00     0.111 A 
ATOM      6  C   UNL     1     -37.819  -5.616 -14.520  1.00  0.00     0.134 A 
ATOM      7  C   UNL     1     -37.855  -7.013 -14.394  1.00  0.00     0.093 A 
ATOM      8  C   UNL     1     -36.888  -7.811 -15.015  1.00  0.00     0.123 A 
ATOM      9  C   UNL     1     -35.878  -7.215 -15.771  1.00  0.00     0.094 A 
ATOM     10  C   UNL     1     -35.824  -5.826 -15.910  1.00  0.00     0.146 A 
ATOM     11  O   UNL     1     -34.854  -5.286 -16.640  1.00  0.00    -0.452 OA
ENDROOT
BRANCH   1  12
ATOM     12  C   UNL     1     -33.607  -3.501 -17.675  1.00  0.00     0.025 A 
ATOM     13  C   UNL     1     -32.288  -3.637 -17.214  1.00  0.00     0.016 A 
ATOM     14  C   UNL     1     -31.214  -3.215 -18.002  1.00  0.00     0.051 A 
ATOM     15  C   UNL     1     -31.442  -2.665 -19.270  1.00  0.00     0.157 A 
ATOM     16  C   UNL     1     -33.830  -2.967 -18.958  1.00  0.00     0.062 A 
ATOM     17  C   UNL     1     -32.757  -2.545 -19.751  1.00  0.00     0.158 A 
BRANCH  15  18
ATOM     18  O   UNL     1     -30.369  -2.242 -20.054  1.00  0.00    -0.504 OA
ATOM     19  H   UNL     1     -29.524  -1.869 -19.639  1.00  0.00     0.293 HD
ENDBRANCH  15  18
BRANCH  17  20
ATOM     20  O   UNL     1     -33.016  -2.015 -21.014  1.00  0.00    -0.504 OA
ATOM     21  H   UNL     1     -32.759  -1.067 -21.263  1.00  0.00     0.293 HD
ENDBRANCH  17  20
ENDBRANCH   1  12
BRANCH   2  22
ATOM     22  O   UNL     1     -35.473  -1.707 -16.366  1.00  0.00    -0.502 OA
ATOM     23  H   UNL     1     -35.236  -1.276 -17.251  1.00  0.00     0.293 HD
ENDBRANCH   2  22
BRANCH   6  24
ATOM     24  O   UNL     1     -38.796  -4.847 -13.887  1.00  0.00    -0.507 OA
ATOM     25  H   UNL     1     -38.739  -4.618 -12.902  1.00  0.00     0.293 HD
ENDBRANCH   6  24
BRANCH   8  26
ATOM     26  O   UNL     1     -36.925  -9.198 -14.889  1.00  0.00    -0.508 OA
ATOM     27  H   UNL     1     -37.630  -9.661 -14.328  1.00  0.00     0.293 HD
ENDBRANCH   8  26
TORSDOF 6
ENDMDL
MODEL 3
REMARK VINA RESULT:    -8.326      2.567      7.140
REMARK INTER + INTRA:          -9.718
REMARK INTER:                  -9.459
REMARK INTRA:                  -0.259
REMARK UNBOUND:                 0.312
REMARK SMILES O=c1c(O)c(-c2ccc(O)c(O)c2)oc2cc(O)cc(O)c12
REMARK SMILES IDX 5 1 3 2 2 3 1 4 22 5 20 6 19 7 17 8 16 9 15 10 14 11 6 12
REMARK SMILES IDX 7 13 8 14 9 15 13 16 11 17 10 18 12 20 4 22 21 24 18 26
REMARK H PARENT 10 19 12 21 4 23 21 25 18 27
REMARK Flexibility Score: inf
ROOT
ATOM      1  C   UNL     1     -34.272  -3.948 -16.938  1.00  0.00     0.180 A 
ATOM      2  C   UNL     1     -34.458  -5.329 -16.738  1.00  0.00     0.208 A 
ATOM      3  C   UNL     1     -35.450  -5.757 -15.842  1.00  0.00     0.238 A 
ATOM      4  O   UNL     1     -35.617  -6.992 -15.646  1.00  0.00    -0.285 OA
ATOM      5  C   UNL     1     -36.251  -4.803 -15.182  1.00  0.00     0.111 A 
ATOM      6  C   UNL     1     -37.275  -5.152 -14.268  1.00  0.00     0.134 A 
ATOM      7  C   UNL     1     -38.035  -4.143 -13.658  1.00  0.00     0.093 A 
ATOM      8  C   UNL     1     -37.792  -2.795 -13.944  1.00  0.00     0.123 A 
ATOM      9  C   UNL     1     -36.783  -2.447 -14.843  1.00  0.00     0.094 A 
ATOM     10  C   UNL     1     -36.014  -3.437 -15.461  1.00  0.00     0.146 A 
ATOM     11  O   UNL     1     -35.056  -3.077 -16.308  1.00  0.00    -0.452 OA
ENDROOT
BRANCH   1  12
ATOM     12  C   UNL     1     -33.234  -3.417 -17.851  1.00  0.00     0.025 A 
ATOM     13  C   UNL     1     -31.886  -3.462 -17.464  1.00  0.00     0.016 A 
ATOM     14  C   UNL     1     -30.888  -2.986 -18.318  1.00  0.00     0.051 A 
ATOM     15  C   UNL     1     -31.221  -2.474 -19.578  1.00  0.00     0.157 A 
ATOM     16  C   UNL     1     -33.563  -2.922 -19.126  1.00  0.00     0.062 A 
ATOM     17  C   UNL     1     -32.566  -2.446 -19.985  1.00  0.00     0.158 A 
BRANCH  15  18
ATOM     18  O   UNL     1     -30.223  -1.998 -20.428  1.00  0.00    -0.504 OA
ATOM     19  H   UNL     1     -29.388  -1.550 -20.068  1.00  0.00     0.293 HD
ENDBRANCH  15  18
BRANCH  17  20
ATOM     20  O   UNL     1     -32.929  -1.956 -21.238  1.00  0.00    -0.504 OA
ATOM     21  H   UNL     1     -33.713  -1.328 -21.364  1.00  0.00     0.293 HD
ENDBRANCH  17  20
ENDBRANCH   1  12
BRANCH   2  22
ATOM     22  O   UNL     1     -33.683  -6.254 -17.442  1.00  0.00    -0.502 OA
ATOM     23  H   UNL     1     -33.084  -5.986 -18.213  1.00  0.00     0.293 HD
ENDBRANCH   2  22
BRANCH   6  24
ATOM     24  O   UNL     1     -37.542  -6.488 -13.963  1.00  0.00    -0.507 OA
ATOM     25  H   UNL     1     -36.955  -7.017 -13.329  1.00  0.00     0.293 HD
ENDBRANCH   6  24
BRANCH   8  26
ATOM     26  O   UNL     1     -38.548  -1.794 -13.338  1.00  0.00    -0.508 OA
ATOM     27  H   UNL     1     -38.656  -0.881 -13.764  1.00  0.00     0.293 HD
ENDBRANCH   8  26
TORSDOF 6
ENDMDL
MODEL 4
REMARK VINA RESULT:    -8.272      2.408      7.191
REMARK INTER + INTRA:          -9.652
REMARK INTER:                  -9.341
REMARK INTRA:                  -0.311
REMARK UNBOUND:                 0.312
REMARK SMILES O=c1c(O)c(-c2ccc(O)c(O)c2)oc2cc(O)cc(O)c12
REMARK SMILES IDX 5 1 3 2 2 3 1 4 22 5 20 6 19 7 17 8 16 9 15 10 14 11 6 12
REMARK SMILES IDX 7 13 8 14 9 15 13 16 11 17 10 18 12 20 4 22 21 24 18 26
REMARK H PARENT 10 19 12 21 4 23 21 25 18 27
REMARK Flexibility Score: inf
ROOT
ATOM      1  C   UNL     1     -37.065  -5.550 -16.133  1.00  0.00     0.180 A 
ATOM      2  C   UNL     1     -37.545  -4.466 -15.373  1.00  0.00     0.208 A 
ATOM      3  C   UNL     1     -38.455  -4.714 -14.334  1.00  0.00     0.238 A 
ATOM      4  O   UNL     1     -38.899  -3.749 -13.655  1.00  0.00    -0.285 OA
ATOM      5  C   UNL     1     -38.853  -6.038 -14.059  1.00  0.00     0.111 A 
ATOM      6  C   UNL     1     -39.763  -6.374 -13.028  1.00  0.00     0.134 A 
ATOM      7  C   UNL     1     -40.103  -7.718 -12.811  1.00  0.00     0.093 A 
ATOM      8  C   UNL     1     -39.550  -8.730 -13.603  1.00  0.00     0.123 A 
ATOM      9  C   UNL     1     -38.654  -8.403 -14.622  1.00  0.00     0.094 A 
ATOM     10  C   UNL     1     -38.304  -7.070 -14.855  1.00  0.00     0.146 A 
ATOM     11  O   UNL     1     -37.453  -6.788 -15.835  1.00  0.00    -0.452 OA
ENDROOT
BRANCH   1  12
ATOM     12  C   UNL     1     -36.119  -5.367 -17.256  1.00  0.00     0.025 A 
ATOM     13  C   UNL     1     -36.614  -5.246 -18.564  1.00  0.00     0.016 A 
ATOM     14  C   UNL     1     -35.740  -5.052 -19.637  1.00  0.00     0.051 A 
ATOM     15  C   UNL     1     -34.360  -4.959 -19.416  1.00  0.00     0.157 A 
ATOM     16  C   UNL     1     -34.734  -5.253 -17.037  1.00  0.00     0.062 A 
ATOM     17  C   UNL     1     -33.856  -5.057 -18.109  1.00  0.00     0.158 A 
BRANCH  15  18
ATOM     18  O   UNL     1     -33.491  -4.768 -20.489  1.00  0.00    -0.504 OA
ATOM     19  H   UNL     1     -33.833  -4.653 -21.436  1.00  0.00     0.293 HD
ENDBRANCH  15  18
BRANCH  17  20
ATOM     20  O   UNL     1     -32.489  -4.955 -17.855  1.00  0.00    -0.504 OA
ATOM     21  H   UNL     1     -32.130  -4.594 -16.979  1.00  0.00     0.293 HD
ENDBRANCH  17  20
ENDBRANCH   1  12
BRANCH   2  22
ATOM     22  O   UNL     1     -37.096  -3.169 -15.635  1.00  0.00    -0.502 OA
ATOM     23  H   UNL     1     -36.129  -2.893 -15.512  1.00  0.00     0.293 HD
ENDBRANCH   2  22
BRANCH   6  24
ATOM     24  O   UNL     1     -40.329  -5.387 -12.220  1.00  0.00    -0.507 OA
ATOM     25  H   UNL     1     -40.979  -5.615 -11.476  1.00  0.00     0.293 HD
ENDBRANCH   6  24
BRANCH   8  26
ATOM     26  O   UNL     1     -39.888 -10.065 -13.387  1.00  0.00    -0.508 OA
ATOM     27  H   UNL     1     -40.079 -10.694 -14.157  1.00  0.00     0.293 HD
ENDBRANCH   8  26
TORSDOF 6
ENDMDL
MODEL 5
REMARK VINA RESULT:    -8.221      1.783      2.937
REMARK INTER + INTRA:          -9.591
REMARK INTER:                  -9.267
REMARK INTRA:                  -0.324
REMARK UNBOUND:                 0.312
REMARK SMILES O=c1c(O)c(-c2ccc(O)c(O)c2)oc2cc(O)cc(O)c12
REMARK SMILES IDX 5 1 3 2 2 3 1 4 22 5 20 6 19 7 17 8 16 9 15 10 14 11 6 12
REMARK SMILES IDX 7 13 8 14 9 15 13 16 11 17 10 18 12 20 4 22 21 24 18 26
REMARK H PARENT 10 19 12 21 4 23 21 25 18 27
REMARK Flexibility Score: inf
ROOT
ATOM      1  C   UNL     1     -36.147  -6.385 -15.393  1.00  0.00     0.180 A 
ATOM      2  C   UNL     1     -35.276  -5.612 -14.601  1.00  0.00     0.208 A 
ATOM      3  C   UNL     1     -34.302  -4.825 -15.235  1.00  0.00     0.238 A 
ATOM      4  O   UNL     1     -33.510  -4.137 -14.535  1.00  0.00    -0.285 OA
ATOM      5  C   UNL     1     -34.229  -4.807 -16.643  1.00  0.00     0.111 A 
ATOM      6  C   UNL     1     -33.280  -4.038 -17.358  1.00  0.00     0.134 A 
ATOM      7  C   UNL     1     -33.277  -4.066 -18.761  1.00  0.00     0.093 A 
ATOM      8  C   UNL     1     -34.204  -4.847 -19.460  1.00  0.00     0.123 A 
ATOM      9  C   UNL     1     -35.140  -5.608 -18.758  1.00  0.00     0.094 A 
ATOM     10  C   UNL     1     -35.159  -5.594 -17.361  1.00  0.00     0.146 A 
ATOM     11  O   UNL     1     -36.057  -6.332 -16.719  1.00  0.00    -0.452 OA
ENDROOT
BRANCH   1  12
ATOM     12  C   UNL     1     -37.187  -7.255 -14.799  1.00  0.00     0.025 A 
ATOM     13  C   UNL     1     -36.861  -8.570 -14.432  1.00  0.00     0.016 A 
ATOM     14  C   UNL     1     -37.821  -9.402 -13.850  1.00  0.00     0.051 A 
ATOM     15  C   UNL     1     -39.117  -8.927 -13.612  1.00  0.00     0.157 A 
ATOM     16  C   UNL     1     -38.484  -6.776 -14.539  1.00  0.00     0.062 A 
ATOM     17  C   UNL     1     -39.447  -7.605 -13.955  1.00  0.00     0.158 A 
BRANCH  15  18
ATOM     18  O   UNL     1     -40.074  -9.760 -13.034  1.00  0.00    -0.504 OA
ATOM     19  H   UNL     1     -40.528 -10.495 -13.564  1.00  0.00     0.293 HD
ENDBRANCH  15  18
BRANCH  17  20
ATOM     20  O   UNL     1     -40.724  -7.098 -13.718  1.00  0.00    -0.504 OA
ATOM     21  H   UNL     1     -40.912  -6.442 -12.969  1.00  0.00     0.293 HD
ENDBRANCH  17  20
ENDBRANCH   1  12
BRANCH   2  22
ATOM     22  O   UNL     1     -35.402  -5.610 -13.210  1.00  0.00    -0.502 OA
ATOM     23  H   UNL     1     -34.965  -6.311 -12.624  1.00  0.00     0.293 HD
ENDBRANCH   2  22
BRANCH   6  24
ATOM     24  O   UNL     1     -32.344  -3.248 -16.689  1.00  0.00    -0.507 OA
ATOM     25  H   UNL     1     -31.356  -3.474 -16.691  1.00  0.00     0.293 HD
ENDBRANCH   6  24
BRANCH   8  26
ATOM     26  O   UNL     1     -34.201  -4.876 -20.853  1.00  0.00    -0.508 OA
ATOM     27  H   UNL     1     -34.173  -5.749 -21.365  1.00  0.00     0.293 HD
ENDBRANCH   8  26
TORSDOF 6
ENDMDL
MODEL 6
REMARK VINA RESULT:    -8.041      2.623      7.171
REMARK INTER + INTRA:          -9.374
REMARK INTER:                  -9.053
REMARK INTRA:                  -0.321
REMARK UNBOUND:                 0.312
REMARK SMILES O=c1c(O)c(-c2ccc(O)c(O)c2)oc2cc(O)cc(O)c12
REMARK SMILES IDX 5 1 3 2 2 3 1 4 22 5 20 6 19 7 17 8 16 9 15 10 14 11 6 12
REMARK SMILES IDX 7 13 8 14 9 15 13 16 11 17 10 18 12 20 4 22 21 24 18 26
REMARK H PARENT 10 19 12 21 4 23 21 25 18 27
REMARK Flexibility Score: inf
ROOT
ATOM      1  C   UNL     1     -36.295  -4.687 -15.197  1.00  0.00     0.180 A 
ATOM      2  C   UNL     1     -36.841  -3.750 -14.299  1.00  0.00     0.208 A 
ATOM      3  C   UNL     1     -37.920  -4.137 -13.488  1.00  0.00     0.238 A 
ATOM      4  O   UNL     1     -38.424  -3.302 -12.688  1.00  0.00    -0.285 OA
ATOM      5  C   UNL     1     -38.418  -5.453 -13.572  1.00  0.00     0.111 A 
ATOM      6  C   UNL     1     -39.499  -5.922 -12.788  1.00  0.00     0.134 A 
ATOM      7  C   UNL     1     -39.932  -7.250 -12.924  1.00  0.00     0.093 A 
ATOM      8  C   UNL     1     -39.305  -8.115 -13.827  1.00  0.00     0.123 A 
ATOM      9  C   UNL     1     -38.240  -7.655 -14.604  1.00  0.00     0.094 A 
ATOM     10  C   UNL     1     -37.794  -6.336 -14.484  1.00  0.00     0.146 A 
ATOM     11  O   UNL     1     -36.782  -5.924 -15.239  1.00  0.00    -0.452 OA
ENDROOT
BRANCH   1  12
ATOM     12  C   UNL     1     -35.170  -4.350 -16.098  1.00  0.00     0.025 A 
ATOM     13  C   UNL     1     -33.868  -4.753 -15.759  1.00  0.00     0.016 A 
ATOM     14  C   UNL     1     -32.795  -4.463 -16.605  1.00  0.00     0.051 A 
ATOM     15  C   UNL     1     -33.008  -3.782 -17.810  1.00  0.00     0.157 A 
ATOM     16  C   UNL     1     -35.383  -3.684 -17.319  1.00  0.00     0.062 A 
ATOM     17  C   UNL     1     -34.310  -3.395 -18.170  1.00  0.00     0.158 A 
BRANCH  15  18
ATOM     18  O   UNL     1     -31.935  -3.493 -18.651  1.00  0.00    -0.504 OA
ATOM     19  H   UNL     1     -31.877  -2.617 -19.157  1.00  0.00     0.293 HD
ENDBRANCH  15  18
BRANCH  17  20
ATOM     20  O   UNL     1     -34.557  -2.728 -19.369  1.00  0.00    -0.504 OA
ATOM     21  H   UNL     1     -35.318  -2.990 -19.983  1.00  0.00     0.293 HD
ENDBRANCH  17  20
ENDBRANCH   1  12
BRANCH   2  22
ATOM     22  O   UNL     1     -36.296  -2.468 -14.200  1.00  0.00    -0.502 OA
ATOM     23  H   UNL     1     -36.039  -2.054 -13.311  1.00  0.00     0.293 HD
ENDBRANCH   2  22
BRANCH   6  24
ATOM     24  O   UNL     1     -40.144  -5.084 -11.877  1.00  0.00    -0.507 OA
ATOM     25  H   UNL     1     -40.509  -4.179 -12.151  1.00  0.00     0.293 HD
ENDBRANCH   6  24
BRANCH   8  26
ATOM     26  O   UNL     1     -39.734  -9.434 -13.962  1.00  0.00    -0.508 OA
ATOM     27  H   UNL     1     -39.852 -10.037 -13.158  1.00  0.00     0.293 HD
ENDBRANCH   8  26
TORSDOF 6
ENDMDL
MODEL 7
REMARK VINA RESULT:    -7.960      4.773      8.051
REMARK INTER + INTRA:          -9.276
REMARK INTER:                  -8.985
REMARK INTRA:                  -0.291
REMARK UNBOUND:                 0.312
REMARK SMILES O=c1c(O)c(-c2ccc(O)c(O)c2)oc2cc(O)cc(O)c12
REMARK SMILES IDX 5 1 3 2 2 3 1 4 22 5 20 6 19 7 17 8 16 9 15 10 14 11 6 12
REMARK SMILES IDX 7 13 8 14 9 15 13 16 11 17 10 18 12 20 4 22 21 24 18 26
REMARK H PARENT 10 19 12 21 4 23 21 25 18 27
REMARK Flexibility Score: inf
ROOT
ATOM      1  C   UNL     1     -37.677  -4.392 -12.411  1.00  0.00     0.180 A 
ATOM      2  C   UNL     1     -36.515  -5.086 -12.801  1.00  0.00     0.208 A 
ATOM      3  C   UNL     1     -36.633  -6.417 -13.232  1.00  0.00     0.238 A 
ATOM      4  O   UNL     1     -35.597  -7.051 -13.573  1.00  0.00    -0.285 OA
ATOM      5  C   UNL     1     -37.905  -7.022 -13.286  1.00  0.00     0.111 A 
ATOM      6  C   UNL     1     -38.109  -8.357 -13.711  1.00  0.00     0.134 A 
ATOM      7  C   UNL     1     -39.408  -8.884 -13.745  1.00  0.00     0.093 A 
ATOM      8  C   UNL     1     -40.505  -8.104 -13.363  1.00  0.00     0.123 A 
ATOM      9  C   UNL     1     -40.308  -6.789 -12.941  1.00  0.00     0.094 A 
ATOM     10  C   UNL     1     -39.021  -6.244 -12.899  1.00  0.00     0.146 A 
ATOM     11  O   UNL     1     -38.862  -4.991 -12.488  1.00  0.00    -0.452 OA
ENDROOT
BRANCH   1  12
ATOM     12  C   UNL     1     -37.633  -2.993 -11.927  1.00  0.00     0.025 A 
ATOM     13  C   UNL     1     -37.650  -2.739 -10.547  1.00  0.00     0.016 A 
ATOM     14  C   UNL     1     -37.588  -1.428 -10.067  1.00  0.00     0.051 A 
ATOM     15  C   UNL     1     -37.492  -0.353 -10.960  1.00  0.00     0.157 A 
ATOM     16  C   UNL     1     -37.515  -1.912 -12.820  1.00  0.00     0.062 A 
ATOM     17  C   UNL     1     -37.451  -0.598 -12.343  1.00  0.00     0.158 A 
BRANCH  15  18
ATOM     18  O   UNL     1     -37.433   0.954 -10.479  1.00  0.00    -0.504 OA
ATOM     19  H   UNL     1     -36.704   1.595 -10.770  1.00  0.00     0.293 HD
ENDBRANCH  15  18
BRANCH  17  20
ATOM     20  O   UNL     1     -37.342   0.449 -13.257  1.00  0.00    -0.504 OA
ATOM     21  H   UNL     1     -36.929   1.340 -13.007  1.00  0.00     0.293 HD
ENDBRANCH  17  20
ENDBRANCH   1  12
BRANCH   2  22
ATOM     22  O   UNL     1     -35.273  -4.447 -12.785  1.00  0.00    -0.502 OA
ATOM     23  H   UNL     1     -34.414  -4.924 -13.029  1.00  0.00     0.293 HD
ENDBRANCH   2  22
BRANCH   6  24
ATOM     24  O   UNL     1     -37.035  -9.159 -14.100  1.00  0.00    -0.507 OA
ATOM     25  H   UNL     1     -36.776  -9.267 -15.074  1.00  0.00     0.293 HD
ENDBRANCH   6  24
BRANCH   8  26
ATOM     26  O   UNL     1     -41.795  -8.628 -13.397  1.00  0.00    -0.508 OA
ATOM     27  H   UNL     1     -42.205  -9.080 -12.588  1.00  0.00     0.293 HD
ENDBRANCH   8  26
TORSDOF 6
ENDMDL
MODEL 8
REMARK VINA RESULT:    -7.941      2.354      3.640
REMARK INTER + INTRA:          -9.253
REMARK INTER:                  -9.033
REMARK INTRA:                  -0.220
REMARK UNBOUND:                 0.312
REMARK SMILES O=c1c(O)c(-c2ccc(O)c(O)c2)oc2cc(O)cc(O)c12
REMARK SMILES IDX 5 1 3 2 2 3 1 4 22 5 20 6 19 7 17 8 16 9 15 10 14 11 6 12
REMARK SMILES IDX 7 13 8 14 9 15 13 16 11 17 10 18 12 20 4 22 21 24 18 26
REMARK H PARENT 10 19 12 21 4 23 21 25 18 27
REMARK Flexibility Score: inf
ROOT
ATOM      1  C   UNL     1     -36.573  -5.359 -15.120  1.00  0.00     0.180 A 
ATOM      2  C   UNL     1     -35.267  -5.000 -14.735  1.00  0.00     0.208 A 
ATOM      3  C   UNL     1     -34.294  -4.815 -15.729  1.00  0.00     0.238 A 
ATOM      4  O   UNL     1     -33.117  -4.505 -15.394  1.00  0.00    -0.285 OA
ATOM      5  C   UNL     1     -34.645  -4.968 -17.086  1.00  0.00     0.111 A 
ATOM      6  C   UNL     1     -33.725  -4.796 -18.148  1.00  0.00     0.134 A 
ATOM      7  C   UNL     1     -34.155  -4.958 -19.473  1.00  0.00     0.093 A 
ATOM      8  C   UNL     1     -35.485  -5.288 -19.756  1.00  0.00     0.123 A 
ATOM      9  C   UNL     1     -36.394  -5.461 -18.712  1.00  0.00     0.094 A 
ATOM     10  C   UNL     1     -35.986  -5.305 -17.384  1.00  0.00     0.146 A 
ATOM     11  O   UNL     1     -36.872  -5.481 -16.410  1.00  0.00    -0.452 OA
ENDROOT
BRANCH   1  12
ATOM     12  C   UNL     1     -37.650  -5.591 -14.130  1.00  0.00     0.025 A 
ATOM     13  C   UNL     1     -38.204  -4.499 -13.443  1.00  0.00     0.016 A 
ATOM     14  C   UNL     1     -39.235  -4.693 -12.520  1.00  0.00     0.051 A 
ATOM     15  C   UNL     1     -39.738  -5.978 -12.283  1.00  0.00     0.157 A 
ATOM     16  C   UNL     1     -38.172  -6.877 -13.903  1.00  0.00     0.062 A 
ATOM     17  C   UNL     1     -39.206  -7.074 -12.981  1.00  0.00     0.158 A 
BRANCH  15  18
ATOM     18  O   UNL     1     -40.765  -6.168 -11.359  1.00  0.00    -0.504 OA
ATOM     19  H   UNL     1     -41.395  -6.960 -11.421  1.00  0.00     0.293 HD
ENDBRANCH  15  18
BRANCH  17  20
ATOM     20  O   UNL     1     -39.695  -8.364 -12.778  1.00  0.00    -0.504 OA
ATOM     21  H   UNL     1     -39.299  -8.986 -12.084  1.00  0.00     0.293 HD
ENDBRANCH  17  20
ENDBRANCH   1  12
BRANCH   2  22
ATOM     22  O   UNL     1     -34.957  -4.806 -13.387  1.00  0.00    -0.502 OA
ATOM     23  H   UNL     1     -34.163  -4.254 -13.086  1.00  0.00     0.293 HD
ENDBRANCH   2  22
BRANCH   6  24
ATOM     24  O   UNL     1     -32.393  -4.464 -17.897  1.00  0.00    -0.507 OA
ATOM     25  H   UNL     1     -31.637  -5.112 -18.088  1.00  0.00     0.293 HD
ENDBRANCH   6  24
BRANCH   8  26
ATOM     26  O   UNL     1     -35.912  -5.449 -21.073  1.00  0.00    -0.508 OA
ATOM     27  H   UNL     1     -35.253  -5.554 -21.834  1.00  0.00     0.293 HD
ENDBRANCH   8  26
TORSDOF 6
ENDMDL
MODEL 9
REMARK VINA RESULT:    -7.879      3.780      4.984
REMARK INTER + INTRA:          -9.179
REMARK INTER:                  -8.953
REMARK INTRA:                  -0.226
REMARK UNBOUND:                 0.312
REMARK SMILES O=c1c(O)c(-c2ccc(O)c(O)c2)oc2cc(O)cc(O)c12
REMARK SMILES IDX 5 1 3 2 2 3 1 4 22 5 20 6 19 7 17 8 16 9 15 10 14 11 6 12
REMARK SMILES IDX 7 13 8 14 9 15 13 16 11 17 10 18 12 20 4 22 21 24 18 26
REMARK H PARENT 10 19 12 21 4 23 21 25 18 27
REMARK Flexibility Score: inf
ROOT
ATOM      1  C   UNL     1     -34.839  -3.168 -18.222  1.00  0.00     0.180 A 
ATOM      2  C   UNL     1     -34.182  -3.718 -17.104  1.00  0.00     0.208 A 
ATOM      3  C   UNL     1     -32.781  -3.800 -17.113  1.00  0.00     0.238 A 
ATOM      4  O   UNL     1     -32.184  -4.302 -16.121  1.00  0.00    -0.285 OA
ATOM      5  C   UNL     1     -32.061  -3.313 -18.223  1.00  0.00     0.111 A 
ATOM      6  C   UNL     1     -30.649  -3.355 -18.308  1.00  0.00     0.134 A 
ATOM      7  C   UNL     1     -30.005  -2.842 -19.444  1.00  0.00     0.093 A 
ATOM      8  C   UNL     1     -30.746  -2.288 -20.494  1.00  0.00     0.123 A 
ATOM      9  C   UNL     1     -32.138  -2.247 -20.414  1.00  0.00     0.094 A 
ATOM     10  C   UNL     1     -32.799  -2.754 -19.292  1.00  0.00     0.146 A 
ATOM     11  O   UNL     1     -34.125  -2.706 -19.246  1.00  0.00    -0.452 OA
ENDROOT
BRANCH   1  12
ATOM     12  C   UNL     1     -36.313  -3.065 -18.297  1.00  0.00     0.025 A 
ATOM     13  C   UNL     1     -36.981  -2.113 -17.510  1.00  0.00     0.016 A 
ATOM     14  C   UNL     1     -38.370  -1.984 -17.580  1.00  0.00     0.051 A 
ATOM     15  C   UNL     1     -39.111  -2.794 -18.450  1.00  0.00     0.157 A 
ATOM     16  C   UNL     1     -37.060  -3.862 -19.184  1.00  0.00     0.062 A 
ATOM     17  C   UNL     1     -38.451  -3.734 -19.259  1.00  0.00     0.158 A 
BRANCH  15  18
ATOM     18  O   UNL     1     -40.498  -2.665 -18.516  1.00  0.00    -0.504 OA
ATOM     19  H   UNL     1     -41.015  -2.905 -19.355  1.00  0.00     0.293 HD
ENDBRANCH  15  18
BRANCH  17  20
ATOM     20  O   UNL     1     -39.159  -4.544 -20.145  1.00  0.00    -0.504 OA
ATOM     21  H   UNL     1     -39.342  -5.522 -19.952  1.00  0.00     0.293 HD
ENDBRANCH  17  20
ENDBRANCH   1  12
BRANCH   2  22
ATOM     22  O   UNL     1     -34.917  -4.148 -15.996  1.00  0.00    -0.502 OA
ATOM     23  H   UNL     1     -35.524  -4.959 -16.028  1.00  0.00     0.293 HD
ENDBRANCH   2  22
BRANCH   6  24
ATOM     24  O   UNL     1     -29.883  -3.900 -17.276  1.00  0.00    -0.507 OA
ATOM     25  H   UNL     1     -29.331  -4.739 -17.407  1.00  0.00     0.293 HD
ENDBRANCH   6  24
BRANCH   8  26
ATOM     26  O   UNL     1     -30.106  -1.778 -21.622  1.00  0.00    -0.508 OA
ATOM     27  H   UNL     1     -30.179  -0.800 -21.875  1.00  0.00     0.293 HD
ENDBRANCH   8  26
TORSDOF 6
ENDMDL
