MODEL 1
REMARK VINA RESULT:    -4.053      0.000      0.000
REMARK INTER + INTRA:          -4.797
REMARK INTER:                  -4.764
REMARK INTRA:                  -0.033
REMARK UNBOUND:                -0.033
REMARK SMILES [NH3+][C@H](CO)C(=O)[O-]
REMARK SMILES IDX 3 1 2 2 1 3 5 7 6 8 7 9 4 10
REMARK H PARENT 1 4 1 5 1 6 4 11
REMARK Flexibility Score: inf
ROOT
ATOM      1  C   UNL     1     155.747 165.232 231.937  1.00  0.00     0.227 C 
ENDROOT
BRANCH   1   2
ATOM      2  C   UNL     1     156.924 166.072 231.409  1.00  0.00     0.253 C 
BRANCH   2   3
ATOM      3  N   UNL     1     156.456 167.063 230.434  1.00  0.00    -0.348 N 
ATOM      4  H   UNL     1     156.800 168.014 230.704  1.00  0.00     0.345 HD
ATOM      5  H   UNL     1     156.806 166.833 229.474  1.00  0.00     0.345 HD
ATOM      6  H   UNL     1     155.411 167.084 230.422  1.00  0.00     0.345 HD
ENDBRANCH   2   3
BRANCH   2   7
ATOM      7  C   UNL     1     157.636 166.756 232.547  1.00  0.00     0.102 C 
ATOM      8  O   UNL     1     157.064 167.676 233.189  1.00  0.00    -0.544 OA
ATOM      9  O   UNL     1     158.931 166.385 232.889  1.00  0.00    -0.544 OA
ENDBRANCH   2   7
ENDBRANCH   1   2
BRANCH   1  10
ATOM     10  O   UNL     1     154.524 165.745 231.480  1.00  0.00    -0.390 OA
ATOM     11  H   UNL     1     154.736 166.567 230.965  1.00  0.00     0.210 HD
ENDBRANCH   1  10
TORSDOF 4
ENDMDL
MODEL 2
REMARK VINA RESULT:    -4.052     15.181     15.801
REMARK INTER + INTRA:          -4.795
REMARK INTER:                  -4.763
REMARK INTRA:                  -0.033
REMARK UNBOUND:                -0.033
REMARK SMILES [NH3+][C@H](CO)C(=O)[O-]
REMARK SMILES IDX 3 1 2 2 1 3 5 7 6 8 7 9 4 10
REMARK H PARENT 1 4 1 5 1 6 4 11
REMARK Flexibility Score: inf
ROOT
ATOM      1  C   UNL     1     162.225 152.754 231.954  1.00  0.00     0.227 C 
ENDROOT
BRANCH   1   2
ATOM      2  C   UNL     1     161.058 151.916 231.400  1.00  0.00     0.253 C 
BRANCH   2   3
ATOM      3  N   UNL     1     161.543 150.938 230.420  1.00  0.00    -0.348 N 
ATOM      4  H   UNL     1     160.796 150.746 229.713  1.00  0.00     0.345 HD
ATOM      5  H   UNL     1     162.394 151.298 229.927  1.00  0.00     0.345 HD
ATOM      6  H   UNL     1     161.777 150.040 230.901  1.00  0.00     0.345 HD
ENDBRANCH   2   3
BRANCH   2   7
ATOM      7  C   UNL     1     160.332 151.217 232.519  1.00  0.00     0.102 C 
ATOM      8  O   UNL     1     160.906 150.306 233.173  1.00  0.00    -0.544 OA
ATOM      9  O   UNL     1     159.024 151.564 232.832  1.00  0.00    -0.544 OA
ENDBRANCH   2   7
ENDBRANCH   1   2
BRANCH   1  10
ATOM     10  O   UNL     1     163.455 152.257 231.498  1.00  0.00    -0.390 OA
ATOM     11  H   UNL     1     163.251 151.640 230.748  1.00  0.00     0.210 HD
ENDBRANCH   1  10
TORSDOF 4
ENDMDL
MODEL 3
REMARK VINA RESULT:    -4.019     14.197     14.665
REMARK INTER + INTRA:          -4.757
REMARK INTER:                  -4.743
REMARK INTRA:                  -0.014
REMARK UNBOUND:                -0.033
REMARK SMILES [NH3+][C@H](CO)C(=O)[O-]
REMARK SMILES IDX 3 1 2 2 1 3 5 7 6 8 7 9 4 10
REMARK H PARENT 1 4 1 5 1 6 4 11
REMARK Flexibility Score: inf
ROOT
ATOM      1  C   UNL     1     160.972 151.579 230.998  1.00  0.00     0.227 C 
ENDROOT
BRANCH   1   2
ATOM      2  C   UNL     1     161.912 152.334 231.954  1.00  0.00     0.253 C 
BRANCH   2   3
ATOM      3  N   UNL     1     163.298 152.269 231.476  1.00  0.00    -0.348 N 
ATOM      4  H   UNL     1     163.792 153.163 231.702  1.00  0.00     0.345 HD
ATOM      5  H   UNL     1     163.808 151.474 231.927  1.00  0.00     0.345 HD
ATOM      6  H   UNL     1     163.310 152.141 230.439  1.00  0.00     0.345 HD
ENDBRANCH   2   3
BRANCH   2   7
ATOM      7  C   UNL     1     161.477 153.770 232.097  1.00  0.00     0.102 C 
ATOM      8  O   UNL     1     161.705 154.595 231.173  1.00  0.00    -0.544 OA
ATOM      9  O   UNL     1     160.833 154.196 233.252  1.00  0.00    -0.544 OA
ENDBRANCH   2   7
ENDBRANCH   1   2
BRANCH   1  10
ATOM     10  O   UNL     1     161.704 150.778 230.109  1.00  0.00    -0.390 OA
ATOM     11  H   UNL     1     162.661 150.893 230.346  1.00  0.00     0.210 HD
ENDBRANCH   1  10
TORSDOF 4
ENDMDL
MODEL 4
REMARK VINA RESULT:    -4.004      2.310      2.882
REMARK INTER + INTRA:          -4.739
REMARK INTER:                  -4.725
REMARK INTRA:                  -0.014
REMARK UNBOUND:                -0.033
REMARK SMILES [NH3+][C@H](CO)C(=O)[O-]
REMARK SMILES IDX 3 1 2 2 1 3 5 7 6 8 7 9 4 10
REMARK H PARENT 1 4 1 5 1 6 4 11
REMARK Flexibility Score: inf
ROOT
ATOM      1  C   UNL     1     157.014 166.426 230.938  1.00  0.00     0.227 C 
ENDROOT
BRANCH   1   2
ATOM      2  C   UNL     1     156.085 165.731 231.949  1.00  0.00     0.253 C 
BRANCH   2   3
ATOM      3  N   UNL     1     154.687 165.819 231.512  1.00  0.00    -0.348 N 
ATOM      4  H   UNL     1     154.586 166.583 230.805  1.00  0.00     0.345 HD
ATOM      5  H   UNL     1     154.374 164.915 231.086  1.00  0.00     0.345 HD
ATOM      6  H   UNL     1     154.074 166.045 232.328  1.00  0.00     0.345 HD
ENDBRANCH   2   3
BRANCH   2   7
ATOM      7  C   UNL     1     156.485 164.290 232.129  1.00  0.00     0.102 C 
ATOM      8  O   UNL     1     156.257 163.451 231.218  1.00  0.00    -0.544 OA
ATOM      9  O   UNL     1     157.098 163.874 233.305  1.00  0.00    -0.544 OA
ENDBRANCH   2   7
ENDBRANCH   1   2
BRANCH   1  10
ATOM     10  O   UNL     1     156.280 167.248 230.070  1.00  0.00    -0.390 OA
ATOM     11  H   UNL     1     156.376 166.859 229.162  1.00  0.00     0.210 HD
ENDBRANCH   1  10
TORSDOF 4
ENDMDL
MODEL 5
REMARK VINA RESULT:    -3.959     14.809     15.350
REMARK INTER + INTRA:          -4.686
REMARK INTER:                  -4.306
REMARK INTRA:                  -0.380
REMARK UNBOUND:                -0.033
REMARK SMILES [NH3+][C@H](CO)C(=O)[O-]
REMARK SMILES IDX 3 1 2 2 1 3 5 7 6 8 7 9 4 10
REMARK H PARENT 1 4 1 5 1 6 4 11
REMARK Flexibility Score: inf
ROOT
ATOM      1  C   UNL     1     160.514 151.216 230.606  1.00  0.00     0.227 C 
ENDROOT
BRANCH   1   2
ATOM      2  C   UNL     1     159.849 151.807 231.863  1.00  0.00     0.253 C 
BRANCH   2   3
ATOM      3  N   UNL     1     158.951 150.826 232.482  1.00  0.00    -0.348 N 
ATOM      4  H   UNL     1     159.474 150.270 233.196  1.00  0.00     0.345 HD
ATOM      5  H   UNL     1     158.143 151.305 232.946  1.00  0.00     0.345 HD
ATOM      6  H   UNL     1     158.589 150.168 231.755  1.00  0.00     0.345 HD
ENDBRANCH   2   3
BRANCH   2   7
ATOM      7  C   UNL     1     160.894 152.254 232.852  1.00  0.00     0.102 C 
ATOM      8  O   UNL     1     161.149 151.550 233.864  1.00  0.00    -0.544 OA
ATOM      9  O   UNL     1     161.576 153.449 232.659  1.00  0.00    -0.544 OA
ENDBRANCH   2   7
ENDBRANCH   1   2
BRANCH   1  10
ATOM     10  O   UNL     1     161.900 151.096 230.786  1.00  0.00    -0.390 OA
ATOM     11  H   UNL     1     162.252 150.636 229.979  1.00  0.00     0.210 HD
ENDBRANCH   1  10
TORSDOF 4
ENDMDL
MODEL 6
REMARK VINA RESULT:    -3.911      2.011      2.402
REMARK INTER + INTRA:          -4.630
REMARK INTER:                  -4.256
REMARK INTRA:                  -0.373
REMARK UNBOUND:                -0.033
REMARK SMILES [NH3+][C@H](CO)C(=O)[O-]
REMARK SMILES IDX 3 1 2 2 1 3 5 7 6 8 7 9 4 10
REMARK H PARENT 1 4 1 5 1 6 4 11
REMARK Flexibility Score: inf
ROOT
ATOM      1  C   UNL     1     157.387 166.789 230.648  1.00  0.00     0.227 C 
ENDROOT
BRANCH   1   2
ATOM      2  C   UNL     1     158.147 166.191 231.846  1.00  0.00     0.253 C 
BRANCH   2   3
ATOM      3  N   UNL     1     159.029 167.196 232.451  1.00  0.00    -0.348 N 
ATOM      4  H   UNL     1     159.170 166.976 233.464  1.00  0.00     0.345 HD
ATOM      5  H   UNL     1     159.960 167.209 231.972  1.00  0.00     0.345 HD
ATOM      6  H   UNL     1     158.591 168.142 232.379  1.00  0.00     0.345 HD
ENDBRANCH   2   3
BRANCH   2   7
ATOM      7  C   UNL     1     157.181 165.659 232.872  1.00  0.00     0.102 C 
ATOM      8  O   UNL     1     156.636 164.537 232.705  1.00  0.00    -0.544 OA
ATOM      9  O   UNL     1     156.877 166.407 234.003  1.00  0.00    -0.544 OA
ENDBRANCH   2   7
ENDBRANCH   1   2
BRANCH   1  10
ATOM     10  O   UNL     1     156.025 166.943 230.949  1.00  0.00    -0.390 OA
ATOM     11  H   UNL     1     155.528 166.352 230.325  1.00  0.00     0.210 HD
ENDBRANCH   1  10
TORSDOF 4
ENDMDL
MODEL 7
REMARK VINA RESULT:    -3.900     14.578     14.992
REMARK INTER + INTRA:          -4.616
REMARK INTER:                  -4.392
REMARK INTRA:                  -0.225
REMARK UNBOUND:                -0.033
REMARK SMILES [NH3+][C@H](CO)C(=O)[O-]
REMARK SMILES IDX 3 1 2 2 1 3 5 7 6 8 7 9 4 10
REMARK H PARENT 1 4 1 5 1 6 4 11
REMARK Flexibility Score: inf
ROOT
ATOM      1  C   UNL     1     160.286 150.970 232.485  1.00  0.00     0.227 C 
ENDROOT
BRANCH   1   2
ATOM      2  C   UNL     1     161.408 151.633 231.665  1.00  0.00     0.253 C 
BRANCH   2   3
ATOM      3  N   UNL     1     161.600 150.932 230.390  1.00  0.00    -0.348 N 
ATOM      4  H   UNL     1     160.671 150.729 229.955  1.00  0.00     0.345 HD
ATOM      5  H   UNL     1     162.167 151.513 229.729  1.00  0.00     0.345 HD
ATOM      6  H   UNL     1     162.090 150.023 230.556  1.00  0.00     0.345 HD
ENDBRANCH   2   3
BRANCH   2   7
ATOM      7  C   UNL     1     161.093 153.086 231.418  1.00  0.00     0.102 C 
ATOM      8  O   UNL     1     162.024 153.932 231.351  1.00  0.00    -0.544 OA
ATOM      9  O   UNL     1     159.776 153.503 231.274  1.00  0.00    -0.544 OA
ENDBRANCH   2   7
ENDBRANCH   1   2
BRANCH   1  10
ATOM     10  O   UNL     1     159.163 150.721 231.682  1.00  0.00    -0.390 OA
ATOM     11  H   UNL     1     159.178 149.752 231.466  1.00  0.00     0.210 HD
ENDBRANCH   1  10
TORSDOF 4
ENDMDL
MODEL 8
REMARK VINA RESULT:    -3.856      1.537      3.081
REMARK INTER + INTRA:          -4.565
REMARK INTER:                  -4.339
REMARK INTRA:                  -0.226
REMARK UNBOUND:                -0.033
REMARK SMILES [NH3+][C@H](CO)C(=O)[O-]
REMARK SMILES IDX 3 1 2 2 1 3 5 7 6 8 7 9 4 10
REMARK H PARENT 1 4 1 5 1 6 4 11
REMARK Flexibility Score: inf
ROOT
ATOM      1  C   UNL     1     157.741 166.920 232.558  1.00  0.00     0.227 C 
ENDROOT
BRANCH   1   2
ATOM      2  C   UNL     1     156.619 166.262 231.735  1.00  0.00     0.253 C 
BRANCH   2   3
ATOM      3  N   UNL     1     156.390 167.001 230.488  1.00  0.00    -0.348 N 
ATOM      4  H   UNL     1     155.537 167.599 230.584  1.00  0.00     0.345 HD
ATOM      5  H   UNL     1     157.211 167.611 230.263  1.00  0.00     0.345 HD
ATOM      6  H   UNL     1     156.233 166.331 229.702  1.00  0.00     0.345 HD
ENDBRANCH   2   3
BRANCH   2   7
ATOM      7  C   UNL     1     156.958 164.825 231.434  1.00  0.00     0.102 C 
ATOM      8  O   UNL     1     158.154 164.487 231.228  1.00  0.00    -0.544 OA
ATOM      9  O   UNL     1     155.955 163.866 231.371  1.00  0.00    -0.544 OA
ENDBRANCH   2   7
ENDBRANCH   1   2
BRANCH   1  10
ATOM     10  O   UNL     1     158.817 167.282 231.733  1.00  0.00    -0.390 OA
ATOM     11  H   UNL     1     159.113 168.181 232.032  1.00  0.00     0.210 HD
ENDBRANCH   1  10
TORSDOF 4
ENDMDL
MODEL 9
REMARK VINA RESULT:    -3.757     14.410     14.947
REMARK INTER + INTRA:          -4.448
REMARK INTER:                  -4.255
REMARK INTRA:                  -0.193
REMARK UNBOUND:                -0.033
REMARK SMILES [NH3+][C@H](CO)C(=O)[O-]
REMARK SMILES IDX 3 1 2 2 1 3 5 7 6 8 7 9 4 10
REMARK H PARENT 1 4 1 5 1 6 4 11
REMARK Flexibility Score: inf
ROOT
ATOM      1  C   UNL     1     161.191 151.054 231.785  1.00  0.00     0.227 C 
ENDROOT
BRANCH   1   2
ATOM      2  C   UNL     1     159.725 151.502 231.651  1.00  0.00     0.253 C 
BRANCH   2   3
ATOM      3  N   UNL     1     158.886 150.831 232.650  1.00  0.00    -0.348 N 
ATOM      4  H   UNL     1     159.374 150.825 233.575  1.00  0.00     0.345 HD
ATOM      5  H   UNL     1     157.966 151.321 232.752  1.00  0.00     0.345 HD
ATOM      6  H   UNL     1     158.717 149.840 232.364  1.00  0.00     0.345 HD
ENDBRANCH   2   3
BRANCH   2   7
ATOM      7  C   UNL     1     159.614 152.997 231.796  1.00  0.00     0.102 C 
ATOM      8  O   UNL     1     160.435 153.752 231.212  1.00  0.00    -0.544 OA
ATOM      9  O   UNL     1     158.613 153.553 232.583  1.00  0.00    -0.544 OA
ENDBRANCH   2   7
ENDBRANCH   1   2
BRANCH   1  10
ATOM     10  O   UNL     1     161.820 151.025 230.531  1.00  0.00    -0.390 OA
ATOM     11  H   UNL     1     162.236 151.917 230.402  1.00  0.00     0.210 HD
ENDBRANCH   1  10
TORSDOF 4
ENDMDL
