MODEL 1
REMARK VINA RESULT:    -5.212      0.000      0.000
REMARK INTER + INTRA:          -8.248
REMARK INTER:                  -7.040
REMARK INTRA:                  -1.208
REMARK UNBOUND:                -1.208
REMARK SMILES O=c1c(-c2ccc(O)cc2)coc2c([C@@H]3O[C@@H](CO)[C@@H](O)[C@H](O)[C@@H]3O)c(O)ccc12
REMARK SMILES IDX 3 1 11 2 12 3 13 4 30 5 2 6 1 7 29 8 28 9 26 10 14 11 4 12
REMARK SMILES IDX 5 13 6 14 7 15 10 16 9 17 8 18 15 20 24 21 16 22 22 23 17 24
REMARK SMILES IDX 20 25 25 26 23 28 18 30 19 31 21 33 27 35
REMARK H PARENT 8 19 25 27 23 29 19 32 21 34 27 36
REMARK Flexibility Score: inf
ROOT
ATOM      1  C   UNL     1      62.119  -6.872  -0.903  1.00  0.00     0.065 A 
ATOM      2  C   UNL     1      62.170  -7.852   0.098  1.00  0.00     0.208 A 
ATOM      3  O   UNL     1      61.857  -7.562   1.354  1.00  0.00    -0.463 OA
ATOM      4  C   UNL     1      61.480  -6.347   1.748  1.00  0.00     0.147 A 
ATOM      5  C   UNL     1      61.402  -5.298   0.804  1.00  0.00     0.066 A 
ATOM      6  C   UNL     1      61.718  -5.573  -0.538  1.00  0.00     0.200 A 
ATOM      7  O   UNL     1      61.625  -4.669  -1.414  1.00  0.00    -0.288 OA
ATOM      8  C   UNL     1      61.015  -4.016   1.224  1.00  0.00     0.020 A 
ATOM      9  C   UNL     1      60.727  -3.774   2.565  1.00  0.00     0.047 A 
ATOM     10  C   UNL     1      60.806  -4.804   3.510  1.00  0.00     0.125 A 
ATOM     11  C   UNL     1      61.162  -6.112   3.106  1.00  0.00     0.069 A 
ENDROOT
BRANCH   1  12
ATOM     12  C   UNL     1      62.481  -7.220  -2.300  1.00  0.00    -0.011 A 
ATOM     13  C   UNL     1      61.523  -7.784  -3.161  1.00  0.00     0.013 A 
ATOM     14  C   UNL     1      61.862  -8.123  -4.475  1.00  0.00     0.047 A 
ATOM     15  C   UNL     1      63.165  -7.907  -4.942  1.00  0.00     0.115 A 
ATOM     16  C   UNL     1      63.788  -7.014  -2.775  1.00  0.00     0.013 A 
ATOM     17  C   UNL     1      64.125  -7.354  -4.089  1.00  0.00     0.047 A 
BRANCH  15  18
ATOM     18  O   UNL     1      63.516  -8.241  -6.248  1.00  0.00    -0.508 OA
ATOM     19  H   UNL     1      62.813  -8.410  -6.957  1.00  0.00     0.293 HD
ENDBRANCH  15  18
ENDBRANCH   1  12
BRANCH  11  20
ATOM     20  C   UNL     1      61.278  -7.242   4.120  1.00  0.00     0.188 C 
ATOM     21  C   UNL     1      62.674  -7.224   4.791  1.00  0.00     0.179 C 
ATOM     22  O   UNL     1      60.179  -7.198   5.030  1.00  0.00    -0.362 OA
ATOM     23  C   UNL     1      62.820  -8.439   5.743  1.00  0.00     0.177 C 
ATOM     24  C   UNL     1      60.464  -7.686   6.337  1.00  0.00     0.176 C 
ATOM     25  C   UNL     1      61.460  -8.876   6.340  1.00  0.00     0.177 C 
BRANCH  21  26
ATOM     26  O   UNL     1      62.849  -6.015   5.489  1.00  0.00    -0.387 OA
ATOM     27  H   UNL     1      61.952  -5.725   5.801  1.00  0.00     0.211 HD
ENDBRANCH  21  26
BRANCH  23  28
ATOM     28  O   UNL     1      63.719  -8.146   6.783  1.00  0.00    -0.387 OA
ATOM     29  H   UNL     1      64.618  -8.062   6.370  1.00  0.00     0.211 HD
ENDBRANCH  23  28
BRANCH  24  30
ATOM     30  C   UNL     1      59.138  -8.051   7.016  1.00  0.00     0.191 C 
BRANCH  30  31
ATOM     31  O   UNL     1      59.312  -9.153   7.865  1.00  0.00    -0.394 OA
ATOM     32  H   UNL     1      58.919  -9.930   7.389  1.00  0.00     0.210 HD
ENDBRANCH  30  31
ENDBRANCH  24  30
BRANCH  25  33
ATOM     33  O   UNL     1      60.939  -9.940   5.581  1.00  0.00    -0.388 OA
ATOM     34  H   UNL     1      60.880 -10.729   6.180  1.00  0.00     0.211 HD
ENDBRANCH  25  33
ENDBRANCH  11  20
BRANCH  10  35
ATOM     35  O   UNL     1      60.537  -4.524   4.850  1.00  0.00    -0.507 OA
ATOM     36  H   UNL     1      59.882  -5.078   5.389  1.00  0.00     0.293 HD
ENDBRANCH  10  35
TORSDOF 9
ENDMDL
MODEL 2
REMARK VINA RESULT:    -4.527      1.257      2.279
REMARK INTER + INTRA:          -7.323
REMARK INTER:                  -7.464
REMARK INTRA:                   0.141
REMARK UNBOUND:                -1.208
REMARK SMILES O=c1c(-c2ccc(O)cc2)coc2c([C@@H]3O[C@@H](CO)[C@@H](O)[C@H](O)[C@@H]3O)c(O)ccc12
REMARK SMILES IDX 3 1 11 2 12 3 13 4 30 5 2 6 1 7 29 8 28 9 26 10 14 11 4 12
REMARK SMILES IDX 5 13 6 14 7 15 10 16 9 17 8 18 15 20 24 21 16 22 22 23 17 24
REMARK SMILES IDX 20 25 25 26 23 28 18 30 19 31 21 33 27 35
REMARK H PARENT 8 19 25 27 23 29 19 32 21 34 27 36
REMARK Flexibility Score: inf
ROOT
ATOM      1  C   UNL     1      62.084  -7.389  -0.811  1.00  0.00     0.065 A 
ATOM      2  C   UNL     1      62.286  -8.063   0.401  1.00  0.00     0.208 A 
ATOM      3  O   UNL     1      62.013  -7.478   1.560  1.00  0.00    -0.463 OA
ATOM      4  C   UNL     1      61.538  -6.237   1.656  1.00  0.00     0.147 A 
ATOM      5  C   UNL     1      61.305  -5.485   0.482  1.00  0.00     0.066 A 
ATOM      6  C   UNL     1      61.575  -6.078  -0.764  1.00  0.00     0.200 A 
ATOM      7  O   UNL     1      61.346  -5.447  -1.834  1.00  0.00    -0.288 OA
ATOM      8  C   UNL     1      60.815  -4.173   0.585  1.00  0.00     0.020 A 
ATOM      9  C   UNL     1      60.576  -3.611   1.837  1.00  0.00     0.047 A 
ATOM     10  C   UNL     1      60.808  -4.345   3.006  1.00  0.00     0.125 A 
ATOM     11  C   UNL     1      61.270  -5.679   2.928  1.00  0.00     0.069 A 
ENDROOT
BRANCH   1  12
ATOM     12  C   UNL     1      62.404  -8.063  -2.095  1.00  0.00    -0.011 A 
ATOM     13  C   UNL     1      61.373  -8.552  -2.916  1.00  0.00     0.013 A 
ATOM     14  C   UNL     1      61.670  -9.196  -4.120  1.00  0.00     0.047 A 
ATOM     15  C   UNL     1      63.003  -9.364  -4.517  1.00  0.00     0.115 A 
ATOM     16  C   UNL     1      63.740  -8.242  -2.498  1.00  0.00     0.013 A 
ATOM     17  C   UNL     1      64.035  -8.886  -3.703  1.00  0.00     0.047 A 
BRANCH  15  18
ATOM     18  O   UNL     1      63.313 -10.005  -5.715  1.00  0.00    -0.508 OA
ATOM     19  H   UNL     1      64.123 -10.607  -5.798  1.00  0.00     0.293 HD
ENDBRANCH  15  18
ENDBRANCH   1  12
BRANCH  11  20
ATOM     20  C   UNL     1      61.553  -6.487   4.187  1.00  0.00     0.188 C 
ATOM     21  C   UNL     1      60.237  -6.766   4.955  1.00  0.00     0.179 C 
ATOM     22  O   UNL     1      62.312  -7.652   3.862  1.00  0.00    -0.362 OA
ATOM     23  C   UNL     1      60.547  -7.498   6.287  1.00  0.00     0.177 C 
ATOM     24  C   UNL     1      62.083  -8.772   4.710  1.00  0.00     0.176 C 
ATOM     25  C   UNL     1      61.819  -8.374   6.187  1.00  0.00     0.177 C 
BRANCH  21  26
ATOM     26  O   UNL     1      59.372  -7.532   4.152  1.00  0.00    -0.387 OA
ATOM     27  H   UNL     1      59.160  -8.360   4.656  1.00  0.00     0.211 HD
ENDBRANCH  21  26
BRANCH  23  28
ATOM     28  O   UNL     1      59.456  -8.293   6.679  1.00  0.00    -0.387 OA
ATOM     29  H   UNL     1      59.825  -9.042   7.215  1.00  0.00     0.211 HD
ENDBRANCH  23  28
BRANCH  24  30
ATOM     30  C   UNL     1      63.277  -9.726   4.582  1.00  0.00     0.191 C 
BRANCH  30  31
ATOM     31  O   UNL     1      64.125  -9.309   3.546  1.00  0.00    -0.394 OA
ATOM     32  H   UNL     1      64.824  -8.749   3.972  1.00  0.00     0.210 HD
ENDBRANCH  30  31
ENDBRANCH  24  30
BRANCH  25  33
ATOM     33  O   UNL     1      62.918  -7.658   6.696  1.00  0.00    -0.388 OA
ATOM     34  H   UNL     1      62.713  -7.435   7.640  1.00  0.00     0.211 HD
ENDBRANCH  25  33
ENDBRANCH  11  20
BRANCH  10  35
ATOM     35  O   UNL     1      60.583  -3.744   4.246  1.00  0.00    -0.507 OA
ATOM     36  H   UNL     1      59.851  -4.065   4.868  1.00  0.00     0.293 HD
ENDBRANCH  10  35
TORSDOF 9
ENDMDL
MODEL 3
REMARK VINA RESULT:    -4.111      1.676      7.947
REMARK INTER + INTRA:          -6.761
REMARK INTER:                  -7.332
REMARK INTRA:                   0.571
REMARK UNBOUND:                -1.208
REMARK SMILES O=c1c(-c2ccc(O)cc2)coc2c([C@@H]3O[C@@H](CO)[C@@H](O)[C@H](O)[C@@H]3O)c(O)ccc12
REMARK SMILES IDX 3 1 11 2 12 3 13 4 30 5 2 6 1 7 29 8 28 9 26 10 14 11 4 12
REMARK SMILES IDX 5 13 6 14 7 15 10 16 9 17 8 18 15 20 24 21 16 22 22 23 17 24
REMARK SMILES IDX 20 25 25 26 23 28 18 30 19 31 21 33 27 35
REMARK H PARENT 8 19 25 27 23 29 19 32 21 34 27 36
REMARK Flexibility Score: inf
ROOT
ATOM      1  C   UNL     1      61.617  -7.151   3.511  1.00  0.00     0.065 A 
ATOM      2  C   UNL     1      61.935  -8.005   2.445  1.00  0.00     0.208 A 
ATOM      3  O   UNL     1      61.883  -7.578   1.190  1.00  0.00    -0.463 OA
ATOM      4  C   UNL     1      61.534  -6.337   0.857  1.00  0.00     0.147 A 
ATOM      5  C   UNL     1      61.197  -5.409   1.869  1.00  0.00     0.066 A 
ATOM      6  C   UNL     1      61.250  -5.826   3.211  1.00  0.00     0.200 A 
ATOM      7  O   UNL     1      60.989  -5.014   4.142  1.00  0.00    -0.288 OA
ATOM      8  C   UNL     1      60.818  -4.105   1.515  1.00  0.00     0.020 A 
ATOM      9  C   UNL     1      60.759  -3.731   0.174  1.00  0.00     0.047 A 
ATOM     10  C   UNL     1      61.086  -4.643  -0.836  1.00  0.00     0.125 A 
ATOM     11  C   UNL     1      61.502  -5.953  -0.504  1.00  0.00     0.069 A 
ENDROOT
BRANCH   1  12
ATOM     12  C   UNL     1      61.675  -7.655   4.906  1.00  0.00    -0.011 A 
ATOM     13  C   UNL     1      62.914  -7.801   5.556  1.00  0.00     0.013 A 
ATOM     14  C   UNL     1      62.974  -8.285   6.866  1.00  0.00     0.047 A 
ATOM     15  C   UNL     1      61.797  -8.633   7.542  1.00  0.00     0.115 A 
ATOM     16  C   UNL     1      60.499  -8.013   5.589  1.00  0.00     0.013 A 
ATOM     17  C   UNL     1      60.562  -8.497   6.900  1.00  0.00     0.047 A 
BRANCH  15  18
ATOM     18  O   UNL     1      61.843  -9.117   8.847  1.00  0.00    -0.508 OA
ATOM     19  H   UNL     1      61.049  -9.587   9.265  1.00  0.00     0.293 HD
ENDBRANCH  15  18
ENDBRANCH   1  12
BRANCH  11  20
ATOM     20  C   UNL     1      61.838  -6.968  -1.588  1.00  0.00     0.188 C 
ATOM     21  C   UNL     1      62.466  -6.260  -2.814  1.00  0.00     0.179 C 
ATOM     22  O   UNL     1      62.626  -8.025  -1.041  1.00  0.00    -0.362 OA
ATOM     23  C   UNL     1      62.708  -7.286  -3.951  1.00  0.00     0.177 C 
ATOM     24  C   UNL     1      63.536  -8.628  -1.956  1.00  0.00     0.176 C 
ATOM     25  C   UNL     1      62.982  -8.708  -3.403  1.00  0.00     0.177 C 
BRANCH  21  26
ATOM     26  O   UNL     1      63.670  -5.637  -2.436  1.00  0.00    -0.387 OA
ATOM     27  H   UNL     1      63.925  -5.022  -3.173  1.00  0.00     0.211 HD
ENDBRANCH  21  26
BRANCH  23  28
ATOM     28  O   UNL     1      63.781  -6.879  -4.764  1.00  0.00    -0.387 OA
ATOM     29  H   UNL     1      64.607  -6.988  -4.225  1.00  0.00     0.211 HD
ENDBRANCH  23  28
BRANCH  24  30
ATOM     30  C   UNL     1      63.917 -10.012  -1.415  1.00  0.00     0.191 C 
BRANCH  30  31
ATOM     31  O   UNL     1      63.555 -10.125  -0.066  1.00  0.00    -0.394 OA
ATOM     32  H   UNL     1      63.247  -9.223   0.212  1.00  0.00     0.210 HD
ENDBRANCH  30  31
ENDBRANCH  24  30
BRANCH  25  33
ATOM     33  O   UNL     1      61.788  -9.451  -3.421  1.00  0.00    -0.388 OA
ATOM     34  H   UNL     1      61.148  -8.967  -4.004  1.00  0.00     0.211 HD
ENDBRANCH  25  33
ENDBRANCH  11  20
BRANCH  10  35
ATOM     35  O   UNL     1      60.991  -4.246  -2.171  1.00  0.00    -0.507 OA
ATOM     36  H   UNL     1      60.130  -4.345  -2.696  1.00  0.00     0.293 HD
ENDBRANCH  10  35
TORSDOF 9
ENDMDL
MODEL 4
REMARK VINA RESULT:    -3.393      2.173      8.509
REMARK INTER + INTRA:          -5.791
REMARK INTER:                  -6.690
REMARK INTRA:                   0.898
REMARK UNBOUND:                -1.208
REMARK SMILES O=c1c(-c2ccc(O)cc2)coc2c([C@@H]3O[C@@H](CO)[C@@H](O)[C@H](O)[C@@H]3O)c(O)ccc12
REMARK SMILES IDX 3 1 11 2 12 3 13 4 30 5 2 6 1 7 29 8 28 9 26 10 14 11 4 12
REMARK SMILES IDX 5 13 6 14 7 15 10 16 9 17 8 18 15 20 24 21 16 22 22 23 17 24
REMARK SMILES IDX 20 25 25 26 23 28 18 30 19 31 21 33 27 35
REMARK H PARENT 8 19 25 27 23 29 19 32 21 34 27 36
REMARK Flexibility Score: inf
ROOT
ATOM      1  C   UNL     1      61.378  -7.946   4.652  1.00  0.00     0.065 A 
ATOM      2  C   UNL     1      61.073  -6.958   3.706  1.00  0.00     0.208 A 
ATOM      3  O   UNL     1      61.535  -7.036   2.465  1.00  0.00    -0.463 OA
ATOM      4  C   UNL     1      62.305  -8.035   2.036  1.00  0.00     0.147 A 
ATOM      5  C   UNL     1      62.663  -9.074   2.925  1.00  0.00     0.066 A 
ATOM      6  C   UNL     1      62.183  -9.027   4.246  1.00  0.00     0.200 A 
ATOM      7  O   UNL     1      62.453  -9.956   5.057  1.00  0.00    -0.288 OA
ATOM      8  C   UNL     1      63.484 -10.120   2.474  1.00  0.00     0.020 A 
ATOM      9  C   UNL     1      63.956 -10.125   1.164  1.00  0.00     0.047 A 
ATOM     10  C   UNL     1      63.613  -9.098   0.276  1.00  0.00     0.125 A 
ATOM     11  C   UNL     1      62.761  -8.051   0.697  1.00  0.00     0.069 A 
ENDROOT
BRANCH   1  12
ATOM     12  C   UNL     1      60.855  -7.832   6.037  1.00  0.00    -0.011 A 
ATOM     13  C   UNL     1      61.455  -8.555   7.083  1.00  0.00     0.013 A 
ATOM     14  C   UNL     1      60.958  -8.459   8.387  1.00  0.00     0.047 A 
ATOM     15  C   UNL     1      59.853  -7.643   8.660  1.00  0.00     0.115 A 
ATOM     16  C   UNL     1      59.741  -7.021   6.319  1.00  0.00     0.013 A 
ATOM     17  C   UNL     1      59.247  -6.927   7.624  1.00  0.00     0.047 A 
BRANCH  15  18
ATOM     18  O   UNL     1      59.348  -7.539   9.954  1.00  0.00    -0.508 OA
ATOM     19  H   UNL     1      59.853  -7.912  10.749  1.00  0.00     0.293 HD
ENDBRANCH  15  18
ENDBRANCH   1  12
BRANCH  11  20
ATOM     20  C   UNL     1      62.394  -6.912  -0.244  1.00  0.00     0.188 C 
ATOM     21  C   UNL     1      61.724  -7.465  -1.526  1.00  0.00     0.179 C 
ATOM     22  O   UNL     1      61.629  -5.928   0.452  1.00  0.00    -0.362 OA
ATOM     23  C   UNL     1      61.451  -6.309  -2.522  1.00  0.00     0.177 C 
ATOM     24  C   UNL     1      60.693  -5.218  -0.353  1.00  0.00     0.176 C 
ATOM     25  C   UNL     1      61.200  -4.964  -1.797  1.00  0.00     0.177 C 
BRANCH  21  26
ATOM     26  O   UNL     1      60.531  -8.129  -1.188  1.00  0.00    -0.387 OA
ATOM     27  H   UNL     1      60.479  -8.944  -1.754  1.00  0.00     0.211 HD
ENDBRANCH  21  26
BRANCH  23  28
ATOM     28  O   UNL     1      60.351  -6.614  -3.343  1.00  0.00    -0.387 OA
ATOM     29  H   UNL     1      60.007  -7.496  -3.046  1.00  0.00     0.211 HD
ENDBRANCH  23  28
BRANCH  24  30
ATOM     30  C   UNL     1      60.335  -3.910   0.364  1.00  0.00     0.191 C 
BRANCH  30  31
ATOM     31  O   UNL     1      61.411  -3.475   1.149  1.00  0.00    -0.394 OA
ATOM     32  H   UNL     1      62.038  -3.020   0.529  1.00  0.00     0.210 HD
ENDBRANCH  30  31
ENDBRANCH  24  30
BRANCH  25  33
ATOM     33  O   UNL     1      62.397  -4.224  -1.763  1.00  0.00    -0.388 OA
ATOM     34  H   UNL     1      62.160  -3.273  -1.914  1.00  0.00     0.211 HD
ENDBRANCH  25  33
ENDBRANCH  11  20
BRANCH  10  35
ATOM     35  O   UNL     1      64.125  -9.118  -1.022  1.00  0.00    -0.507 OA
ATOM     36  H   UNL     1      64.803  -9.810  -1.316  1.00  0.00     0.293 HD
ENDBRANCH  10  35
TORSDOF 9
ENDMDL
MODEL 5
REMARK VINA RESULT:    -3.146     13.153     15.407
REMARK INTER + INTRA:          -5.458
REMARK INTER:                  -5.241
REMARK INTRA:                  -0.217
REMARK UNBOUND:                -1.208
REMARK SMILES O=c1c(-c2ccc(O)cc2)coc2c([C@@H]3O[C@@H](CO)[C@@H](O)[C@H](O)[C@@H]3O)c(O)ccc12
REMARK SMILES IDX 3 1 11 2 12 3 13 4 30 5 2 6 1 7 29 8 28 9 26 10 14 11 4 12
REMARK SMILES IDX 5 13 6 14 7 15 10 16 9 17 8 18 15 20 24 21 16 22 22 23 17 24
REMARK SMILES IDX 20 25 25 26 23 28 18 30 19 31 21 33 27 35
REMARK H PARENT 8 19 25 27 23 29 19 32 21 34 27 36
REMARK Flexibility Score: inf
ROOT
ATOM      1  C   UNL     1      62.233   8.194   1.416  1.00  0.00     0.065 A 
ATOM      2  C   UNL     1      61.862   8.926   2.552  1.00  0.00     0.208 A 
ATOM      3  O   UNL     1      62.149   8.487   3.770  1.00  0.00    -0.463 OA
ATOM      4  C   UNL     1      62.796   7.346   4.000  1.00  0.00     0.147 A 
ATOM      5  C   UNL     1      63.207   6.543   2.911  1.00  0.00     0.066 A 
ATOM      6  C   UNL     1      62.927   6.983   1.605  1.00  0.00     0.200 A 
ATOM      7  O   UNL     1      63.310   6.309   0.609  1.00  0.00    -0.288 OA
ATOM      8  C   UNL     1      63.879   5.335   3.155  1.00  0.00     0.020 A 
ATOM      9  C   UNL     1      64.124   4.921   4.462  1.00  0.00     0.047 A 
ATOM     10  C   UNL     1      63.716   5.705   5.548  1.00  0.00     0.125 A 
ATOM     11  C   UNL     1      63.067   6.942   5.328  1.00  0.00     0.069 A 
ENDROOT
BRANCH   1  12
ATOM     12  C   UNL     1      61.894   8.702   0.063  1.00  0.00    -0.011 A 
ATOM     13  C   UNL     1      60.572   8.631  -0.411  1.00  0.00     0.013 A 
ATOM     14  C   UNL     1      60.251   9.099  -1.688  1.00  0.00     0.047 A 
ATOM     15  C   UNL     1      61.248   9.640  -2.510  1.00  0.00     0.115 A 
ATOM     16  C   UNL     1      62.890   9.240  -0.772  1.00  0.00     0.013 A 
ATOM     17  C   UNL     1      62.566   9.708  -2.049  1.00  0.00     0.047 A 
BRANCH  15  18
ATOM     18  O   UNL     1      60.941  10.109  -3.785  1.00  0.00    -0.508 OA
ATOM     19  H   UNL     1      60.380  10.942  -3.921  1.00  0.00     0.293 HD
ENDBRANCH  15  18
ENDBRANCH   1  12
BRANCH  11  20
ATOM     20  C   UNL     1      62.594   7.798   6.494  1.00  0.00     0.188 C 
ATOM     21  C   UNL     1      61.090   8.135   6.341  1.00  0.00     0.179 C 
ATOM     22  O   UNL     1      62.943   7.177   7.731  1.00  0.00    -0.362 OA
ATOM     23  C   UNL     1      60.644   9.093   7.476  1.00  0.00     0.177 C 
ATOM     24  C   UNL     1      62.052   7.447   8.809  1.00  0.00     0.176 C 
ATOM     25  C   UNL     1      61.467   8.884   8.771  1.00  0.00     0.177 C 
BRANCH  21  26
ATOM     26  O   UNL     1      60.334   6.949   6.360  1.00  0.00    -0.387 OA
ATOM     27  H   UNL     1      59.733   6.997   7.148  1.00  0.00     0.211 HD
ENDBRANCH  21  26
BRANCH  23  28
ATOM     28  O   UNL     1      59.276   8.926   7.754  1.00  0.00    -0.387 OA
ATOM     29  H   UNL     1      59.175   8.983   8.740  1.00  0.00     0.211 HD
ENDBRANCH  23  28
BRANCH  24  30
ATOM     30  C   UNL     1      62.788   7.167  10.125  1.00  0.00     0.191 C 
BRANCH  30  31
ATOM     31  O   UNL     1      64.125   7.580  10.033  1.00  0.00    -0.394 OA
ATOM     32  H   UNL     1      64.257   7.877   9.096  1.00  0.00     0.210 HD
ENDBRANCH  30  31
ENDBRANCH  24  30
BRANCH  25  33
ATOM     33  O   UNL     1      62.508   9.829   8.818  1.00  0.00    -0.388 OA
ATOM     34  H   UNL     1      62.822   9.968   7.887  1.00  0.00     0.211 HD
ENDBRANCH  25  33
ENDBRANCH  11  20
BRANCH  10  35
ATOM     35  O   UNL     1      63.953   5.249   6.846  1.00  0.00    -0.507 OA
ATOM     36  H   UNL     1      64.873   5.297   7.268  1.00  0.00     0.293 HD
ENDBRANCH  10  35
TORSDOF 9
ENDMDL
MODEL 6
REMARK VINA RESULT:    -2.547     17.680     19.960
REMARK INTER + INTRA:          -4.649
REMARK INTER:                  -5.403
REMARK INTRA:                   0.754
REMARK UNBOUND:                -1.208
REMARK SMILES O=c1c(-c2ccc(O)cc2)coc2c([C@@H]3O[C@@H](CO)[C@@H](O)[C@H](O)[C@@H]3O)c(O)ccc12
REMARK SMILES IDX 3 1 11 2 12 3 13 4 30 5 2 6 1 7 29 8 28 9 26 10 14 11 4 12
REMARK SMILES IDX 5 13 6 14 7 15 10 16 9 17 8 18 15 20 24 21 16 22 22 23 17 24
REMARK SMILES IDX 20 25 25 26 23 28 18 30 19 31 21 33 27 35
REMARK H PARENT 8 19 25 27 23 29 19 32 21 34 27 36
REMARK Flexibility Score: inf
ROOT
ATOM      1  C   UNL     1      44.211  -5.481  -2.178  1.00  0.00     0.065 A 
ATOM      2  C   UNL     1      44.420  -4.957  -3.461  1.00  0.00     0.208 A 
ATOM      3  O   UNL     1      44.517  -5.756  -4.516  1.00  0.00    -0.463 OA
ATOM      4  C   UNL     1      44.425  -7.082  -4.436  1.00  0.00     0.147 A 
ATOM      5  C   UNL     1      44.216  -7.695  -3.179  1.00  0.00     0.066 A 
ATOM      6  C   UNL     1      44.099  -6.877  -2.042  1.00  0.00     0.200 A 
ATOM      7  O   UNL     1      43.877  -7.389  -0.909  1.00  0.00    -0.288 OA
ATOM      8  C   UNL     1      44.130  -9.094  -3.096  1.00  0.00     0.020 A 
ATOM      9  C   UNL     1      44.268  -9.874  -4.242  1.00  0.00     0.047 A 
ATOM     10  C   UNL     1      44.481  -9.278  -5.491  1.00  0.00     0.125 A 
ATOM     11  C   UNL     1      44.538  -7.870  -5.606  1.00  0.00     0.069 A 
ENDROOT
BRANCH   1  12
ATOM     12  C   UNL     1      44.114  -4.567  -1.012  1.00  0.00    -0.011 A 
ATOM     13  C   UNL     1      43.987  -3.180  -1.206  1.00  0.00     0.013 A 
ATOM     14  C   UNL     1      43.906  -2.315  -0.111  1.00  0.00     0.047 A 
ATOM     15  C   UNL     1      43.955  -2.825   1.193  1.00  0.00     0.115 A 
ATOM     16  C   UNL     1      44.169  -5.070   0.301  1.00  0.00     0.013 A 
ATOM     17  C   UNL     1      44.088  -4.202   1.395  1.00  0.00     0.047 A 
BRANCH  15  18
ATOM     18  O   UNL     1      43.875  -1.974   2.292  1.00  0.00    -0.508 OA
ATOM     19  H   UNL     1      44.693  -1.749   2.847  1.00  0.00     0.293 HD
ENDBRANCH  15  18
ENDBRANCH   1  12
BRANCH  11  20
ATOM     20  C   UNL     1      44.793  -7.202  -6.950  1.00  0.00     0.188 C 
ATOM     21  C   UNL     1      45.734  -5.984  -6.777  1.00  0.00     0.179 C 
ATOM     22  O   UNL     1      45.238  -8.169  -7.901  1.00  0.00    -0.362 OA
ATOM     23  C   UNL     1      45.903  -5.250  -8.132  1.00  0.00     0.177 C 
ATOM     24  C   UNL     1      46.113  -7.664  -8.904  1.00  0.00     0.176 C 
ATOM     25  C   UNL     1      45.771  -6.213  -9.337  1.00  0.00     0.177 C 
BRANCH  21  26
ATOM     26  O   UNL     1      46.979  -6.414  -6.281  1.00  0.00    -0.387 OA
ATOM     27  H   UNL     1      47.483  -6.797  -7.045  1.00  0.00     0.211 HD
ENDBRANCH  21  26
BRANCH  23  28
ATOM     28  O   UNL     1      47.146  -4.595  -8.188  1.00  0.00    -0.387 OA
ATOM     29  H   UNL     1      47.678  -4.924  -7.417  1.00  0.00     0.211 HD
ENDBRANCH  23  28
BRANCH  24  30
ATOM     30  C   UNL     1      46.092  -8.633 -10.093  1.00  0.00     0.191 C 
BRANCH  30  31
ATOM     31  O   UNL     1      45.505  -9.850  -9.721  1.00  0.00    -0.394 OA
ATOM     32  H   UNL     1      45.091  -9.694  -8.833  1.00  0.00     0.210 HD
ENDBRANCH  30  31
ENDBRANCH  24  30
BRANCH  25  33
ATOM     33  O   UNL     1      44.456  -6.157  -9.835  1.00  0.00    -0.388 OA
ATOM     34  H   UNL     1      44.463  -6.579 -10.733  1.00  0.00     0.211 HD
ENDBRANCH  25  33
ENDBRANCH  11  20
BRANCH  10  35
ATOM     35  O   UNL     1      44.642 -10.089  -6.615  1.00  0.00    -0.507 OA
ATOM     36  H   UNL     1      45.536 -10.503  -6.850  1.00  0.00     0.293 HD
ENDBRANCH  10  35
TORSDOF 9
ENDMDL
MODEL 7
REMARK VINA RESULT:    -2.513     13.788     15.623
REMARK INTER + INTRA:          -4.603
REMARK INTER:                  -4.444
REMARK INTRA:                  -0.159
REMARK UNBOUND:                -1.208
REMARK SMILES O=c1c(-c2ccc(O)cc2)coc2c([C@@H]3O[C@@H](CO)[C@@H](O)[C@H](O)[C@@H]3O)c(O)ccc12
REMARK SMILES IDX 3 1 11 2 12 3 13 4 30 5 2 6 1 7 29 8 28 9 26 10 14 11 4 12
REMARK SMILES IDX 5 13 6 14 7 15 10 16 9 17 8 18 15 20 24 21 16 22 22 23 17 24
REMARK SMILES IDX 20 25 25 26 23 28 18 30 19 31 21 33 27 35
REMARK H PARENT 8 19 25 27 23 29 19 32 21 34 27 36
REMARK Flexibility Score: inf
ROOT
ATOM      1  C   UNL     1      61.562   8.716  -1.357  1.00  0.00     0.065 A 
ATOM      2  C   UNL     1      62.460   8.186  -0.420  1.00  0.00     0.208 A 
ATOM      3  O   UNL     1      62.208   8.255   0.881  1.00  0.00    -0.463 OA
ATOM      4  C   UNL     1      61.110   8.818   1.381  1.00  0.00     0.147 A 
ATOM      5  C   UNL     1      60.150   9.378   0.507  1.00  0.00     0.066 A 
ATOM      6  C   UNL     1      60.382   9.315  -0.879  1.00  0.00     0.200 A 
ATOM      7  O   UNL     1      59.530   9.774  -1.690  1.00  0.00    -0.288 OA
ATOM      8  C   UNL     1      58.999   9.982   1.036  1.00  0.00     0.020 A 
ATOM      9  C   UNL     1      58.811  10.043   2.415  1.00  0.00     0.047 A 
ATOM     10  C   UNL     1      59.757   9.496   3.291  1.00  0.00     0.125 A 
ATOM     11  C   UNL     1      60.909   8.854   2.781  1.00  0.00     0.069 A 
ENDROOT
BRANCH   1  12
ATOM     12  C   UNL     1      61.871   8.633  -2.807  1.00  0.00    -0.011 A 
ATOM     13  C   UNL     1      62.559   9.679  -3.446  1.00  0.00     0.013 A 
ATOM     14  C   UNL     1      62.842   9.610  -4.814  1.00  0.00     0.047 A 
ATOM     15  C   UNL     1      62.436   8.496  -5.560  1.00  0.00     0.115 A 
ATOM     16  C   UNL     1      61.460   7.522  -3.565  1.00  0.00     0.013 A 
ATOM     17  C   UNL     1      61.744   7.455  -4.933  1.00  0.00     0.047 A 
BRANCH  15  18
ATOM     18  O   UNL     1      62.710   8.416  -6.923  1.00  0.00    -0.508 OA
ATOM     19  H   UNL     1      62.394   9.129  -7.569  1.00  0.00     0.293 HD
ENDBRANCH  15  18
ENDBRANCH   1  12
BRANCH  11  20
ATOM     20  C   UNL     1      61.962   8.274   3.715  1.00  0.00     0.188 C 
ATOM     21  C   UNL     1      62.700   9.409   4.467  1.00  0.00     0.179 C 
ATOM     22  O   UNL     1      61.377   7.283   4.558  1.00  0.00    -0.362 OA
ATOM     23  C   UNL     1      63.839   8.816   5.335  1.00  0.00     0.177 C 
ATOM     24  C   UNL     1      61.981   7.154   5.841  1.00  0.00     0.176 C 
ATOM     25  C   UNL     1      63.516   7.380   5.816  1.00  0.00     0.177 C 
BRANCH  21  26
ATOM     26  O   UNL     1      61.785  10.125   5.261  1.00  0.00    -0.387 OA
ATOM     27  H   UNL     1      61.082  10.476   4.653  1.00  0.00     0.211 HD
ENDBRANCH  21  26
BRANCH  23  28
ATOM     28  O   UNL     1      64.094   9.639   6.446  1.00  0.00    -0.387 OA
ATOM     29  H   UNL     1      65.033   9.469   6.720  1.00  0.00     0.211 HD
ENDBRANCH  23  28
BRANCH  24  30
ATOM     30  C   UNL     1      61.617   5.777   6.410  1.00  0.00     0.191 C 
BRANCH  30  31
ATOM     31  O   UNL     1      60.225   5.629   6.476  1.00  0.00    -0.394 OA
ATOM     32  H   UNL     1      60.018   5.392   7.417  1.00  0.00     0.210 HD
ENDBRANCH  30  31
ENDBRANCH  24  30
BRANCH  25  33
ATOM     33  O   UNL     1      64.125   6.452   4.951  1.00  0.00    -0.388 OA
ATOM     34  H   UNL     1      64.347   5.649   5.490  1.00  0.00     0.211 HD
ENDBRANCH  25  33
ENDBRANCH  11  20
BRANCH  10  35
ATOM     35  O   UNL     1      59.552   9.597   4.667  1.00  0.00    -0.507 OA
ATOM     36  H   UNL     1      58.621   9.636   5.066  1.00  0.00     0.293 HD
ENDBRANCH  10  35
TORSDOF 9
ENDMDL
