MODEL 1
REMARK VINA RESULT:    -3.863      0.000      0.000
REMARK INTER + INTRA:          -4.917
REMARK INTER:                  -4.879
REMARK INTRA:                  -0.038
REMARK UNBOUND:                -0.038
REMARK SMILES CCCCCCO
REMARK SMILES IDX 4 1 3 2 2 3 1 4 5 5 6 6 7 7
REMARK H PARENT 7 8
REMARK Flexibility Score: inf
ROOT
ATOM      1  C   UNL     1     187.262 174.728 188.754  1.00  0.00     0.002 C 
ENDROOT
BRANCH   1   2
ATOM      2  C   UNL     1     186.158 173.676 188.916  1.00  0.00    -0.000 C 
BRANCH   2   3
ATOM      3  C   UNL     1     186.543 172.363 188.225  1.00  0.00    -0.003 C 
ATOM      4  C   UNL     1     185.867 172.239 186.862  1.00  0.00     0.004 C 
ENDBRANCH   2   3
ENDBRANCH   1   2
BRANCH   1   5
ATOM      5  C   UNL     1     187.182 175.785 189.863  1.00  0.00     0.028 C 
BRANCH   5   6
ATOM      6  C   UNL     1     188.361 176.761 189.811  1.00  0.00     0.156 C 
BRANCH   6   7
ATOM      7  O   UNL     1     188.281 177.574 188.670  1.00  0.00    -0.396 OA
ATOM      8  H   UNL     1     187.385 178.001 188.683  1.00  0.00     0.210 HD
ENDBRANCH   6   7
ENDBRANCH   5   6
ENDBRANCH   1   5
TORSDOF 5
ENDMDL
MODEL 2
REMARK VINA RESULT:    -3.444      9.927     10.160
REMARK INTER + INTRA:          -4.388
REMARK INTER:                  -4.275
REMARK INTRA:                  -0.113
REMARK UNBOUND:                -0.038
REMARK SMILES CCCCCCO
REMARK SMILES IDX 4 1 3 2 2 3 1 4 5 5 6 6 7 7
REMARK H PARENT 7 8
REMARK Flexibility Score: inf
ROOT
ATOM      1  C   UNL     1     179.818 179.786 185.113  1.00  0.00     0.002 C 
ENDROOT
BRANCH   1   2
ATOM      2  C   UNL     1     180.684 178.522 185.150  1.00  0.00    -0.000 C 
BRANCH   2   3
ATOM      3  C   UNL     1     181.035 178.054 183.733  1.00  0.00    -0.003 C 
ATOM      4  C   UNL     1     181.268 176.546 183.692  1.00  0.00     0.004 C 
ENDBRANCH   2   3
ENDBRANCH   1   2
BRANCH   1   5
ATOM      5  C   UNL     1     179.165 179.966 183.736  1.00  0.00     0.028 C 
BRANCH   5   6
ATOM      6  C   UNL     1     179.128 181.435 183.306  1.00  0.00     0.156 C 
BRANCH   6   7
ATOM      7  O   UNL     1     178.169 181.634 182.301  1.00  0.00    -0.396 OA
ATOM      8  H   UNL     1     178.158 182.606 182.102  1.00  0.00     0.210 HD
ENDBRANCH   6   7
ENDBRANCH   5   6
ENDBRANCH   1   5
TORSDOF 5
ENDMDL
MODEL 3
REMARK VINA RESULT:    -3.425      8.970      9.327
REMARK INTER + INTRA:          -4.365
REMARK INTER:                  -4.299
REMARK INTRA:                  -0.066
REMARK UNBOUND:                -0.038
REMARK SMILES CCCCCCO
REMARK SMILES IDX 4 1 3 2 2 3 1 4 5 5 6 6 7 7
REMARK H PARENT 7 8
REMARK Flexibility Score: inf
ROOT
ATOM      1  C   UNL     1     180.754 178.421 184.865  1.00  0.00     0.002 C 
ENDROOT
BRANCH   1   2
ATOM      2  C   UNL     1     180.649 177.368 183.756  1.00  0.00    -0.000 C 
BRANCH   2   3
ATOM      3  C   UNL     1     182.030 176.810 183.394  1.00  0.00    -0.003 C 
ATOM      4  C   UNL     1     181.970 175.304 183.151  1.00  0.00     0.004 C 
ENDBRANCH   2   3
ENDBRANCH   1   2
BRANCH   1   5
ATOM      5  C   UNL     1     179.653 179.480 184.725  1.00  0.00     0.028 C 
BRANCH   5   6
ATOM      6  C   UNL     1     179.623 180.095 183.323  1.00  0.00     0.156 C 
BRANCH   6   7
ATOM      7  O   UNL     1     178.381 180.694 183.070  1.00  0.00    -0.396 OA
ATOM      8  H   UNL     1     178.156 181.240 183.868  1.00  0.00     0.210 HD
ENDBRANCH   6   7
ENDBRANCH   5   6
ENDBRANCH   1   5
TORSDOF 5
ENDMDL
MODEL 4
REMARK VINA RESULT:    -3.225      7.759      8.773
REMARK INTER + INTRA:          -4.112
REMARK INTER:                  -4.052
REMARK INTRA:                  -0.060
REMARK UNBOUND:                -0.038
REMARK SMILES CCCCCCO
REMARK SMILES IDX 4 1 3 2 2 3 1 4 5 5 6 6 7 7
REMARK H PARENT 7 8
REMARK Flexibility Score: inf
ROOT
ATOM      1  C   UNL     1     181.777 177.513 183.792  1.00  0.00     0.002 C 
ENDROOT
BRANCH   1   2
ATOM      2  C   UNL     1     180.602 178.469 184.030  1.00  0.00    -0.000 C 
BRANCH   2   3
ATOM      3  C   UNL     1     180.466 178.815 185.517  1.00  0.00    -0.003 C 
ATOM      4  C   UNL     1     181.733 179.483 186.046  1.00  0.00     0.004 C 
ENDBRANCH   2   3
ENDBRANCH   1   2
BRANCH   1   5
ATOM      5  C   UNL     1     181.292 176.179 183.212  1.00  0.00     0.028 C 
BRANCH   5   6
ATOM      6  C   UNL     1     182.449 175.205 182.969  1.00  0.00     0.156 C 
BRANCH   6   7
ATOM      7  O   UNL     1     182.112 173.915 183.406  1.00  0.00    -0.396 OA
ATOM      8  H   UNL     1     182.878 173.326 183.182  1.00  0.00     0.210 HD
ENDBRANCH   6   7
ENDBRANCH   5   6
ENDBRANCH   1   5
TORSDOF 5
ENDMDL
MODEL 5
REMARK VINA RESULT:    -3.182      9.547     10.151
REMARK INTER + INTRA:          -4.058
REMARK INTER:                  -3.915
REMARK INTRA:                  -0.143
REMARK UNBOUND:                -0.038
REMARK SMILES CCCCCCO
REMARK SMILES IDX 4 1 3 2 2 3 1 4 5 5 6 6 7 7
REMARK H PARENT 7 8
REMARK Flexibility Score: inf
ROOT
ATOM      1  C   UNL     1     180.374 179.240 185.507  1.00  0.00     0.002 C 
ENDROOT
BRANCH   1   2
ATOM      2  C   UNL     1     180.059 180.566 186.209  1.00  0.00    -0.000 C 
BRANCH   2   3
ATOM      3  C   UNL     1     181.284 181.091 186.967  1.00  0.00    -0.003 C 
ATOM      4  C   UNL     1     182.293 179.975 187.227  1.00  0.00     0.004 C 
ENDBRANCH   2   3
ENDBRANCH   1   2
BRANCH   1   5
ATOM      5  C   UNL     1     179.759 179.202 184.102  1.00  0.00     0.028 C 
BRANCH   5   6
ATOM      6  C   UNL     1     179.620 180.602 183.499  1.00  0.00     0.156 C 
BRANCH   6   7
ATOM      7  O   UNL     1     178.333 180.790 182.972  1.00  0.00    -0.396 OA
ATOM      8  H   UNL     1     177.773 180.040 183.305  1.00  0.00     0.210 HD
ENDBRANCH   6   7
ENDBRANCH   5   6
ENDBRANCH   1   5
TORSDOF 5
ENDMDL
MODEL 6
REMARK VINA RESULT:    -3.171      8.684      9.882
REMARK INTER + INTRA:          -4.043
REMARK INTER:                  -3.978
REMARK INTRA:                  -0.065
REMARK UNBOUND:                -0.038
REMARK SMILES CCCCCCO
REMARK SMILES IDX 4 1 3 2 2 3 1 4 5 5 6 6 7 7
REMARK H PARENT 7 8
REMARK Flexibility Score: inf
ROOT
ATOM      1  C   UNL     1     181.461 174.856 181.263  1.00  0.00     0.002 C 
ENDROOT
BRANCH   1   2
ATOM      2  C   UNL     1     182.291 175.808 182.131  1.00  0.00    -0.000 C 
BRANCH   2   3
ATOM      3  C   UNL     1     181.657 175.985 183.516  1.00  0.00    -0.003 C 
ATOM      4  C   UNL     1     180.837 177.271 183.587  1.00  0.00     0.004 C 
ENDBRANCH   2   3
ENDBRANCH   1   2
BRANCH   1   5
ATOM      5  C   UNL     1     181.594 173.408 181.753  1.00  0.00     0.028 C 
BRANCH   5   6
ATOM      6  C   UNL     1     181.521 172.404 180.599  1.00  0.00     0.156 C 
BRANCH   6   7
ATOM      7  O   UNL     1     180.831 171.247 180.991  1.00  0.00    -0.396 OA
ATOM      8  H   UNL     1     179.972 171.545 181.390  1.00  0.00     0.210 HD
ENDBRANCH   6   7
ENDBRANCH   5   6
ENDBRANCH   1   5
TORSDOF 5
ENDMDL
MODEL 7
REMARK VINA RESULT:    -3.137     11.814     11.978
REMARK INTER + INTRA:          -4.001
REMARK INTER:                  -3.969
REMARK INTRA:                  -0.032
REMARK UNBOUND:                -0.038
REMARK SMILES CCCCCCO
REMARK SMILES IDX 4 1 3 2 2 3 1 4 5 5 6 6 7 7
REMARK H PARENT 7 8
REMARK Flexibility Score: inf
ROOT
ATOM      1  C   UNL     1     179.322 181.636 183.776  1.00  0.00     0.002 C 
ENDROOT
BRANCH   1   2
ATOM      2  C   UNL     1     179.275 180.104 183.745  1.00  0.00    -0.000 C 
BRANCH   2   3
ATOM      3  C   UNL     1     179.708 179.513 185.092  1.00  0.00    -0.003 C 
ATOM      4  C   UNL     1     180.710 178.377 184.899  1.00  0.00     0.004 C 
ENDBRANCH   2   3
ENDBRANCH   1   2
BRANCH   1   5
ATOM      5  C   UNL     1     178.533 182.235 182.605  1.00  0.00     0.028 C 
BRANCH   5   6
ATOM      6  C   UNL     1     178.309 183.740 182.774  1.00  0.00     0.156 C 
BRANCH   6   7
ATOM      7  O   UNL     1     177.017 184.098 182.362  1.00  0.00    -0.396 OA
ATOM      8  H   UNL     1     176.659 184.724 183.044  1.00  0.00     0.210 HD
ENDBRANCH   6   7
ENDBRANCH   5   6
ENDBRANCH   1   5
TORSDOF 5
ENDMDL
MODEL 8
REMARK VINA RESULT:    -3.102      7.788      7.998
REMARK INTER + INTRA:          -3.957
REMARK INTER:                  -3.902
REMARK INTRA:                  -0.054
REMARK UNBOUND:                -0.038
REMARK SMILES CCCCCCO
REMARK SMILES IDX 4 1 3 2 2 3 1 4 5 5 6 6 7 7
REMARK H PARENT 7 8
REMARK Flexibility Score: inf
ROOT
ATOM      1  C   UNL     1     181.147 180.138 185.903  1.00  0.00     0.002 C 
ENDROOT
BRANCH   1   2
ATOM      2  C   UNL     1     180.479 178.802 185.559  1.00  0.00    -0.000 C 
BRANCH   2   3
ATOM      3  C   UNL     1     180.595 178.499 184.061  1.00  0.00    -0.003 C 
ATOM      4  C   UNL     1     181.099 177.077 183.823  1.00  0.00     0.004 C 
ENDBRANCH   2   3
ENDBRANCH   1   2
BRANCH   1   5
ATOM      5  C   UNL     1     182.107 179.984 187.090  1.00  0.00     0.028 C 
BRANCH   5   6
ATOM      6  C   UNL     1     181.985 181.146 188.080  1.00  0.00     0.156 C 
BRANCH   6   7
ATOM      7  O   UNL     1     182.573 180.813 189.310  1.00  0.00    -0.396 OA
ATOM      8  H   UNL     1     182.233 179.914 189.558  1.00  0.00     0.210 HD
ENDBRANCH   6   7
ENDBRANCH   5   6
ENDBRANCH   1   5
TORSDOF 5
ENDMDL
MODEL 9
REMARK VINA RESULT:    -3.033      9.977     10.144
REMARK INTER + INTRA:          -3.869
REMARK INTER:                  -3.756
REMARK INTRA:                  -0.114
REMARK UNBOUND:                -0.038
REMARK SMILES CCCCCCO
REMARK SMILES IDX 4 1 3 2 2 3 1 4 5 5 6 6 7 7
REMARK H PARENT 7 8
REMARK Flexibility Score: inf
ROOT
ATOM      1  C   UNL     1     179.418 180.034 183.740  1.00  0.00     0.002 C 
ENDROOT
BRANCH   1   2
ATOM      2  C   UNL     1     179.695 179.324 185.070  1.00  0.00    -0.000 C 
BRANCH   2   3
ATOM      3  C   UNL     1     180.939 178.433 184.970  1.00  0.00    -0.003 C 
ATOM      4  C   UNL     1     180.811 177.435 183.822  1.00  0.00     0.004 C 
ENDBRANCH   2   3
ENDBRANCH   1   2
BRANCH   1   5
ATOM      5  C   UNL     1     179.423 181.558 183.919  1.00  0.00     0.028 C 
BRANCH   5   6
ATOM      6  C   UNL     1     179.698 181.965 185.369  1.00  0.00     0.156 C 
BRANCH   6   7
ATOM      7  O   UNL     1     179.025 183.154 185.687  1.00  0.00    -0.396 OA
ATOM      8  H   UNL     1     178.435 183.366 184.918  1.00  0.00     0.210 HD
ENDBRANCH   6   7
ENDBRANCH   5   6
ENDBRANCH   1   5
TORSDOF 5
ENDMDL
