MODEL 1
REMARK VINA RESULT:    -4.013      0.000      0.000
REMARK INTER + INTRA:          -4.802
REMARK INTER:                  -4.717
REMARK INTRA:                  -0.085
REMARK UNBOUND:                -0.085
REMARK SMILES CCOC(=O)C(C)C
REMARK SMILES IDX 4 1 5 2 3 3 2 4 1 5 6 6 7 7 8 8
REMARK H PARENT
REMARK Flexibility Score: inf
ROOT
ATOM      1  C   UNL     1     180.071 178.569 171.700  1.00  0.00     0.308 C 
ATOM      2  O   UNL     1     180.457 179.343 170.780  1.00  0.00    -0.252 OA
ENDROOT
BRANCH   1   3
ATOM      3  O   UNL     1     178.804 178.723 172.275  1.00  0.00    -0.466 OA
BRANCH   3   4
ATOM      4  C   UNL     1     177.616 178.926 171.512  1.00  0.00     0.229 C 
ATOM      5  C   UNL     1     176.730 179.980 172.167  1.00  0.00     0.049 C 
ENDBRANCH   3   4
ENDBRANCH   1   3
BRANCH   1   6
ATOM      6  C   UNL     1     180.975 177.474 172.193  1.00  0.00     0.093 C 
ATOM      7  C   UNL     1     181.724 177.923 173.451  1.00  0.00     0.019 C 
ATOM      8  C   UNL     1     180.177 176.193 172.454  1.00  0.00     0.019 C 
ENDBRANCH   1   6
TORSDOF 3
ENDMDL
MODEL 2
REMARK VINA RESULT:    -3.999      1.161      4.172
REMARK INTER + INTRA:          -4.785
REMARK INTER:                  -4.728
REMARK INTRA:                  -0.057
REMARK UNBOUND:                -0.085
REMARK SMILES CCOC(=O)C(C)C
REMARK SMILES IDX 4 1 5 2 3 3 2 4 1 5 6 6 7 7 8 8
REMARK H PARENT
REMARK Flexibility Score: inf
ROOT
ATOM      1  C   UNL     1     178.572 179.108 172.061  1.00  0.00     0.308 C 
ATOM      2  O   UNL     1     178.151 177.956 172.361  1.00  0.00    -0.252 OA
ENDROOT
BRANCH   1   3
ATOM      3  O   UNL     1     179.935 179.330 171.832  1.00  0.00    -0.466 OA
BRANCH   3   4
ATOM      4  C   UNL     1     180.868 178.283 171.570  1.00  0.00     0.229 C 
ATOM      5  C   UNL     1     181.516 177.803 172.864  1.00  0.00     0.049 C 
ENDBRANCH   3   4
ENDBRANCH   1   3
BRANCH   1   6
ATOM      6  C   UNL     1     177.611 180.257 171.951  1.00  0.00     0.093 C 
ATOM      7  C   UNL     1     176.262 179.890 172.577  1.00  0.00     0.019 C 
ATOM      8  C   UNL     1     178.196 181.514 172.602  1.00  0.00     0.019 C 
ENDBRANCH   1   6
TORSDOF 3
ENDMDL
MODEL 3
REMARK VINA RESULT:    -3.791      1.321      3.895
REMARK INTER + INTRA:          -4.541
REMARK INTER:                  -4.398
REMARK INTRA:                  -0.143
REMARK UNBOUND:                -0.085
REMARK SMILES CCOC(=O)C(C)C
REMARK SMILES IDX 4 1 5 2 3 3 2 4 1 5 6 6 7 7 8 8
REMARK H PARENT
REMARK Flexibility Score: inf
ROOT
ATOM      1  C   UNL     1     178.736 179.985 172.253  1.00  0.00     0.308 C 
ATOM      2  O   UNL     1     178.674 181.198 172.600  1.00  0.00    -0.252 OA
ENDROOT
BRANCH   1   3
ATOM      3  O   UNL     1     179.966 179.393 171.946  1.00  0.00    -0.466 OA
BRANCH   3   4
ATOM      4  C   UNL     1     180.589 178.407 172.767  1.00  0.00     0.229 C 
ATOM      5  C   UNL     1     181.406 177.439 171.920  1.00  0.00     0.049 C 
ENDBRANCH   3   4
ENDBRANCH   1   3
BRANCH   1   6
ATOM      6  C   UNL     1     177.481 179.164 172.159  1.00  0.00     0.093 C 
ATOM      7  C   UNL     1     176.250 180.031 172.442  1.00  0.00     0.019 C 
ATOM      8  C   UNL     1     177.377 178.491 170.788  1.00  0.00     0.019 C 
ENDBRANCH   1   6
TORSDOF 3
ENDMDL
MODEL 4
REMARK VINA RESULT:    -3.787      1.209      3.957
REMARK INTER + INTRA:          -4.536
REMARK INTER:                  -4.450
REMARK INTRA:                  -0.087
REMARK UNBOUND:                -0.085
REMARK SMILES CCOC(=O)C(C)C
REMARK SMILES IDX 4 1 5 2 3 3 2 4 1 5 6 6 7 7 8 8
REMARK H PARENT
REMARK Flexibility Score: inf
ROOT
ATOM      1  C   UNL     1     178.152 178.902 171.610  1.00  0.00     0.308 C 
ATOM      2  O   UNL     1     177.725 178.754 170.431  1.00  0.00    -0.252 OA
ENDROOT
BRANCH   1   3
ATOM      3  O   UNL     1     179.244 178.157 172.071  1.00  0.00    -0.466 OA
BRANCH   3   4
ATOM      4  C   UNL     1     180.596 178.447 171.718  1.00  0.00     0.229 C 
ATOM      5  C   UNL     1     181.562 177.654 172.592  1.00  0.00     0.049 C 
ENDBRANCH   3   4
ENDBRANCH   1   3
BRANCH   1   6
ATOM      6  C   UNL     1     177.485 179.880 172.536  1.00  0.00     0.093 C 
ATOM      7  C   UNL     1     178.149 181.257 172.429  1.00  0.00     0.019 C 
ATOM      8  C   UNL     1     175.986 179.967 172.240  1.00  0.00     0.019 C 
ENDBRANCH   1   6
TORSDOF 3
ENDMDL
MODEL 5
REMARK VINA RESULT:    -3.762      1.494      1.870
REMARK INTER + INTRA:          -4.507
REMARK INTER:                  -4.425
REMARK INTRA:                  -0.082
REMARK UNBOUND:                -0.085
REMARK SMILES CCOC(=O)C(C)C
REMARK SMILES IDX 4 1 5 2 3 3 2 4 1 5 6 6 7 7 8 8
REMARK H PARENT
REMARK Flexibility Score: inf
ROOT
ATOM      1  C   UNL     1     179.156 177.850 172.548  1.00  0.00     0.308 C 
ATOM      2  O   UNL     1     179.176 176.588 172.528  1.00  0.00    -0.252 OA
ENDROOT
BRANCH   1   3
ATOM      3  O   UNL     1     177.949 178.542 172.700  1.00  0.00    -0.466 OA
BRANCH   3   4
ATOM      4  C   UNL     1     177.174 179.019 171.602  1.00  0.00     0.229 C 
ATOM      5  C   UNL     1     176.541 180.365 171.934  1.00  0.00     0.049 C 
ENDBRANCH   3   4
ENDBRANCH   1   3
BRANCH   1   6
ATOM      6  C   UNL     1     180.435 178.626 172.402  1.00  0.00     0.093 C 
ATOM      7  C   UNL     1     181.610 177.838 172.989  1.00  0.00     0.019 C 
ATOM      8  C   UNL     1     180.687 178.979 170.933  1.00  0.00     0.019 C 
ENDBRANCH   1   6
TORSDOF 3
ENDMDL
MODEL 6
REMARK VINA RESULT:    -2.714     14.059     15.283
REMARK INTER + INTRA:          -3.275
REMARK INTER:                  -3.036
REMARK INTRA:                  -0.239
REMARK UNBOUND:                -0.085
REMARK SMILES CCOC(=O)C(C)C
REMARK SMILES IDX 4 1 5 2 3 3 2 4 1 5 6 6 7 7 8 8
REMARK H PARENT
REMARK Flexibility Score: inf
ROOT
ATOM      1  C   UNL     1     185.090 188.862 181.496  1.00  0.00     0.308 C 
ATOM      2  O   UNL     1     183.891 189.125 181.199  1.00  0.00    -0.252 OA
ENDROOT
BRANCH   1   3
ATOM      3  O   UNL     1     186.076 188.815 180.504  1.00  0.00    -0.466 OA
BRANCH   3   4
ATOM      4  C   UNL     1     186.131 187.803 179.499  1.00  0.00     0.229 C 
ATOM      5  C   UNL     1     186.872 186.574 180.012  1.00  0.00     0.049 C 
ENDBRANCH   3   4
ENDBRANCH   1   3
BRANCH   1   6
ATOM      6  C   UNL     1     185.471 188.591 182.924  1.00  0.00     0.093 C 
ATOM      7  C   UNL     1     185.373 187.093 183.230  1.00  0.00     0.019 C 
ATOM      8  C   UNL     1     186.876 189.123 183.218  1.00  0.00     0.019 C 
ENDBRANCH   1   6
TORSDOF 3
ENDMDL
MODEL 7
REMARK VINA RESULT:    -2.600     14.453     15.328
REMARK INTER + INTRA:          -3.140
REMARK INTER:                  -3.034
REMARK INTRA:                  -0.106
REMARK UNBOUND:                -0.085
REMARK SMILES CCOC(=O)C(C)C
REMARK SMILES IDX 4 1 5 2 3 3 2 4 1 5 6 6 7 7 8 8
REMARK H PARENT
REMARK Flexibility Score: inf
ROOT
ATOM      1  C   UNL     1     172.434 169.518 182.276  1.00  0.00     0.308 C 
ATOM      2  O   UNL     1     173.512 168.876 182.417  1.00  0.00    -0.252 OA
ENDROOT
BRANCH   1   3
ATOM      3  O   UNL     1     171.821 169.613 181.021  1.00  0.00    -0.466 OA
BRANCH   3   4
ATOM      4  C   UNL     1     171.117 170.772 180.578  1.00  0.00     0.229 C 
ATOM      5  C   UNL     1     171.445 171.077 179.121  1.00  0.00     0.049 C 
ENDBRANCH   3   4
ENDBRANCH   1   3
BRANCH   1   6
ATOM      6  C   UNL     1     171.800 170.194 183.458  1.00  0.00     0.093 C 
ATOM      7  C   UNL     1     171.554 169.185 184.584  1.00  0.00     0.019 C 
ATOM      8  C   UNL     1     172.666 171.359 183.943  1.00  0.00     0.019 C 
ENDBRANCH   1   6
TORSDOF 3
ENDMDL
MODEL 8
REMARK VINA RESULT:    -2.172     15.113     15.802
REMARK INTER + INTRA:          -2.638
REMARK INTER:                  -2.558
REMARK INTRA:                  -0.080
REMARK UNBOUND:                -0.085
REMARK SMILES CCOC(=O)C(C)C
REMARK SMILES IDX 4 1 5 2 3 3 2 4 1 5 6 6 7 7 8 8
REMARK H PARENT
REMARK Flexibility Score: inf
ROOT
ATOM      1  C   UNL     1     171.918 169.865 183.518  1.00  0.00     0.308 C 
ATOM      2  O   UNL     1     171.159 169.470 184.446  1.00  0.00    -0.252 OA
ENDROOT
BRANCH   1   3
ATOM      3  O   UNL     1     172.257 171.218 183.403  1.00  0.00    -0.466 OA
BRANCH   3   4
ATOM      4  C   UNL     1     172.961 171.940 184.413  1.00  0.00     0.229 C 
ATOM      5  C   UNL     1     172.628 173.426 184.345  1.00  0.00     0.049 C 
ENDBRANCH   3   4
ENDBRANCH   1   3
BRANCH   1   6
ATOM      6  C   UNL     1     172.464 168.883 182.520  1.00  0.00     0.093 C 
ATOM      7  C   UNL     1     171.945 169.202 181.115  1.00  0.00     0.019 C 
ATOM      8  C   UNL     1     173.995 168.875 182.553  1.00  0.00     0.019 C 
ENDBRANCH   1   6
TORSDOF 3
ENDMDL
MODEL 9
REMARK VINA RESULT:    -2.171     14.261     15.350
REMARK INTER + INTRA:          -2.637
REMARK INTER:                  -2.544
REMARK INTRA:                  -0.093
REMARK UNBOUND:                -0.085
REMARK SMILES CCOC(=O)C(C)C
REMARK SMILES IDX 4 1 5 2 3 3 2 4 1 5 6 6 7 7 8 8
REMARK H PARENT
REMARK Flexibility Score: inf
ROOT
ATOM      1  C   UNL     1     186.076 188.291 182.281  1.00  0.00     0.308 C 
ATOM      2  O   UNL     1     186.625 189.096 183.084  1.00  0.00    -0.252 OA
ENDROOT
BRANCH   1   3
ATOM      3  O   UNL     1     185.743 186.995 182.688  1.00  0.00    -0.466 OA
BRANCH   3   4
ATOM      4  C   UNL     1     185.000 186.711 183.873  1.00  0.00     0.229 C 
ATOM      5  C   UNL     1     184.783 185.210 184.026  1.00  0.00     0.049 C 
ENDBRANCH   3   4
ENDBRANCH   1   3
BRANCH   1   6
ATOM      6  C   UNL     1     185.779 188.719 180.871  1.00  0.00     0.093 C 
ATOM      7  C   UNL     1     186.140 187.603 179.886  1.00  0.00     0.019 C 
ATOM      8  C   UNL     1     184.309 189.125 180.729  1.00  0.00     0.019 C 
ENDBRANCH   1   6
TORSDOF 3
ENDMDL
