MODEL 1
REMARK VINA RESULT:    -3.202      0.000      0.000
REMARK INTER + INTRA:          -5.087
REMARK INTER:                  -4.887
REMARK INTRA:                  -0.199
REMARK UNBOUND:                -0.199
REMARK SMILES CC1=CCC[C@@H](C)C(=O)C[C@@H](C(C)C)C(=O)C1
REMARK SMILES IDX 8 1 9 2 6 3 7 4 5 5 4 6 3 7 2 8 1 9 10 11 11 12 15 13 16 14
REMARK SMILES IDX 17 15 12 17 13 18 14 19
REMARK H PARENT
REMARK Flexibility Score: 70.00
ROOT
ATOM      1  C   UNL     1      -4.618  10.872 -25.175  1.00  0.00     0.136 C 
ATOM      2  O   UNL     1      -4.769  10.068 -26.084  1.00  0.00    -0.299 OA
ENDROOT
BRANCH   1   3
ATOM      3  C   UNL     1      -5.852  11.405 -24.468  1.00  0.00     0.053 C 
ATOM      4  C   UNL     1      -7.080  10.534 -24.770  1.00  0.00     0.016 C 
BRANCH   3   5
ATOM      5  C   UNL     1      -6.096  12.878 -24.872  1.00  0.00     0.015 C 
BRANCH   5   6
ATOM      6  C   UNL     1      -6.003  13.849 -23.674  1.00  0.00     0.028 C 
BRANCH   6   7
ATOM      7  C   UNL     1      -5.039  14.982 -23.938  1.00  0.00    -0.028 C 
ATOM      8  C   UNL     1      -3.787  15.074 -23.431  1.00  0.00    -0.070 CG0
ATOM      9  C   UNL     1      -2.947  16.261 -23.826  1.00  0.00     0.039 C 
ATOM     10  G   UNL     1      -3.187  14.038 -22.496  1.00  0.00     0.000 G0
ENDBRANCH   6   7
ENDBRANCH   5   6
ENDBRANCH   3   5
ENDBRANCH   1   3
BRANCH   1  11
ATOM     11  C   UNL     1      -3.196  11.309 -24.859  1.00  0.00     0.087 C 
BRANCH  11  12
ATOM     12  C   UNL     1      -2.847  11.585 -23.369  1.00  0.00     0.066 C 
BRANCH  12  13
ATOM     13  C   UNL     1      -2.327  13.002 -23.161  1.00  0.00     0.140 C 
ATOM     14  O   UNL     1      -1.189  13.286 -23.508  1.00  0.00    -0.299 OA
BRANCH  13  15
ATOM     15  C   UNL     1      -3.181  14.043 -22.470  1.00  0.00     0.106 CG0
ATOM     16  G   UNL     1      -3.780  15.048 -23.440  1.00  0.00     0.000 G0
ENDBRANCH  13  15
ENDBRANCH  12  13
BRANCH  12  17
ATOM     17  C   UNL     1      -1.870  10.506 -22.800  1.00  0.00    -0.006 C 
ATOM     18  C   UNL     1      -2.461   9.092 -22.917  1.00  0.00     0.008 C 
ATOM     19  C   UNL     1      -1.410  10.761 -21.354  1.00  0.00     0.008 C 
ENDBRANCH  12  17
ENDBRANCH  11  12
ENDBRANCH   1  11
TORSDOF 1
ENDMDL
MODEL 2
REMARK VINA RESULT:    -3.176      5.424      7.586
REMARK INTER + INTRA:          -5.046
REMARK INTER:                  -4.981
REMARK INTRA:                  -0.065
REMARK UNBOUND:                -0.199
REMARK SMILES CC1=CCC[C@@H](C)C(=O)C[C@@H](C(C)C)C(=O)C1
REMARK SMILES IDX 8 1 9 2 6 3 7 4 5 5 4 6 3 7 2 8 1 9 10 11 11 12 15 13 16 14
REMARK SMILES IDX 17 15 12 17 13 18 14 19
REMARK H PARENT
REMARK Flexibility Score: 70.00
ROOT
ATOM      1  C   UNL     1     -12.419  14.267 -22.176  1.00  0.00     0.136 C 
ATOM      2  O   UNL     1     -13.057  13.724 -21.285  1.00  0.00    -0.299 OA
ENDROOT
BRANCH   1   3
ATOM      3  C   UNL     1     -12.427  15.783 -22.251  1.00  0.00     0.053 C 
ATOM      4  C   UNL     1     -12.677  16.264 -23.689  1.00  0.00     0.016 C 
BRANCH   3   5
ATOM      5  C   UNL     1     -11.097  16.346 -21.697  1.00  0.00     0.015 C 
BRANCH   5   6
ATOM      6  C   UNL     1      -9.987  16.421 -22.768  1.00  0.00     0.028 C 
BRANCH   6   7
ATOM      7  C   UNL     1      -8.685  15.834 -22.275  1.00  0.00    -0.028 C 
ATOM      8  C   UNL     1      -8.174  14.640 -22.658  1.00  0.00    -0.070 CG0
ATOM      9  C   UNL     1      -6.842  14.223 -22.088  1.00  0.00     0.039 C 
ATOM     10  G   UNL     1      -8.870  13.708 -23.635  1.00  0.00     0.000 G0
ENDBRANCH   6   7
ENDBRANCH   5   6
ENDBRANCH   3   5
ENDBRANCH   1   3
BRANCH   1  11
ATOM     11  C   UNL     1     -11.702  13.366 -23.169  1.00  0.00     0.087 C 
BRANCH  11  12
ATOM     12  C   UNL     1     -10.804  12.236 -22.592  1.00  0.00     0.066 C 
BRANCH  12  13
ATOM     13  C   UNL     1      -9.345  12.411 -22.992  1.00  0.00     0.140 C 
ATOM     14  O   UNL     1      -8.540  11.521 -22.749  1.00  0.00    -0.299 OA
BRANCH  13  15
ATOM     15  C   UNL     1      -8.866  13.700 -23.626  1.00  0.00     0.106 CG0
ATOM     16  G   UNL     1      -8.176  14.620 -22.632  1.00  0.00     0.000 G0
ENDBRANCH  13  15
ENDBRANCH  12  13
BRANCH  12  17
ATOM     17  C   UNL     1     -11.355  10.821 -22.962  1.00  0.00    -0.006 C 
ATOM     18  C   UNL     1     -11.996  10.812 -24.359  1.00  0.00     0.008 C 
ATOM     19  C   UNL     1     -12.336  10.230 -21.934  1.00  0.00     0.008 C 
ENDBRANCH  12  17
ENDBRANCH  11  12
ENDBRANCH   1  11
TORSDOF 1
ENDMDL
MODEL 3
REMARK VINA RESULT:    -3.073      5.591      7.986
REMARK INTER + INTRA:          -4.889
REMARK INTER:                  -5.198
REMARK INTRA:                   0.309
REMARK UNBOUND:                -0.199
REMARK SMILES CC1=CCC[C@@H](C)C(=O)C[C@@H](C(C)C)C(=O)C1
REMARK SMILES IDX 8 1 9 2 6 3 7 4 5 5 4 6 3 7 2 8 1 9 10 11 11 12 15 13 16 14
REMARK SMILES IDX 17 15 12 17 13 18 14 19
REMARK H PARENT
REMARK Flexibility Score: 70.00
ROOT
ATOM      1  C   UNL     1     -11.716  11.973 -22.027  1.00  0.00     0.136 C 
ATOM      2  O   UNL     1     -11.020  11.619 -21.085  1.00  0.00    -0.299 OA
ENDROOT
BRANCH   1   3
ATOM      3  C   UNL     1     -11.808  11.065 -23.240  1.00  0.00     0.053 C 
ATOM      4  C   UNL     1     -12.560   9.769 -22.904  1.00  0.00     0.016 C 
BRANCH   3   5
ATOM      5  C   UNL     1     -10.390  10.765 -23.782  1.00  0.00     0.015 C 
BRANCH   5   6
ATOM      6  C   UNL     1      -9.689  12.019 -24.348  1.00  0.00     0.028 C 
BRANCH   6   7
ATOM      7  C   UNL     1      -8.484  12.413 -23.527  1.00  0.00    -0.028 C 
ATOM      8  C   UNL     1      -8.267  13.641 -23.000  1.00  0.00    -0.070 CG0
ATOM      9  C   UNL     1      -7.023  13.850 -22.176  1.00  0.00     0.039 C 
ATOM     10  G   UNL     1      -9.219  14.810 -23.188  1.00  0.00     0.000 G0
ENDBRANCH   6   7
ENDBRANCH   5   6
ENDBRANCH   3   5
ENDBRANCH   1   3
BRANCH   1  11
ATOM     11  C   UNL     1     -12.400  13.327 -21.919  1.00  0.00     0.087 C 
BRANCH  11  12
ATOM     12  C   UNL     1     -11.769  14.512 -22.703  1.00  0.00     0.066 C 
BRANCH  12  13
ATOM     13  C   UNL     1     -10.361  14.828 -22.217  1.00  0.00     0.140 C 
ATOM     14  O   UNL     1     -10.180  15.139 -21.047  1.00  0.00    -0.299 OA
BRANCH  13  15
ATOM     15  C   UNL     1      -9.192  14.827 -23.179  1.00  0.00     0.106 CG0
ATOM     16  G   UNL     1      -8.283  13.623 -22.996  1.00  0.00     0.000 G0
ENDBRANCH  13  15
ENDBRANCH  12  13
BRANCH  12  17
ATOM     17  C   UNL     1     -12.697  15.769 -22.689  1.00  0.00    -0.006 C 
ATOM     18  C   UNL     1     -12.867  16.361 -24.097  1.00  0.00     0.008 C 
ATOM     19  C   UNL     1     -12.262  16.873 -21.709  1.00  0.00     0.008 C 
ENDBRANCH  12  17
ENDBRANCH  11  12
ENDBRANCH   1  11
TORSDOF 1
ENDMDL
MODEL 4
REMARK VINA RESULT:    -3.061     11.242     12.910
REMARK INTER + INTRA:          -4.871
REMARK INTER:                  -4.491
REMARK INTRA:                  -0.381
REMARK UNBOUND:                -0.199
REMARK SMILES CC1=CCC[C@@H](C)C(=O)C[C@@H](C(C)C)C(=O)C1
REMARK SMILES IDX 8 1 9 2 6 3 7 4 5 5 4 6 3 7 2 8 1 9 10 11 11 12 15 13 16 14
REMARK SMILES IDX 17 15 12 17 13 18 14 19
REMARK H PARENT
REMARK Flexibility Score: 70.00
ROOT
ATOM      1  C   UNL     1      -4.509   9.143 -12.732  1.00  0.00     0.136 C 
ATOM      2  O   UNL     1      -4.368  10.163 -13.393  1.00  0.00    -0.299 OA
ENDROOT
BRANCH   1   3
ATOM      3  C   UNL     1      -3.976   9.123 -11.311  1.00  0.00     0.053 C 
ATOM      4  C   UNL     1      -4.648  10.206 -10.454  1.00  0.00     0.016 C 
BRANCH   3   5
ATOM      5  C   UNL     1      -2.438   9.292 -11.322  1.00  0.00     0.015 C 
BRANCH   5   6
ATOM      6  C   UNL     1      -1.691   7.951 -11.491  1.00  0.00     0.028 C 
BRANCH   6   7
ATOM      7  C   UNL     1      -1.249   7.725 -12.918  1.00  0.00    -0.028 C 
ATOM      8  C   UNL     1      -1.615   6.675 -13.690  1.00  0.00    -0.070 CG0
ATOM      9  C   UNL     1      -1.105   6.625 -15.107  1.00  0.00     0.039 C 
ATOM     10  G   UNL     1      -2.519   5.555 -13.203  1.00  0.00     0.000 G0
ENDBRANCH   6   7
ENDBRANCH   5   6
ENDBRANCH   3   5
ENDBRANCH   1   3
BRANCH   1  11
ATOM     11  C   UNL     1      -5.171   7.956 -13.413  1.00  0.00     0.087 C 
BRANCH  11  12
ATOM     12  C   UNL     1      -4.922   6.549 -12.802  1.00  0.00     0.066 C 
BRANCH  12  13
ATOM     13  C   UNL     1      -3.959   5.725 -13.647  1.00  0.00     0.140 C 
ATOM     14  O   UNL     1      -4.365   5.173 -14.662  1.00  0.00    -0.299 OA
BRANCH  13  15
ATOM     15  C   UNL     1      -2.523   5.527 -13.211  1.00  0.00     0.106 CG0
ATOM     16  G   UNL     1      -1.607   6.642 -13.688  1.00  0.00     0.000 G0
ENDBRANCH  13  15
ENDBRANCH  12  13
BRANCH  12  17
ATOM     17  C   UNL     1      -6.264   5.796 -12.528  1.00  0.00    -0.006 C 
ATOM     18  C   UNL     1      -7.474   6.598 -13.033  1.00  0.00     0.008 C 
ATOM     19  C   UNL     1      -6.481   5.393 -11.059  1.00  0.00     0.008 C 
ENDBRANCH  12  17
ENDBRANCH  11  12
ENDBRANCH   1  11
TORSDOF 1
ENDMDL
MODEL 5
REMARK VINA RESULT:    -3.035      6.245      7.864
REMARK INTER + INTRA:          -4.831
REMARK INTER:                  -4.502
REMARK INTRA:                  -0.328
REMARK UNBOUND:                -0.199
REMARK SMILES CC1=CCC[C@@H](C)C(=O)C[C@@H](C(C)C)C(=O)C1
REMARK SMILES IDX 8 1 9 2 6 3 7 4 5 5 4 6 3 7 2 8 1 9 10 11 11 12 15 13 16 14
REMARK SMILES IDX 17 15 12 17 13 18 14 19
REMARK H PARENT
REMARK Flexibility Score: 70.00
ROOT
ATOM      1  C   UNL     1       0.723  12.826 -19.862  1.00  0.00     0.136 C 
ATOM      2  O   UNL     1       0.029  12.580 -20.839  1.00  0.00    -0.299 OA
ENDROOT
BRANCH   1   3
ATOM      3  C   UNL     1       1.048  14.276 -19.553  1.00  0.00     0.053 C 
ATOM      4  C   UNL     1       2.379  14.394 -18.795  1.00  0.00     0.016 C 
BRANCH   3   5
ATOM      5  C   UNL     1      -0.110  14.917 -18.752  1.00  0.00     0.015 C 
BRANCH   5   6
ATOM      6  C   UNL     1       0.138  14.901 -17.227  1.00  0.00     0.028 C 
BRANCH   6   7
ATOM      7  C   UNL     1      -0.924  14.121 -16.489  1.00  0.00    -0.028 C 
ATOM      8  C   UNL     1      -0.765  12.875 -15.983  1.00  0.00    -0.070 CG0
ATOM      9  C   UNL     1      -1.924  12.256 -15.245  1.00  0.00     0.039 C 
ATOM     10  G   UNL     1       0.522  12.078 -16.115  1.00  0.00     0.000 G0
ENDBRANCH   6   7
ENDBRANCH   5   6
ENDBRANCH   3   5
ENDBRANCH   1   3
BRANCH   1  11
ATOM     11  C   UNL     1       1.244  11.643 -19.061  1.00  0.00     0.087 C 
BRANCH  11  12
ATOM     12  C   UNL     1       0.195  10.730 -18.367  1.00  0.00     0.066 C 
BRANCH  12  13
ATOM     13  C   UNL     1       0.335  10.757 -16.850  1.00  0.00     0.140 C 
ATOM     14  O   UNL     1       0.243   9.714 -16.216  1.00  0.00    -0.299 OA
BRANCH  13  15
ATOM     15  C   UNL     1       0.519  12.066 -16.114  1.00  0.00     0.106 CG0
ATOM     16  G   UNL     1      -0.777  12.847 -15.973  1.00  0.00     0.000 G0
ENDBRANCH  13  15
ENDBRANCH  12  13
BRANCH  12  17
ATOM     17  C   UNL     1       0.230   9.277 -18.940  1.00  0.00    -0.006 C 
ATOM     18  C   UNL     1       1.428   9.070 -19.880  1.00  0.00     0.008 C 
ATOM     19  C   UNL     1      -1.067   8.838 -19.644  1.00  0.00     0.008 C 
ENDBRANCH  12  17
ENDBRANCH  11  12
ENDBRANCH   1  11
TORSDOF 1
ENDMDL
MODEL 6
REMARK VINA RESULT:    -3.000      5.975      7.892
REMARK INTER + INTRA:          -4.777
REMARK INTER:                  -5.034
REMARK INTRA:                   0.257
REMARK UNBOUND:                -0.199
REMARK SMILES CC1=CCC[C@@H](C)C(=O)C[C@@H](C(C)C)C(=O)C1
REMARK SMILES IDX 8 1 9 2 6 3 7 4 5 5 4 6 3 7 2 8 1 9 10 11 11 12 15 13 16 14
REMARK SMILES IDX 17 15 12 17 13 18 14 19
REMARK H PARENT
REMARK Flexibility Score: 70.00
ROOT
ATOM      1  C   UNL     1       1.269   9.779 -19.867  1.00  0.00     0.136 C 
ATOM      2  O   UNL     1       2.322   9.694 -19.251  1.00  0.00    -0.299 OA
ENDROOT
BRANCH   1   3
ATOM      3  C   UNL     1       0.739   8.541 -20.567  1.00  0.00     0.053 C 
ATOM      4  C   UNL     1      -0.149   8.920 -21.762  1.00  0.00     0.016 C 
BRANCH   3   5
ATOM      5  C   UNL     1      -0.029   7.653 -19.559  1.00  0.00     0.015 C 
BRANCH   5   6
ATOM      6  C   UNL     1      -1.177   8.407 -18.853  1.00  0.00     0.028 C 
BRANCH   6   7
ATOM      7  C   UNL     1      -0.913   8.584 -17.375  1.00  0.00    -0.028 C 
ATOM      8  C   UNL     1      -0.827   9.774 -16.736  1.00  0.00    -0.070 CG0
ATOM      9  C   UNL     1      -0.591   9.765 -15.248  1.00  0.00     0.039 C 
ATOM     10  G   UNL     1      -0.968  11.113 -17.441  1.00  0.00     0.000 G0
ENDBRANCH   6   7
ENDBRANCH   5   6
ENDBRANCH   3   5
ENDBRANCH   1   3
BRANCH   1  11
ATOM     11  C   UNL     1       0.598  11.143 -19.917  1.00  0.00     0.087 C 
BRANCH  11  12
ATOM     12  C   UNL     1       1.007  12.182 -18.836  1.00  0.00     0.066 C 
BRANCH  12  13
ATOM     13  C   UNL     1       0.315  11.918 -17.505  1.00  0.00     0.140 C 
ATOM     14  O   UNL     1       0.837  12.300 -16.465  1.00  0.00    -0.299 OA
BRANCH  13  15
ATOM     15  C   UNL     1      -0.977  11.132 -17.449  1.00  0.00     0.106 CG0
ATOM     16  G   UNL     1      -0.816   9.790 -16.754  1.00  0.00     0.000 G0
ENDBRANCH  13  15
ENDBRANCH  12  13
BRANCH  12  17
ATOM     17  C   UNL     1       0.790  13.647 -19.337  1.00  0.00    -0.006 C 
ATOM     18  C   UNL     1       0.521  13.692 -20.849  1.00  0.00     0.008 C 
ATOM     19  C   UNL     1       1.930  14.618 -18.981  1.00  0.00     0.008 C 
ENDBRANCH  12  17
ENDBRANCH  11  12
ENDBRANCH   1  11
TORSDOF 1
ENDMDL
MODEL 7
REMARK VINA RESULT:    -2.943     12.776     14.250
REMARK INTER + INTRA:          -4.691
REMARK INTER:                  -4.292
REMARK INTRA:                  -0.398
REMARK UNBOUND:                -0.199
REMARK SMILES CC1=CCC[C@@H](C)C(=O)C[C@@H](C(C)C)C(=O)C1
REMARK SMILES IDX 8 1 9 2 6 3 7 4 5 5 4 6 3 7 2 8 1 9 10 11 11 12 15 13 16 14
REMARK SMILES IDX 17 15 12 17 13 18 14 19
REMARK H PARENT
REMARK Flexibility Score: 70.00
ROOT
ATOM      1  C   UNL     1      -6.687  10.727 -11.972  1.00  0.00     0.136 C 
ATOM      2  O   UNL     1      -6.047  10.549 -12.999  1.00  0.00    -0.299 OA
ENDROOT
BRANCH   1   3
ATOM      3  C   UNL     1      -6.352   9.884 -10.755  1.00  0.00     0.053 C 
ATOM      4  C   UNL     1      -4.977  10.263 -10.183  1.00  0.00     0.016 C 
BRANCH   3   5
ATOM      5  C   UNL     1      -6.410   8.382 -11.122  1.00  0.00     0.015 C 
BRANCH   5   6
ATOM      6  C   UNL     1      -7.804   7.762 -10.881  1.00  0.00     0.028 C 
BRANCH   6   7
ATOM      7  C   UNL     1      -8.647   7.762 -12.135  1.00  0.00    -0.028 C 
ATOM      8  C   UNL     1      -9.775   8.488 -12.316  1.00  0.00    -0.070 CG0
ATOM      9  C   UNL     1     -10.475   8.391 -13.647  1.00  0.00     0.039 C 
ATOM     10  G   UNL     1     -10.361   9.399 -11.250  1.00  0.00     0.000 G0
ENDBRANCH   6   7
ENDBRANCH   5   6
ENDBRANCH   3   5
ENDBRANCH   1   3
BRANCH   1  11
ATOM     11  C   UNL     1      -7.807  11.755 -12.017  1.00  0.00     0.087 C 
BRANCH  11  12
ATOM     12  C   UNL     1      -8.945  11.620 -10.967  1.00  0.00     0.066 C 
BRANCH  12  13
ATOM     13  C   UNL     1     -10.156  10.890 -11.535  1.00  0.00     0.140 C 
ATOM     14  O   UNL     1     -10.988  11.510 -12.183  1.00  0.00    -0.299 OA
BRANCH  13  15
ATOM     15  C   UNL     1     -10.375   9.419 -11.249  1.00  0.00     0.106 CG0
ATOM     16  G   UNL     1      -9.784   8.520 -12.322  1.00  0.00     0.000 G0
ENDBRANCH  13  15
ENDBRANCH  12  13
BRANCH  12  17
ATOM     17  C   UNL     1      -9.324  13.005 -10.350  1.00  0.00    -0.006 C 
ATOM     18  C   UNL     1      -8.373  14.115 -10.827  1.00  0.00     0.008 C 
ATOM     19  C   UNL     1      -9.409  13.017  -8.814  1.00  0.00     0.008 C 
ENDBRANCH  12  17
ENDBRANCH  11  12
ENDBRANCH   1  11
TORSDOF 1
ENDMDL
MODEL 8
REMARK VINA RESULT:    -2.924     10.471     11.990
REMARK INTER + INTRA:          -4.662
REMARK INTER:                  -4.372
REMARK INTRA:                  -0.291
REMARK UNBOUND:                -0.199
REMARK SMILES CC1=CCC[C@@H](C)C(=O)C[C@@H](C(C)C)C(=O)C1
REMARK SMILES IDX 8 1 9 2 6 3 7 4 5 5 4 6 3 7 2 8 1 9 10 11 11 12 15 13 16 14
REMARK SMILES IDX 17 15 12 17 13 18 14 19
REMARK H PARENT
REMARK Flexibility Score: 70.00
ROOT
ATOM      1  C   UNL     1     -13.455  10.851 -18.584  1.00  0.00     0.136 C 
ATOM      2  O   UNL     1     -12.943  10.322 -19.560  1.00  0.00    -0.299 OA
ENDROOT
BRANCH   1   3
ATOM      3  C   UNL     1     -13.662  10.015 -17.334  1.00  0.00     0.053 C 
ATOM      4  C   UNL     1     -15.112  10.114 -16.837  1.00  0.00     0.016 C 
BRANCH   3   5
ATOM      5  C   UNL     1     -12.664  10.453 -16.235  1.00  0.00     0.015 C 
BRANCH   5   6
ATOM      6  C   UNL     1     -13.366  11.036 -14.989  1.00  0.00     0.028 C 
BRANCH   6   7
ATOM      7  C   UNL     1     -12.701  12.304 -14.507  1.00  0.00    -0.028 C 
ATOM      8  C   UNL     1     -13.040  13.557 -14.894  1.00  0.00    -0.070 CG0
ATOM      9  C   UNL     1     -12.291  14.714 -14.286  1.00  0.00     0.039 C 
ATOM     10  G   UNL     1     -14.141  13.851 -15.900  1.00  0.00     0.000 G0
ENDBRANCH   6   7
ENDBRANCH   5   6
ENDBRANCH   3   5
ENDBRANCH   1   3
BRANCH   1  11
ATOM     11  C   UNL     1     -13.886  12.303 -18.722  1.00  0.00     0.087 C 
BRANCH  11  12
ATOM     12  C   UNL     1     -12.897  13.394 -18.224  1.00  0.00     0.066 C 
BRANCH  12  13
ATOM     13  C   UNL     1     -13.558  14.353 -17.242  1.00  0.00     0.140 C 
ATOM     14  O   UNL     1     -13.587  15.551 -17.493  1.00  0.00    -0.299 OA
BRANCH  13  15
ATOM     15  C   UNL     1     -14.119  13.850 -15.930  1.00  0.00     0.106 CG0
ATOM     16  G   UNL     1     -13.038  13.556 -14.904  1.00  0.00     0.000 G0
ENDBRANCH  13  15
ENDBRANCH  12  13
BRANCH  12  17
ATOM     17  C   UNL     1     -12.219  14.141 -19.417  1.00  0.00    -0.006 C 
ATOM     18  C   UNL     1     -13.070  14.054 -20.695  1.00  0.00     0.008 C 
ATOM     19  C   UNL     1     -10.779  13.688 -19.719  1.00  0.00     0.008 C 
ENDBRANCH  12  17
ENDBRANCH  11  12
ENDBRANCH   1  11
TORSDOF 1
ENDMDL
MODEL 9
REMARK VINA RESULT:    -2.741     12.010     13.144
REMARK INTER + INTRA:          -4.383
REMARK INTER:                  -4.406
REMARK INTRA:                   0.023
REMARK UNBOUND:                -0.199
REMARK SMILES CC1=CCC[C@@H](C)C(=O)C[C@@H](C(C)C)C(=O)C1
REMARK SMILES IDX 8 1 9 2 6 3 7 4 5 5 4 6 3 7 2 8 1 9 10 11 11 12 15 13 16 14
REMARK SMILES IDX 17 15 12 17 13 18 14 19
REMARK H PARENT
REMARK Flexibility Score: 70.00
ROOT
ATOM      1  C   UNL     1      -8.523   7.641 -10.966  1.00  0.00     0.136 C 
ATOM      2  O   UNL     1      -8.532   6.654 -10.244  1.00  0.00    -0.299 OA
ENDROOT
BRANCH   1   3
ATOM      3  C   UNL     1      -9.554   8.727 -10.721  1.00  0.00     0.053 C 
ATOM      4  C   UNL     1     -10.329   9.053 -12.006  1.00  0.00     0.016 C 
BRANCH   3   5
ATOM      5  C   UNL     1      -8.865   9.989 -10.148  1.00  0.00     0.015 C 
BRANCH   5   6
ATOM      6  C   UNL     1      -8.417  10.976 -11.248  1.00  0.00     0.028 C 
BRANCH   6   7
ATOM      7  C   UNL     1      -7.035  11.526 -10.986  1.00  0.00    -0.028 C 
ATOM      8  C   UNL     1      -5.900  11.104 -11.591  1.00  0.00    -0.070 CG0
ATOM      9  C   UNL     1      -4.606  11.789 -11.231  1.00  0.00     0.039 C 
ATOM     10  G   UNL     1      -5.867   9.984 -12.617  1.00  0.00     0.000 G0
ENDBRANCH   6   7
ENDBRANCH   5   6
ENDBRANCH   3   5
ENDBRANCH   1   3
BRANCH   1  11
ATOM     11  C   UNL     1      -7.497   7.674 -12.089  1.00  0.00     0.087 C 
BRANCH  11  12
ATOM     12  C   UNL     1      -6.002   7.506 -11.698  1.00  0.00     0.066 C 
BRANCH  12  13
ATOM     13  C   UNL     1      -5.177   8.730 -12.075  1.00  0.00     0.140 C 
ATOM     14  O   UNL     1      -3.967   8.724 -11.893  1.00  0.00    -0.299 OA
BRANCH  13  15
ATOM     15  C   UNL     1      -5.846   9.978 -12.611  1.00  0.00     0.106 CG0
ATOM     16  G   UNL     1      -5.902  11.098 -11.586  1.00  0.00     0.000 G0
ENDBRANCH  13  15
ENDBRANCH  12  13
BRANCH  12  17
ATOM     17  C   UNL     1      -5.402   6.185 -12.278  1.00  0.00    -0.006 C 
ATOM     18  C   UNL     1      -5.575   6.108 -13.803  1.00  0.00     0.008 C 
ATOM     19  C   UNL     1      -5.942   4.899 -11.626  1.00  0.00     0.008 C 
ENDBRANCH  12  17
ENDBRANCH  11  12
ENDBRANCH   1  11
TORSDOF 1
ENDMDL
