MODEL 1
REMARK VINA RESULT:    -3.992      0.000      0.000
REMARK INTER + INTRA:          -5.120
REMARK INTER:                  -4.925
REMARK INTRA:                  -0.195
REMARK UNBOUND:                -0.195
REMARK SMILES C=CC[C@@H](C)C(=O)CC
REMARK SMILES IDX 4 1 5 2 6 3 7 4 8 5 9 6 3 7 2 8 1 9
REMARK H PARENT
REMARK Flexibility Score: inf
ROOT
ATOM      1  C   UNL     1     -10.233  -3.933 -15.042  1.00  0.00     0.057 C 
ATOM      2  C   UNL     1     -10.044  -3.625 -16.534  1.00  0.00     0.016 C 
ENDROOT
BRANCH   1   3
ATOM      3  C   UNL     1     -11.307  -4.983 -14.838  1.00  0.00     0.135 C 
ATOM      4  O   UNL     1     -11.139  -6.118 -15.260  1.00  0.00    -0.299 OA
BRANCH   3   5
ATOM      5  C   UNL     1     -12.589  -4.652 -14.122  1.00  0.00     0.072 C 
ATOM      6  C   UNL     1     -13.572  -3.961 -15.062  1.00  0.00     0.012 C 
ENDBRANCH   3   5
ENDBRANCH   1   3
BRANCH   1   7
ATOM      7  C   UNL     1      -8.910  -4.323 -14.349  1.00  0.00     0.038 C 
BRANCH   7   8
ATOM      8  C   UNL     1      -7.999  -3.150 -14.089  1.00  0.00    -0.034 C 
ATOM      9  C   UNL     1      -8.099  -2.410 -12.981  1.00  0.00     0.004 C 
ENDBRANCH   7   8
ENDBRANCH   1   7
TORSDOF 4
ENDMDL
MODEL 2
REMARK VINA RESULT:    -3.975      7.953      9.876
REMARK INTER + INTRA:          -5.100
REMARK INTER:                  -4.897
REMARK INTRA:                  -0.203
REMARK UNBOUND:                -0.195
REMARK SMILES C=CC[C@@H](C)C(=O)CC
REMARK SMILES IDX 4 1 5 2 6 3 7 4 8 5 9 6 3 7 2 8 1 9
REMARK H PARENT
REMARK Flexibility Score: inf
ROOT
ATOM      1  C   UNL     1      -2.687  -2.105 -18.547  1.00  0.00     0.057 C 
ATOM      2  C   UNL     1      -3.388  -2.115 -19.913  1.00  0.00     0.016 C 
ENDROOT
BRANCH   1   3
ATOM      3  C   UNL     1      -1.321  -1.454 -18.645  1.00  0.00     0.135 C 
ATOM      4  O   UNL     1      -1.052  -0.491 -17.941  1.00  0.00    -0.299 OA
BRANCH   3   5
ATOM      5  C   UNL     1      -0.281  -1.973 -19.602  1.00  0.00     0.072 C 
ATOM      6  C   UNL     1       0.019  -3.444 -19.329  1.00  0.00     0.012 C 
ENDBRANCH   3   5
ENDBRANCH   1   3
BRANCH   1   7
ATOM      7  C   UNL     1      -3.553  -1.459 -17.445  1.00  0.00     0.038 C 
BRANCH   7   8
ATOM      8  C   UNL     1      -3.635  -2.284 -16.185  1.00  0.00    -0.034 C 
ATOM      9  C   UNL     1      -4.646  -2.154 -15.321  1.00  0.00     0.004 C 
ENDBRANCH   7   8
ENDBRANCH   1   7
TORSDOF 4
ENDMDL
MODEL 3
REMARK VINA RESULT:    -3.957      8.329     10.248
REMARK INTER + INTRA:          -5.078
REMARK INTER:                  -4.603
REMARK INTRA:                  -0.475
REMARK UNBOUND:                -0.195
REMARK SMILES C=CC[C@@H](C)C(=O)CC
REMARK SMILES IDX 4 1 5 2 6 3 7 4 8 5 9 6 3 7 2 8 1 9
REMARK H PARENT
REMARK Flexibility Score: inf
ROOT
ATOM      1  C   UNL     1      -2.152  -1.677 -17.726  1.00  0.00     0.057 C 
ATOM      2  C   UNL     1      -3.612  -1.529 -17.272  1.00  0.00     0.016 C 
ENDROOT
BRANCH   1   3
ATOM      3  C   UNL     1      -2.073  -1.926 -19.219  1.00  0.00     0.135 C 
ATOM      4  O   UNL     1      -3.093  -1.933 -19.892  1.00  0.00    -0.299 OA
BRANCH   3   5
ATOM      5  C   UNL     1      -0.749  -2.170 -19.895  1.00  0.00     0.072 C 
ATOM      6  C   UNL     1      -0.066  -3.405 -19.317  1.00  0.00     0.012 C 
ENDBRANCH   3   5
ENDBRANCH   1   3
BRANCH   1   7
ATOM      7  C   UNL     1      -1.277  -0.481 -17.296  1.00  0.00     0.038 C 
BRANCH   7   8
ATOM      8  C   UNL     1      -0.231  -0.839 -16.270  1.00  0.00    -0.034 C 
ATOM      9  C   UNL     1      -0.147  -2.066 -15.747  1.00  0.00     0.004 C 
ENDBRANCH   7   8
ENDBRANCH   1   7
TORSDOF 4
ENDMDL
MODEL 4
REMARK VINA RESULT:    -3.954      1.391      4.254
REMARK INTER + INTRA:          -5.074
REMARK INTER:                  -4.892
REMARK INTRA:                  -0.181
REMARK UNBOUND:                -0.195
REMARK SMILES C=CC[C@@H](C)C(=O)CC
REMARK SMILES IDX 4 1 5 2 6 3 7 4 8 5 9 6 3 7 2 8 1 9
REMARK H PARENT
REMARK Flexibility Score: inf
ROOT
ATOM      1  C   UNL     1     -10.695  -4.735 -14.683  1.00  0.00     0.057 C 
ATOM      2  C   UNL     1     -10.128  -6.093 -14.245  1.00  0.00     0.016 C 
ENDROOT
BRANCH   1   3
ATOM      3  C   UNL     1      -9.663  -3.943 -15.462  1.00  0.00     0.135 C 
ATOM      4  O   UNL     1      -9.984  -3.374 -16.496  1.00  0.00    -0.299 OA
BRANCH   3   5
ATOM      5  C   UNL     1      -8.239  -3.845 -14.985  1.00  0.00     0.072 C 
ATOM      6  C   UNL     1      -8.143  -2.956 -13.749  1.00  0.00     0.012 C 
ENDBRANCH   3   5
ENDBRANCH   1   3
BRANCH   1   7
ATOM      7  C   UNL     1     -12.020  -4.873 -15.462  1.00  0.00     0.038 C 
BRANCH   7   8
ATOM      8  C   UNL     1     -13.211  -4.307 -14.728  1.00  0.00    -0.034 C 
ATOM      9  C   UNL     1     -14.130  -3.560 -15.345  1.00  0.00     0.004 C 
ENDBRANCH   7   8
ENDBRANCH   1   7
TORSDOF 4
ENDMDL
MODEL 5
REMARK VINA RESULT:    -3.944      7.033      9.196
REMARK INTER + INTRA:          -5.062
REMARK INTER:                  -4.684
REMARK INTRA:                  -0.378
REMARK UNBOUND:                -0.195
REMARK SMILES C=CC[C@@H](C)C(=O)CC
REMARK SMILES IDX 4 1 5 2 6 3 7 4 8 5 9 6 3 7 2 8 1 9
REMARK H PARENT
REMARK Flexibility Score: inf
ROOT
ATOM      1  C   UNL     1      -6.368   1.794  -8.790  1.00  0.00     0.057 C 
ATOM      2  C   UNL     1      -5.185   1.538  -7.845  1.00  0.00     0.016 C 
ENDROOT
BRANCH   1   3
ATOM      3  C   UNL     1      -5.886   2.298 -10.136  1.00  0.00     0.135 C 
ATOM      4  O   UNL     1      -4.698   2.249 -10.418  1.00  0.00    -0.299 OA
BRANCH   3   5
ATOM      5  C   UNL     1      -6.853   2.867 -11.141  1.00  0.00     0.072 C 
ATOM      6  C   UNL     1      -7.675   3.994 -10.525  1.00  0.00     0.012 C 
ENDBRANCH   3   5
ENDBRANCH   1   3
BRANCH   1   7
ATOM      7  C   UNL     1      -7.284   0.560  -8.934  1.00  0.00     0.038 C 
BRANCH   7   8
ATOM      8  C   UNL     1      -6.611  -0.614  -9.602  1.00  0.00    -0.034 C 
ATOM      9  C   UNL     1      -7.023  -1.085 -10.783  1.00  0.00     0.004 C 
ENDBRANCH   7   8
ENDBRANCH   1   7
TORSDOF 4
ENDMDL
MODEL 6
REMARK VINA RESULT:    -3.938      1.861      3.821
REMARK INTER + INTRA:          -5.054
REMARK INTER:                  -4.651
REMARK INTRA:                  -0.403
REMARK UNBOUND:                -0.195
REMARK SMILES C=CC[C@@H](C)C(=O)CC
REMARK SMILES IDX 4 1 5 2 6 3 7 4 8 5 9 6 3 7 2 8 1 9
REMARK H PARENT
REMARK Flexibility Score: inf
ROOT
ATOM      1  C   UNL     1     -11.482  -4.905 -15.451  1.00  0.00     0.057 C 
ATOM      2  C   UNL     1     -12.830  -4.172 -15.415  1.00  0.00     0.016 C 
ENDROOT
BRANCH   1   3
ATOM      3  C   UNL     1     -10.339  -3.929 -15.651  1.00  0.00     0.135 C 
ATOM      4  O   UNL     1     -10.281  -3.258 -16.671  1.00  0.00    -0.299 OA
BRANCH   3   5
ATOM      5  C   UNL     1      -9.264  -3.770 -14.609  1.00  0.00     0.072 C 
ATOM      6  C   UNL     1      -7.915  -4.234 -15.148  1.00  0.00     0.012 C 
ENDBRANCH   3   5
ENDBRANCH   1   3
BRANCH   1   7
ATOM      7  C   UNL     1     -11.263  -5.797 -14.210  1.00  0.00     0.038 C 
BRANCH   7   8
ATOM      8  C   UNL     1     -10.734  -7.170 -14.543  1.00  0.00    -0.034 C 
ATOM      9  C   UNL     1      -9.521  -7.573 -14.152  1.00  0.00     0.004 C 
ENDBRANCH   7   8
ENDBRANCH   1   7
TORSDOF 4
ENDMDL
MODEL 7
REMARK VINA RESULT:    -3.884      1.898      3.018
REMARK INTER + INTRA:          -4.987
REMARK INTER:                  -4.528
REMARK INTRA:                  -0.459
REMARK UNBOUND:                -0.195
REMARK SMILES C=CC[C@@H](C)C(=O)CC
REMARK SMILES IDX 4 1 5 2 6 3 7 4 8 5 9 6 3 7 2 8 1 9
REMARK H PARENT
REMARK Flexibility Score: inf
ROOT
ATOM      1  C   UNL     1      -9.642  -4.462 -14.673  1.00  0.00     0.057 C 
ATOM      2  C   UNL     1      -8.481  -3.466 -14.540  1.00  0.00     0.016 C 
ENDROOT
BRANCH   1   3
ATOM      3  C   UNL     1     -10.624  -4.012 -15.736  1.00  0.00     0.135 C 
ATOM      4  O   UNL     1     -10.266  -3.232 -16.607  1.00  0.00    -0.299 OA
BRANCH   3   5
ATOM      5  C   UNL     1     -12.045  -4.509 -15.740  1.00  0.00     0.072 C 
ATOM      6  C   UNL     1     -12.627  -4.492 -14.330  1.00  0.00     0.012 C 
ENDBRANCH   3   5
ENDBRANCH   1   3
BRANCH   1   7
ATOM      7  C   UNL     1      -9.154  -5.906 -14.918  1.00  0.00     0.038 C 
BRANCH   7   8
ATOM      8  C   UNL     1      -9.733  -6.908 -13.950  1.00  0.00    -0.034 C 
ATOM      9  C   UNL     1     -10.727  -7.731 -14.297  1.00  0.00     0.004 C 
ENDBRANCH   7   8
ENDBRANCH   1   7
TORSDOF 4
ENDMDL
MODEL 8
REMARK VINA RESULT:    -3.808      1.330      2.027
REMARK INTER + INTRA:          -4.894
REMARK INTER:                  -4.586
REMARK INTRA:                  -0.308
REMARK UNBOUND:                -0.195
REMARK SMILES C=CC[C@@H](C)C(=O)CC
REMARK SMILES IDX 4 1 5 2 6 3 7 4 8 5 9 6 3 7 2 8 1 9
REMARK H PARENT
REMARK Flexibility Score: inf
ROOT
ATOM      1  C   UNL     1     -10.256  -6.318 -14.912  1.00  0.00     0.057 C 
ATOM      2  C   UNL     1     -10.789  -7.588 -14.234  1.00  0.00     0.016 C 
ENDROOT
BRANCH   1   3
ATOM      3  C   UNL     1     -11.388  -5.367 -15.246  1.00  0.00     0.135 C 
ATOM      4  O   UNL     1     -11.599  -5.052 -16.408  1.00  0.00    -0.299 OA
BRANCH   3   5
ATOM      5  C   UNL     1     -12.265  -4.795 -14.163  1.00  0.00     0.072 C 
ATOM      6  C   UNL     1     -13.478  -4.091 -14.764  1.00  0.00     0.012 C 
ENDBRANCH   3   5
ENDBRANCH   1   3
BRANCH   1   7
ATOM      7  C   UNL     1      -9.152  -5.627 -14.084  1.00  0.00     0.038 C 
BRANCH   7   8
ATOM      8  C   UNL     1      -8.540  -4.433 -14.775  1.00  0.00    -0.034 C 
ATOM      9  C   UNL     1      -8.467  -3.237 -14.185  1.00  0.00     0.004 C 
ENDBRANCH   7   8
ENDBRANCH   1   7
TORSDOF 4
ENDMDL
MODEL 9
REMARK VINA RESULT:    -3.791      6.774      8.451
REMARK INTER + INTRA:          -4.872
REMARK INTER:                  -4.419
REMARK INTRA:                  -0.454
REMARK UNBOUND:                -0.195
REMARK SMILES C=CC[C@@H](C)C(=O)CC
REMARK SMILES IDX 4 1 5 2 6 3 7 4 8 5 9 6 3 7 2 8 1 9
REMARK H PARENT
REMARK Flexibility Score: inf
ROOT
ATOM      1  C   UNL     1      -6.298   0.306 -10.507  1.00  0.00     0.057 C 
ATOM      2  C   UNL     1      -7.047  -0.998 -10.815  1.00  0.00     0.016 C 
ENDROOT
BRANCH   1   3
ATOM      3  C   UNL     1      -7.009   1.098  -9.428  1.00  0.00     0.135 C 
ATOM      4  O   UNL     1      -7.586   0.514  -8.522  1.00  0.00    -0.299 OA
BRANCH   3   5
ATOM      5  C   UNL     1      -7.019   2.604  -9.451  1.00  0.00     0.072 C 
ATOM      6  C   UNL     1      -7.022   3.123 -10.885  1.00  0.00     0.012 C 
ENDBRANCH   3   5
ENDBRANCH   1   3
BRANCH   1   7
ATOM      7  C   UNL     1      -4.813   0.065 -10.158  1.00  0.00     0.038 C 
BRANCH   7   8
ATOM      8  C   UNL     1      -3.856   0.662 -11.159  1.00  0.00    -0.034 C 
ATOM      9  C   UNL     1      -3.516   1.953 -11.128  1.00  0.00     0.004 C 
ENDBRANCH   7   8
ENDBRANCH   1   7
TORSDOF 4
ENDMDL
