MODEL 1
REMARK VINA RESULT:    -4.113      0.000      0.000
REMARK INTER + INTRA:          -6.561
REMARK INTER:                  -5.916
REMARK INTRA:                  -0.644
REMARK UNBOUND:                -0.644
REMARK SMILES O=C(CO)[C@@H](O)[C@H](O)[C@@H](O)CO
REMARK SMILES IDX 7 1 9 2 11 3 12 4 10 6 5 8 2 9 1 10 3 11 4 12 6 14 8 16
REMARK H PARENT 12 5 10 7 4 13 6 15 8 17
REMARK Flexibility Score: inf
ROOT
ATOM      1  C   UNL     1     -39.500  23.540   5.172  1.00  0.00     0.181 C 
ENDROOT
BRANCH   1   2
ATOM      2  C   UNL     1     -38.961  24.793   4.433  1.00  0.00     0.171 C 
BRANCH   2   3
ATOM      3  C   UNL     1     -40.121  25.689   3.973  1.00  0.00     0.190 C 
BRANCH   3   4
ATOM      4  O   UNL     1     -39.818  26.256   2.727  1.00  0.00    -0.394 OA
ATOM      5  H   UNL     1     -38.828  26.311   2.683  1.00  0.00     0.210 HD
ENDBRANCH   3   4
ENDBRANCH   2   3
BRANCH   2   6
ATOM      6  O   UNL     1     -38.204  24.403   3.315  1.00  0.00    -0.388 OA
ATOM      7  H   UNL     1     -37.250  24.414   3.590  1.00  0.00     0.211 HD
ENDBRANCH   2   6
ENDBRANCH   1   2
BRANCH   1   8
ATOM      8  C   UNL     1     -39.634  23.712   6.714  1.00  0.00     0.214 C 
BRANCH   8   9
ATOM      9  C   UNL     1     -38.840  22.691   7.511  1.00  0.00     0.189 C 
ATOM     10  O   UNL     1     -39.304  21.569   7.659  1.00  0.00    -0.294 OA
BRANCH   9  11
ATOM     11  C   UNL     1     -37.501  23.029   8.123  1.00  0.00     0.234 C 
BRANCH  11  12
ATOM     12  O   UNL     1     -36.592  23.465   7.149  1.00  0.00    -0.388 OA
ATOM     13  H   UNL     1     -37.122  23.665   6.334  1.00  0.00     0.211 HD
ENDBRANCH  11  12
ENDBRANCH   9  11
ENDBRANCH   8   9
BRANCH   8  14
ATOM     14  O   UNL     1     -39.363  25.035   7.112  1.00  0.00    -0.382 OA
ATOM     15  H   UNL     1     -39.059  25.023   8.055  1.00  0.00     0.211 HD
ENDBRANCH   8  14
ENDBRANCH   1   8
BRANCH   1  16
ATOM     16  O   UNL     1     -38.672  22.441   4.885  1.00  0.00    -0.387 OA
ATOM     17  H   UNL     1     -38.841  22.189   3.939  1.00  0.00     0.211 HD
ENDBRANCH   1  16
TORSDOF 10
ENDMDL
MODEL 2
REMARK VINA RESULT:    -3.902      1.330      3.942
REMARK INTER + INTRA:          -6.257
REMARK INTER:                  -6.550
REMARK INTRA:                   0.293
REMARK UNBOUND:                -0.644
REMARK SMILES O=C(CO)[C@@H](O)[C@H](O)[C@@H](O)CO
REMARK SMILES IDX 7 1 9 2 11 3 12 4 10 6 5 8 2 9 1 10 3 11 4 12 6 14 8 16
REMARK H PARENT 12 5 10 7 4 13 6 15 8 17
REMARK Flexibility Score: inf
ROOT
ATOM      1  C   UNL     1     -39.245  23.023   7.398  1.00  0.00     0.181 C 
ENDROOT
BRANCH   1   2
ATOM      2  C   UNL     1     -37.784  23.386   7.771  1.00  0.00     0.171 C 
BRANCH   2   3
ATOM      3  C   UNL     1     -37.235  24.461   6.822  1.00  0.00     0.190 C 
BRANCH   3   4
ATOM      4  O   UNL     1     -36.199  23.925   6.046  1.00  0.00    -0.394 OA
ATOM      5  H   UNL     1     -35.939  24.636   5.403  1.00  0.00     0.210 HD
ENDBRANCH   3   4
ENDBRANCH   2   3
BRANCH   2   6
ATOM      6  O   UNL     1     -36.971  22.242   7.697  1.00  0.00    -0.388 OA
ATOM      7  H   UNL     1     -37.332  21.675   6.967  1.00  0.00     0.211 HD
ENDBRANCH   2   6
ENDBRANCH   1   2
BRANCH   1   8
ATOM      8  C   UNL     1     -39.549  23.065   5.871  1.00  0.00     0.214 C 
BRANCH   8   9
ATOM      9  C   UNL     1     -39.695  24.473   5.320  1.00  0.00     0.189 C 
ATOM     10  O   UNL     1     -40.125  25.352   6.053  1.00  0.00    -0.294 OA
BRANCH   9  11
ATOM     11  C   UNL     1     -39.329  24.808   3.893  1.00  0.00     0.234 C 
BRANCH  11  12
ATOM     12  O   UNL     1     -38.033  24.369   3.584  1.00  0.00    -0.388 OA
ATOM     13  H   UNL     1     -38.069  24.006   2.660  1.00  0.00     0.211 HD
ENDBRANCH  11  12
ENDBRANCH   9  11
ENDBRANCH   8   9
BRANCH   8  14
ATOM     14  O   UNL     1     -38.626  22.293   5.140  1.00  0.00    -0.382 OA
ATOM     15  H   UNL     1     -39.121  21.577   4.667  1.00  0.00     0.211 HD
ENDBRANCH   8  14
ENDBRANCH   1   8
BRANCH   1  16
ATOM     16  O   UNL     1     -40.125  23.880   8.083  1.00  0.00    -0.387 OA
ATOM     17  H   UNL     1     -39.803  24.808   7.933  1.00  0.00     0.211 HD
ENDBRANCH   1  16
TORSDOF 10
ENDMDL
MODEL 3
REMARK VINA RESULT:    -2.812      1.408      2.401
REMARK INTER + INTRA:          -4.690
REMARK INTER:                  -4.145
REMARK INTRA:                  -0.545
REMARK UNBOUND:                -0.644
REMARK SMILES O=C(CO)[C@@H](O)[C@H](O)[C@@H](O)CO
REMARK SMILES IDX 7 1 9 2 11 3 12 4 10 6 5 8 2 9 1 10 3 11 4 12 6 14 8 16
REMARK H PARENT 12 5 10 7 4 13 6 15 8 17
REMARK Flexibility Score: inf
ROOT
ATOM      1  C   UNL     1     -38.946  25.417   5.931  1.00  0.00     0.181 C 
ENDROOT
BRANCH   1   2
ATOM      2  C   UNL     1     -40.117  25.771   4.978  1.00  0.00     0.171 C 
BRANCH   2   3
ATOM      3  C   UNL     1     -39.986  25.004   3.653  1.00  0.00     0.190 C 
BRANCH   3   4
ATOM      4  O   UNL     1     -39.477  25.854   2.661  1.00  0.00    -0.394 OA
ATOM      5  H   UNL     1     -40.264  26.198   2.163  1.00  0.00     0.210 HD
ENDBRANCH   3   4
ENDBRANCH   2   3
BRANCH   2   6
ATOM      6  O   UNL     1     -40.125  27.152   4.717  1.00  0.00    -0.388 OA
ATOM      7  H   UNL     1     -39.972  27.265   3.743  1.00  0.00     0.211 HD
ENDBRANCH   2   6
ENDBRANCH   1   2
BRANCH   1   8
ATOM      8  C   UNL     1     -38.964  23.951   6.456  1.00  0.00     0.214 C 
BRANCH   8   9
ATOM      9  C   UNL     1     -37.695  23.552   7.188  1.00  0.00     0.189 C 
ATOM     10  O   UNL     1     -36.679  24.210   7.009  1.00  0.00    -0.294 OA
BRANCH   9  11
ATOM     11  C   UNL     1     -37.657  22.367   8.124  1.00  0.00     0.234 C 
BRANCH  11  12
ATOM     12  O   UNL     1     -38.575  21.382   7.735  1.00  0.00    -0.388 OA
ATOM     13  H   UNL     1     -39.358  21.468   8.339  1.00  0.00     0.211 HD
ENDBRANCH  11  12
ENDBRANCH   9  11
ENDBRANCH   8   9
BRANCH   8  14
ATOM     14  O   UNL     1     -40.125  23.686   7.207  1.00  0.00    -0.382 OA
ATOM     15  H   UNL     1     -40.722  23.107   6.668  1.00  0.00     0.211 HD
ENDBRANCH   8  14
ENDBRANCH   1   8
BRANCH   1  16
ATOM     16  O   UNL     1     -38.945  26.312   7.016  1.00  0.00    -0.387 OA
ATOM     17  H   UNL     1     -38.259  25.990   7.658  1.00  0.00     0.211 HD
ENDBRANCH   1  16
TORSDOF 10
ENDMDL
MODEL 4
REMARK VINA RESULT:    -1.995      1.654      2.657
REMARK INTER + INTRA:          -3.514
REMARK INTER:                  -3.313
REMARK INTRA:                  -0.201
REMARK UNBOUND:                -0.644
REMARK SMILES O=C(CO)[C@@H](O)[C@H](O)[C@@H](O)CO
REMARK SMILES IDX 7 1 9 2 11 3 12 4 10 6 5 8 2 9 1 10 3 11 4 12 6 14 8 16
REMARK H PARENT 12 5 10 7 4 13 6 15 8 17
REMARK Flexibility Score: inf
ROOT
ATOM      1  C   UNL     1     -39.208  24.325   7.016  1.00  0.00     0.181 C 
ENDROOT
BRANCH   1   2
ATOM      2  C   UNL     1     -39.980  24.910   5.804  1.00  0.00     0.171 C 
BRANCH   2   3
ATOM      3  C   UNL     1     -39.262  24.569   4.490  1.00  0.00     0.190 C 
BRANCH   3   4
ATOM      4  O   UNL     1     -39.584  25.520   3.512  1.00  0.00    -0.394 OA
ATOM      5  H   UNL     1     -38.721  25.816   3.120  1.00  0.00     0.210 HD
ENDBRANCH   3   4
ENDBRANCH   2   3
BRANCH   2   6
ATOM      6  O   UNL     1     -40.083  26.306   5.929  1.00  0.00    -0.388 OA
ATOM      7  H   UNL     1     -40.955  26.496   6.363  1.00  0.00     0.211 HD
ENDBRANCH   2   6
ENDBRANCH   1   2
BRANCH   1   8
ATOM      8  C   UNL     1     -38.109  23.288   6.638  1.00  0.00     0.214 C 
BRANCH   8   9
ATOM      9  C   UNL     1     -36.703  23.734   6.998  1.00  0.00     0.189 C 
ATOM     10  O   UNL     1     -36.284  23.509   8.125  1.00  0.00    -0.294 OA
BRANCH   9  11
ATOM     11  C   UNL     1     -35.817  24.448   6.005  1.00  0.00     0.234 C 
BRANCH  11  12
ATOM     12  O   UNL     1     -34.782  25.139   6.650  1.00  0.00    -0.388 OA
ATOM     13  H   UNL     1     -34.606  25.954   6.112  1.00  0.00     0.211 HD
ENDBRANCH  11  12
ENDBRANCH   9  11
ENDBRANCH   8   9
BRANCH   8  14
ATOM     14  O   UNL     1     -38.414  22.007   7.139  1.00  0.00    -0.382 OA
ATOM     15  H   UNL     1     -37.840  21.834   7.928  1.00  0.00     0.211 HD
ENDBRANCH   8  14
ENDBRANCH   1   8
BRANCH   1  16
ATOM     16  O   UNL     1     -40.123  23.745   7.912  1.00  0.00    -0.387 OA
ATOM     17  H   UNL     1     -41.010  23.747   7.465  1.00  0.00     0.211 HD
ENDBRANCH   1  16
TORSDOF 10
ENDMDL
