MODEL 1
REMARK VINA RESULT:    -3.926      0.000      0.000
REMARK INTER + INTRA:          -5.746
REMARK INTER:                  -5.304
REMARK INTRA:                  -0.442
REMARK UNBOUND:                -0.442
REMARK SMILES CCCCCCCC(=O)[O-]
REMARK SMILES IDX 5 1 6 2 7 3 8 4 9 5 10 6 4 7 3 8 2 9 1 10
REMARK H PARENT
REMARK Flexibility Score: inf
ROOT
ATOM      1  C   UNL     1      31.941   5.446  48.156  1.00  0.00     0.000 C 
ENDROOT
BRANCH   1   2
ATOM      2  C   UNL     1      33.375   5.902  47.851  1.00  0.00     0.006 C 
BRANCH   2   3
ATOM      3  C   UNL     1      33.416   7.025  46.805  1.00  0.00     0.053 C 
BRANCH   3   4
ATOM      4  C   UNL     1      34.089   6.584  45.542  1.00  0.00     0.041 C 
ATOM      5  O   UNL     1      34.035   7.306  44.511  1.00  0.00    -0.550 OA
ATOM      6  O   UNL     1      34.746   5.362  45.492  1.00  0.00    -0.550 OA
ENDBRANCH   3   4
ENDBRANCH   2   3
ENDBRANCH   1   2
BRANCH   1   7
ATOM      7  C   UNL     1      30.916   6.418  47.558  1.00  0.00     0.000 C 
BRANCH   7   8
ATOM      8  C   UNL     1      29.728   6.618  48.506  1.00  0.00    -0.000 C 
BRANCH   8   9
ATOM      9  C   UNL     1      30.026   7.711  49.538  1.00  0.00    -0.003 C 
ATOM     10  C   UNL     1      30.897   8.812  48.940  1.00  0.00     0.004 C 
ENDBRANCH   8   9
ENDBRANCH   7   8
ENDBRANCH   1   7
TORSDOF 6
ENDMDL
MODEL 2
REMARK VINA RESULT:    -3.852      0.973      1.534
REMARK INTER + INTRA:          -5.645
REMARK INTER:                  -5.308
REMARK INTRA:                  -0.337
REMARK UNBOUND:                -0.442
REMARK SMILES CCCCCCCC(=O)[O-]
REMARK SMILES IDX 5 1 6 2 7 3 8 4 9 5 10 6 4 7 3 8 2 9 1 10
REMARK H PARENT
REMARK Flexibility Score: inf
ROOT
ATOM      1  C   UNL     1      32.190   5.436  48.119  1.00  0.00     0.000 C 
ENDROOT
BRANCH   1   2
ATOM      2  C   UNL     1      33.617   6.002  48.058  1.00  0.00     0.006 C 
BRANCH   2   3
ATOM      3  C   UNL     1      34.627   4.972  47.536  1.00  0.00     0.053 C 
BRANCH   3   4
ATOM      4  C   UNL     1      34.812   5.075  46.053  1.00  0.00     0.041 C 
ATOM      5  O   UNL     1      35.435   4.176  45.428  1.00  0.00    -0.550 OA
ATOM      6  O   UNL     1      34.327   6.180  45.366  1.00  0.00    -0.550 OA
ENDBRANCH   3   4
ENDBRANCH   2   3
ENDBRANCH   1   2
BRANCH   1   7
ATOM      7  C   UNL     1      31.197   6.371  47.417  1.00  0.00     0.000 C 
BRANCH   7   8
ATOM      8  C   UNL     1      29.847   6.386  48.142  1.00  0.00    -0.000 C 
BRANCH   8   9
ATOM      9  C   UNL     1      29.882   7.330  49.349  1.00  0.00    -0.003 C 
ATOM     10  C   UNL     1      30.575   8.645  49.002  1.00  0.00     0.004 C 
ENDBRANCH   8   9
ENDBRANCH   7   8
ENDBRANCH   1   7
TORSDOF 6
ENDMDL
MODEL 3
REMARK VINA RESULT:    -3.774      1.208      2.194
REMARK INTER + INTRA:          -5.540
REMARK INTER:                  -5.288
REMARK INTRA:                  -0.251
REMARK UNBOUND:                -0.442
REMARK SMILES CCCCCCCC(=O)[O-]
REMARK SMILES IDX 5 1 6 2 7 3 8 4 9 5 10 6 4 7 3 8 2 9 1 10
REMARK H PARENT
REMARK Flexibility Score: inf
ROOT
ATOM      1  C   UNL     1      31.857   6.175  47.852  1.00  0.00     0.000 C 
ENDROOT
BRANCH   1   2
ATOM      2  C   UNL     1      33.373   6.420  47.890  1.00  0.00     0.006 C 
BRANCH   2   3
ATOM      3  C   UNL     1      34.173   5.165  47.516  1.00  0.00     0.053 C 
BRANCH   3   4
ATOM      4  C   UNL     1      34.716   5.245  46.122  1.00  0.00     0.041 C 
ATOM      5  O   UNL     1      35.555   4.396  45.719  1.00  0.00    -0.550 OA
ATOM      6  O   UNL     1      34.322   6.276  45.280  1.00  0.00    -0.550 OA
ENDBRANCH   3   4
ENDBRANCH   2   3
ENDBRANCH   1   2
BRANCH   1   7
ATOM      7  C   UNL     1      31.085   7.453  48.202  1.00  0.00     0.000 C 
BRANCH   7   8
ATOM      8  C   UNL     1      29.773   7.124  48.923  1.00  0.00    -0.000 C 
BRANCH   8   9
ATOM      9  C   UNL     1      29.413   5.644  48.759  1.00  0.00    -0.003 C 
ATOM     10  C   UNL     1      28.184   5.470  47.871  1.00  0.00     0.004 C 
ENDBRANCH   8   9
ENDBRANCH   7   8
ENDBRANCH   1   7
TORSDOF 6
ENDMDL
MODEL 4
REMARK VINA RESULT:    -3.601     17.368     18.170
REMARK INTER + INTRA:          -5.306
REMARK INTER:                  -4.909
REMARK INTRA:                  -0.397
REMARK UNBOUND:                -0.442
REMARK SMILES CCCCCCCC(=O)[O-]
REMARK SMILES IDX 5 1 6 2 7 3 8 4 9 5 10 6 4 7 3 8 2 9 1 10
REMARK H PARENT
REMARK Flexibility Score: inf
ROOT
ATOM      1  C   UNL     1      21.164  13.024  35.558  1.00  0.00     0.000 C 
ENDROOT
BRANCH   1   2
ATOM      2  C   UNL     1      20.167  13.790  34.675  1.00  0.00     0.006 C 
BRANCH   2   3
ATOM      3  C   UNL     1      20.868  14.586  33.566  1.00  0.00     0.053 C 
BRANCH   3   4
ATOM      4  C   UNL     1      21.299  13.704  32.434  1.00  0.00     0.041 C 
ATOM      5  O   UNL     1      22.205  14.083  31.646  1.00  0.00    -0.550 OA
ATOM      6  O   UNL     1      20.676  12.479  32.230  1.00  0.00    -0.550 OA
ENDBRANCH   3   4
ENDBRANCH   2   3
ENDBRANCH   1   2
BRANCH   1   7
ATOM      7  C   UNL     1      20.639  11.622  35.891  1.00  0.00     0.000 C 
BRANCH   7   8
ATOM      8  C   UNL     1      21.747  10.571  35.756  1.00  0.00    -0.000 C 
BRANCH   8   9
ATOM      9  C   UNL     1      22.948  11.135  34.988  1.00  0.00    -0.003 C 
ATOM     10  C   UNL     1      24.254  10.861  35.728  1.00  0.00     0.004 C 
ENDBRANCH   8   9
ENDBRANCH   7   8
ENDBRANCH   1   7
TORSDOF 6
ENDMDL
MODEL 5
REMARK VINA RESULT:    -3.521      1.796      2.298
REMARK INTER + INTRA:          -5.199
REMARK INTER:                  -4.845
REMARK INTRA:                  -0.353
REMARK UNBOUND:                -0.442
REMARK SMILES CCCCCCCC(=O)[O-]
REMARK SMILES IDX 5 1 6 2 7 3 8 4 9 5 10 6 4 7 3 8 2 9 1 10
REMARK H PARENT
REMARK Flexibility Score: inf
ROOT
ATOM      1  C   UNL     1      31.410   6.399  47.503  1.00  0.00     0.000 C 
ENDROOT
BRANCH   1   2
ATOM      2  C   UNL     1      32.372   5.289  47.952  1.00  0.00     0.006 C 
BRANCH   2   3
ATOM      3  C   UNL     1      33.742   5.842  48.367  1.00  0.00     0.053 C 
BRANCH   3   4
ATOM      4  C   UNL     1      34.858   4.930  47.958  1.00  0.00     0.041 C 
ATOM      5  O   UNL     1      34.828   4.357  46.837  1.00  0.00    -0.550 OA
ATOM      6  O   UNL     1      35.912   4.686  48.828  1.00  0.00    -0.550 OA
ENDBRANCH   3   4
ENDBRANCH   2   3
ENDBRANCH   1   2
BRANCH   1   7
ATOM      7  C   UNL     1      30.258   6.566  48.502  1.00  0.00     0.000 C 
BRANCH   7   8
ATOM      8  C   UNL     1      30.127   8.025  48.954  1.00  0.00    -0.000 C 
BRANCH   8   9
ATOM      9  C   UNL     1      31.505   8.650  49.199  1.00  0.00    -0.003 C 
ATOM     10  C   UNL     1      31.609  10.028  48.551  1.00  0.00     0.004 C 
ENDBRANCH   8   9
ENDBRANCH   7   8
ENDBRANCH   1   7
TORSDOF 6
ENDMDL
MODEL 6
REMARK VINA RESULT:    -3.488      3.406      5.007
REMARK INTER + INTRA:          -5.154
REMARK INTER:                  -4.774
REMARK INTRA:                  -0.381
REMARK UNBOUND:                -0.442
REMARK SMILES CCCCCCCC(=O)[O-]
REMARK SMILES IDX 5 1 6 2 7 3 8 4 9 5 10 6 4 7 3 8 2 9 1 10
REMARK H PARENT
REMARK Flexibility Score: inf
ROOT
ATOM      1  C   UNL     1      32.541   6.589  48.977  1.00  0.00     0.000 C 
ENDROOT
BRANCH   1   2
ATOM      2  C   UNL     1      31.535   5.736  48.190  1.00  0.00     0.006 C 
BRANCH   2   3
ATOM      3  C   UNL     1      30.246   6.506  47.873  1.00  0.00     0.053 C 
BRANCH   3   4
ATOM      4  C   UNL     1      29.055   5.900  48.552  1.00  0.00     0.041 C 
ATOM      5  O   UNL     1      28.076   5.495  47.871  1.00  0.00    -0.550 OA
ATOM      6  O   UNL     1      29.013   5.813  49.937  1.00  0.00    -0.550 OA
ENDBRANCH   3   4
ENDBRANCH   2   3
ENDBRANCH   1   2
BRANCH   1   7
ATOM      7  C   UNL     1      33.842   6.775  48.186  1.00  0.00     0.000 C 
BRANCH   7   8
ATOM      8  C   UNL     1      34.379   5.430  47.684  1.00  0.00    -0.000 C 
BRANCH   8   9
ATOM      9  C   UNL     1      34.621   5.464  46.171  1.00  0.00    -0.003 C 
ATOM     10  C   UNL     1      33.881   6.630  45.521  1.00  0.00     0.004 C 
ENDBRANCH   8   9
ENDBRANCH   7   8
ENDBRANCH   1   7
TORSDOF 6
ENDMDL
MODEL 7
REMARK VINA RESULT:    -3.369      2.515      3.434
REMARK INTER + INTRA:          -4.994
REMARK INTER:                  -4.727
REMARK INTRA:                  -0.267
REMARK UNBOUND:                -0.442
REMARK SMILES CCCCCCCC(=O)[O-]
REMARK SMILES IDX 5 1 6 2 7 3 8 4 9 5 10 6 4 7 3 8 2 9 1 10
REMARK H PARENT
REMARK Flexibility Score: inf
ROOT
ATOM      1  C   UNL     1      30.658   8.029  48.631  1.00  0.00     0.000 C 
ENDROOT
BRANCH   1   2
ATOM      2  C   UNL     1      31.613   9.041  49.281  1.00  0.00     0.006 C 
BRANCH   2   3
ATOM      3  C   UNL     1      32.157  10.058  48.269  1.00  0.00     0.053 C 
BRANCH   3   4
ATOM      4  C   UNL     1      33.571   9.755  47.880  1.00  0.00     0.041 C 
ATOM      5  O   UNL     1      33.941   9.888  46.683  1.00  0.00    -0.550 OA
ATOM      6  O   UNL     1      34.471   9.293  48.831  1.00  0.00    -0.550 OA
ENDBRANCH   3   4
ENDBRANCH   2   3
ENDBRANCH   1   2
BRANCH   1   7
ATOM      7  C   UNL     1      31.429   6.823  48.079  1.00  0.00     0.000 C 
BRANCH   7   8
ATOM      8  C   UNL     1      30.632   5.527  48.268  1.00  0.00    -0.000 C 
BRANCH   8   9
ATOM      9  C   UNL     1      29.230   5.818  48.813  1.00  0.00    -0.003 C 
ATOM     10  C   UNL     1      28.155   5.456  47.792  1.00  0.00     0.004 C 
ENDBRANCH   8   9
ENDBRANCH   7   8
ENDBRANCH   1   7
TORSDOF 6
ENDMDL
MODEL 8
REMARK VINA RESULT:    -3.350      3.243      5.098
REMARK INTER + INTRA:          -4.968
REMARK INTER:                  -4.745
REMARK INTRA:                  -0.223
REMARK UNBOUND:                -0.442
REMARK SMILES CCCCCCCC(=O)[O-]
REMARK SMILES IDX 5 1 6 2 7 3 8 4 9 5 10 6 4 7 3 8 2 9 1 10
REMARK H PARENT
REMARK Flexibility Score: inf
ROOT
ATOM      1  C   UNL     1      32.872   9.719  47.895  1.00  0.00     0.000 C 
ENDROOT
BRANCH   1   2
ATOM      2  C   UNL     1      32.433   8.487  48.701  1.00  0.00     0.006 C 
BRANCH   2   3
ATOM      3  C   UNL     1      30.917   8.258  48.630  1.00  0.00     0.053 C 
BRANCH   3   4
ATOM      4  C   UNL     1      30.583   6.916  48.055  1.00  0.00     0.041 C 
ATOM      5  O   UNL     1      29.546   6.308  48.430  1.00  0.00    -0.550 OA
ATOM      6  O   UNL     1      31.433   6.323  47.132  1.00  0.00    -0.550 OA
ENDBRANCH   3   4
ENDBRANCH   2   3
ENDBRANCH   1   2
BRANCH   1   7
ATOM      7  C   UNL     1      33.831   9.323  46.765  1.00  0.00     0.000 C 
BRANCH   7   8
ATOM      8  C   UNL     1      34.581  10.546  46.225  1.00  0.00    -0.000 C 
BRANCH   8   9
ATOM      9  C   UNL     1      34.624  10.532  44.693  1.00  0.00    -0.003 C 
ATOM     10  C   UNL     1      34.664   9.104  44.155  1.00  0.00     0.004 C 
ENDBRANCH   8   9
ENDBRANCH   7   8
ENDBRANCH   1   7
TORSDOF 6
ENDMDL
MODEL 9
REMARK VINA RESULT:    -3.327      2.247      3.791
REMARK INTER + INTRA:          -4.936
REMARK INTER:                  -4.285
REMARK INTRA:                  -0.651
REMARK UNBOUND:                -0.442
REMARK SMILES CCCCCCCC(=O)[O-]
REMARK SMILES IDX 5 1 6 2 7 3 8 4 9 5 10 6 4 7 3 8 2 9 1 10
REMARK H PARENT
REMARK Flexibility Score: inf
ROOT
ATOM      1  C   UNL     1      30.652   7.376  48.248  1.00  0.00     0.000 C 
ENDROOT
BRANCH   1   2
ATOM      2  C   UNL     1      31.604   8.249  49.079  1.00  0.00     0.006 C 
BRANCH   2   3
ATOM      3  C   UNL     1      31.997   9.539  48.346  1.00  0.00     0.053 C 
BRANCH   3   4
ATOM      4  C   UNL     1      33.465   9.587  48.052  1.00  0.00     0.041 C 
ATOM      5  O   UNL     1      34.298   9.235  48.929  1.00  0.00    -0.550 OA
ATOM      6  O   UNL     1      33.915  10.052  46.823  1.00  0.00    -0.550 OA
ENDBRANCH   3   4
ENDBRANCH   2   3
ENDBRANCH   1   2
BRANCH   1   7
ATOM      7  C   UNL     1      31.424   6.291  47.486  1.00  0.00     0.000 C 
BRANCH   7   8
ATOM      8  C   UNL     1      32.688   5.876  48.249  1.00  0.00    -0.000 C 
BRANCH   8   9
ATOM      9  C   UNL     1      33.907   5.855  47.322  1.00  0.00    -0.003 C 
ATOM     10  C   UNL     1      33.620   6.588  46.015  1.00  0.00     0.004 C 
ENDBRANCH   8   9
ENDBRANCH   7   8
ENDBRANCH   1   7
TORSDOF 6
ENDMDL
