MODEL 1
REMARK VINA RESULT:    -5.080      0.000      0.000
REMARK INTER + INTRA:          -5.894
REMARK INTER:                  -5.674
REMARK INTRA:                  -0.219
REMARK UNBOUND:                -0.219
REMARK SMILES CC(C)c1ccc(C(=O)[O-])cc1
REMARK SMILES IDX 7 1 6 2 11 3 5 4 12 5 4 6 8 7 9 8 10 9 2 10 1 11 3 12
REMARK H PARENT
REMARK Flexibility Score: inf
ROOT
ATOM      1  C   UNL     1      -9.163 -23.115  47.905  1.00  0.00    -0.003 A 
ATOM      2  C   UNL     1      -8.222 -22.322  47.226  1.00  0.00     0.010 A 
ATOM      3  C   UNL     1      -8.710 -24.193  48.682  1.00  0.00     0.010 A 
ATOM      4  C   UNL     1      -6.856 -22.602  47.323  1.00  0.00     0.004 A 
ATOM      5  C   UNL     1      -7.344 -24.474  48.779  1.00  0.00     0.004 A 
ATOM      6  C   UNL     1      -6.401 -23.683  48.101  1.00  0.00    -0.045 A 
ENDROOT
BRANCH   1   7
ATOM      7  C   UNL     1     -10.610 -22.822  47.805  1.00  0.00     0.071 C 
ATOM      8  O   UNL     1     -11.062 -22.144  46.843  1.00  0.00    -0.545 OA
ATOM      9  O   UNL     1     -11.492 -23.290  48.772  1.00  0.00    -0.545 OA
ENDBRANCH   1   7
BRANCH   6  10
ATOM     10  C   UNL     1      -4.922 -23.998  48.216  1.00  0.00     0.013 C 
ATOM     11  C   UNL     1      -4.664 -25.502  48.063  1.00  0.00     0.012 C 
ATOM     12  C   UNL     1      -4.104 -23.194  47.199  1.00  0.00     0.012 C 
ENDBRANCH   6  10
TORSDOF 2
ENDMDL
MODEL 2
REMARK VINA RESULT:    -4.957      3.129      5.071
REMARK INTER + INTRA:          -5.756
REMARK INTER:                  -5.536
REMARK INTRA:                  -0.220
REMARK UNBOUND:                -0.219
REMARK SMILES CC(C)c1ccc(C(=O)[O-])cc1
REMARK SMILES IDX 7 1 6 2 11 3 5 4 12 5 4 6 8 7 9 8 10 9 2 10 1 11 3 12
REMARK H PARENT
REMARK Flexibility Score: inf
ROOT
ATOM      1  C   UNL     1      -6.099 -23.233  47.601  1.00  0.00    -0.003 A 
ATOM      2  C   UNL     1      -6.624 -21.997  47.186  1.00  0.00     0.010 A 
ATOM      3  C   UNL     1      -6.983 -24.258  47.972  1.00  0.00     0.010 A 
ATOM      4  C   UNL     1      -8.006 -21.791  47.145  1.00  0.00     0.004 A 
ATOM      5  C   UNL     1      -8.366 -24.053  47.930  1.00  0.00     0.004 A 
ATOM      6  C   UNL     1      -8.894 -22.818  47.517  1.00  0.00    -0.045 A 
ENDROOT
BRANCH   1   7
ATOM      7  C   UNL     1      -4.636 -23.454  47.647  1.00  0.00     0.071 C 
ATOM      8  O   UNL     1      -4.147 -24.350  48.386  1.00  0.00    -0.545 OA
ATOM      9  O   UNL     1      -3.782 -22.675  46.877  1.00  0.00    -0.545 OA
ENDBRANCH   1   7
BRANCH   6  10
ATOM     10  C   UNL     1     -10.396 -22.610  47.476  1.00  0.00     0.013 C 
ATOM     11  C   UNL     1     -11.092 -23.386  48.600  1.00  0.00     0.012 C 
ATOM     12  C   UNL     1     -10.749 -21.119  47.535  1.00  0.00     0.012 C 
ENDBRANCH   6  10
TORSDOF 2
ENDMDL
MODEL 3
REMARK VINA RESULT:    -4.818      2.792      5.157
REMARK INTER + INTRA:          -5.601
REMARK INTER:                  -5.382
REMARK INTRA:                  -0.219
REMARK UNBOUND:                -0.219
REMARK SMILES CC(C)c1ccc(C(=O)[O-])cc1
REMARK SMILES IDX 7 1 6 2 11 3 5 4 12 5 4 6 8 7 9 8 10 9 2 10 1 11 3 12
REMARK H PARENT
REMARK Flexibility Score: inf
ROOT
ATOM      1  C   UNL     1      -7.210 -23.512  47.765  1.00  0.00    -0.003 A 
ATOM      2  C   UNL     1      -7.788 -22.370  47.184  1.00  0.00     0.010 A 
ATOM      3  C   UNL     1      -8.018 -24.370  48.528  1.00  0.00     0.010 A 
ATOM      4  C   UNL     1      -9.146 -22.093  47.364  1.00  0.00     0.004 A 
ATOM      5  C   UNL     1      -9.376 -24.093  48.709  1.00  0.00     0.004 A 
ATOM      6  C   UNL     1      -9.956 -22.952  48.129  1.00  0.00    -0.045 A 
ENDROOT
BRANCH   1   7
ATOM      7  C   UNL     1      -5.772 -23.809  47.578  1.00  0.00     0.071 C 
ATOM      8  O   UNL     1      -5.330 -24.976  47.755  1.00  0.00    -0.545 OA
ATOM      9  O   UNL     1      -4.889 -22.803  47.205  1.00  0.00    -0.545 OA
ENDBRANCH   1   7
BRANCH   6  10
ATOM     10  C   UNL     1     -11.432 -22.664  48.332  1.00  0.00     0.013 C 
ATOM     11  C   UNL     1     -12.125 -22.363  46.997  1.00  0.00     0.012 C 
ATOM     12  C   UNL     1     -12.125 -23.818  49.065  1.00  0.00     0.012 C 
ENDBRANCH   6  10
TORSDOF 2
ENDMDL
MODEL 4
REMARK VINA RESULT:    -4.231     12.018     13.619
REMARK INTER + INTRA:          -4.946
REMARK INTER:                  -4.726
REMARK INTRA:                  -0.220
REMARK UNBOUND:                -0.219
REMARK SMILES CC(C)c1ccc(C(=O)[O-])cc1
REMARK SMILES IDX 7 1 6 2 11 3 5 4 12 5 4 6 8 7 9 8 10 9 2 10 1 11 3 12
REMARK H PARENT
REMARK Flexibility Score: inf
ROOT
ATOM      1  C   UNL     1      -3.029 -35.087  45.846  1.00  0.00    -0.003 A 
ATOM      2  C   UNL     1      -2.073 -34.073  46.028  1.00  0.00     0.010 A 
ATOM      3  C   UNL     1      -2.618 -36.327  45.332  1.00  0.00     0.010 A 
ATOM      4  C   UNL     1      -0.732 -34.296  45.704  1.00  0.00     0.004 A 
ATOM      5  C   UNL     1      -1.276 -36.550  45.007  1.00  0.00     0.004 A 
ATOM      6  C   UNL     1      -0.318 -35.539  45.188  1.00  0.00    -0.045 A 
ENDROOT
BRANCH   1   7
ATOM      7  C   UNL     1      -4.451 -34.855  46.188  1.00  0.00     0.071 C 
ATOM      8  O   UNL     1      -4.772 -33.977  47.033  1.00  0.00    -0.545 OA
ATOM      9  O   UNL     1      -5.452 -35.604  45.582  1.00  0.00    -0.545 OA
ENDBRANCH   1   7
BRANCH   6  10
ATOM     10  C   UNL     1       1.134 -35.795  44.832  1.00  0.00     0.013 C 
ATOM     11  C   UNL     1       1.268 -37.001  43.895  1.00  0.00     0.012 C 
ATOM     12  C   UNL     1       1.782 -34.548  44.221  1.00  0.00     0.012 C 
ENDBRANCH   6  10
TORSDOF 2
ENDMDL
MODEL 5
REMARK VINA RESULT:    -4.220     12.096     13.911
REMARK INTER + INTRA:          -4.933
REMARK INTER:                  -4.728
REMARK INTRA:                  -0.205
REMARK UNBOUND:                -0.219
REMARK SMILES CC(C)c1ccc(C(=O)[O-])cc1
REMARK SMILES IDX 7 1 6 2 11 3 5 4 12 5 4 6 8 7 9 8 10 9 2 10 1 11 3 12
REMARK H PARENT
REMARK Flexibility Score: inf
ROOT
ATOM      1  C   UNL     1      -1.897 -35.728  45.772  1.00  0.00    -0.003 A 
ATOM      2  C   UNL     1      -2.783 -36.628  45.156  1.00  0.00     0.010 A 
ATOM      3  C   UNL     1      -2.396 -34.511  46.264  1.00  0.00     0.010 A 
ATOM      4  C   UNL     1      -4.140 -36.318  45.034  1.00  0.00     0.004 A 
ATOM      5  C   UNL     1      -3.754 -34.200  46.142  1.00  0.00     0.004 A 
ATOM      6  C   UNL     1      -4.641 -35.098  45.526  1.00  0.00    -0.045 A 
ENDROOT
BRANCH   1   7
ATOM      7  C   UNL     1      -0.459 -36.053  45.902  1.00  0.00     0.071 C 
ATOM      8  O   UNL     1       0.073 -36.165  47.039  1.00  0.00    -0.545 OA
ATOM      9  O   UNL     1       0.327 -36.236  44.770  1.00  0.00    -0.545 OA
ENDBRANCH   1   7
BRANCH   6  10
ATOM     10  C   UNL     1      -6.112 -34.748  45.402  1.00  0.00     0.013 C 
ATOM     11  C   UNL     1      -6.576 -33.885  46.581  1.00  0.00     0.012 C 
ATOM     12  C   UNL     1      -6.404 -34.057  44.065  1.00  0.00     0.012 C 
ENDBRANCH   6  10
TORSDOF 2
ENDMDL
MODEL 6
REMARK VINA RESULT:    -4.220     12.200     13.871
REMARK INTER + INTRA:          -4.933
REMARK INTER:                  -4.731
REMARK INTRA:                  -0.201
REMARK UNBOUND:                -0.219
REMARK SMILES CC(C)c1ccc(C(=O)[O-])cc1
REMARK SMILES IDX 7 1 6 2 11 3 5 4 12 5 4 6 8 7 9 8 10 9 2 10 1 11 3 12
REMARK H PARENT
REMARK Flexibility Score: inf
ROOT
ATOM      1  C   UNL     1      -1.951 -35.732  45.796  1.00  0.00    -0.003 A 
ATOM      2  C   UNL     1      -2.450 -34.500  46.253  1.00  0.00     0.010 A 
ATOM      3  C   UNL     1      -2.834 -36.645  45.200  1.00  0.00     0.010 A 
ATOM      4  C   UNL     1      -3.805 -34.189  46.116  1.00  0.00     0.004 A 
ATOM      5  C   UNL     1      -4.190 -36.335  45.062  1.00  0.00     0.004 A 
ATOM      6  C   UNL     1      -4.692 -35.104  45.518  1.00  0.00    -0.045 A 
ENDROOT
BRANCH   1   7
ATOM      7  C   UNL     1      -0.516 -36.066  45.941  1.00  0.00     0.071 C 
ATOM      8  O   UNL     1      -0.076 -36.552  47.017  1.00  0.00    -0.545 OA
ATOM      9  O   UNL     1       0.367 -35.845  44.891  1.00  0.00    -0.545 OA
ENDBRANCH   1   7
BRANCH   6  10
ATOM     10  C   UNL     1      -6.166 -34.780  45.362  1.00  0.00     0.013 C 
ATOM     11  C   UNL     1      -6.692 -34.004  46.575  1.00  0.00     0.012 C 
ATOM     12  C   UNL     1      -6.428 -34.012  44.062  1.00  0.00     0.012 C 
ENDBRANCH   6  10
TORSDOF 2
ENDMDL
MODEL 7
REMARK VINA RESULT:    -4.219     12.020     13.648
REMARK INTER + INTRA:          -4.932
REMARK INTER:                  -4.712
REMARK INTRA:                  -0.219
REMARK UNBOUND:                -0.219
REMARK SMILES CC(C)c1ccc(C(=O)[O-])cc1
REMARK SMILES IDX 7 1 6 2 11 3 5 4 12 5 4 6 8 7 9 8 10 9 2 10 1 11 3 12
REMARK H PARENT
REMARK Flexibility Score: inf
ROOT
ATOM      1  C   UNL     1      -3.031 -35.092  45.884  1.00  0.00    -0.003 A 
ATOM      2  C   UNL     1      -2.623 -36.328  45.354  1.00  0.00     0.010 A 
ATOM      3  C   UNL     1      -2.076 -34.079  46.062  1.00  0.00     0.010 A 
ATOM      4  C   UNL     1      -1.286 -36.545  45.008  1.00  0.00     0.004 A 
ATOM      5  C   UNL     1      -0.738 -34.295  45.718  1.00  0.00     0.004 A 
ATOM      6  C   UNL     1      -0.327 -35.529  45.187  1.00  0.00    -0.045 A 
ENDROOT
BRANCH   1   7
ATOM      7  C   UNL     1      -4.446 -34.859  46.252  1.00  0.00     0.071 C 
ATOM      8  O   UNL     1      -4.749 -33.992  47.115  1.00  0.00    -0.545 OA
ATOM      9  O   UNL     1      -5.460 -35.595  45.651  1.00  0.00    -0.545 OA
ENDBRANCH   1   7
BRANCH   6  10
ATOM     10  C   UNL     1       1.127 -35.750  44.816  1.00  0.00     0.013 C 
ATOM     11  C   UNL     1       1.284 -36.968  43.897  1.00  0.00     0.012 C 
ATOM     12  C   UNL     1       1.731 -34.495  44.176  1.00  0.00     0.012 C 
ENDBRANCH   6  10
TORSDOF 2
ENDMDL
MODEL 8
REMARK VINA RESULT:    -4.133     10.625     12.753
REMARK INTER + INTRA:          -4.836
REMARK INTER:                  -4.628
REMARK INTRA:                  -0.208
REMARK UNBOUND:                -0.219
REMARK SMILES CC(C)c1ccc(C(=O)[O-])cc1
REMARK SMILES IDX 7 1 6 2 11 3 5 4 12 5 4 6 8 7 9 8 10 9 2 10 1 11 3 12
REMARK H PARENT
REMARK Flexibility Score: inf
ROOT
ATOM      1  C   UNL     1       3.501 -21.208  46.873  1.00  0.00    -0.003 A 
ATOM      2  C   UNL     1       4.262 -22.289  46.398  1.00  0.00     0.010 A 
ATOM      3  C   UNL     1       3.923 -20.536  48.032  1.00  0.00     0.010 A 
ATOM      4  C   UNL     1       5.422 -22.690  47.067  1.00  0.00     0.004 A 
ATOM      5  C   UNL     1       5.082 -20.937  48.703  1.00  0.00     0.004 A 
ATOM      6  C   UNL     1       5.845 -22.017  48.229  1.00  0.00    -0.045 A 
ENDROOT
BRANCH   1   7
ATOM      7  C   UNL     1       2.272 -20.781  46.167  1.00  0.00     0.071 C 
ATOM      8  O   UNL     1       2.309 -19.842  45.328  1.00  0.00    -0.545 OA
ATOM      9  O   UNL     1       1.059 -21.409  46.423  1.00  0.00    -0.545 OA
ENDBRANCH   1   7
BRANCH   6  10
ATOM     10  C   UNL     1       7.102 -22.441  48.966  1.00  0.00     0.013 C 
ATOM     11  C   UNL     1       7.710 -23.702  48.340  1.00  0.00     0.012 C 
ATOM     12  C   UNL     1       8.125 -21.301  49.014  1.00  0.00     0.012 C 
ENDBRANCH   6  10
TORSDOF 2
ENDMDL
MODEL 9
REMARK VINA RESULT:    -4.024     12.675     14.031
REMARK INTER + INTRA:          -4.713
REMARK INTER:                  -4.513
REMARK INTRA:                  -0.200
REMARK UNBOUND:                -0.219
REMARK SMILES CC(C)c1ccc(C(=O)[O-])cc1
REMARK SMILES IDX 7 1 6 2 11 3 5 4 12 5 4 6 8 7 9 8 10 9 2 10 1 11 3 12
REMARK H PARENT
REMARK Flexibility Score: inf
ROOT
ATOM      1  C   UNL     1      -1.115 -35.049  45.548  1.00  0.00    -0.003 A 
ATOM      2  C   UNL     1      -2.011 -34.052  45.971  1.00  0.00     0.010 A 
ATOM      3  C   UNL     1      -1.619 -36.312  45.197  1.00  0.00     0.010 A 
ATOM      4  C   UNL     1      -3.382 -34.313  46.041  1.00  0.00     0.004 A 
ATOM      5  C   UNL     1      -2.990 -36.574  45.268  1.00  0.00     0.004 A 
ATOM      6  C   UNL     1      -3.888 -35.579  45.690  1.00  0.00    -0.045 A 
ENDROOT
BRANCH   1   7
ATOM      7  C   UNL     1       0.338 -34.777  45.473  1.00  0.00     0.071 C 
ATOM      8  O   UNL     1       1.053 -34.822  46.510  1.00  0.00    -0.545 OA
ATOM      9  O   UNL     1       0.934 -34.465  44.257  1.00  0.00    -0.545 OA
ENDBRANCH   1   7
BRANCH   6  10
ATOM     10  C   UNL     1      -5.374 -35.877  45.761  1.00  0.00     0.013 C 
ATOM     11  C   UNL     1      -5.811 -36.163  47.202  1.00  0.00     0.012 C 
ATOM     12  C   UNL     1      -6.196 -34.735  45.152  1.00  0.00     0.012 C 
ENDBRANCH   6  10
TORSDOF 2
ENDMDL
