MODEL 1
REMARK VINA RESULT:    -5.850      0.000      0.000
REMARK INTER + INTRA:          -6.855
REMARK INTER:                  -6.705
REMARK INTRA:                  -0.150
REMARK UNBOUND:                -0.150
REMARK SMILES O=C([O-])C=Cc1ccc(O)cc1
REMARK SMILES IDX 6 1 7 2 12 3 8 4 11 5 9 6 5 7 4 8 2 9 1 10 3 11 10 12
REMARK H PARENT 10 13
REMARK Flexibility Score: inf
ROOT
ATOM      1  C   UNL     1      12.771 -13.108  28.399  1.00  0.00    -0.025 A 
ATOM      2  C   UNL     1      13.100 -12.501  29.623  1.00  0.00     0.012 A 
ATOM      3  C   UNL     1      11.615 -12.679  27.717  1.00  0.00     0.012 A 
ATOM      4  C   UNL     1      12.283 -11.507  30.167  1.00  0.00     0.047 A 
ATOM      5  C   UNL     1      10.799 -11.683  28.265  1.00  0.00     0.047 A 
ATOM      6  C   UNL     1      11.130 -11.097  29.492  1.00  0.00     0.115 A 
ENDROOT
BRANCH   1   7
ATOM      7  C   UNL     1      13.677 -14.152  27.858  1.00  0.00     0.010 C 
ATOM      8  C   UNL     1      14.474 -14.914  28.620  1.00  0.00     0.025 C 
BRANCH   8   9
ATOM      9  C   UNL     1      15.369 -15.934  28.047  1.00  0.00     0.064 C 
ATOM     10  O   UNL     1      15.804 -15.832  26.868  1.00  0.00    -0.545 OA
ATOM     11  O   UNL     1      15.741 -17.028  28.818  1.00  0.00    -0.545 OA
ENDBRANCH   8   9
ENDBRANCH   1   7
BRANCH   6  12
ATOM     12  O   UNL     1      10.324 -10.106  30.047  1.00  0.00    -0.508 OA
ATOM     13  H   UNL     1      10.713  -9.370  30.626  1.00  0.00     0.293 HD
ENDBRANCH   6  12
TORSDOF 3
ENDMDL
MODEL 2
REMARK VINA RESULT:    -5.771     12.737     14.631
REMARK INTER + INTRA:          -6.764
REMARK INTER:                  -6.614
REMARK INTRA:                  -0.151
REMARK UNBOUND:                -0.150
REMARK SMILES O=C([O-])C=Cc1ccc(O)cc1
REMARK SMILES IDX 6 1 7 2 12 3 8 4 11 5 9 6 5 7 4 8 2 9 1 10 3 11 10 12
REMARK H PARENT 10 13
REMARK Flexibility Score: inf
ROOT
ATOM      1  C   UNL     1      17.638  -0.954  26.666  1.00  0.00    -0.025 A 
ATOM      2  C   UNL     1      17.434  -1.138  28.044  1.00  0.00     0.012 A 
ATOM      3  C   UNL     1      18.726  -1.603  26.049  1.00  0.00     0.012 A 
ATOM      4  C   UNL     1      18.308  -1.929  28.794  1.00  0.00     0.047 A 
ATOM      5  C   UNL     1      19.598  -2.396  26.802  1.00  0.00     0.047 A 
ATOM      6  C   UNL     1      19.392  -2.558  28.177  1.00  0.00     0.115 A 
ENDROOT
BRANCH   1   7
ATOM      7  C   UNL     1      16.676  -0.113  25.912  1.00  0.00     0.010 C 
ATOM      8  C   UNL     1      15.928   0.848  26.473  1.00  0.00     0.025 C 
BRANCH   8   9
ATOM      9  C   UNL     1      14.974   1.657  25.694  1.00  0.00     0.064 C 
ATOM     10  O   UNL     1      14.545   1.263  24.577  1.00  0.00    -0.545 OA
ATOM     11  O   UNL     1      14.541   2.876  26.199  1.00  0.00    -0.545 OA
ENDBRANCH   8   9
ENDBRANCH   1   7
BRANCH   6  12
ATOM     12  O   UNL     1      20.256  -3.343  28.938  1.00  0.00    -0.508 OA
ATOM     13  H   UNL     1      21.206  -3.046  29.134  1.00  0.00     0.293 HD
ENDBRANCH   6  12
TORSDOF 3
ENDMDL
MODEL 3
REMARK VINA RESULT:    -5.697     12.549     14.588
REMARK INTER + INTRA:          -6.680
REMARK INTER:                  -6.539
REMARK INTRA:                  -0.140
REMARK UNBOUND:                -0.150
REMARK SMILES O=C([O-])C=Cc1ccc(O)cc1
REMARK SMILES IDX 6 1 7 2 12 3 8 4 11 5 9 6 5 7 4 8 2 9 1 10 3 11 10 12
REMARK H PARENT 10 13
REMARK Flexibility Score: inf
ROOT
ATOM      1  C   UNL     1      17.419  -1.013  26.771  1.00  0.00    -0.025 A 
ATOM      2  C   UNL     1      18.669  -1.377  26.243  1.00  0.00     0.012 A 
ATOM      3  C   UNL     1      17.073  -1.456  28.064  1.00  0.00     0.012 A 
ATOM      4  C   UNL     1      19.543  -2.185  26.975  1.00  0.00     0.047 A 
ATOM      5  C   UNL     1      17.951  -2.263  28.795  1.00  0.00     0.047 A 
ATOM      6  C   UNL     1      19.187  -2.632  28.250  1.00  0.00     0.115 A 
ENDROOT
BRANCH   1   7
ATOM      7  C   UNL     1      16.530  -0.146  25.959  1.00  0.00     0.010 C 
ATOM      8  C   UNL     1      15.839   0.889  26.459  1.00  0.00     0.025 C 
BRANCH   8   9
ATOM      9  C   UNL     1      14.957   1.722  25.624  1.00  0.00     0.064 C 
ATOM     10  O   UNL     1      14.515   1.302  24.521  1.00  0.00    -0.545 OA
ATOM     11  O   UNL     1      14.607   2.994  26.058  1.00  0.00    -0.545 OA
ENDBRANCH   8   9
ENDBRANCH   1   7
BRANCH   6  12
ATOM     12  O   UNL     1      20.069  -3.437  28.968  1.00  0.00    -0.508 OA
ATOM     13  H   UNL     1      19.797  -3.867  29.845  1.00  0.00     0.293 HD
ENDBRANCH   6  12
TORSDOF 3
ENDMDL
MODEL 4
REMARK VINA RESULT:    -5.533     12.508     13.553
REMARK INTER + INTRA:          -6.492
REMARK INTER:                  -6.355
REMARK INTRA:                  -0.136
REMARK UNBOUND:                -0.150
REMARK SMILES O=C([O-])C=Cc1ccc(O)cc1
REMARK SMILES IDX 6 1 7 2 12 3 8 4 11 5 9 6 5 7 4 8 2 9 1 10 3 11 10 12
REMARK H PARENT 10 13
REMARK Flexibility Score: inf
ROOT
ATOM      1  C   UNL     1      16.699  -0.726  26.970  1.00  0.00    -0.025 A 
ATOM      2  C   UNL     1      16.057   0.137  27.874  1.00  0.00     0.012 A 
ATOM      3  C   UNL     1      16.550  -0.495  25.587  1.00  0.00     0.012 A 
ATOM      4  C   UNL     1      15.264   1.191  27.411  1.00  0.00     0.047 A 
ATOM      5  C   UNL     1      15.756   0.562  25.128  1.00  0.00     0.047 A 
ATOM      6  C   UNL     1      15.110   1.405  26.039  1.00  0.00     0.115 A 
ENDROOT
BRANCH   1   7
ATOM      7  C   UNL     1      17.538  -1.824  27.511  1.00  0.00     0.010 C 
ATOM      8  C   UNL     1      18.828  -1.679  27.849  1.00  0.00     0.025 C 
BRANCH   8   9
ATOM      9  C   UNL     1      19.633  -2.795  28.373  1.00  0.00     0.064 C 
ATOM     10  O   UNL     1      19.142  -3.633  29.176  1.00  0.00    -0.545 OA
ATOM     11  O   UNL     1      20.958  -2.926  27.977  1.00  0.00    -0.545 OA
ENDBRANCH   8   9
ENDBRANCH   1   7
BRANCH   6  12
ATOM     12  O   UNL     1      14.315   2.458  25.592  1.00  0.00    -0.508 OA
ATOM     13  H   UNL     1      14.233   2.677  24.605  1.00  0.00     0.293 HD
ENDBRANCH   6  12
TORSDOF 3
ENDMDL
MODEL 5
REMARK VINA RESULT:    -5.482      1.119      5.745
REMARK INTER + INTRA:          -6.433
REMARK INTER:                  -6.296
REMARK INTRA:                  -0.137
REMARK UNBOUND:                -0.150
REMARK SMILES O=C([O-])C=Cc1ccc(O)cc1
REMARK SMILES IDX 6 1 7 2 12 3 8 4 11 5 9 6 5 7 4 8 2 9 1 10 3 11 10 12
REMARK H PARENT 10 13
REMARK Flexibility Score: inf
ROOT
ATOM      1  C   UNL     1      13.889 -13.369  28.813  1.00  0.00    -0.025 A 
ATOM      2  C   UNL     1      14.269 -14.233  29.854  1.00  0.00     0.012 A 
ATOM      3  C   UNL     1      14.201 -13.727  27.486  1.00  0.00     0.012 A 
ATOM      4  C   UNL     1      14.966 -15.413  29.581  1.00  0.00     0.047 A 
ATOM      5  C   UNL     1      14.898 -14.910  27.217  1.00  0.00     0.047 A 
ATOM      6  C   UNL     1      15.284 -15.754  28.265  1.00  0.00     0.115 A 
ENDROOT
BRANCH   1   7
ATOM      7  C   UNL     1      13.141 -12.133  29.153  1.00  0.00     0.010 C 
ATOM      8  C   UNL     1      11.809 -12.084  29.295  1.00  0.00     0.025 C 
BRANCH   8   9
ATOM      9  C   UNL     1      11.099 -10.835  29.623  1.00  0.00     0.064 C 
ATOM     10  O   UNL     1      11.670  -9.908  30.257  1.00  0.00    -0.545 OA
ATOM     11  O   UNL     1       9.777 -10.677  29.227  1.00  0.00    -0.545 OA
ENDBRANCH   8   9
ENDBRANCH   1   7
BRANCH   6  12
ATOM     12  O   UNL     1      15.980 -16.933  28.008  1.00  0.00    -0.508 OA
ATOM     13  H   UNL     1      16.682 -17.284  28.651  1.00  0.00     0.293 HD
ENDBRANCH   6  12
TORSDOF 3
ENDMDL
MODEL 6
REMARK VINA RESULT:    -5.080      1.427      5.870
REMARK INTER + INTRA:          -5.972
REMARK INTER:                  -5.833
REMARK INTRA:                  -0.139
REMARK UNBOUND:                -0.150
REMARK SMILES O=C([O-])C=Cc1ccc(O)cc1
REMARK SMILES IDX 6 1 7 2 12 3 8 4 11 5 9 6 5 7 4 8 2 9 1 10 3 11 10 12
REMARK H PARENT 10 13
REMARK Flexibility Score: inf
ROOT
ATOM      1  C   UNL     1      14.023 -13.508  28.762  1.00  0.00    -0.025 A 
ATOM      2  C   UNL     1      14.489 -13.796  27.467  1.00  0.00     0.012 A 
ATOM      3  C   UNL     1      14.254 -14.445  29.790  1.00  0.00     0.012 A 
ATOM      4  C   UNL     1      15.146 -15.000  27.199  1.00  0.00     0.047 A 
ATOM      5  C   UNL     1      14.913 -15.648  29.517  1.00  0.00     0.047 A 
ATOM      6  C   UNL     1      15.358 -15.929  28.220  1.00  0.00     0.115 A 
ENDROOT
BRANCH   1   7
ATOM      7  C   UNL     1      13.340 -12.213  28.999  1.00  0.00     0.010 C 
ATOM      8  C   UNL     1      13.016 -11.753  30.216  1.00  0.00     0.025 C 
BRANCH   8   9
ATOM      9  C   UNL     1      12.328 -10.466  30.413  1.00  0.00     0.064 C 
ATOM     10  O   UNL     1      11.204 -10.241  29.889  1.00  0.00    -0.545 OA
ATOM     11  O   UNL     1      12.928  -9.482  31.188  1.00  0.00    -0.545 OA
ENDBRANCH   8   9
ENDBRANCH   1   7
BRANCH   6  12
ATOM     12  O   UNL     1      16.014 -17.124  27.937  1.00  0.00    -0.508 OA
ATOM     13  H   UNL     1      17.000 -17.249  28.142  1.00  0.00     0.293 HD
ENDBRANCH   6  12
TORSDOF 3
ENDMDL
MODEL 7
REMARK VINA RESULT:    -3.817      2.748      5.306
REMARK INTER + INTRA:          -4.525
REMARK INTER:                  -4.374
REMARK INTRA:                  -0.151
REMARK UNBOUND:                -0.150
REMARK SMILES O=C([O-])C=Cc1ccc(O)cc1
REMARK SMILES IDX 6 1 7 2 12 3 8 4 11 5 9 6 5 7 4 8 2 9 1 10 3 11 10 12
REMARK H PARENT 10 13
REMARK Flexibility Score: inf
ROOT
ATOM      1  C   UNL     1      13.676 -12.210  29.378  1.00  0.00    -0.025 A 
ATOM      2  C   UNL     1      12.314 -12.122  29.044  1.00  0.00     0.012 A 
ATOM      3  C   UNL     1      14.507 -13.059  28.620  1.00  0.00     0.012 A 
ATOM      4  C   UNL     1      11.787 -12.882  27.996  1.00  0.00     0.047 A 
ATOM      5  C   UNL     1      13.977 -13.816  27.570  1.00  0.00     0.047 A 
ATOM      6  C   UNL     1      12.615 -13.731  27.258  1.00  0.00     0.115 A 
ENDROOT
BRANCH   1   7
ATOM      7  C   UNL     1      14.189 -11.376  30.493  1.00  0.00     0.010 C 
ATOM      8  C   UNL     1      13.403 -10.793  31.410  1.00  0.00     0.025 C 
BRANCH   8   9
ATOM      9  C   UNL     1      13.948  -9.962  32.498  1.00  0.00     0.064 C 
ATOM     10  O   UNL     1      13.363  -8.910  32.870  1.00  0.00    -0.545 OA
ATOM     11  O   UNL     1      15.127 -10.345  33.124  1.00  0.00    -0.545 OA
ENDBRANCH   8   9
ENDBRANCH   1   7
BRANCH   6  12
ATOM     12  O   UNL     1      12.076 -14.482  26.216  1.00  0.00    -0.508 OA
ATOM     13  H   UNL     1      11.527 -15.316  26.394  1.00  0.00     0.293 HD
ENDBRANCH   6  12
TORSDOF 3
ENDMDL
MODEL 8
REMARK VINA RESULT:    -3.581     10.035     10.897
REMARK INTER + INTRA:          -4.255
REMARK INTER:                  -4.117
REMARK INTRA:                  -0.138
REMARK UNBOUND:                -0.150
REMARK SMILES O=C([O-])C=Cc1ccc(O)cc1
REMARK SMILES IDX 6 1 7 2 12 3 8 4 11 5 9 6 5 7 4 8 2 9 1 10 3 11 10 12
REMARK H PARENT 10 13
REMARK Flexibility Score: inf
ROOT
ATOM      1  C   UNL     1      16.479  -2.955  27.372  1.00  0.00    -0.025 A 
ATOM      2  C   UNL     1      17.243  -2.501  28.460  1.00  0.00     0.012 A 
ATOM      3  C   UNL     1      15.462  -2.122  26.863  1.00  0.00     0.012 A 
ATOM      4  C   UNL     1      16.984  -1.259  29.044  1.00  0.00     0.047 A 
ATOM      5  C   UNL     1      15.206  -0.878  27.449  1.00  0.00     0.047 A 
ATOM      6  C   UNL     1      15.965  -0.445  28.542  1.00  0.00     0.115 A 
ENDROOT
BRANCH   1   7
ATOM      7  C   UNL     1      16.800  -4.278  26.780  1.00  0.00     0.010 C 
ATOM      8  C   UNL     1      15.889  -5.078  26.207  1.00  0.00     0.025 C 
BRANCH   8   9
ATOM      9  C   UNL     1      16.243  -6.391  25.640  1.00  0.00     0.064 C 
ATOM     10  O   UNL     1      17.290  -6.995  25.997  1.00  0.00    -0.545 OA
ATOM     11  O   UNL     1      15.408  -6.973  24.695  1.00  0.00    -0.545 OA
ENDBRANCH   8   9
ENDBRANCH   1   7
BRANCH   6  12
ATOM     12  O   UNL     1      15.717   0.791  29.135  1.00  0.00    -0.508 OA
ATOM     13  H   UNL     1      15.899   1.659  28.643  1.00  0.00     0.293 HD
ENDBRANCH   6  12
TORSDOF 3
ENDMDL
MODEL 9
REMARK VINA RESULT:    -3.482      1.740      2.174
REMARK INTER + INTRA:          -4.141
REMARK INTER:                  -4.002
REMARK INTRA:                  -0.140
REMARK UNBOUND:                -0.150
REMARK SMILES O=C([O-])C=Cc1ccc(O)cc1
REMARK SMILES IDX 6 1 7 2 12 3 8 4 11 5 9 6 5 7 4 8 2 9 1 10 3 11 10 12
REMARK H PARENT 10 13
REMARK Flexibility Score: inf
ROOT
ATOM      1  C   UNL     1      13.945 -12.903  29.385  1.00  0.00    -0.025 A 
ATOM      2  C   UNL     1      14.640 -12.158  28.417  1.00  0.00     0.012 A 
ATOM      3  C   UNL     1      12.692 -12.437  29.831  1.00  0.00     0.012 A 
ATOM      4  C   UNL     1      14.110 -10.962  27.925  1.00  0.00     0.047 A 
ATOM      5  C   UNL     1      12.164 -11.240  29.334  1.00  0.00     0.047 A 
ATOM      6  C   UNL     1      12.874 -10.499  28.382  1.00  0.00     0.115 A 
ENDROOT
BRANCH   1   7
ATOM      7  C   UNL     1      14.545 -14.171  29.869  1.00  0.00     0.010 C 
ATOM      8  C   UNL     1      14.789 -15.229  29.081  1.00  0.00     0.025 C 
BRANCH   8   9
ATOM      9  C   UNL     1      15.375 -16.476  29.600  1.00  0.00     0.064 C 
ATOM     10  O   UNL     1      16.224 -17.125  28.931  1.00  0.00    -0.545 OA
ATOM     11  O   UNL     1      14.986 -16.947  30.847  1.00  0.00    -0.545 OA
ENDBRANCH   8   9
ENDBRANCH   1   7
BRANCH   6  12
ATOM     12  O   UNL     1      12.359  -9.305  27.882  1.00  0.00    -0.508 OA
ATOM     13  H   UNL     1      12.562  -8.995  26.939  1.00  0.00     0.293 HD
ENDBRANCH   6  12
TORSDOF 3
ENDMDL
