MODEL 1
REMARK VINA RESULT:    -4.290      0.000      0.000
REMARK INTER + INTRA:          -5.169
REMARK INTER:                  -5.043
REMARK INTRA:                  -0.127
REMARK UNBOUND:                -0.127
REMARK SMILES O=C([O-])C=Cc1ccc(O)c(O)c1
REMARK SMILES IDX 6 1 13 2 7 3 11 4 8 5 9 6 5 7 4 8 2 9 1 10 3 11 12 12 10 14
REMARK H PARENT 12 13 10 15
REMARK Flexibility Score: inf
ROOT
ATOM      1  C   UNL     1       1.239  -0.615   8.160  1.00  0.00    -0.022 A 
ATOM      2  C   UNL     1       0.721   0.471   7.426  1.00  0.00     0.058 A 
ATOM      3  C   UNL     1       0.735  -0.864   9.448  1.00  0.00     0.012 A 
ATOM      4  C   UNL     1      -0.298   1.272   7.963  1.00  0.00     0.157 A 
ATOM      5  C   UNL     1      -0.280  -0.067   9.982  1.00  0.00     0.051 A 
ATOM      6  C   UNL     1      -0.802   0.999   9.240  1.00  0.00     0.157 A 
ENDROOT
BRANCH   1   7
ATOM      7  C   UNL     1       2.325  -1.484   7.642  1.00  0.00     0.010 C 
ATOM      8  C   UNL     1       3.330  -1.042   6.874  1.00  0.00     0.025 C 
BRANCH   8   9
ATOM      9  C   UNL     1       4.384  -1.936   6.367  1.00  0.00     0.064 C 
ATOM     10  O   UNL     1       4.124  -3.116   6.012  1.00  0.00    -0.545 OA
ATOM     11  O   UNL     1       5.690  -1.470   6.280  1.00  0.00    -0.545 OA
ENDBRANCH   8   9
ENDBRANCH   1   7
BRANCH   4  12
ATOM     12  O   UNL     1      -0.812   2.343   7.233  1.00  0.00    -0.504 OA
ATOM     13  H   UNL     1      -0.427   2.606   6.334  1.00  0.00     0.293 HD
ENDBRANCH   4  12
BRANCH   6  14
ATOM     14  O   UNL     1      -1.816   1.797   9.769  1.00  0.00    -0.504 OA
ATOM     15  H   UNL     1      -1.683   2.788   9.927  1.00  0.00     0.293 HD
ENDBRANCH   6  14
TORSDOF 4
ENDMDL
MODEL 2
REMARK VINA RESULT:    -4.247      1.859      6.274
REMARK INTER + INTRA:          -5.118
REMARK INTER:                  -4.969
REMARK INTRA:                  -0.149
REMARK UNBOUND:                -0.127
REMARK SMILES O=C([O-])C=Cc1ccc(O)c(O)c1
REMARK SMILES IDX 6 1 13 2 7 3 11 4 8 5 9 6 5 7 4 8 2 9 1 10 3 11 12 12 10 14
REMARK H PARENT 12 13 10 15
REMARK Flexibility Score: inf
ROOT
ATOM      1  C   UNL     1       3.515  -1.510   6.865  1.00  0.00    -0.022 A 
ATOM      2  C   UNL     1       4.824  -1.350   6.369  1.00  0.00     0.058 A 
ATOM      3  C   UNL     1       3.161  -2.732   7.460  1.00  0.00     0.012 A 
ATOM      4  C   UNL     1       5.765  -2.384   6.492  1.00  0.00     0.157 A 
ATOM      5  C   UNL     1       4.097  -3.761   7.584  1.00  0.00     0.051 A 
ATOM      6  C   UNL     1       5.401  -3.589   7.104  1.00  0.00     0.157 A 
ENDROOT
BRANCH   1   7
ATOM      7  C   UNL     1       2.481  -0.452   6.749  1.00  0.00     0.010 C 
ATOM      8  C   UNL     1       1.327  -0.460   7.432  1.00  0.00     0.025 C 
BRANCH   8   9
ATOM      9  C   UNL     1       0.318   0.602   7.282  1.00  0.00     0.064 C 
ATOM     10  O   UNL     1       0.448   1.712   7.863  1.00  0.00    -0.545 OA
ATOM     11  O   UNL     1      -0.798   0.376   6.487  1.00  0.00    -0.545 OA
ENDBRANCH   8   9
ENDBRANCH   1   7
BRANCH   4  12
ATOM     12  O   UNL     1       7.060  -2.221   6.004  1.00  0.00    -0.504 OA
ATOM     13  H   UNL     1       7.237  -1.833   5.085  1.00  0.00     0.293 HD
ENDBRANCH   4  12
BRANCH   6  14
ATOM     14  O   UNL     1       6.339  -4.614   7.226  1.00  0.00    -0.504 OA
ATOM     15  H   UNL     1       6.151  -5.442   7.777  1.00  0.00     0.293 HD
ENDBRANCH   6  14
TORSDOF 4
ENDMDL
MODEL 3
REMARK VINA RESULT:    -4.136      1.605      6.039
REMARK INTER + INTRA:          -4.987
REMARK INTER:                  -4.864
REMARK INTRA:                  -0.124
REMARK UNBOUND:                -0.127
REMARK SMILES O=C([O-])C=Cc1ccc(O)c(O)c1
REMARK SMILES IDX 6 1 13 2 7 3 11 4 8 5 9 6 5 7 4 8 2 9 1 10 3 11 12 12 10 14
REMARK H PARENT 12 13 10 15
REMARK Flexibility Score: inf
ROOT
ATOM      1  C   UNL     1       2.658  -1.330   7.167  1.00  0.00    -0.022 A 
ATOM      2  C   UNL     1       2.313  -2.564   7.754  1.00  0.00     0.058 A 
ATOM      3  C   UNL     1       3.939  -1.179   6.610  1.00  0.00     0.012 A 
ATOM      4  C   UNL     1       3.225  -3.631   7.758  1.00  0.00     0.157 A 
ATOM      5  C   UNL     1       4.846  -2.242   6.612  1.00  0.00     0.051 A 
ATOM      6  C   UNL     1       4.491  -3.470   7.183  1.00  0.00     0.157 A 
ENDROOT
BRANCH   1   7
ATOM      7  C   UNL     1       1.735  -0.168   7.148  1.00  0.00     0.010 C 
ATOM      8  C   UNL     1       0.738   0.005   8.028  1.00  0.00     0.025 C 
BRANCH   8   9
ATOM      9  C   UNL     1      -0.167   1.165   7.972  1.00  0.00     0.064 C 
ATOM     10  O   UNL     1      -1.145   1.191   7.178  1.00  0.00    -0.545 OA
ATOM     11  O   UNL     1       0.061   2.250   8.808  1.00  0.00    -0.545 OA
ENDBRANCH   8   9
ENDBRANCH   1   7
BRANCH   4  12
ATOM     12  O   UNL     1       2.880  -4.851   8.337  1.00  0.00    -0.504 OA
ATOM     13  H   UNL     1       3.159  -5.732   7.922  1.00  0.00     0.293 HD
ENDBRANCH   4  12
BRANCH   6  14
ATOM     14  O   UNL     1       5.393  -4.534   7.186  1.00  0.00    -0.504 OA
ATOM     15  H   UNL     1       5.984  -4.730   6.388  1.00  0.00     0.293 HD
ENDBRANCH   6  14
TORSDOF 4
ENDMDL
MODEL 4
REMARK VINA RESULT:    -4.096      2.340      5.468
REMARK INTER + INTRA:          -4.941
REMARK INTER:                  -4.815
REMARK INTRA:                  -0.127
REMARK UNBOUND:                -0.127
REMARK SMILES O=C([O-])C=Cc1ccc(O)c(O)c1
REMARK SMILES IDX 6 1 13 2 7 3 11 4 8 5 9 6 5 7 4 8 2 9 1 10 3 11 12 12 10 14
REMARK H PARENT 12 13 10 15
REMARK Flexibility Score: inf
ROOT
ATOM      1  C   UNL     1       2.555  -0.292   6.837  1.00  0.00    -0.022 A 
ATOM      2  C   UNL     1       3.603  -1.026   6.247  1.00  0.00     0.058 A 
ATOM      3  C   UNL     1       1.718  -0.932   7.767  1.00  0.00     0.012 A 
ATOM      4  C   UNL     1       3.822  -2.366   6.601  1.00  0.00     0.157 A 
ATOM      5  C   UNL     1       1.937  -2.266   8.121  1.00  0.00     0.051 A 
ATOM      6  C   UNL     1       2.990  -2.985   7.543  1.00  0.00     0.157 A 
ENDROOT
BRANCH   1   7
ATOM      7  C   UNL     1       2.274   1.123   6.487  1.00  0.00     0.010 C 
ATOM      8  C   UNL     1       2.649   2.165   7.243  1.00  0.00     0.025 C 
BRANCH   8   9
ATOM      9  C   UNL     1       2.342   3.556   6.870  1.00  0.00     0.064 C 
ATOM     10  O   UNL     1       3.132   4.229   6.155  1.00  0.00    -0.545 OA
ATOM     11  O   UNL     1       1.162   4.138   7.315  1.00  0.00    -0.545 OA
ENDBRANCH   8   9
ENDBRANCH   1   7
BRANCH   4  12
ATOM     12  O   UNL     1       4.861  -3.089   6.019  1.00  0.00    -0.504 OA
ATOM     13  H   UNL     1       5.668  -3.386   6.555  1.00  0.00     0.293 HD
ENDBRANCH   4  12
BRANCH   6  14
ATOM     14  O   UNL     1       3.213  -4.316   7.894  1.00  0.00    -0.504 OA
ATOM     15  H   UNL     1       3.005  -5.074   7.256  1.00  0.00     0.293 HD
ENDBRANCH   6  14
TORSDOF 4
ENDMDL
MODEL 5
REMARK VINA RESULT:    -4.096      1.939      2.910
REMARK INTER + INTRA:          -4.941
REMARK INTER:                  -4.795
REMARK INTRA:                  -0.146
REMARK UNBOUND:                -0.127
REMARK SMILES O=C([O-])C=Cc1ccc(O)c(O)c1
REMARK SMILES IDX 6 1 13 2 7 3 11 4 8 5 9 6 5 7 4 8 2 9 1 10 3 11 12 12 10 14
REMARK H PARENT 12 13 10 15
REMARK Flexibility Score: inf
ROOT
ATOM      1  C   UNL     1       1.381  -1.172   8.635  1.00  0.00    -0.022 A 
ATOM      2  C   UNL     1       0.435  -0.541   9.467  1.00  0.00     0.058 A 
ATOM      3  C   UNL     1       1.579  -0.675   7.336  1.00  0.00     0.012 A 
ATOM      4  C   UNL     1      -0.278   0.579   9.014  1.00  0.00     0.157 A 
ATOM      5  C   UNL     1       0.870   0.441   6.885  1.00  0.00     0.051 A 
ATOM      6  C   UNL     1      -0.056   1.073   7.723  1.00  0.00     0.157 A 
ENDROOT
BRANCH   1   7
ATOM      7  C   UNL     1       2.152  -2.366   9.063  1.00  0.00     0.010 C 
ATOM      8  C   UNL     1       2.549  -3.335   8.225  1.00  0.00     0.025 C 
BRANCH   8   9
ATOM      9  C   UNL     1       3.302  -4.513   8.687  1.00  0.00     0.064 C 
ATOM     10  O   UNL     1       4.554  -4.576   8.564  1.00  0.00    -0.545 OA
ATOM     11  O   UNL     1       2.620  -5.574   9.269  1.00  0.00    -0.545 OA
ENDBRANCH   8   9
ENDBRANCH   1   7
BRANCH   4  12
ATOM     12  O   UNL     1      -1.210   1.204   9.841  1.00  0.00    -0.504 OA
ATOM     13  H   UNL     1      -1.645   0.716  10.614  1.00  0.00     0.293 HD
ENDBRANCH   4  12
BRANCH   6  14
ATOM     14  O   UNL     1      -0.765   2.188   7.278  1.00  0.00    -0.504 OA
ATOM     15  H   UNL     1      -1.041   2.928   7.912  1.00  0.00     0.293 HD
ENDBRANCH   6  14
TORSDOF 4
ENDMDL
MODEL 6
REMARK VINA RESULT:    -4.058      2.377      2.918
REMARK INTER + INTRA:          -4.896
REMARK INTER:                  -4.776
REMARK INTRA:                  -0.120
REMARK UNBOUND:                -0.127
REMARK SMILES O=C([O-])C=Cc1ccc(O)c(O)c1
REMARK SMILES IDX 6 1 13 2 7 3 11 4 8 5 9 6 5 7 4 8 2 9 1 10 3 11 12 12 10 14
REMARK H PARENT 12 13 10 15
REMARK Flexibility Score: inf
ROOT
ATOM      1  C   UNL     1       1.429  -1.295   8.734  1.00  0.00    -0.022 A 
ATOM      2  C   UNL     1       1.918  -0.653   7.579  1.00  0.00     0.058 A 
ATOM      3  C   UNL     1       0.362  -0.707   9.435  1.00  0.00     0.012 A 
ATOM      4  C   UNL     1       1.332   0.537   7.122  1.00  0.00     0.157 A 
ATOM      5  C   UNL     1      -0.222   0.477   8.979  1.00  0.00     0.051 A 
ATOM      6  C   UNL     1       0.258   1.100   7.822  1.00  0.00     0.157 A 
ENDROOT
BRANCH   1   7
ATOM      7  C   UNL     1       2.021  -2.548   9.264  1.00  0.00     0.010 C 
ATOM      8  C   UNL     1       2.233  -3.644   8.521  1.00  0.00     0.025 C 
BRANCH   8   9
ATOM      9  C   UNL     1       2.812  -4.875   9.084  1.00  0.00     0.064 C 
ATOM     10  O   UNL     1       2.130  -5.642   9.815  1.00  0.00    -0.545 OA
ATOM     11  O   UNL     1       4.135  -5.196   8.805  1.00  0.00    -0.545 OA
ENDBRANCH   8   9
ENDBRANCH   1   7
BRANCH   4  12
ATOM     12  O   UNL     1       1.816   1.168   5.977  1.00  0.00    -0.504 OA
ATOM     13  H   UNL     1       2.390   0.676   5.303  1.00  0.00     0.293 HD
ENDBRANCH   4  12
BRANCH   6  14
ATOM     14  O   UNL     1      -0.323   2.282   7.363  1.00  0.00    -0.504 OA
ATOM     15  H   UNL     1      -0.933   2.835   7.952  1.00  0.00     0.293 HD
ENDBRANCH   6  14
TORSDOF 4
ENDMDL
MODEL 7
REMARK VINA RESULT:    -4.048      2.417      3.178
REMARK INTER + INTRA:          -4.884
REMARK INTER:                  -4.733
REMARK INTRA:                  -0.151
REMARK UNBOUND:                -0.127
REMARK SMILES O=C([O-])C=Cc1ccc(O)c(O)c1
REMARK SMILES IDX 6 1 13 2 7 3 11 4 8 5 9 6 5 7 4 8 2 9 1 10 3 11 12 12 10 14
REMARK H PARENT 12 13 10 15
REMARK Flexibility Score: inf
ROOT
ATOM      1  C   UNL     1       2.886  -1.565   7.592  1.00  0.00    -0.022 A 
ATOM      2  C   UNL     1       3.076  -0.605   6.578  1.00  0.00     0.058 A 
ATOM      3  C   UNL     1       1.769  -1.446   8.437  1.00  0.00     0.012 A 
ATOM      4  C   UNL     1       2.153   0.436   6.400  1.00  0.00     0.157 A 
ATOM      5  C   UNL     1       0.849  -0.411   8.258  1.00  0.00     0.051 A 
ATOM      6  C   UNL     1       1.036   0.530   7.238  1.00  0.00     0.157 A 
ENDROOT
BRANCH   1   7
ATOM      7  C   UNL     1       3.840  -2.677   7.830  1.00  0.00     0.010 C 
ATOM      8  C   UNL     1       3.523  -3.801   8.488  1.00  0.00     0.025 C 
BRANCH   8   9
ATOM      9  C   UNL     1       4.500  -4.879   8.716  1.00  0.00     0.064 C 
ATOM     10  O   UNL     1       5.614  -4.885   8.128  1.00  0.00    -0.545 OA
ATOM     11  O   UNL     1       4.187  -5.909   9.594  1.00  0.00    -0.545 OA
ENDBRANCH   8   9
ENDBRANCH   1   7
BRANCH   4  12
ATOM     12  O   UNL     1       2.342   1.382   5.394  1.00  0.00    -0.504 OA
ATOM     13  H   UNL     1       1.893   1.293   4.490  1.00  0.00     0.293 HD
ENDBRANCH   4  12
BRANCH   6  14
ATOM     14  O   UNL     1       0.118   1.565   7.055  1.00  0.00    -0.504 OA
ATOM     15  H   UNL     1      -0.016   1.999   6.151  1.00  0.00     0.293 HD
ENDBRANCH   6  14
TORSDOF 4
ENDMDL
MODEL 8
REMARK VINA RESULT:    -3.974      7.837      8.718
REMARK INTER + INTRA:          -4.798
REMARK INTER:                  -4.677
REMARK INTRA:                  -0.121
REMARK UNBOUND:                -0.127
REMARK SMILES O=C([O-])C=Cc1ccc(O)c(O)c1
REMARK SMILES IDX 6 1 13 2 7 3 11 4 8 5 9 6 5 7 4 8 2 9 1 10 3 11 12 12 10 14
REMARK H PARENT 12 13 10 15
REMARK Flexibility Score: inf
ROOT
ATOM      1  C   UNL     1       4.295   6.730   6.671  1.00  0.00    -0.022 A 
ATOM      2  C   UNL     1       3.102   7.159   7.287  1.00  0.00     0.058 A 
ATOM      3  C   UNL     1       4.231   5.715   5.703  1.00  0.00     0.012 A 
ATOM      4  C   UNL     1       1.869   6.598   6.920  1.00  0.00     0.157 A 
ATOM      5  C   UNL     1       3.003   5.158   5.336  1.00  0.00     0.051 A 
ATOM      6  C   UNL     1       1.820   5.600   5.940  1.00  0.00     0.157 A 
ENDROOT
BRANCH   1   7
ATOM      7  C   UNL     1       5.624   7.283   7.033  1.00  0.00     0.010 C 
ATOM      8  C   UNL     1       5.997   8.547   6.789  1.00  0.00     0.025 C 
BRANCH   8   9
ATOM      9  C   UNL     1       7.329   9.058   7.151  1.00  0.00     0.064 C 
ATOM     10  O   UNL     1       7.692   9.137   8.355  1.00  0.00    -0.545 OA
ATOM     11  O   UNL     1       8.202   9.461   6.148  1.00  0.00    -0.545 OA
ENDBRANCH   8   9
ENDBRANCH   1   7
BRANCH   4  12
ATOM     12  O   UNL     1       0.690   7.027   7.528  1.00  0.00    -0.504 OA
ATOM     13  H   UNL     1      -0.216   6.851   7.111  1.00  0.00     0.293 HD
ENDBRANCH   4  12
BRANCH   6  14
ATOM     14  O   UNL     1       0.593   5.047   5.576  1.00  0.00    -0.504 OA
ATOM     15  H   UNL     1      -0.133   5.606   5.145  1.00  0.00     0.293 HD
ENDBRANCH   6  14
TORSDOF 4
ENDMDL
MODEL 9
REMARK VINA RESULT:    -3.943      1.618      2.373
REMARK INTER + INTRA:          -4.761
REMARK INTER:                  -4.639
REMARK INTRA:                  -0.122
REMARK UNBOUND:                -0.127
REMARK SMILES O=C([O-])C=Cc1ccc(O)c(O)c1
REMARK SMILES IDX 6 1 13 2 7 3 11 4 8 5 9 6 5 7 4 8 2 9 1 10 3 11 12 12 10 14
REMARK H PARENT 12 13 10 15
REMARK Flexibility Score: inf
ROOT
ATOM      1  C   UNL     1       2.034   0.531   7.077  1.00  0.00    -0.022 A 
ATOM      2  C   UNL     1       0.659   0.449   7.376  1.00  0.00     0.058 A 
ATOM      3  C   UNL     1       2.667   1.784   7.139  1.00  0.00     0.012 A 
ATOM      4  C   UNL     1      -0.058   1.594   7.754  1.00  0.00     0.157 A 
ATOM      5  C   UNL     1       1.954   2.924   7.517  1.00  0.00     0.051 A 
ATOM      6  C   UNL     1       0.592   2.832   7.829  1.00  0.00     0.157 A 
ENDROOT
BRANCH   1   7
ATOM      7  C   UNL     1       2.833  -0.648   6.660  1.00  0.00     0.010 C 
ATOM      8  C   UNL     1       2.849  -1.810   7.328  1.00  0.00     0.025 C 
BRANCH   8   9
ATOM      9  C   UNL     1       3.664  -2.956   6.892  1.00  0.00     0.064 C 
ATOM     10  O   UNL     1       3.821  -3.218   5.669  1.00  0.00    -0.545 OA
ATOM     11  O   UNL     1       4.271  -3.764   7.845  1.00  0.00    -0.545 OA
ENDBRANCH   8   9
ENDBRANCH   1   7
BRANCH   4  12
ATOM     12  O   UNL     1      -1.416   1.509   8.053  1.00  0.00    -0.504 OA
ATOM     13  H   UNL     1      -1.981   0.730   7.739  1.00  0.00     0.293 HD
ENDBRANCH   4  12
BRANCH   6  14
ATOM     14  O   UNL     1      -0.123   3.967   8.208  1.00  0.00    -0.504 OA
ATOM     15  H   UNL     1       0.266   4.649   8.847  1.00  0.00     0.293 HD
ENDBRANCH   6  14
TORSDOF 4
ENDMDL
