MODEL 1
REMARK VINA RESULT:    22.167      0.000      0.000
REMARK INTER + INTRA:          34.300
REMARK INTER:                  32.534
REMARK INTRA:                   1.766
REMARK UNBOUND:                 1.766
REMARK SMILES O=c1c(O[C@H]2O[C@@H](CO)[C@H](O)[C@@H](O)[C@@H]2O)c(-c2ccc(O)c(O)c2)oc2cc(O)cc(O)c12
REMARK SMILES IDX 4 1 3 2 16 3 25 4 2 5 26 6 1 7 33 8 27 9 31 10 28 11 30 12
REMARK SMILES IDX 17 13 18 14 19 15 20 16 24 17 22 18 21 19 23 21 32 23 29 25
REMARK SMILES IDX 5 27 14 28 6 29 12 30 7 31 10 32 15 33 13 35 8 37 9 38 11 40
REMARK H PARENT 21 20 23 22 32 24 29 26 15 34 13 36 9 39 11 41
REMARK Flexibility Score: inf
ROOT
ATOM      1  O   UNL     1     -33.592 -21.924 -35.982  1.00  0.00    -0.454 OA
ENDROOT
BRANCH   1   2
ATOM      2  C   UNL     1     -32.849 -22.369 -34.877  1.00  0.00     0.214 A 
ATOM      3  C   UNL     1     -32.229 -23.638 -34.835  1.00  0.00     0.180 A 
ATOM      4  O   UNL     1     -31.471 -23.972 -33.796  1.00  0.00    -0.452 OA
ATOM      5  C   UNL     1     -32.726 -21.529 -33.765  1.00  0.00     0.239 A 
ATOM      6  C   UNL     1     -31.294 -23.184 -32.741  1.00  0.00     0.146 A 
ATOM      7  O   UNL     1     -33.328 -20.422 -33.764  1.00  0.00    -0.285 OA
ATOM      8  C   UNL     1     -31.928 -21.923 -32.673  1.00  0.00     0.111 A 
ATOM      9  C   UNL     1     -30.493 -23.629 -31.685  1.00  0.00     0.094 A 
ATOM     10  C   UNL     1     -31.746 -21.121 -31.520  1.00  0.00     0.134 A 
ATOM     11  C   UNL     1     -30.314 -22.831 -30.550  1.00  0.00     0.123 A 
ATOM     12  C   UNL     1     -30.937 -21.584 -30.472  1.00  0.00     0.093 A 
BRANCH   3  13
ATOM     13  C   UNL     1     -32.432 -24.648 -35.890  1.00  0.00     0.025 A 
ATOM     14  C   UNL     1     -33.728 -25.067 -36.218  1.00  0.00     0.016 A 
ATOM     15  C   UNL     1     -33.924 -26.048 -37.193  1.00  0.00     0.051 A 
ATOM     16  C   UNL     1     -32.832 -26.582 -37.885  1.00  0.00     0.157 A 
ATOM     17  C   UNL     1     -31.336 -25.180 -36.587  1.00  0.00     0.062 A 
ATOM     18  C   UNL     1     -31.532 -26.140 -37.590  1.00  0.00     0.158 A 
BRANCH  16  19
ATOM     19  O   UNL     1     -33.058 -27.537 -38.877  1.00  0.00    -0.504 OA
ATOM     20  H   UNL     1     -32.300 -28.032 -39.331  1.00  0.00     0.293 HD
ENDBRANCH  16  19
BRANCH  18  21
ATOM     21  O   UNL     1     -30.440 -26.661 -38.285  1.00  0.00    -0.504 OA
ATOM     22  H   UNL     1     -30.015 -27.542 -38.023  1.00  0.00     0.293 HD
ENDBRANCH  18  21
ENDBRANCH   3  13
BRANCH  10  23
ATOM     23  O   UNL     1     -32.365 -19.875 -31.406  1.00  0.00    -0.507 OA
ATOM     24  H   UNL     1     -32.076 -19.081 -31.968  1.00  0.00     0.293 HD
ENDBRANCH  10  23
BRANCH  11  25
ATOM     25  O   UNL     1     -29.528 -23.273 -29.489  1.00  0.00    -0.508 OA
ATOM     26  H   UNL     1     -28.607 -22.886 -29.311  1.00  0.00     0.293 HD
ENDBRANCH  11  25
ENDBRANCH   1   2
BRANCH   1  27
ATOM     27  C   UNL     1     -33.169 -20.897 -36.890  1.00  0.00     0.339 C 
ATOM     28  C   UNL     1     -33.723 -21.124 -38.315  1.00  0.00     0.214 C 
ATOM     29  O   UNL     1     -31.753 -20.795 -36.854  1.00  0.00    -0.332 OA
ATOM     30  C   UNL     1     -33.145 -22.408 -38.952  1.00  0.00     0.180 C 
ATOM     31  C   UNL     1     -31.051 -21.669 -37.739  1.00  0.00     0.179 C 
ATOM     32  C   UNL     1     -31.872 -22.889 -38.229  1.00  0.00     0.177 C 
BRANCH  28  33
ATOM     33  O   UNL     1     -33.385 -20.017 -39.116  1.00  0.00    -0.384 OA
ATOM     34  H   UNL     1     -33.886 -20.112 -39.969  1.00  0.00     0.211 HD
ENDBRANCH  28  33
BRANCH  30  35
ATOM     35  O   UNL     1     -34.116 -23.424 -38.927  1.00  0.00    -0.387 OA
ATOM     36  H   UNL     1     -34.451 -23.528 -39.855  1.00  0.00     0.211 HD
ENDBRANCH  30  35
BRANCH  31  37
ATOM     37  C   UNL     1     -29.760 -22.131 -37.041  1.00  0.00     0.191 C 
BRANCH  37  38
ATOM     38  O   UNL     1     -29.973 -22.280 -35.662  1.00  0.00    -0.394 OA
ATOM     39  H   UNL     1     -29.221 -22.822 -35.310  1.00  0.00     0.210 HD
ENDBRANCH  37  38
ENDBRANCH  31  37
BRANCH  32  40
ATOM     40  O   UNL     1     -31.105 -23.660 -39.124  1.00  0.00    -0.387 OA
ATOM     41  H   UNL     1     -30.286 -23.140 -39.341  1.00  0.00     0.211 HD
ENDBRANCH  32  40
ENDBRANCH   1  27
TORSDOF 12
ENDMDL
